# generated using pymatgen
data_TlP(HO2)2
_symmetry_space_group_name_H-M   'P 1'
_cell_length_a   9.14204455
_cell_length_b   15.11691936
_cell_length_c   6.62922483
_cell_angle_alpha   90.00000000
_cell_angle_beta   90.00000000
_cell_angle_gamma   106.88541435
_symmetry_Int_Tables_number   1
_chemical_formula_structural   TlP(HO2)2
_chemical_formula_sum   'Tl8 P8 H16 O32'
_cell_volume   876.65817094
_cell_formula_units_Z   8
loop_
 _symmetry_equiv_pos_site_id
 _symmetry_equiv_pos_as_xyz
  1  'x, y, z'
loop_
 _atom_site_type_symbol
 _atom_site_label
 _atom_site_symmetry_multiplicity
 _atom_site_fract_x
 _atom_site_fract_y
 _atom_site_fract_z
 _atom_site_occupancy
  Tl  Tl0  1  0.060470  0.618663  0.272223  1
  Tl  Tl1  1  0.939530  0.881337  0.772223  1
  Tl  Tl2  1  0.939530  0.381337  0.727777  1
  Tl  Tl3  1  0.060470  0.118663  0.227777  1
  Tl  Tl4  1  0.563294  0.636407  0.222615  1
  Tl  Tl5  1  0.436706  0.863593  0.722615  1
  Tl  Tl6  1  0.436706  0.363593  0.777385  1
  Tl  Tl7  1  0.563294  0.136407  0.277385  1
  P  P8  1  0.178939  0.874550  0.255388  1
  P  P9  1  0.821061  0.625450  0.755388  1
  P  P10  1  0.821061  0.125450  0.744612  1
  P  P11  1  0.178939  0.374550  0.244612  1
  P  P12  1  0.681373  0.874958  0.246815  1
  P  P13  1  0.318626  0.625042  0.746815  1
  P  P14  1  0.318626  0.125042  0.753185  1
  P  P15  1  0.681373  0.374958  0.253185  1
  H  H16  1  0.724225  0.991531  0.020673  1
  H  H17  1  0.275775  0.508469  0.520673  1
  H  H18  1  0.275775  0.008469  0.979327  1
  H  H19  1  0.724225  0.491531  0.479327  1
  H  H20  1  0.762641  0.992998  0.473177  1
  H  H21  1  0.237359  0.507002  0.973177  1
  H  H22  1  0.237359  0.007002  0.526823  1
  H  H23  1  0.762641  0.492998  0.026823  1
  H  H24  1  0.376461  0.815218  0.237343  1
  H  H25  1  0.623539  0.684782  0.737343  1
  H  H26  1  0.623539  0.184782  0.762657  1
  H  H27  1  0.376461  0.315218  0.262657  1
  H  H28  1  0.923710  0.812820  0.248854  1
  H  H29  1  0.076290  0.687180  0.748854  1
  H  H30  1  0.076290  0.187180  0.751146  1
  H  H31  1  0.923710  0.312820  0.251146  1
  O  O32  1  0.261260  0.923868  0.442724  1
  O  O33  1  0.738740  0.576132  0.942724  1
  O  O34  1  0.738740  0.076132  0.557276  1
  O  O35  1  0.261260  0.423868  0.057276  1
  O  O36  1  0.019347  0.804170  0.318818  1
  O  O37  1  0.980653  0.695830  0.818818  1
  O  O38  1  0.980653  0.195830  0.681182  1
  O  O39  1  0.019347  0.304170  0.181182  1
  O  O40  1  0.150653  0.938195  0.089947  1
  O  O41  1  0.849347  0.561805  0.589947  1
  O  O42  1  0.849347  0.061805  0.910053  1
  O  O43  1  0.150653  0.438195  0.410053  1
  O  O44  1  0.272444  0.808932  0.169541  1
  O  O45  1  0.727556  0.691068  0.669540  1
  O  O46  1  0.727556  0.191068  0.830460  1
  O  O47  1  0.272444  0.308932  0.330460  1
  O  O48  1  0.791251  0.936104  0.411714  1
  O  O49  1  0.208749  0.563896  0.911713  1
  O  O50  1  0.208749  0.063896  0.588287  1
  O  O51  1  0.791251  0.436104  0.088287  1
  O  O52  1  0.530154  0.816456  0.338438  1
  O  O53  1  0.469846  0.683544  0.838438  1
  O  O54  1  0.469846  0.183544  0.661562  1
  O  O55  1  0.530154  0.316456  0.161562  1
  O  O56  1  0.636102  0.944112  0.095415  1
  O  O57  1  0.363898  0.555888  0.595415  1
  O  O58  1  0.363898  0.055888  0.904585  1
  O  O59  1  0.636102  0.444112  0.404585  1
  O  O60  1  0.774389  0.818116  0.144446  1
  O  O61  1  0.225611  0.681884  0.644446  1
  O  O62  1  0.225611  0.181884  0.855554  1
  O  O63  1  0.774389  0.318116  0.355554  1
