# generated using pymatgen
data_VP2C4N3(ClF6)2
_symmetry_space_group_name_H-M   'P 1'
_cell_length_a   8.54639932
_cell_length_b   8.58452524
_cell_length_c   13.92170990
_cell_angle_alpha   78.21029006
_cell_angle_beta   72.12477956
_cell_angle_gamma   60.14680719
_symmetry_Int_Tables_number   1
_chemical_formula_structural   VP2C4N3(ClF6)2
_chemical_formula_sum   'V2 P4 C8 N6 Cl4 F24'
_cell_volume   841.44908176
_cell_formula_units_Z   2
loop_
 _symmetry_equiv_pos_site_id
 _symmetry_equiv_pos_as_xyz
  1  'x, y, z'
loop_
 _atom_site_type_symbol
 _atom_site_label
 _atom_site_symmetry_multiplicity
 _atom_site_fract_x
 _atom_site_fract_y
 _atom_site_fract_z
 _atom_site_occupancy
  V  V0  1  0.059915  0.750000  0.750000  1
  V  V1  1  0.940085  0.250000  0.250000  1
  P  P2  1  0.275201  0.930938  0.769102  1
  P  P3  1  0.524758  0.430938  0.269102  1
  P  P4  1  0.724799  0.069062  0.230898  1
  P  P5  1  0.475242  0.569062  0.730898  1
  C  C6  1  0.658630  0.479871  0.609012  1
  C  C7  1  0.341370  0.520129  0.390988  1
  C  C8  1  0.701636  0.890198  0.332067  1
  C  C9  1  0.576099  0.390198  0.832067  1
  C  C10  1  0.298364  0.109802  0.667933  1
  C  C11  1  0.247513  0.020129  0.890988  1
  C  C12  1  0.423901  0.609802  0.167933  1
  C  C13  1  0.752487  0.979871  0.109012  1
  N  N14  1  0.712118  0.427598  0.273629  1
  N  N15  1  0.086656  0.927598  0.773629  1
  N  N16  1  0.913344  0.072402  0.226371  1
  N  N17  1  0.467428  0.750000  0.750000  1
  N  N18  1  0.287882  0.572402  0.726371  1
  N  N19  1  0.532572  0.250000  0.250000  1
  Cl  Cl20  1  0.052239  0.179142  0.382265  1
  Cl  Cl21  1  0.886355  0.679142  0.882265  1
  Cl  Cl22  1  0.947761  0.820858  0.617735  1
  Cl  Cl23  1  0.113645  0.320858  0.117735  1
  F  F24  1  0.458938  0.114570  0.656737  1
  F  F25  1  0.089656  0.177541  0.910457  1
  F  F26  1  0.269754  0.614570  0.156737  1
  F  F27  1  0.445998  0.430710  0.921305  1
  F  F28  1  0.604802  0.602695  0.531543  1
  F  F29  1  0.393745  0.046115  0.886123  1
  F  F30  1  0.677654  0.322459  0.589543  1
  F  F31  1  0.845699  0.724828  0.309238  1
  F  F32  1  0.606255  0.953885  0.113877  1
  F  F33  1  0.174017  0.546115  0.386123  1
  F  F34  1  0.322346  0.677541  0.410457  1
  F  F35  1  0.910344  0.822459  0.089543  1
  F  F36  1  0.395198  0.397305  0.468457  1
  F  F37  1  0.541062  0.885430  0.343263  1
  F  F38  1  0.825983  0.453885  0.613877  1
  F  F39  1  0.239039  0.897305  0.968457  1
  F  F40  1  0.379765  0.775172  0.190762  1
  F  F41  1  0.730246  0.385430  0.843263  1
  F  F42  1  0.298013  0.069290  0.578695  1
  F  F43  1  0.620235  0.224828  0.809238  1
  F  F44  1  0.154301  0.275172  0.690762  1
  F  F45  1  0.760961  0.102695  0.031543  1
  F  F46  1  0.701987  0.930710  0.421305  1
  F  F47  1  0.554002  0.569290  0.078695  1
