# generated using pymatgen
data_H4SO5
_symmetry_space_group_name_H-M   'P 1'
_cell_length_a   7.06018318
_cell_length_b   7.18464607
_cell_length_c   8.69644644
_cell_angle_alpha   90.00000000
_cell_angle_beta   104.48405018
_cell_angle_gamma   90.00000000
_symmetry_Int_Tables_number   1
_chemical_formula_structural   H4SO5
_chemical_formula_sum   'H16 S4 O20'
_cell_volume   427.10633600
_cell_formula_units_Z   4
loop_
 _symmetry_equiv_pos_site_id
 _symmetry_equiv_pos_as_xyz
  1  'x, y, z'
loop_
 _atom_site_type_symbol
 _atom_site_label
 _atom_site_symmetry_multiplicity
 _atom_site_fract_x
 _atom_site_fract_y
 _atom_site_fract_z
 _atom_site_occupancy
  H  H0  1  0.582649  0.689675  0.099723  1
  H  H1  1  0.582649  0.810325  0.599723  1
  H  H2  1  0.017148  0.666128  0.044536  1
  H  H3  1  0.017148  0.833872  0.544536  1
  H  H4  1  0.630290  0.287676  0.701981  1
  H  H5  1  0.806880  0.396410  0.849718  1
  H  H6  1  0.644693  0.263798  0.901719  1
  H  H7  1  0.272839  0.565418  0.662080  1
  H  H8  1  0.251713  0.935775  0.612040  1
  H  H9  1  0.186079  0.871179  0.756591  1
  H  H10  1  0.186079  0.628821  0.256591  1
  H  H11  1  0.272839  0.934582  0.162080  1
  H  H12  1  0.251713  0.564225  0.112040  1
  H  H13  1  0.806880  0.103590  0.349718  1
  H  H14  1  0.630290  0.212324  0.201981  1
  H  H15  1  0.644693  0.236202  0.401719  1
  S  S16  1  0.301562  0.321919  0.522092  1
  S  S17  1  0.733597  0.810928  0.944154  1
  S  S18  1  0.733597  0.689072  0.444154  1
  S  S19  1  0.301562  0.178081  0.022092  1
  O  O20  1  0.237638  0.051448  0.890248  1
  O  O21  1  0.818486  0.554033  0.562681  1
  O  O22  1  0.818486  0.945967  0.062681  1
  O  O23  1  0.237638  0.448552  0.390248  1
  O  O24  1  0.296229  0.430040  0.681258  1
  O  O25  1  0.665814  0.870786  0.780315  1
  O  O26  1  0.665814  0.629214  0.280315  1
  O  O27  1  0.296229  0.069960  0.181258  1
  O  O28  1  0.515230  0.271681  0.547313  1
  O  O29  1  0.547489  0.720611  0.982400  1
  O  O30  1  0.547489  0.779389  0.482400  1
  O  O31  1  0.515230  0.228319  0.047313  1
  O  O32  1  0.184191  0.156041  0.519855  1
  O  O33  1  0.877565  0.646623  0.950494  1
  O  O34  1  0.877565  0.853377  0.450494  1
  O  O35  1  0.184191  0.343959  0.019855  1
  O  O36  1  0.723963  0.284404  0.821821  1
  O  O37  1  0.192344  0.824290  0.650166  1
  O  O38  1  0.192344  0.675710  0.150166  1
  O  O39  1  0.723963  0.215596  0.321821  1
