# generated using pymatgen
data_Fe(CuS)2
_symmetry_space_group_name_H-M   'P 1'
_cell_length_a   7.63726544
_cell_length_b   7.63988792
_cell_length_c   7.62669875
_cell_angle_alpha   60.06986180
_cell_angle_beta   60.05894125
_cell_angle_gamma   60.10904822
_symmetry_Int_Tables_number   1
_chemical_formula_structural   Fe(CuS)2
_chemical_formula_sum   'Fe4 Cu8 S8'
_cell_volume   315.22878172
_cell_formula_units_Z   4
loop_
 _symmetry_equiv_pos_site_id
 _symmetry_equiv_pos_as_xyz
  1  'x, y, z'
loop_
 _atom_site_type_symbol
 _atom_site_label
 _atom_site_symmetry_multiplicity
 _atom_site_fract_x
 _atom_site_fract_y
 _atom_site_fract_z
 _atom_site_occupancy
  Fe  Fe0  1  0.625800  0.625831  0.122371  1
  Fe  Fe1  1  0.122481  0.625736  0.625872  1
  Fe  Fe2  1  0.625718  0.122568  0.625838  1
  Fe  Fe3  1  0.625784  0.625792  0.625953  1
  Cu  Cu4  1  0.888831  0.370076  0.370571  1
  Cu  Cu5  1  0.119803  0.119903  0.640543  1
  Cu  Cu6  1  0.370166  0.888886  0.370486  1
  Cu  Cu7  1  0.370449  0.370215  0.888690  1
  Cu  Cu8  1  0.370421  0.370181  0.370672  1
  Cu  Cu9  1  0.640770  0.119726  0.119772  1
  Cu  Cu10  1  0.119682  0.640847  0.119762  1
  Cu  Cu11  1  0.119764  0.119849  0.119778  1
  S  S12  1  0.506353  0.506429  0.993503  1
  S  S13  1  0.993322  0.506372  0.506077  1
  S  S14  1  0.994011  0.994018  0.505965  1
  S  S15  1  0.506264  0.993488  0.994154  1
  S  S16  1  0.500385  0.500414  0.499703  1
  S  S17  1  0.993545  0.506246  0.994210  1
  S  S18  1  0.000064  0.000148  0.999903  1
  S  S19  1  0.506388  0.993274  0.506177  1
