# generated using pymatgen
data_Ca(Bi2O3)2
_symmetry_space_group_name_H-M   'P 1'
_cell_length_a   10.10089343
_cell_length_b   50.32423933
_cell_length_c   19.74698944
_cell_angle_alpha   11.19032080
_cell_angle_beta   19.28621260
_cell_angle_gamma   22.19017554
_symmetry_Int_Tables_number   1
_chemical_formula_structural   Ca(Bi2O3)2
_chemical_formula_sum   'Ca3 Bi12 O18'
_cell_volume   643.40596566
_cell_formula_units_Z   3
loop_
 _symmetry_equiv_pos_site_id
 _symmetry_equiv_pos_as_xyz
  1  'x, y, z'
loop_
 _atom_site_type_symbol
 _atom_site_label
 _atom_site_symmetry_multiplicity
 _atom_site_fract_x
 _atom_site_fract_y
 _atom_site_fract_z
 _atom_site_occupancy
  Ca  Ca0  1  0.035714  0.007281  0.966462  1
  Ca  Ca1  1  0.027571  0.200000  0.999778  1
  Ca  Ca2  1  0.035714  0.392719  0.002867  1
  Bi  Bi3  1  0.192716  0.200000  0.243950  1
  Bi  Bi4  1  0.804466  0.980005  0.814991  1
  Bi  Bi5  1  0.206921  0.402418  0.225805  1
  Bi  Bi6  1  0.771123  0.200000  0.771604  1
  Bi  Bi7  1  0.263703  0.603161  0.199065  1
  Bi  Bi8  1  0.018788  0.576047  0.057614  1
  Bi  Bi9  1  0.804466  0.419995  0.715014  1
  Bi  Bi10  1  0.263703  0.796839  0.214868  1
  Bi  Bi11  1  0.018788  0.823953  0.937847  1
  Bi  Bi12  1  0.717247  0.571431  0.880494  1
  Bi  Bi13  1  0.206921  0.997582  0.237895  1
  Bi  Bi14  1  0.717247  0.828569  0.737648  1
  O  O15  1  0.116611  0.200000  0.090822  1
  O  O16  1  0.327580  0.200000  0.281496  1
  O  O17  1  0.718387  0.994991  0.709519  1
  O  O18  1  0.498943  0.200000  0.597301  1
  O  O19  1  0.226647  0.407655  0.311757  1
  O  O20  1  0.742620  0.200000  0.677583  1
  O  O21  1  0.521867  0.393038  0.578763  1
  O  O22  1  0.349665  0.583174  0.312087  1
  O  O23  1  0.718387  0.405009  0.684472  1
  O  O24  1  0.433048  0.623211  0.381331  1
  O  O25  1  0.613720  0.585856  0.571715  1
  O  O26  1  0.349665  0.816826  0.227958  1
  O  O27  1  0.648743  0.542684  0.879255  1
  O  O28  1  0.433048  0.776789  0.497385  1
  O  O29  1  0.613720  0.814144  0.500994  1
  O  O30  1  0.226647  0.992345  0.350031  1
  O  O31  1  0.648743  0.857316  0.592675  1
  O  O32  1  0.521867  0.006962  0.543954  1
