# generated using pymatgen
data_BaAl2(SiO4)2
_symmetry_space_group_name_H-M   'P 1'
_cell_length_a   8.67280575
_cell_length_b   9.20844981
_cell_length_c   9.71528743
_cell_angle_alpha   90.00000000
_cell_angle_beta   90.00000000
_cell_angle_gamma   90.16208423
_symmetry_Int_Tables_number   1
_chemical_formula_structural   BaAl2(SiO4)2
_chemical_formula_sum   'Ba4 Al8 Si8 O32'
_cell_volume   775.88983249
_cell_formula_units_Z   4
loop_
 _symmetry_equiv_pos_site_id
 _symmetry_equiv_pos_as_xyz
  1  'x, y, z'
loop_
 _atom_site_type_symbol
 _atom_site_label
 _atom_site_symmetry_multiplicity
 _atom_site_fract_x
 _atom_site_fract_y
 _atom_site_fract_z
 _atom_site_occupancy
  O  O0  1  0.740801  0.791474  0.589029  1
  O  O1  1  0.259199  0.708526  0.089029  1
  O  O2  1  0.259199  0.208526  0.410971  1
  O  O3  1  0.740801  0.291474  0.910971  1
  O  O4  1  0.764615  0.522067  0.333465  1
  O  O5  1  0.235385  0.977933  0.833465  1
  O  O6  1  0.235385  0.477933  0.666535  1
  O  O7  1  0.764615  0.022067  0.166535  1
  O  O8  1  0.450418  0.410570  0.313603  1
  O  O9  1  0.549582  0.089430  0.813603  1
  O  O10  1  0.549582  0.589430  0.686397  1
  O  O11  1  0.450418  0.910570  0.186397  1
  O  O12  1  0.058570  0.430796  0.313424  1
  O  O13  1  0.941430  0.069204  0.813424  1
  O  O14  1  0.941430  0.569204  0.686576  1
  O  O15  1  0.058570  0.930796  0.186576  1
  O  O16  1  0.544900  0.633479  0.137306  1
  O  O17  1  0.455100  0.866521  0.637306  1
  O  O18  1  0.455100  0.366521  0.862694  1
  O  O19  1  0.544900  0.133479  0.362694  1
  O  O20  1  0.999914  0.194792  0.088549  1
  O  O21  1  0.000086  0.305208  0.588549  1
  O  O22  1  0.000086  0.805208  0.911451  1
  O  O23  1  0.999914  0.694792  0.411451  1
  O  O24  1  0.502724  0.193024  0.071146  1
  O  O25  1  0.497276  0.306976  0.571146  1
  O  O26  1  0.497276  0.806976  0.928854  1
  O  O27  1  0.502724  0.693024  0.428854  1
  O  O28  1  0.956780  0.130273  0.358549  1
  O  O29  1  0.043220  0.369727  0.858549  1
  O  O30  1  0.043220  0.869727  0.641451  1
  O  O31  1  0.956780  0.630273  0.141451  1
  Al  Al32  1  0.930463  0.722268  0.579771  1
  Al  Al33  1  0.069537  0.777732  0.079771  1
  Al  Al34  1  0.069537  0.277732  0.420229  1
  Al  Al35  1  0.930463  0.222268  0.920229  1
  Al  Al36  1  0.571913  0.565154  0.306927  1
  Al  Al37  1  0.428087  0.934846  0.806927  1
  Al  Al38  1  0.428087  0.434846  0.693073  1
  Al  Al39  1  0.571913  0.065154  0.193073  1
  Si  Si40  1  0.562650  0.730069  0.584563  1
  Si  Si41  1  0.437350  0.769931  0.084563  1
  Si  Si42  1  0.437350  0.269931  0.415437  1
  Si  Si43  1  0.562650  0.230069  0.915437  1
  Si  Si44  1  0.940832  0.569718  0.301152  1
  Si  Si45  1  0.059168  0.930282  0.801152  1
  Si  Si46  1  0.059168  0.430282  0.698848  1
  Si  Si47  1  0.940832  0.069718  0.198848  1
  Ba  Ba48  1  0.250696  0.398545  0.087090  1
  Ba  Ba49  1  0.749304  0.101455  0.587090  1
  Ba  Ba50  1  0.749304  0.601455  0.912910  1
  Ba  Ba51  1  0.250696  0.898545  0.412910  1
