# generated using pymatgen
data_Rb2Ti(GeO3)3
_symmetry_space_group_name_H-M   'P 1'
_cell_length_a   12.28866800
_cell_length_b   12.28834949
_cell_length_c   10.71009391
_cell_angle_alpha   89.99888690
_cell_angle_beta   90.00218857
_cell_angle_gamma   119.99903786
_symmetry_Int_Tables_number   1
_chemical_formula_structural   Rb2Ti(GeO3)3
_chemical_formula_sum   'Rb12 Ti6 Ge18 O54'
_cell_volume   1400.63987619
_cell_formula_units_Z   6
loop_
 _symmetry_equiv_pos_site_id
 _symmetry_equiv_pos_as_xyz
  1  'x, y, z'
loop_
 _atom_site_type_symbol
 _atom_site_label
 _atom_site_symmetry_multiplicity
 _atom_site_fract_x
 _atom_site_fract_y
 _atom_site_fract_z
 _atom_site_occupancy
  Rb  Rb0  1  0.640901  0.645741  0.476392  1
  Rb  Rb1  1  0.645652  0.640858  0.023686  1
  Rb  Rb2  1  0.995151  0.640979  0.523550  1
  Rb  Rb3  1  0.359102  0.004778  0.023673  1
  Rb  Rb4  1  0.354244  0.995158  0.476392  1
  Rb  Rb5  1  0.004848  0.359171  0.476356  1
  Rb  Rb6  1  0.645745  0.004825  0.523581  1
  Rb  Rb7  1  0.004800  0.645811  0.976408  1
  Rb  Rb8  1  0.640947  0.995229  0.976361  1
  Rb  Rb9  1  0.354236  0.359022  0.976392  1
  Rb  Rb10  1  0.995215  0.354418  0.023718  1
  Rb  Rb11  1  0.359092  0.354268  0.523595  1
  Ti  Ti12  1  0.333327  0.666662  0.997195  1
  Ti  Ti13  1  0.999994  -0.000000  0.500010  1
  Ti  Ti14  1  0.666685  0.333327  0.502834  1
  Ti  Ti15  1  0.333345  0.666672  0.497176  1
  Ti  Ti16  1  0.666653  0.333311  0.002789  1
  Ti  Ti17  1  -0.000000  0.000005  0.999976  1
  Ge  Ge18  1  0.832755  0.285646  0.757445  1
  Ge  Ge19  1  0.547092  0.832734  0.242602  1
  Ge  Ge20  1  0.832738  0.547079  0.257603  1
  Ge  Ge21  1  0.285658  0.832739  0.742324  1
  Ge  Ge22  1  0.714370  0.167269  0.257611  1
  Ge  Ge23  1  0.167267  0.452923  0.742330  1
  Ge  Ge24  1  0.177135  0.177086  0.749755  1
  Ge  Ge25  1  0.452917  0.285645  0.257617  1
  Ge  Ge26  1  0.452893  0.167245  0.757440  1
  Ge  Ge27  1  0.714350  0.547088  0.757444  1
  Ge  Ge28  1  0.285643  0.452904  0.242611  1
  Ge  Ge29  1  0.177060  -0.000054  0.250238  1
  Ge  Ge30  1  0.000051  0.177108  0.250231  1
  Ge  Ge31  1  0.822894  0.822924  0.250233  1
  Ge  Ge32  1  0.167254  0.714345  0.242615  1
  Ge  Ge33  1  -0.000048  0.822857  0.749760  1
  Ge  Ge34  1  0.822907  0.000038  0.749753  1
  Ge  Ge35  1  0.547092  0.714342  0.742335  1
  O  O36  1  0.617504  0.617502  0.749923  1
  O  O37  1  0.206030  0.872769  0.208413  1
  O  O38  1  0.054795  0.907210  0.888991  1
  O  O39  1  0.205947  0.333231  0.708221  1
  O  O40  1  0.652749  0.199209  0.391410  1
  O  O41  1  0.872766  0.666748  0.791604  1
  O  O42  1  0.773573  0.291201  0.610819  1
  O  O43  1  0.999993  0.617497  0.250071  1
  O  O44  1  0.291193  0.773534  0.889204  1
  O  O45  1  0.482321  0.708795  0.889202  1
  O  O46  1  0.000019  0.382496  0.749937  1
  O  O47  1  0.127226  0.333253  0.208407  1
  O  O48  1  0.945223  0.852250  0.611113  1
  O  O49  1  0.517629  0.291192  0.110827  1
  O  O50  1  0.708809  0.226445  0.110815  1
  O  O51  1  0.226466  0.517653  0.889216  1
  O  O52  1  0.666738  0.793950  0.208413  1
  O  O53  1  0.054797  0.147740  0.388871  1
  O  O54  1  0.147742  0.092973  0.611108  1
  O  O55  1  0.546473  0.199199  0.891444  1
  O  O56  1  0.291229  0.517623  0.389149  1
  O  O57  1  0.617567  0.000009  0.250064  1
  O  O58  1  0.652723  0.453497  0.891441  1
  O  O59  1  0.852413  0.945205  0.889003  1
  O  O60  1  0.708801  0.482358  0.610822  1
  O  O61  1  0.482388  0.773629  0.389143  1
  O  O62  1  0.092784  0.147580  0.888988  1
  O  O63  1  0.453481  0.800780  0.108536  1
  O  O64  1  0.907215  0.852414  0.110992  1
  O  O65  1  0.226381  0.708772  0.389156  1
  O  O66  1  0.800768  0.347254  0.891434  1
  O  O67  1  0.793974  0.127225  0.791594  1
  O  O68  1  0.773553  0.482357  0.110817  1
  O  O69  1  0.333226  0.127263  0.291764  1
  O  O70  1  0.347299  0.546522  0.108566  1
  O  O71  1  0.546482  0.347247  0.391433  1
  O  O72  1  0.852245  0.907053  0.388865  1
  O  O73  1  0.199232  0.546466  0.608599  1
  O  O74  1  0.382481  0.999980  0.749943  1
  O  O75  1  0.907027  0.054765  0.611118  1
  O  O76  1  0.872753  0.205979  0.291756  1
  O  O77  1  0.794038  0.666755  0.291766  1
  O  O78  1  0.382465  0.382454  0.250084  1
  O  O79  1  0.199233  0.652719  0.108572  1
  O  O80  1  0.517678  0.226443  0.610832  1
  O  O81  1  0.127272  0.794046  0.708233  1
  O  O82  1  0.092946  0.945200  0.388871  1
  O  O83  1  0.945188  0.092768  0.111000  1
  O  O84  1  0.453553  0.652762  0.608596  1
  O  O85  1  0.333257  0.206030  0.791587  1
  O  O86  1  0.347248  0.800789  0.608597  1
  O  O87  1  0.147586  0.054812  0.111000  1
  O  O88  1  0.666767  0.872722  0.708232  1
  O  O89  1  0.800783  0.453520  0.391403  1
