# generated using pymatgen
data_NaAgH16C4S4(NO5)2
_symmetry_space_group_name_H-M   'P 1'
_cell_length_a   11.25226186
_cell_length_b   11.32360859
_cell_length_c   14.22147217
_cell_angle_alpha   90.00000000
_cell_angle_beta   90.00000000
_cell_angle_gamma   90.00000000
_symmetry_Int_Tables_number   1
_chemical_formula_structural   NaAgH16C4S4(NO5)2
_chemical_formula_sum   'Na4 Ag4 H64 C16 S16 N8 O40'
_cell_volume   1812.04607108
_cell_formula_units_Z   4
loop_
 _symmetry_equiv_pos_site_id
 _symmetry_equiv_pos_as_xyz
  1  'x, y, z'
loop_
 _atom_site_type_symbol
 _atom_site_label
 _atom_site_symmetry_multiplicity
 _atom_site_fract_x
 _atom_site_fract_y
 _atom_site_fract_z
 _atom_site_occupancy
  Na  Na0  1  0.276149  0.750000  0.000000  1
  Na  Na1  1  0.723851  0.250000  0.000000  1
  Na  Na2  1  0.776149  0.250000  0.500000  1
  Na  Na3  1  0.223851  0.750000  0.500000  1
  Ag  Ag4  1  0.750000  0.235396  0.750000  1
  Ag  Ag5  1  0.750000  0.264604  0.250000  1
  Ag  Ag6  1  0.250000  0.735396  0.750000  1
  Ag  Ag7  1  0.250000  0.764604  0.250000  1
  H  H8  1  0.792999  0.445634  0.636937  1
  H  H9  1  0.949442  0.876954  0.701817  1
  H  H10  1  0.342253  0.908489  0.623910  1
  H  H11  1  0.792999  0.054366  0.363063  1
  H  H12  1  0.925914  0.740621  0.112454  1
  H  H13  1  0.425914  0.259379  0.612454  1
  H  H14  1  0.663017  0.647123  0.669332  1
  H  H15  1  0.707001  0.445634  0.863063  1
  H  H16  1  0.663017  0.852877  0.330668  1
  H  H17  1  0.036052  0.396037  0.576108  1
  H  H18  1  0.292999  0.554366  0.136937  1
  H  H19  1  0.371085  0.134538  0.545593  1
  H  H20  1  0.550558  0.876954  0.798183  1
  H  H21  1  0.207001  0.945634  0.636937  1
  H  H22  1  0.207001  0.554366  0.363063  1
  H  H23  1  0.827429  0.937116  0.634211  1
  H  H24  1  0.842253  0.091511  0.123910  1
  H  H25  1  0.836983  0.647123  0.830668  1
  H  H26  1  0.672571  0.562884  0.134211  1
  H  H27  1  0.157747  0.908489  0.876090  1
  H  H28  1  0.925914  0.759379  0.887546  1
  H  H29  1  0.657747  0.091511  0.376090  1
  H  H30  1  0.707001  0.054366  0.136937  1
  H  H31  1  0.425914  0.240621  0.387546  1
  H  H32  1  0.463948  0.396037  0.923892  1
  H  H33  1  0.163017  0.147123  0.830668  1
  H  H34  1  0.463948  0.103963  0.076108  1
  H  H35  1  0.128915  0.134538  0.954407  1
  H  H36  1  0.371085  0.365462  0.454407  1
  H  H37  1  0.157747  0.591511  0.123910  1
  H  H38  1  0.842253  0.408489  0.876090  1
  H  H39  1  0.172571  0.062884  0.365789  1
  H  H40  1  0.163017  0.352877  0.169332  1
  H  H41  1  0.836983  0.852877  0.169332  1
  H  H42  1  0.963948  0.603963  0.423892  1
  H  H43  1  0.536052  0.603963  0.076108  1
  H  H44  1  0.336983  0.352877  0.330668  1
  H  H45  1  0.342253  0.591511  0.376090  1
  H  H46  1  0.449442  0.376954  0.798183  1
  H  H47  1  0.292999  0.945634  0.863063  1
  H  H48  1  0.550558  0.623046  0.201817  1
  H  H49  1  0.050558  0.376954  0.701817  1
  H  H50  1  0.963948  0.896037  0.576108  1
  H  H51  1  0.574086  0.759379  0.612454  1
  H  H52  1  0.036052  0.103963  0.423892  1
  H  H53  1  0.871085  0.634538  0.954407  1
  H  H54  1  0.327429  0.062884  0.134211  1
  H  H55  1  0.050558  0.123046  0.298183  1
  H  H56  1  0.536052  0.896037  0.923892  1
  H  H57  1  0.074086  0.240621  0.112454  1
  H  H58  1  0.449442  0.123046  0.201817  1
  H  H59  1  0.827429  0.562884  0.365789  1
  H  H60  1  0.574086  0.740621  0.387546  1
  H  H61  1  0.128915  0.365462  0.045593  1
  H  H62  1  0.336983  0.147123  0.669332  1
  H  H63  1  0.327429  0.437116  0.865789  1
  H  H64  1  0.628915  0.634538  0.545593  1
  H  H65  1  0.949442  0.623046  0.298183  1
  H  H66  1  0.074086  0.259379  0.887546  1
  H  H67  1  0.672571  0.937116  0.865789  1
  H  H68  1  0.657747  0.408489  0.623910  1
  H  H69  1  0.871085  0.865462  0.045593  1
  H  H70  1  0.628915  0.865462  0.454407  1
  H  H71  1  0.172571  0.437116  0.634211  1
  C  C72  1  0.097218  0.165286  0.885628  1
  C  C73  1  0.924315  0.930857  0.641000  1
  C  C74  1  0.575685  0.930857  0.859000  1
  C  C75  1  0.424315  0.430857  0.859000  1
  C  C76  1  0.902782  0.665286  0.885628  1
  C  C77  1  0.902782  0.834714  0.114372  1
  C  C78  1  0.597218  0.665286  0.614372  1
  C  C79  1  0.597218  0.834714  0.385628  1
  C  C80  1  0.402782  0.165286  0.614372  1
  C  C81  1  0.575685  0.569143  0.141000  1
  C  C82  1  0.924315  0.569143  0.359000  1
  C  C83  1  0.075685  0.430857  0.641000  1
  C  C84  1  0.424315  0.069143  0.141000  1
  C  C85  1  0.097218  0.334714  0.114372  1
  C  C86  1  0.075685  0.069143  0.359000  1
  C  C87  1  0.402782  0.334714  0.385628  1
  S  S88  1  0.466020  0.583904  0.641432  1
  S  S89  1  0.980832  0.423627  0.341014  1
  S  S90  1  0.533980  0.416096  0.358568  1
  S  S91  1  0.966020  0.083904  0.858568  1
  S  S92  1  0.533980  0.083904  0.641432  1
  S  S93  1  0.033980  0.583904  0.858568  1
  S  S94  1  0.966020  0.416096  0.141432  1
  S  S95  1  0.519168  0.423627  0.158986  1
  S  S96  1  0.519168  0.076373  0.841014  1
  S  S97  1  0.480832  0.923627  0.158986  1
  S  S98  1  0.466020  0.916096  0.358568  1
  S  S99  1  0.480832  0.576373  0.841014  1
  S  S100  1  0.019168  0.576373  0.658986  1
  S  S101  1  0.980832  0.076373  0.658986  1
  S  S102  1  0.019168  0.923627  0.341014  1
  S  S103  1  0.033980  0.916096  0.141432  1
  N  N104  1  0.077420  0.626931  0.755108  1
  N  N105  1  0.922580  0.373069  0.244892  1
  N  N106  1  0.577420  0.126932  0.744892  1
  N  N107  1  0.422580  0.873069  0.255108  1
  N  N108  1  0.577420  0.373069  0.255108  1
  N  N109  1  0.422580  0.626931  0.744892  1
  N  N110  1  0.922580  0.126932  0.755108  1
  N  N111  1  0.077420  0.873069  0.244892  1
  O  O112  1  0.260103  0.878280  0.623445  1
  O  O113  1  0.063955  0.849545  0.417128  1
  O  O114  1  0.239897  0.621720  0.123445  1
  O  O115  1  0.436045  0.849545  0.082872  1
  O  O116  1  0.260103  0.621720  0.376555  1
  O  O117  1  0.889480  0.568036  0.666066  1
  O  O118  1  0.760103  0.378280  0.876555  1
  O  O119  1  0.626663  0.120343  0.576280  1
  O  O120  1  0.873337  0.379657  0.076280  1
  O  O121  1  0.502559  0.541984  0.360588  1
  O  O122  1  0.110520  0.431964  0.333934  1
  O  O123  1  0.497441  0.041984  0.360588  1
  O  O124  1  0.373337  0.879657  0.423720  1
  O  O125  1  0.563955  0.150455  0.917128  1
  O  O126  1  0.110520  0.068036  0.666066  1
  O  O127  1  0.610520  0.931964  0.166066  1
  O  O128  1  0.936045  0.150455  0.582872  1
  O  O129  1  0.889480  0.931964  0.333934  1
  O  O130  1  0.126663  0.879657  0.076280  1
  O  O131  1  0.873337  0.120343  0.923720  1
  O  O132  1  0.739897  0.121720  0.376555  1
  O  O133  1  0.502559  0.958016  0.639412  1
  O  O134  1  0.436045  0.650455  0.917128  1
  O  O135  1  0.002559  0.458016  0.860588  1
  O  O136  1  0.997441  0.958016  0.860588  1
  O  O137  1  0.760103  0.121720  0.123445  1
  O  O138  1  0.389480  0.431964  0.166066  1
  O  O139  1  0.239897  0.878280  0.876555  1
  O  O140  1  0.497441  0.458016  0.639412  1
  O  O141  1  0.373337  0.620343  0.576280  1
  O  O142  1  0.063955  0.650455  0.582872  1
  O  O143  1  0.389480  0.068036  0.833934  1
  O  O144  1  0.936045  0.349545  0.417128  1
  O  O145  1  0.997441  0.541984  0.139412  1
  O  O146  1  0.739897  0.378280  0.623445  1
  O  O147  1  0.626663  0.379657  0.423720  1
  O  O148  1  0.610520  0.568036  0.833934  1
  O  O149  1  0.563955  0.349545  0.082872  1
  O  O150  1  0.002559  0.041984  0.139412  1
  O  O151  1  0.126663  0.620343  0.923720  1
