# generated using pymatgen
data_FeSiO3
_symmetry_space_group_name_H-M   'P 1'
_cell_length_a   5.37021203
_cell_length_b   9.22441177
_cell_length_c   18.70150318
_cell_angle_alpha   90.00000000
_cell_angle_beta   90.00000000
_cell_angle_gamma   90.00000000
_symmetry_Int_Tables_number   1
_chemical_formula_structural   FeSiO3
_chemical_formula_sum   'Fe16 Si16 O48'
_cell_volume   926.41724306
_cell_formula_units_Z   16
loop_
 _symmetry_equiv_pos_site_id
 _symmetry_equiv_pos_as_xyz
  1  'x, y, z'
loop_
 _atom_site_type_symbol
 _atom_site_label
 _atom_site_symmetry_multiplicity
 _atom_site_fract_x
 _atom_site_fract_y
 _atom_site_fract_z
 _atom_site_occupancy
  O  O0  1  0.440897  0.285670  0.949569  1
  O  O1  1  0.940897  0.714330  0.550431  1
  O  O2  1  0.059103  0.785670  0.050431  1
  O  O3  1  0.559103  0.214330  0.449569  1
  O  O4  1  0.559103  0.714330  0.050431  1
  O  O5  1  0.059103  0.285670  0.449569  1
  O  O6  1  0.940897  0.214330  0.949569  1
  O  O7  1  0.440897  0.785670  0.550431  1
  O  O8  1  0.297586  0.016407  0.934367  1
  O  O9  1  0.797586  0.983593  0.565633  1
  O  O10  1  0.202414  0.516407  0.065633  1
  O  O11  1  0.702414  0.483593  0.434367  1
  O  O12  1  0.702414  0.983593  0.065633  1
  O  O13  1  0.202414  0.016407  0.434367  1
  O  O14  1  0.797586  0.483593  0.934367  1
  O  O15  1  0.297586  0.516407  0.565633  1
  O  O16  1  0.229136  0.163718  0.063262  1
  O  O17  1  0.729136  0.836282  0.436738  1
  O  O18  1  0.270864  0.663718  0.936738  1
  O  O19  1  0.925931  0.006831  0.813990  1
  O  O20  1  0.770864  0.336282  0.563262  1
  O  O21  1  0.270864  0.163718  0.563262  1
  O  O22  1  0.729136  0.336282  0.063262  1
  O  O23  1  0.229136  0.663718  0.436738  1
  O  O24  1  0.161753  0.266480  0.802595  1
  O  O25  1  0.661753  0.733520  0.697405  1
  O  O26  1  0.338247  0.766480  0.197405  1
  O  O27  1  0.838247  0.233520  0.302595  1
  O  O28  1  0.838247  0.733520  0.197405  1
  O  O29  1  0.338247  0.266480  0.302595  1
  O  O30  1  0.661753  0.233520  0.802595  1
  O  O31  1  0.161753  0.766480  0.697405  1
  O  O32  1  0.941281  0.660596  0.813463  1
  O  O33  1  0.441281  0.339404  0.686537  1
  O  O34  1  0.558719  0.160596  0.186537  1
  O  O35  1  0.058719  0.839404  0.313463  1
  O  O36  1  0.058719  0.339404  0.186537  1
  O  O37  1  0.558719  0.660596  0.313463  1
  O  O38  1  0.441281  0.839404  0.813463  1
  O  O39  1  0.941281  0.160596  0.686537  1
  O  O40  1  0.925931  0.506831  0.686010  1
  O  O41  1  0.425931  0.493169  0.813990  1
  O  O42  1  0.574069  0.006831  0.313990  1
  O  O43  1  0.074069  0.993169  0.186010  1
  O  O44  1  0.074069  0.493169  0.313990  1
  O  O45  1  0.574069  0.506831  0.186010  1
  O  O46  1  0.425931  0.993169  0.686010  1
  O  O47  1  0.770864  0.836282  0.936738  1
  Si  Si48  1  0.225755  0.165527  0.975436  1
  Si  Si49  1  0.725755  0.834473  0.524564  1
  Si  Si50  1  0.274245  0.665527  0.024564  1
  Si  Si51  1  0.774245  0.334473  0.475436  1
  Si  Si52  1  0.774245  0.834473  0.024564  1
  Si  Si53  1  0.274245  0.165527  0.475436  1
  Si  Si54  1  0.725755  0.334473  0.975436  1
  Si  Si55  1  0.225755  0.665527  0.524564  1
  Si  Si56  1  0.930431  0.162625  0.773728  1
  Si  Si57  1  0.430431  0.837375  0.726272  1
  Si  Si58  1  0.569569  0.662625  0.226272  1
  Si  Si59  1  0.069569  0.337375  0.273728  1
  Si  Si60  1  0.069569  0.837375  0.226272  1
  Si  Si61  1  0.569569  0.162625  0.273728  1
  Si  Si62  1  0.430431  0.337375  0.773728  1
  Si  Si63  1  0.930431  0.662625  0.726272  1
  Fe  Fe64  1  0.610831  0.008899  0.875490  1
  Fe  Fe65  1  0.110831  0.991101  0.624510  1
  Fe  Fe66  1  0.889169  0.508899  0.124510  1
  Fe  Fe67  1  0.389169  0.491101  0.375490  1
  Fe  Fe68  1  0.389169  0.991101  0.124510  1
  Fe  Fe69  1  0.889169  0.008899  0.375490  1
  Fe  Fe70  1  0.110831  0.491101  0.875490  1
  Fe  Fe71  1  0.610831  0.508899  0.624510  1
  Fe  Fe72  1  0.109242  0.847054  0.875442  1
  Fe  Fe73  1  0.609242  0.152946  0.624558  1
  Fe  Fe74  1  0.390758  0.347054  0.124558  1
  Fe  Fe75  1  0.890758  0.652946  0.375442  1
  Fe  Fe76  1  0.890758  0.152946  0.124558  1
  Fe  Fe77  1  0.390758  0.847054  0.375442  1
  Fe  Fe78  1  0.609242  0.652946  0.875442  1
  Fe  Fe79  1  0.109242  0.347054  0.624558  1
