# generated using pymatgen
data_SrRuO3
_symmetry_space_group_name_H-M   'P 1'
_cell_length_a   5.15350119
_cell_length_b   5.20332888
_cell_length_c   13.12828776
_cell_angle_alpha   90.00000000
_cell_angle_beta   90.00000000
_cell_angle_gamma   90.00000000
_symmetry_Int_Tables_number   1
_chemical_formula_structural   SrRuO3
_chemical_formula_sum   'Sr4 Ru4 O12'
_cell_volume   352.03978315
_cell_formula_units_Z   4
loop_
 _symmetry_equiv_pos_site_id
 _symmetry_equiv_pos_as_xyz
  1  'x, y, z'
loop_
 _atom_site_type_symbol
 _atom_site_label
 _atom_site_symmetry_multiplicity
 _atom_site_fract_x
 _atom_site_fract_y
 _atom_site_fract_z
 _atom_site_occupancy
  Sr  Sr0  1  0.496606  0.523517  0.250000  1
  Sr  Sr1  1  0.003394  0.023517  0.250000  1
  Sr  Sr2  1  0.503394  0.476483  0.750000  1
  Sr  Sr3  1  0.996606  0.976483  0.750000  1
  Ru  Ru4  1  0.500000  0.500000  0.500000  1
  Ru  Ru5  1  0.000000  0.000000  0.000000  1
  Ru  Ru6  1  0.500000  0.500000  0.000000  1
  Ru  Ru7  1  0.000000  0.000000  0.500000  1
  O  O8  1  0.506300  0.012741  0.250000  1
  O  O9  1  0.993700  0.512741  0.250000  1
  O  O10  1  0.493700  0.987259  0.750000  1
  O  O11  1  0.006300  0.487259  0.750000  1
  O  O12  1  0.250584  0.750122  0.013479  1
  O  O13  1  0.249416  0.250122  0.486521  1
  O  O14  1  0.749416  0.249878  0.513479  1
  O  O15  1  0.750584  0.749878  0.986521  1
  O  O16  1  0.749416  0.249878  0.986521  1
  O  O17  1  0.750584  0.749878  0.513479  1
  O  O18  1  0.250584  0.750122  0.486521  1
  O  O19  1  0.249416  0.250122  0.013479  1
