# generated using pymatgen
data_Y(HO)3
_symmetry_space_group_name_H-M   'P 1'
_cell_length_a   6.38159480
_cell_length_b   6.38174385
_cell_length_c   3.51804299
_cell_angle_alpha   90.00000000
_cell_angle_beta   90.00000000
_cell_angle_gamma   120.00018568
_symmetry_Int_Tables_number   1
_chemical_formula_structural   Y(HO)3
_chemical_formula_sum   'Y2 H6 O6'
_cell_volume   124.07936295
_cell_formula_units_Z   2
loop_
 _symmetry_equiv_pos_site_id
 _symmetry_equiv_pos_as_xyz
  1  'x, y, z'
loop_
 _atom_site_type_symbol
 _atom_site_label
 _atom_site_symmetry_multiplicity
 _atom_site_fract_x
 _atom_site_fract_y
 _atom_site_fract_z
 _atom_site_occupancy
  Y  Y0  1  0.666659  0.333331  0.312692  1
  Y  Y1  1  0.333341  0.666669  0.812692  1
  H  H2  1  0.141925  0.861163  0.350757  1
  H  H3  1  0.719251  0.858080  0.350735  1
  H  H4  1  0.138831  0.280767  0.350757  1
  H  H5  1  0.858075  0.138837  0.850757  1
  H  H6  1  0.280749  0.141920  0.850735  1
  H  H7  1  0.861169  0.719233  0.850757  1
  O  O8  1  0.086361  0.690613  0.308136  1
  O  O9  1  0.604256  0.913636  0.308119  1
  O  O10  1  0.309387  0.395757  0.308124  1
  O  O11  1  0.913639  0.309387  0.808136  1
  O  O12  1  0.395744  0.086364  0.808119  1
  O  O13  1  0.690613  0.604243  0.808124  1
