# generated using pymatgen
data_UP2O7
_symmetry_space_group_name_H-M   'P 1'
_cell_length_a   8.87839203
_cell_length_b   8.87761853
_cell_length_c   8.88885491
_cell_angle_alpha   89.99031671
_cell_angle_beta   89.99742022
_cell_angle_gamma   89.99369813
_symmetry_Int_Tables_number   1
_chemical_formula_structural   UP2O7
_chemical_formula_sum   'U4 P8 O28'
_cell_volume   700.61044069
_cell_formula_units_Z   4
loop_
 _symmetry_equiv_pos_site_id
 _symmetry_equiv_pos_as_xyz
  1  'x, y, z'
loop_
 _atom_site_type_symbol
 _atom_site_label
 _atom_site_symmetry_multiplicity
 _atom_site_fract_x
 _atom_site_fract_y
 _atom_site_fract_z
 _atom_site_occupancy
  U  U0  1  0.005160  0.005512  0.000037  1
  U  U1  1  0.494852  0.505457  0.000029  1
  U  U2  1  0.505130  0.005467  0.499963  1
  U  U3  1  0.994847  0.505428  0.499973  1
  P  P4  1  0.107320  0.903127  0.398699  1
  P  P5  1  0.096551  0.607035  0.898298  1
  P  P6  1  0.392704  0.403061  0.398769  1
  P  P7  1  0.403369  0.106947  0.898267  1
  P  P8  1  0.596589  0.607002  0.601671  1
  P  P9  1  0.607366  0.903127  0.101280  1
  P  P10  1  0.903371  0.106909  0.601734  1
  P  P11  1  0.892726  0.403051  0.101269  1
  O  O12  1  0.025777  0.025805  0.500067  1
  O  O13  1  0.064850  0.775001  0.919365  1
  O  O14  1  0.046459  0.746956  0.439697  1
  O  O15  1  0.071560  0.946550  0.235873  1
  O  O16  1  0.068163  0.554246  0.736787  1
  O  O17  1  0.246658  0.063770  0.955068  1
  O  O18  1  0.225483  0.420283  0.437344  1
  O  O19  1  0.253387  0.563769  0.955110  1
  O  O20  1  0.274534  0.920359  0.437343  1
  O  O21  1  0.431754  0.054180  0.736798  1
  O  O22  1  0.428465  0.446478  0.235814  1
  O  O23  1  0.435115  0.274985  0.919377  1
  O  O24  1  0.453534  0.246925  0.439725  1
  O  O25  1  0.474238  0.525808  0.500058  1
  O  O26  1  0.525777  0.025823  0.999939  1
  O  O27  1  0.564855  0.774963  0.580611  1
  O  O28  1  0.546479  0.746916  0.060265  1
  O  O29  1  0.568198  0.554201  0.763287  1
  O  O30  1  0.571598  0.946501  0.264123  1
  O  O31  1  0.746630  0.063689  0.544924  1
  O  O32  1  0.725438  0.420264  0.062614  1
  O  O33  1  0.753351  0.563756  0.544933  1
  O  O34  1  0.774560  0.920312  0.062642  1
  O  O35  1  0.931788  0.054185  0.763260  1
  O  O36  1  0.928477  0.446448  0.264100  1
  O  O37  1  0.953560  0.246953  0.060287  1
  O  O38  1  0.935122  0.274919  0.580650  1
  O  O39  1  0.974210  0.525833  0.999948  1
