# generated using pymatgen
data_La4Ni3Pb4
_symmetry_space_group_name_H-M   'P 1'
_cell_length_a   6.73551317
_cell_length_b   6.72940729
_cell_length_c   6.70801994
_cell_angle_alpha   95.65399915
_cell_angle_beta   95.88737955
_cell_angle_gamma   95.79406719
_symmetry_Int_Tables_number   1
_chemical_formula_structural   La4Ni3Pb4
_chemical_formula_sum   'La4 Ni3 Pb4'
_cell_volume   299.07244367
_cell_formula_units_Z   1
loop_
 _symmetry_equiv_pos_site_id
 _symmetry_equiv_pos_as_xyz
  1  'x, y, z'
loop_
 _atom_site_type_symbol
 _atom_site_label
 _atom_site_symmetry_multiplicity
 _atom_site_fract_x
 _atom_site_fract_y
 _atom_site_fract_z
 _atom_site_occupancy
  La  La0  1  0.171439  0.433191  0.672340  1
  La  La1  1  0.433064  0.672217  0.171829  1
  La  La2  1  0.869876  0.870151  0.870851  1
  La  La3  1  0.671751  0.170774  0.432629  1
  Ni  Ni4  1  0.623685  0.461978  0.746923  1
  Ni  Ni5  1  0.746073  0.623824  0.461489  1
  Ni  Ni6  1  0.463253  0.746793  0.624844  1
  Pb  Pb7  1  0.089387  0.866848  0.452609  1
  Pb  Pb8  1  0.209355  0.209199  0.208214  1
  Pb  Pb9  1  0.453621  0.090985  0.866680  1
  Pb  Pb10  1  0.867495  0.453041  0.090591  1
