# generated using pymatgen
data_Zn(HO)2
_symmetry_space_group_name_H-M   'P 1'
_cell_length_a   12.61276669
_cell_length_b   12.59185014
_cell_length_c   12.61379440
_cell_angle_alpha   40.89770937
_cell_angle_beta   142.35758370
_cell_angle_gamma   164.72807714
_symmetry_Int_Tables_number   1
_chemical_formula_structural   Zn(HO)2
_chemical_formula_sum   'Zn6 H12 O12'
_cell_volume   321.86609876
_cell_formula_units_Z   6
loop_
 _symmetry_equiv_pos_site_id
 _symmetry_equiv_pos_as_xyz
  1  'x, y, z'
loop_
 _atom_site_type_symbol
 _atom_site_label
 _atom_site_symmetry_multiplicity
 _atom_site_fract_x
 _atom_site_fract_y
 _atom_site_fract_z
 _atom_site_occupancy
  Zn  Zn0  1  0.789560  0.108136  0.857092  1
  Zn  Zn1  1  0.241400  0.926627  0.137148  1
  Zn  Zn2  1  0.803179  0.933417  0.696275  1
  Zn  Zn3  1  0.258018  0.113218  0.326059  1
  Zn  Zn4  1  0.031727  0.237873  0.231605  1
  Zn  Zn5  1  0.034222  0.804820  0.793457  1
  H  H6  1  0.447448  0.839033  0.961160  1
  H  H7  1  0.304247  0.803895  0.116642  1
  H  H8  1  0.448360  0.487183  0.610026  1
  H  H9  1  0.303418  0.185026  0.504474  1
  H  H10  1  0.055804  0.577219  0.606632  1
  H  H11  1  0.962209  0.449253  0.385155  1
  H  H12  1  0.189872  0.496845  0.652786  1
  H  H13  1  0.840416  0.530387  0.342179  1
  H  H14  1  0.611241  0.803188  0.388039  1
  H  H15  1  0.606972  0.222324  0.806200  1
  H  H16  1  0.655648  0.705270  0.057971  1
  H  H17  1  0.978333  0.955731  0.988125  1
  O  O18  1  0.749329  0.122599  0.972599  1
  O  O19  1  0.168781  0.793628  0.033216  1
  O  O20  1  0.749334  0.778241  0.626936  1
  O  O21  1  0.173714  0.137801  0.378527  1
  O  O22  1  0.178636  0.573895  0.727764  1
  O  O23  1  0.841590  0.456278  0.272068  1
  O  O24  1  0.180522  0.451768  0.604668  1
  O  O25  1  0.848499  0.573216  0.392730  1
  O  O26  1  0.514591  0.780422  0.264433  1
  O  O27  1  0.508353  0.247618  0.730195  1
  O  O28  1  0.937814  0.998030  0.060567  1
  O  O29  1  0.968394  0.905715  0.944941  1
