# generated using pymatgen
data_K3TiCl6
_symmetry_space_group_name_H-M   'P 1'
_cell_length_a   7.26755566
_cell_length_b   15.74941300
_cell_length_c   13.18304568
_cell_angle_alpha   108.29617667
_cell_angle_beta   90.00000000
_cell_angle_gamma   90.00000000
_symmetry_Int_Tables_number   1
_chemical_formula_structural   K3TiCl6
_chemical_formula_sum   'K12 Ti4 Cl24'
_cell_volume   1432.64622662
_cell_formula_units_Z   4
loop_
 _symmetry_equiv_pos_site_id
 _symmetry_equiv_pos_as_xyz
  1  'x, y, z'
loop_
 _atom_site_type_symbol
 _atom_site_label
 _atom_site_symmetry_multiplicity
 _atom_site_fract_x
 _atom_site_fract_y
 _atom_site_fract_z
 _atom_site_occupancy
  K  K0  1  0.001987  0.102643  0.172403  1
  K  K1  1  0.484795  0.841527  0.544299  1
  K  K2  1  0.109699  0.801057  0.145466  1
  K  K3  1  0.984795  0.658473  0.455701  1
  K  K4  1  0.501987  0.397357  0.827597  1
  K  K5  1  0.609699  0.698943  0.854534  1
  K  K6  1  0.390301  0.301057  0.145466  1
  K  K7  1  0.998013  0.897357  0.827597  1
  K  K8  1  0.890301  0.198943  0.854534  1
  K  K9  1  0.515205  0.158473  0.455701  1
  K  K10  1  0.498013  0.602643  0.172403  1
  K  K11  1  0.015205  0.341527  0.544299  1
  Ti  Ti12  1  0.000000  0.500000  0.000000  1
  Ti  Ti13  1  0.500000  0.000000  0.000000  1
  Ti  Ti14  1  0.500000  0.500000  0.500000  1
  Ti  Ti15  1  0.000000  0.000000  0.500000  1
  Cl  Cl16  1  0.434268  0.035445  0.180297  1
  Cl  Cl17  1  0.279788  0.579196  0.969442  1
  Cl  Cl18  1  0.598885  0.577775  0.384778  1
  Cl  Cl19  1  0.257154  0.748598  0.335502  1
  Cl  Cl20  1  0.098885  0.922225  0.615222  1
  Cl  Cl21  1  0.242846  0.248598  0.335502  1
  Cl  Cl22  1  0.288858  0.986658  0.425171  1
  Cl  Cl23  1  0.065732  0.535445  0.180297  1
  Cl  Cl24  1  0.826767  0.643609  0.034520  1
  Cl  Cl25  1  0.565732  0.964555  0.819703  1
  Cl  Cl26  1  0.757154  0.751402  0.664498  1
  Cl  Cl27  1  0.401115  0.422225  0.615222  1
  Cl  Cl28  1  0.711142  0.013342  0.574829  1
  Cl  Cl29  1  0.788858  0.513342  0.574829  1
  Cl  Cl30  1  0.673233  0.143609  0.034520  1
  Cl  Cl31  1  0.901115  0.077775  0.384778  1
  Cl  Cl32  1  0.934268  0.464555  0.819703  1
  Cl  Cl33  1  0.173233  0.356391  0.965480  1
  Cl  Cl34  1  0.220212  0.079196  0.969442  1
  Cl  Cl35  1  0.779788  0.920804  0.030558  1
  Cl  Cl36  1  0.742846  0.251402  0.664498  1
  Cl  Cl37  1  0.211142  0.486658  0.425171  1
  Cl  Cl38  1  0.720212  0.420804  0.030558  1
  Cl  Cl39  1  0.326767  0.856391  0.965480  1
