# generated using pymatgen
data_Al(HO)3
_symmetry_space_group_name_H-M   'P 1'
_cell_length_a   6.77178559
_cell_length_b   7.53051780
_cell_length_c   8.16496973
_cell_angle_alpha   112.50071266
_cell_angle_beta   140.85794243
_cell_angle_gamma   88.07242388
_symmetry_Int_Tables_number   1
_chemical_formula_structural   Al(HO)3
_chemical_formula_sum   'Al4 H12 O12'
_cell_volume   216.69449872
_cell_formula_units_Z   4
loop_
 _symmetry_equiv_pos_site_id
 _symmetry_equiv_pos_as_xyz
  1  'x, y, z'
loop_
 _atom_site_type_symbol
 _atom_site_label
 _atom_site_symmetry_multiplicity
 _atom_site_fract_x
 _atom_site_fract_y
 _atom_site_fract_z
 _atom_site_occupancy
  Al  Al0  1  0.466107  0.835345  0.297066  1
  Al  Al1  1  0.506115  0.168806  0.677680  1
  Al  Al2  1  0.983525  0.672226  0.651395  1
  Al  Al3  1  0.985558  0.330571  0.321060  1
  H  H4  1  0.046779  0.045391  0.858912  1
  H  H5  1  0.929495  0.947930  0.123152  1
  H  H6  1  0.553589  0.533670  0.880447  1
  H  H7  1  0.400490  0.465841  0.087520  1
  H  H8  1  0.093106  0.711279  0.422833  1
  H  H9  1  0.828973  0.288443  0.516462  1
  H  H10  1  0.362325  0.170478  0.303842  1
  H  H11  1  0.558957  0.825372  0.651606  1
  H  H12  1  0.662503  0.913194  0.156293  1
  H  H13  1  0.307197  0.096760  0.818244  1
  H  H14  1  0.163530  0.405429  0.155054  1
  H  H15  1  0.807932  0.595449  0.818214  1
  O  O16  1  0.970233  0.940945  0.683613  1
  O  O17  1  0.001667  0.064397  0.290990  1
  O  O18  1  0.495883  0.436500  0.715064  1
  O  O19  1  0.474330  0.568757  0.262296  1
  O  O20  1  0.032026  0.613131  0.440987  1
  O  O21  1  0.940450  0.390517  0.535144  1
  O  O22  1  0.536479  0.131070  0.450165  1
  O  O23  1  0.418147  0.873743  0.512275  1
  O  O24  1  0.469227  0.809701  0.064332  1
  O  O25  1  0.505590  0.195842  0.912160  1
  O  O26  1  0.002520  0.287355  0.081715  1
  O  O27  1  0.969178  0.713879  0.891035  1
