# generated using pymatgen
data_CaH4(N3O)2
_symmetry_space_group_name_H-M   'P 1'
_cell_length_a   11.71548259
_cell_length_b   6.18134472
_cell_length_c   7.93971450
_cell_angle_alpha   90.00000000
_cell_angle_beta   106.32864791
_cell_angle_gamma   90.00000000
_symmetry_Int_Tables_number   1
_chemical_formula_structural   CaH4(N3O)2
_chemical_formula_sum   'Ca4 H16 N24 O8'
_cell_volume   551.78211026
_cell_formula_units_Z   4
loop_
 _symmetry_equiv_pos_site_id
 _symmetry_equiv_pos_as_xyz
  1  'x, y, z'
loop_
 _atom_site_type_symbol
 _atom_site_label
 _atom_site_symmetry_multiplicity
 _atom_site_fract_x
 _atom_site_fract_y
 _atom_site_fract_z
 _atom_site_occupancy
  Ca  Ca0  1  0.512384  0.749485  0.190078  1
  Ca  Ca1  1  0.012384  0.750515  0.690078  1
  Ca  Ca2  1  0.487616  0.250515  0.809922  1
  Ca  Ca3  1  0.987616  0.249485  0.309922  1
  H  H4  1  0.379137  0.698719  0.802493  1
  H  H5  1  0.879137  0.801281  0.302493  1
  H  H6  1  0.620863  0.301281  0.197507  1
  H  H7  1  0.120863  0.198719  0.697507  1
  H  H8  1  0.303599  0.548057  0.891954  1
  H  H9  1  0.803599  0.951943  0.391954  1
  H  H10  1  0.696401  0.451943  0.108046  1
  H  H11  1  0.196401  0.048057  0.608046  1
  H  H12  1  0.310343  0.028443  0.996175  1
  H  H13  1  0.810343  0.471557  0.496175  1
  H  H14  1  0.689657  0.971557  0.003825  1
  H  H15  1  0.189657  0.528443  0.503825  1
  H  H16  1  0.393600  0.200532  0.116156  1
  H  H17  1  0.893600  0.299468  0.616156  1
  H  H18  1  0.606400  0.799468  0.883844  1
  H  H19  1  0.106400  0.700532  0.383844  1
  N  N20  1  0.645764  0.069550  0.345843  1
  N  N21  1  0.145764  0.430450  0.845843  1
  N  N22  1  0.354236  0.930450  0.654157  1
  N  N23  1  0.854236  0.569550  0.154157  1
  N  N24  1  0.401169  0.418283  0.261027  1
  N  N25  1  0.901169  0.081717  0.761027  1
  N  N26  1  0.598831  0.581717  0.738973  1
  N  N27  1  0.098831  0.918283  0.238973  1
  N  N28  1  0.626266  0.100260  0.484658  1
  N  N29  1  0.126266  0.399740  0.984658  1
  N  N30  1  0.373734  0.899740  0.515342  1
  N  N31  1  0.873734  0.600260  0.015342  1
  N  N32  1  0.370204  0.403648  0.390362  1
  N  N33  1  0.870204  0.096352  0.890362  1
  N  N34  1  0.629796  0.596352  0.609638  1
  N  N35  1  0.129796  0.903648  0.109638  1
  N  N36  1  0.608855  0.125090  0.621115  1
  N  N37  1  0.108855  0.374910  0.121114  1
  N  N38  1  0.391145  0.874910  0.378885  1
  N  N39  1  0.891145  0.625090  0.878885  1
  N  N40  1  0.339460  0.391907  0.520058  1
  N  N41  1  0.839460  0.108093  0.020058  1
  N  N42  1  0.660540  0.608093  0.479942  1
  N  N43  1  0.160540  0.891907  0.979942  1
  O  O44  1  0.386856  0.587757  0.897603  1
  O  O45  1  0.886856  0.912243  0.397603  1
  O  O46  1  0.613144  0.412243  0.102397  1
  O  O47  1  0.113144  0.087757  0.602397  1
  O  O48  1  0.392239  0.087621  0.024233  1
  O  O49  1  0.892239  0.412379  0.524233  1
  O  O50  1  0.607761  0.912379  0.975767  1
  O  O51  1  0.107761  0.587621  0.475767  1
