# generated using pymatgen
data_YbFeGe
_symmetry_space_group_name_H-M   'P 1'
_cell_length_a   3.94143607
_cell_length_b   5.69080153
_cell_length_c   6.07069998
_cell_angle_alpha   74.73659482
_cell_angle_beta   71.05697434
_cell_angle_gamma   69.73889394
_symmetry_Int_Tables_number   1
_chemical_formula_structural   YbFeGe
_chemical_formula_sum   'Yb2 Fe2 Ge2'
_cell_volume   119.06332307
_cell_formula_units_Z   2
loop_
 _symmetry_equiv_pos_site_id
 _symmetry_equiv_pos_as_xyz
  1  'x, y, z'
loop_
 _atom_site_type_symbol
 _atom_site_label
 _atom_site_symmetry_multiplicity
 _atom_site_fract_x
 _atom_site_fract_y
 _atom_site_fract_z
 _atom_site_occupancy
  Yb  Yb0  1  0.555221  0.681490  0.208068  1
  Yb  Yb1  1  0.444779  0.318510  0.791932  1
  Fe  Fe2  1  0.221352  0.132600  0.424696  1
  Fe  Fe3  1  0.778648  0.867400  0.575304  1
  Ge  Ge4  1  0.157312  0.872645  0.812730  1
  Ge  Ge5  1  0.842688  0.127355  0.187270  1
