# generated using pymatgen
data_BH11AuC4IN2
_symmetry_space_group_name_H-M   'P 1'
_cell_length_a   6.23318465
_cell_length_b   9.42478654
_cell_length_c   9.92794139
_cell_angle_alpha   116.51069854
_cell_angle_beta   90.97288409
_cell_angle_gamma   101.95512576
_symmetry_Int_Tables_number   1
_chemical_formula_structural   BH11AuC4IN2
_chemical_formula_sum   'B2 H22 Au2 C8 I2 N4'
_cell_volume   506.57946376
_cell_formula_units_Z   2
loop_
 _symmetry_equiv_pos_site_id
 _symmetry_equiv_pos_as_xyz
  1  'x, y, z'
loop_
 _atom_site_type_symbol
 _atom_site_label
 _atom_site_symmetry_multiplicity
 _atom_site_fract_x
 _atom_site_fract_y
 _atom_site_fract_z
 _atom_site_occupancy
  B  B0  1  0.594666  0.566473  0.755760  1
  B  B1  1  0.405334  0.433527  0.244240  1
  H  H2  1  0.257673  0.835519  0.912766  1
  H  H3  1  0.742327  0.164481  0.087234  1
  H  H4  1  0.538128  0.846831  0.972388  1
  H  H5  1  0.461872  0.153169  0.027612  1
  H  H6  1  0.469481  0.840668  0.793118  1
  H  H7  1  0.530519  0.159332  0.206882  1
  H  H8  1  0.046757  0.592343  0.696690  1
  H  H9  1  0.953243  0.407657  0.303310  1
  H  H10  1  0.268889  0.588928  0.583445  1
  H  H11  1  0.731111  0.411072  0.416555  1
  H  H12  1  0.156337  0.414059  0.610810  1
  H  H13  1  0.843662  0.585941  0.389190  1
  H  H14  1  0.241130  0.424721  0.860664  1
  H  H15  1  0.758870  0.575279  0.139336  1
  H  H16  1  0.384763  0.616841  0.014985  1
  H  H17  1  0.615237  0.383159  0.985015  1
  H  H18  1  0.110710  0.592680  0.937468  1
  H  H19  1  0.889290  0.407320  0.062532  1
  H  H20  1  0.720427  0.622312  0.871665  1
  H  H21  1  0.279573  0.377688  0.128335  1
  H  H22  1  0.662739  0.620724  0.670370  1
  H  H23  1  0.337261  0.379276  0.329630  1
  Au  Au24  1  0.000000  0.000000  0.500000  1
  Au  Au25  1  0.500000  0.000000  0.500000  1
  C  C26  1  0.539133  0.240731  0.610473  1
  C  C27  1  0.460867  0.759269  0.389527  1
  C  C28  1  0.409567  0.797665  0.875140  1
  C  C29  1  0.590433  0.202335  0.124860  1
  C  C30  1  0.196580  0.547751  0.663415  1
  C  C31  1  0.803420  0.452250  0.336585  1
  C  C32  1  0.268469  0.557850  0.910716  1
  C  C33  1  0.731531  0.442150  0.089284  1
  I  I34  1  0.013027  0.046908  0.779487  1
  I  I35  1  0.986973  0.953092  0.220513  1
  N  N36  1  0.362637  0.615165  0.800875  1
  N  N37  1  0.637363  0.384835  0.199125  1
  N  N38  1  0.556565  0.381796  0.674923  1
  N  N39  1  0.443435  0.618204  0.325077  1
