# generated using pymatgen
data_Y3U2O10
_symmetry_space_group_name_H-M   'P 1'
_cell_length_a   18.98122775
_cell_length_b   10.10718239
_cell_length_c   6.67528459
_cell_angle_alpha   29.10746389
_cell_angle_beta   30.00630769
_cell_angle_gamma   18.66052414
_symmetry_Int_Tables_number   1
_chemical_formula_structural   Y3U2O10
_chemical_formula_sum   'Y3 U2 O10'
_cell_volume   193.22941607
_cell_formula_units_Z   1
loop_
 _symmetry_equiv_pos_site_id
 _symmetry_equiv_pos_as_xyz
  1  'x, y, z'
loop_
 _atom_site_type_symbol
 _atom_site_label
 _atom_site_symmetry_multiplicity
 _atom_site_fract_x
 _atom_site_fract_y
 _atom_site_fract_z
 _atom_site_occupancy
  Y  Y0  1  0.001583  0.999316  0.992841  1
  Y  Y1  1  0.200886  0.998018  0.999433  1
  Y  Y2  1  0.400644  0.997113  0.003815  1
  U  U3  1  0.601847  -0.000345  0.990370  1
  U  U4  1  0.799961  0.996290  0.009199  1
  O  O5  1  0.082975  0.287158  0.238011  1
  O  O6  1  0.319680  0.223260  0.246923  1
  O  O7  1  0.083124  0.771257  0.752826  1
  O  O8  1  0.518033  0.219127  0.250815  1
  O  O9  1  0.319356  0.707832  0.762530  1
  O  O10  1  0.701094  0.232098  0.264366  1
  O  O11  1  0.518233  0.715290  0.754705  1
  O  O12  1  0.883614  0.278935  0.245931  1
  O  O13  1  0.700290  0.765803  0.732398  1
  O  O14  1  0.883880  0.775289  0.749449  1
