# generated using pymatgen
data_HgN3
_symmetry_space_group_name_H-M   'P 1'
_cell_length_a   3.64152782
_cell_length_b   6.12707509
_cell_length_c   12.83163280
_cell_angle_alpha   90.00000000
_cell_angle_beta   90.00000000
_cell_angle_gamma   103.03444261
_symmetry_Int_Tables_number   1
_chemical_formula_structural   HgN3
_chemical_formula_sum   'Hg4 N12'
_cell_volume   278.92172029
_cell_formula_units_Z   4
loop_
 _symmetry_equiv_pos_site_id
 _symmetry_equiv_pos_as_xyz
  1  'x, y, z'
loop_
 _atom_site_type_symbol
 _atom_site_label
 _atom_site_symmetry_multiplicity
 _atom_site_fract_x
 _atom_site_fract_y
 _atom_site_fract_z
 _atom_site_occupancy
  Hg  Hg0  1  0.885280  0.794912  0.535455  1
  Hg  Hg1  1  0.385280  0.294912  0.964545  1
  Hg  Hg2  1  0.114720  0.205088  0.464545  1
  Hg  Hg3  1  0.614720  0.705088  0.035455  1
  N  N4  1  0.694687  0.449160  0.598151  1
  N  N5  1  0.214975  0.588471  0.313760  1
  N  N6  1  0.805313  0.050840  0.098151  1
  N  N7  1  0.631754  0.134735  0.269240  1
  N  N8  1  0.868246  0.365265  0.769240  1
  N  N9  1  0.131754  0.634735  0.230760  1
  N  N10  1  0.285025  0.911529  0.813760  1
  N  N11  1  0.714975  0.088471  0.186240  1
  N  N12  1  0.305313  0.550840  0.401849  1
  N  N13  1  0.368246  0.865265  0.730760  1
  N  N14  1  0.785025  0.411529  0.686240  1
  N  N15  1  0.194687  0.949160  0.901849  1
