# generated using pymatgen
data_K2UF6
_symmetry_space_group_name_H-M   'P 1'
_cell_length_a   8.65866952
_cell_length_b   12.61260054
_cell_length_c   7.27441537
_cell_angle_alpha   30.10168237
_cell_angle_beta   53.78823464
_cell_angle_gamma   59.26300653
_symmetry_Int_Tables_number   1
_chemical_formula_structural   K2UF6
_chemical_formula_sum   'K4 U2 F12'
_cell_volume   321.47190694
_cell_formula_units_Z   2
loop_
 _symmetry_equiv_pos_site_id
 _symmetry_equiv_pos_as_xyz
  1  'x, y, z'
loop_
 _atom_site_type_symbol
 _atom_site_label
 _atom_site_symmetry_multiplicity
 _atom_site_fract_x
 _atom_site_fract_y
 _atom_site_fract_z
 _atom_site_occupancy
  K  K0  1  0.000000  0.990110  0.014834  1
  K  K1  1  1.000000  0.654734  0.017900  1
  K  K2  1  0.500000  0.343223  0.985166  1
  K  K3  1  0.500000  0.678600  0.982100  1
  U  U4  1  0.000000  0.327052  0.009422  1
  U  U5  1  0.500000  0.006281  0.990578  1
  F  F6  1  0.117387  0.320054  0.219596  1
  F  F7  1  0.382613  0.013279  0.780404  1
  F  F8  1  0.126398  0.611515  0.357229  1
  F  F9  1  0.639884  0.303019  0.310423  1
  F  F10  1  0.360116  0.303019  0.780520  1
  F  F11  1  0.139884  0.030314  0.219480  1
  F  F12  1  0.860116  0.030314  0.689577  1
  F  F13  1  0.626398  0.721819  0.191773  1
  F  F14  1  0.373602  0.721819  0.642771  1
  F  F15  1  0.882613  0.320054  0.820242  1
  F  F16  1  0.617387  0.013279  0.179758  1
  F  F17  1  0.873602  0.611515  0.808227  1
