# generated using pymatgen
data_Na2LiLa3Ti6O18
_symmetry_space_group_name_H-M   'P 1'
_cell_length_a   5.50527594
_cell_length_b   16.66135751
_cell_length_c   14.71485746
_cell_angle_alpha   19.00035449
_cell_angle_beta   55.87798205
_cell_angle_gamma   60.32885839
_symmetry_Int_Tables_number   1
_chemical_formula_structural   Na2LiLa3Ti6O18
_chemical_formula_sum   'Na2 Li1 La3 Ti6 O18'
_cell_volume   360.63785975
_cell_formula_units_Z   1
loop_
 _symmetry_equiv_pos_site_id
 _symmetry_equiv_pos_as_xyz
  1  'x, y, z'
loop_
 _atom_site_type_symbol
 _atom_site_label
 _atom_site_symmetry_multiplicity
 _atom_site_fract_x
 _atom_site_fract_y
 _atom_site_fract_z
 _atom_site_occupancy
  Na  Na0  1  0.263533  0.921626  0.235535  1
  Na  Na1  1  0.799609  0.769623  0.696343  1
  Li  Li2  1  0.402281  0.631187  0.100426  1
  La  La3  1  0.270362  0.251028  0.234686  1
  La  La4  1  0.753130  0.086181  0.745235  1
  La  La5  1  0.776722  0.427642  0.720433  1
  Ti  Ti6  1  0.014993  0.006301  0.983679  1
  Ti  Ti7  1  0.513092  0.168848  0.488993  1
  Ti  Ti8  1  0.014211  0.338492  0.984976  1
  Ti  Ti9  1  0.515240  0.504440  0.485577  1
  Ti  Ti10  1  0.013361  0.670495  0.987218  1
  Ti  Ti11  1  0.514163  0.835019  0.488562  1
  O  O12  1  0.278065  0.105998  0.222710  1
  O  O13  1  0.256158  0.419000  0.244157  1
  O  O14  1  0.754142  0.086461  0.243232  1
  O  O15  1  0.248431  0.105471  0.728847  1
  O  O16  1  0.745769  0.223268  0.279754  1
  O  O17  1  0.218111  0.253839  0.761101  1
  O  O18  1  0.270277  0.768167  0.228172  1
  O  O19  1  0.765657  0.406269  0.257852  1
  O  O20  1  0.247591  0.439140  0.729381  1
  O  O21  1  0.748041  0.553506  0.280885  1
  O  O22  1  0.231873  0.574954  0.771714  1
  O  O23  1  0.720778  0.235758  0.777194  1
  O  O24  1  0.757927  0.747248  0.251037  1
  O  O25  1  0.245981  0.775705  0.727144  1
  O  O26  1  0.747269  0.886507  0.282036  1
  O  O27  1  0.217485  0.922234  0.757693  1
  O  O28  1  0.712965  0.557742  0.787488  1
  O  O29  1  0.732786  0.911186  0.767940  1
