# generated using pymatgen
data_Li11MnAs6
_symmetry_space_group_name_H-M   'P 1'
_cell_length_a   8.55471744
_cell_length_b   28.03428744
_cell_length_c   7.40430498
_cell_angle_alpha   28.25894001
_cell_angle_beta   54.56499272
_cell_angle_gamma   52.27310711
_symmetry_Int_Tables_number   1
_chemical_formula_structural   Li11MnAs6
_chemical_formula_sum   'Li22 Mn2 As12'
_cell_volume   661.00916332
_cell_formula_units_Z   2
loop_
 _symmetry_equiv_pos_site_id
 _symmetry_equiv_pos_as_xyz
  1  'x, y, z'
loop_
 _atom_site_type_symbol
 _atom_site_label
 _atom_site_symmetry_multiplicity
 _atom_site_fract_x
 _atom_site_fract_y
 _atom_site_fract_z
 _atom_site_occupancy
  Li  Li0  1  0.049313  0.168666  0.238646  1
  Li  Li1  1  0.540380  0.167495  0.246845  1
  Li  Li2  1  0.294802  0.169353  0.740017  1
  Li  Li3  1  0.456582  0.332550  0.251275  1
  Li  Li4  1  0.214683  0.331275  0.755666  1
  Li  Li5  1  0.372283  0.500494  0.252567  1
  Li  Li6  1  0.787960  0.170370  0.739276  1
  Li  Li7  1  0.130272  0.499033  0.745006  1
  Li  Li8  1  0.966658  0.334270  0.242607  1
  Li  Li9  1  0.288953  0.667563  0.240285  1
  Li  Li10  1  0.706936  0.331642  0.754778  1
  Li  Li11  1  0.041931  0.669214  0.745310  1
  Li  Li12  1  0.211235  0.831706  0.253411  1
  Li  Li13  1  0.620893  0.499801  0.756315  1
  Li  Li14  1  0.791551  0.666889  0.249283  1
  Li  Li15  1  0.534592  0.669742  0.741921  1
  Li  Li16  1  0.708780  0.833348  0.243265  1
  Li  Li17  1  0.464028  0.832174  0.754504  1
  Li  Li18  1  0.624187  -0.000028  0.255260  1
  Li  Li19  1  0.381031  0.000191  0.739086  1
  Li  Li20  1  0.955644  0.830273  0.758181  1
  Li  Li21  1  0.875665  0.000186  0.754004  1
  Mn  Mn22  1  0.875790  0.500383  0.247526  1
  Mn  Mn23  1  0.127800  -0.000087  0.246575  1
  As  As24  1  0.012182  0.000536  0.026212  1
  As  As25  1  0.462195  0.999271  0.027416  1
  As  As26  1  0.421226  0.166728  0.996544  1
  As  As27  1  0.339336  0.332926  0.997424  1
  As  As28  1  0.938139  0.149218  0.025742  1
  As  As29  1  0.210724  0.500179  0.026483  1
  As  As30  1  0.165156  0.666303  0.998695  1
  As  As31  1  0.836961  0.351652  0.917985  1
  As  As32  1  0.761834  0.500743  0.025478  1
  As  As33  1  0.089930  0.850986  0.917599  1
  As  As34  1  0.687821  0.648883  0.028705  1
  As  As35  1  0.583003  0.833194  0.996857  1
