# generated using pymatgen
data_AgMo4H22C8(NO5)3
_symmetry_space_group_name_H-M   'P 1'
_cell_length_a   10.20740144
_cell_length_b   10.73796486
_cell_length_c   12.05634450
_cell_angle_alpha   85.66834962
_cell_angle_beta   65.59911923
_cell_angle_gamma   69.84944192
_symmetry_Int_Tables_number   1
_chemical_formula_structural   AgMo4H22C8(NO5)3
_chemical_formula_sum   'Ag2 Mo8 H44 C16 N6 O30'
_cell_volume   1126.30741788
_cell_formula_units_Z   2
loop_
 _symmetry_equiv_pos_site_id
 _symmetry_equiv_pos_as_xyz
  1  'x, y, z'
loop_
 _atom_site_type_symbol
 _atom_site_label
 _atom_site_symmetry_multiplicity
 _atom_site_fract_x
 _atom_site_fract_y
 _atom_site_fract_z
 _atom_site_occupancy
  Ag  Ag0  1  0.485984  0.030234  0.379101  1
  Ag  Ag1  1  0.514016  0.969766  0.620899  1
  Mo  Mo2  1  0.703187  0.247134  0.422309  1
  Mo  Mo3  1  0.719232  0.179276  0.691095  1
  Mo  Mo4  1  0.087349  0.065427  0.684163  1
  Mo  Mo5  1  0.912651  0.934573  0.315837  1
  Mo  Mo6  1  0.296813  0.752866  0.577691  1
  Mo  Mo7  1  0.069574  0.126808  0.421057  1
  Mo  Mo8  1  0.280768  0.820724  0.308905  1
  Mo  Mo9  1  0.930426  0.873192  0.578943  1
  H  H10  1  0.930673  0.489952  0.842022  1
  H  H11  1  0.397128  0.299054  0.265086  1
  H  H12  1  0.047811  0.264249  0.103986  1
  H  H13  1  0.660153  0.658528  0.328246  1
  H  H14  1  0.621476  0.566508  0.831502  1
  H  H15  1  0.707579  0.721403  0.912890  1
  H  H16  1  0.905372  0.415308  0.727822  1
  H  H17  1  0.162212  0.525474  0.512519  1
  H  H18  1  0.627695  0.467779  0.021209  1
  H  H19  1  0.364081  0.103112  0.095766  1
  H  H20  1  0.468783  0.179556  0.967862  1
  H  H21  1  0.197240  0.665688  0.006839  1
  H  H22  1  0.094628  0.584692  0.272178  1
  H  H23  1  0.288048  0.553704  0.872317  1
  H  H24  1  0.339847  0.341472  0.671754  1
  H  H25  1  0.556977  0.558782  0.716327  1
  H  H26  1  0.711952  0.446296  0.127683  1
  H  H27  1  0.327214  0.073653  0.912877  1
  H  H28  1  0.837788  0.474526  0.487481  1
  H  H29  1  0.912017  0.580631  0.714609  1
  H  H30  1  0.308098  0.369957  0.503371  1
  H  H31  1  0.069327  0.510048  0.157978  1
  H  H32  1  0.742529  0.757587  0.093284  1
  H  H33  1  0.881438  0.912338  0.890711  1
  H  H34  1  0.952189  0.735751  0.896014  1
  H  H35  1  0.372305  0.532221  0.978791  1
  H  H36  1  0.691902  0.630043  0.496629  1
  H  H37  1  0.785269  0.138369  0.042489  1
  H  H38  1  0.087983  0.419369  0.285391  1
  H  H39  1  0.292421  0.278597  0.087110  1
  H  H40  1  0.802760  0.334312  0.993161  1
  H  H41  1  0.378524  0.433492  0.168498  1
  H  H42  1  0.870306  0.627479  0.489540  1
  H  H43  1  0.129694  0.372521  0.510460  1
  H  H44  1  0.672786  0.926347  0.087123  1
  H  H45  1  0.052605  0.158283  0.993255  1
  H  H46  1  0.443023  0.441218  0.283673  1
  H  H47  1  0.602872  0.700946  0.734914  1
  H  H48  1  0.531217  0.820444  0.032138  1
  H  H49  1  0.257471  0.242413  0.906716  1
  H  H50  1  0.635919  0.896888  0.904234  1
  H  H51  1  0.947395  0.841717  0.006745  1
  H  H52  1  0.118562  0.087662  0.109289  1
  H  H53  1  0.214731  0.861631  0.957511  1
  C  C54  1  0.041935  0.518104  0.255836  1
  C  C55  1  0.815733  0.575659  0.456608  1
  C  C56  1  0.692359  0.393242  0.064803  1
  C  C57  1  0.782884  0.618805  0.266255  1
  C  C58  1  0.553627  0.626021  0.782551  1
  C  C59  1  0.645126  0.817797  0.966550  1
  C  C60  1  0.665744  0.175086  0.111805  1
  C  C61  1  0.354874  0.182203  0.033450  1
  C  C62  1  0.110681  0.168718  0.048932  1
  C  C63  1  0.446373  0.373979  0.217449  1
  C  C64  1  0.334256  0.824914  0.888195  1
  C  C65  1  0.184267  0.424341  0.543392  1
  C  C66  1  0.958065  0.481896  0.744164  1
  C  C67  1  0.217116  0.381195  0.733745  1
  C  C68  1  0.307641  0.606758  0.935197  1
  C  C69  1  0.889319  0.831282  0.951068  1
  N  N70  1  0.875991  0.571424  0.323506  1
  N  N71  1  0.124009  0.428576  0.676494  1
  N  N72  1  0.395520  0.692394  0.869347  1
  N  N73  1  0.604480  0.307606  0.130653  1
  N  N74  1  0.731727  0.835063  0.034110  1
  N  N75  1  0.268273  0.164937  0.965890  1
  O  O76  1  0.548512  0.187038  0.472235  1
  O  O77  1  0.434824  0.878180  0.266628  1
  O  O78  1  0.826899  0.619988  0.152038  1
  O  O79  1  0.258760  0.099734  0.619682  1
  O  O80  1  0.009951  0.856340  0.169903  1
  O  O81  1  0.645676  0.392701  0.358009  1
  O  O82  1  0.871104  0.008963  0.709854  1
  O  O83  1  0.565176  0.121820  0.733372  1
  O  O84  1  0.061430  0.744446  0.623846  1
  O  O85  1  0.972799  0.192444  0.595194  1
  O  O86  1  0.677580  0.308202  0.580810  1
  O  O87  1  0.938570  0.255554  0.376154  1
  O  O88  1  0.164580  0.884202  0.717332  1
  O  O89  1  0.322420  0.691798  0.419190  1
  O  O90  1  0.173101  0.380012  0.847962  1
  O  O91  1  0.354324  0.607299  0.641991  1
  O  O92  1  0.451488  0.812962  0.527765  1
  O  O93  1  0.234731  0.167558  0.368377  1
  O  O94  1  0.401841  0.906002  0.836463  1
  O  O95  1  0.598159  0.093998  0.163537  1
  O  O96  1  0.027201  0.807556  0.404806  1
  O  O97  1  0.128896  0.991037  0.290146  1
  O  O98  1  0.677944  0.276722  0.816912  1
  O  O99  1  0.856955  0.051682  0.498018  1
  O  O100  1  0.765269  0.832442  0.631623  1
  O  O101  1  0.322056  0.723278  0.183088  1
  O  O102  1  0.143045  0.948318  0.501982  1
  O  O103  1  0.741240  0.900266  0.380318  1
  O  O104  1  0.990049  0.143660  0.830097  1
  O  O105  1  0.835420  0.115798  0.282668  1
