# generated using pymatgen
data_As2Pb2S5
_symmetry_space_group_name_H-M   'P 1'
_cell_length_a   8.21752250
_cell_length_b   8.47963201
_cell_length_c   26.23510925
_cell_angle_alpha   90.00000000
_cell_angle_beta   90.00000000
_cell_angle_gamma   89.95291585
_symmetry_Int_Tables_number   1
_chemical_formula_structural   As2Pb2S5
_chemical_formula_sum   'As16 Pb16 S40'
_cell_volume   1828.10290153
_cell_formula_units_Z   8
loop_
 _symmetry_equiv_pos_site_id
 _symmetry_equiv_pos_as_xyz
  1  'x, y, z'
loop_
 _atom_site_type_symbol
 _atom_site_label
 _atom_site_symmetry_multiplicity
 _atom_site_fract_x
 _atom_site_fract_y
 _atom_site_fract_z
 _atom_site_occupancy
  As  As0  1  0.441142  0.557854  0.548026  1
  As  As1  1  0.720260  0.363776  0.654201  1
  As  As2  1  0.561233  0.885895  0.039678  1
  As  As3  1  0.107772  0.626522  0.635150  1
  As  As4  1  0.438767  0.114105  0.539678  1
  As  As5  1  0.943233  0.174972  0.359345  1
  As  As6  1  0.558858  0.442146  0.048026  1
  As  As7  1  0.892228  0.373478  0.135150  1
  As  As8  1  0.113253  0.039963  0.645609  1
  As  As9  1  0.279740  0.636224  0.154201  1
  As  As10  1  0.886747  0.960037  0.145609  1
  As  As11  1  0.940462  0.630441  0.365361  1
  As  As12  1  0.056767  0.825028  0.859345  1
  As  As13  1  0.368494  0.887947  0.769049  1
  As  As14  1  0.059538  0.369559  0.865361  1
  As  As15  1  0.631506  0.112053  0.269049  1
  Pb  Pb16  1  0.531339  0.377927  0.405734  1
  Pb  Pb17  1  0.784992  0.600235  0.770839  1
  Pb  Pb18  1  0.964365  0.639746  0.003729  1
  Pb  Pb19  1  0.215008  0.399765  0.270839  1
  Pb  Pb20  1  0.468661  0.622073  0.905734  1
  Pb  Pb21  1  0.197240  0.873793  0.275041  1
  Pb  Pb22  1  0.039366  0.865250  0.502273  1
  Pb  Pb23  1  0.538155  0.870880  0.401227  1
  Pb  Pb24  1  0.354343  0.349947  0.744058  1
  Pb  Pb25  1  0.645657  0.650053  0.244058  1
  Pb  Pb26  1  0.960634  0.134750  0.002273  1
  Pb  Pb27  1  0.692811  0.860898  0.624159  1
  Pb  Pb28  1  0.035635  0.360254  0.503729  1
  Pb  Pb29  1  0.802760  0.126207  0.775041  1
  Pb  Pb30  1  0.461845  0.129120  0.901227  1
  Pb  Pb31  1  0.307189  0.139102  0.124159  1
  S  S32  1  0.406648  0.658296  0.017053  1
  S  S33  1  0.604465  0.922573  0.513509  1
  S  S34  1  0.038357  0.117926  0.197476  1
  S  S35  1  0.090820  0.399533  0.388933  1
  S  S36  1  0.895983  0.178253  0.890959  1
  S  S37  1  0.947583  0.365726  0.704446  1
  S  S38  1  0.104017  0.821747  0.390959  1
  S  S39  1  0.262343  0.117838  0.472141  1
  S  S40  1  0.740634  0.161858  0.099464  1
  S  S41  1  0.426736  0.421379  0.187741  1
  S  S42  1  0.104689  0.378513  0.080284  1
  S  S43  1  0.587040  0.375029  0.817521  1
  S  S44  1  0.072241  0.900869  0.084946  1
  S  S45  1  0.770914  0.324952  0.307477  1
  S  S46  1  0.927759  0.099131  0.584946  1
  S  S47  1  0.715532  0.397022  0.978888  1
  S  S48  1  0.598314  0.873543  0.817582  1
  S  S49  1  0.258370  0.413549  0.596427  1
  S  S50  1  0.758681  0.625435  0.431714  1
  S  S51  1  0.961643  0.882074  0.697476  1
  S  S52  1  0.427756  0.846126  0.191763  1
  S  S53  1  0.412960  0.624971  0.317521  1
  S  S54  1  0.259366  0.838142  0.599464  1
  S  S55  1  0.238162  0.089934  0.808131  1
  S  S56  1  0.573264  0.578621  0.687741  1
  S  S57  1  0.909180  0.600467  0.888933  1
  S  S58  1  0.218591  0.863075  0.927066  1
  S  S59  1  0.781409  0.136925  0.427066  1
  S  S60  1  0.052417  0.634274  0.204446  1
  S  S61  1  0.895311  0.621487  0.580284  1
  S  S62  1  0.401686  0.126457  0.317582  1
  S  S63  1  0.229086  0.675048  0.807477  1
  S  S64  1  0.593352  0.341704  0.517053  1
  S  S65  1  0.572244  0.153874  0.691763  1
  S  S66  1  0.241319  0.374565  0.931714  1
  S  S67  1  0.737657  0.882162  0.972141  1
  S  S68  1  0.284468  0.602978  0.478888  1
  S  S69  1  0.741630  0.586451  0.096427  1
  S  S70  1  0.761838  0.910066  0.308131  1
  S  S71  1  0.395535  0.077427  0.013509  1
