# generated using pymatgen
data_PC2S2N3
_symmetry_space_group_name_H-M   'P 1'
_cell_length_a   8.11208821
_cell_length_b   13.88525117
_cell_length_c   35.07358994
_cell_angle_alpha   90.00000000
_cell_angle_beta   90.00000000
_cell_angle_gamma   101.93358813
_symmetry_Int_Tables_number   1
_chemical_formula_structural   PC2S2N3
_chemical_formula_sum   'P24 C48 S48 N72'
_cell_volume   3865.25110578
_cell_formula_units_Z   24
loop_
 _symmetry_equiv_pos_site_id
 _symmetry_equiv_pos_as_xyz
  1  'x, y, z'
loop_
 _atom_site_type_symbol
 _atom_site_label
 _atom_site_symmetry_multiplicity
 _atom_site_fract_x
 _atom_site_fract_y
 _atom_site_fract_z
 _atom_site_occupancy
  P  P0  1  0.902944  0.534315  0.720205  1
  P  P1  1  0.970054  0.727687  0.033635  1
  P  P2  1  0.789196  0.120427  0.715779  1
  P  P3  1  0.117837  0.769486  0.219273  1
  P  P4  1  0.210804  0.879573  0.284221  1
  P  P5  1  0.845796  0.818460  0.972554  1
  P  P6  1  0.154204  0.181540  0.027446  1
  P  P7  1  0.097056  0.965685  0.220205  1
  P  P8  1  0.922054  0.633493  0.963284  1
  P  P9  1  0.922054  0.133493  0.536716  1
  P  P10  1  0.029946  0.272313  0.966365  1
  P  P11  1  0.902944  0.034315  0.779795  1
  P  P12  1  0.077946  0.866507  0.463284  1
  P  P13  1  0.882163  0.730514  0.719273  1
  P  P14  1  0.029946  0.772313  0.533635  1
  P  P15  1  0.970054  0.227687  0.466365  1
  P  P16  1  0.882163  0.230514  0.780727  1
  P  P17  1  0.117837  0.269486  0.280727  1
  P  P18  1  0.154204  0.681540  0.472554  1
  P  P19  1  0.210804  0.379573  0.215779  1
  P  P20  1  0.845796  0.318460  0.527446  1
  P  P21  1  0.097056  0.465685  0.279795  1
  P  P22  1  0.077946  0.366507  0.036716  1
  P  P23  1  0.789196  0.620427  0.784221  1
  C  C24  1  0.778732  0.690903  0.100271  1
  C  C25  1  0.215070  0.810167  0.734310  1
  C  C26  1  0.005928  0.526107  0.425545  1
  C  C27  1  0.515398  0.356049  0.533435  1
  C  C28  1  0.214851  0.105254  0.572870  1
  C  C29  1  0.672133  0.462535  0.965600  1
  C  C30  1  0.784930  0.189833  0.265690  1
  C  C31  1  0.728786  0.178399  0.930927  1
  C  C32  1  0.194406  0.648943  0.164123  1
  C  C33  1  0.452163  0.570673  0.805189  1
  C  C34  1  0.005928  0.026107  0.074455  1
  C  C35  1  0.232574  0.531331  0.704740  1
  C  C36  1  0.221268  0.309097  0.899729  1
  C  C37  1  0.805594  0.851057  0.664123  1
  C  C38  1  0.805594  0.351057  0.835877  1
  C  C39  1  0.994072  0.473893  0.574455  1
  C  C40  1  0.989241  0.781347  0.336647  1
  C  C41  1  0.327867  0.037465  0.465600  1
  C  C42  1  0.785149  0.894746  0.427130  1
  C  C43  1  0.714214  0.392654  0.671627  1
  C  C44  1  0.271214  0.321601  0.430927  1
  C  C45  1  0.285786  0.107346  0.171627  1
  C  C46  1  0.785149  0.394746  0.072870  1
  C  C47  1  0.484602  0.143951  0.033435  1
  C  C48  1  0.232574  0.031331  0.795260  1
  C  C49  1  0.484602  0.643951  0.466565  1
  C  C50  1  0.010759  0.718653  0.836647  1
  C  C51  1  0.672133  0.962535  0.534400  1
  C  C52  1  0.714214  0.892654  0.828373  1
  C  C53  1  0.989241  0.281347  0.163353  1
  C  C54  1  0.285786  0.607346  0.328373  1
  C  C55  1  0.767426  0.468669  0.295260  1
  C  C56  1  0.515398  0.856049  0.966565  1
  C  C57  1  0.728786  0.678399  0.569073  1
  C  C58  1  0.994072  0.973893  0.925545  1
  C  C59  1  0.271214  0.821601  0.069073  1
  C  C60  1  0.784930  0.689833  0.234310  1
  C  C61  1  0.767426  0.968669  0.204740  1
  C  C62  1  0.221268  0.809097  0.600271  1
  C  C63  1  0.452163  0.070673  0.694811  1
  C  C64  1  0.547837  0.429327  0.194811  1
  C  C65  1  0.215070  0.310167  0.765690  1
  C  C66  1  0.327867  0.537465  0.034400  1
  C  C67  1  0.778732  0.190903  0.399729  1
  C  C68  1  0.194406  0.148943  0.335877  1
  C  C69  1  0.214851  0.605254  0.927130  1
  C  C70  1  0.010759  0.218653  0.663353  1
  C  C71  1  0.547837  0.929327  0.305189  1
  S  S72  1  0.941353  0.954155  0.107848  1
  S  S73  1  0.662668  0.119760  0.039033  1
  S  S74  1  0.396587  0.598082  0.914801  1
  S  S75  1  0.462572  0.130872  0.476226  1
  S  S76  1  0.941353  0.454155  0.392152  1
  S  S77  1  0.404118  0.819665  0.745332  1
  S  S78  1  0.823715  0.423209  0.870275  1
  S  S79  1  0.337332  0.880240  0.960967  1
  S  S80  1  0.417873  0.063895  0.809468  1
  S  S81  1  0.404118  0.319665  0.754668  1
  S  S82  1  0.417873  0.563895  0.690532  1
  S  S83  1  0.854167  0.699086  0.355471  1
  S  S84  1  0.603413  0.901918  0.414801  1
  S  S85  1  0.537428  0.369128  0.976226  1
  S  S86  1  0.537428  0.869128  0.523774  1
  S  S87  1  0.743165  0.945996  0.308679  1
  S  S88  1  0.662668  0.619760  0.460967  1
  S  S89  1  0.823715  0.923209  0.629725  1
  S  S90  1  0.623716  0.324652  0.639208  1
  S  S91  1  0.854167  0.199086  0.144529  1
  S  S92  1  0.376284  0.675348  0.360792  1
  S  S93  1  0.595882  0.680335  0.245332  1
  S  S94  1  0.623716  0.824652  0.860792  1
  S  S95  1  0.574888  0.614160  0.589904  1
  S  S96  1  0.743165  0.445996  0.191321  1
  S  S97  1  0.325800  0.806703  0.637395  1
  S  S98  1  0.674200  0.693297  0.137395  1
  S  S99  1  0.582127  0.936105  0.190532  1
  S  S100  1  0.176285  0.076791  0.370275  1
  S  S101  1  0.176285  0.576791  0.129725  1
  S  S102  1  0.058647  0.045845  0.892152  1
  S  S103  1  0.595882  0.180335  0.254668  1
  S  S104  1  0.325800  0.306703  0.862605  1
  S  S105  1  0.058647  0.545845  0.607848  1
  S  S106  1  0.256835  0.554004  0.808679  1
  S  S107  1  0.674200  0.193297  0.362605  1
  S  S108  1  0.582127  0.436105  0.309468  1
  S  S109  1  0.425112  0.385840  0.410096  1
  S  S110  1  0.256835  0.054004  0.691321  1
  S  S111  1  0.145833  0.800914  0.855471  1
  S  S112  1  0.603413  0.401918  0.085199  1
  S  S113  1  0.574888  0.114160  0.910096  1
  S  S114  1  0.337332  0.380240  0.539033  1
  S  S115  1  0.396587  0.098082  0.585199  1
  S  S116  1  0.462572  0.630872  0.023774  1
  S  S117  1  0.145833  0.300914  0.644529  1
  S  S118  1  0.425112  0.885840  0.089904  1
  S  S119  1  0.376284  0.175348  0.139208  1
  N  N120  1  0.018297  0.363459  0.993285  1
  N  N121  1  0.774138  0.034073  0.544927  1
  N  N122  1  0.395847  0.919794  0.304470  1
  N  N123  1  0.902485  0.818357  0.016070  1
  N  N124  1  0.780786  0.941536  0.801908  1
  N  N125  1  0.097515  0.181643  0.983930  1
  N  N126  1  0.843622  0.232054  0.947235  1
  N  N127  1  0.142982  0.773954  0.446430  1
  N  N128  1  0.930567  0.693461  0.225093  1
  N  N129  1  0.930567  0.193461  0.274907  1
  N  N130  1  0.849128  0.029981  0.735908  1
  N  N131  1  0.784386  0.716188  0.759124  1
  N  N132  1  0.217932  0.205076  0.308824  1
  N  N133  1  0.097515  0.681643  0.516070  1
  N  N134  1  0.156378  0.767946  0.052765  1
  N  N135  1  0.902485  0.318357  0.483930  1
  N  N136  1  0.150872  0.470019  0.235908  1
  N  N137  1  0.857018  0.726046  0.946430  1
  N  N138  1  0.950082  0.421362  0.547091  1
  N  N139  1  0.215614  0.283812  0.240876  1
  N  N140  1  0.774138  0.534073  0.955073  1
  N  N141  1  0.906918  0.151341  0.676919  1
  N  N142  1  0.093832  0.866254  0.196829  1
  N  N143  1  0.142209  0.316002  0.928570  1
  N  N144  1  0.910166  0.997512  0.216469  1
  N  N145  1  0.651251  0.335709  0.528486  1
  N  N146  1  0.906918  0.651341  0.823081  1
  N  N147  1  0.049918  0.578638  0.452909  1
  N  N148  1  0.395847  0.419794  0.195530  1
  N  N149  1  0.910166  0.497512  0.283531  1
  N  N150  1  0.142209  0.816002  0.571430  1
  N  N151  1  0.782068  0.294924  0.808824  1
  N  N152  1  0.857018  0.226046  0.553570  1
  N  N153  1  0.089834  0.002488  0.783531  1
  N  N154  1  0.217932  0.705076  0.191176  1
  N  N155  1  0.070997  0.609732  0.934860  1
  N  N156  1  0.906168  0.633746  0.696829  1
  N  N157  1  0.150872  0.970019  0.264092  1
  N  N158  1  0.156378  0.267946  0.447235  1
  N  N159  1  0.219214  0.558464  0.301908  1
  N  N160  1  0.981703  0.636541  0.006715  1
  N  N161  1  0.348749  0.664291  0.471514  1
  N  N162  1  0.849128  0.529981  0.764092  1
  N  N163  1  0.070997  0.109732  0.565140  1
  N  N164  1  0.780786  0.441536  0.698092  1
  N  N165  1  0.219214  0.058464  0.198092  1
  N  N166  1  0.857791  0.683998  0.071430  1
  N  N167  1  0.604153  0.580206  0.804470  1
  N  N168  1  0.784386  0.216188  0.740876  1
  N  N169  1  0.093082  0.348659  0.176919  1
  N  N170  1  0.089834  0.502488  0.716469  1
  N  N171  1  0.950082  0.921362  0.952909  1
  N  N172  1  0.782068  0.794924  0.691176  1
  N  N173  1  0.981703  0.136541  0.493285  1
  N  N174  1  0.225862  0.465927  0.044927  1
  N  N175  1  0.215614  0.783812  0.259124  1
  N  N176  1  0.929003  0.390268  0.065140  1
  N  N177  1  0.142982  0.273954  0.053570  1
  N  N178  1  0.929003  0.890268  0.434860  1
  N  N179  1  0.069433  0.806539  0.725093  1
  N  N180  1  0.843622  0.732054  0.552765  1
  N  N181  1  0.348749  0.164291  0.028486  1
  N  N182  1  0.093082  0.848659  0.323081  1
  N  N183  1  0.906168  0.133746  0.803171  1
  N  N184  1  0.018297  0.863459  0.506715  1
  N  N185  1  0.857791  0.183998  0.428570  1
  N  N186  1  0.093832  0.366254  0.303171  1
  N  N187  1  0.651251  0.835709  0.971514  1
  N  N188  1  0.069433  0.306539  0.774907  1
  N  N189  1  0.604153  0.080206  0.695530  1
  N  N190  1  0.225862  0.965927  0.455073  1
  N  N191  1  0.049918  0.078638  0.047091  1
