# generated using pymatgen
data_TePb2O5
_symmetry_space_group_name_H-M   'P 1'
_cell_length_a   5.84026947
_cell_length_b   7.26048244
_cell_length_c   7.37606719
_cell_angle_alpha   63.10331450
_cell_angle_beta   66.64582590
_cell_angle_gamma   66.38724302
_symmetry_Int_Tables_number   1
_chemical_formula_structural   TePb2O5
_chemical_formula_sum   'Te2 Pb4 O10'
_cell_volume   246.55733837
_cell_formula_units_Z   2
loop_
 _symmetry_equiv_pos_site_id
 _symmetry_equiv_pos_as_xyz
  1  'x, y, z'
loop_
 _atom_site_type_symbol
 _atom_site_label
 _atom_site_symmetry_multiplicity
 _atom_site_fract_x
 _atom_site_fract_y
 _atom_site_fract_z
 _atom_site_occupancy
  Te  Te0  1  0.052545  0.215426  0.687495  1
  Te  Te1  1  0.044031  0.715244  0.188024  1
  Pb  Pb2  1  0.389545  0.532625  0.681590  1
  Pb  Pb3  1  0.723570  0.902472  0.680956  1
  Pb  Pb4  1  0.395307  0.032413  0.183858  1
  Pb  Pb5  1  0.695093  0.401386  0.178035  1
  O  O6  1  0.284351  0.700110  0.317930  1
  O  O7  1  0.998757  0.418265  0.814793  1
  O  O8  1  0.801797  0.733471  0.058631  1
  O  O9  1  0.697880  0.199296  0.818106  1
  O  O10  1  0.766669  0.914004  0.319015  1
  O  O11  1  0.405844  0.234511  0.557924  1
  O  O12  1  0.321419  0.517675  0.054058  1
  O  O13  1  0.108668  0.014183  0.557021  1
  O  O14  1  0.176379  0.965583  0.938485  1
  O  O15  1  0.921810  0.462030  0.436118  1
