# generated using pymatgen
data_Ba5(Bi2O3)7
_symmetry_space_group_name_H-M   'P 1'
_cell_length_a   3.66740723
_cell_length_b   3.64128056
_cell_length_c   76.39120676
_cell_angle_alpha   115.88431444
_cell_angle_beta   115.45033517
_cell_angle_gamma   92.56338478
_symmetry_Int_Tables_number   1
_chemical_formula_structural   Ba5(Bi2O3)7
_chemical_formula_sum   'Ba5 Bi14 O21'
_cell_volume   794.11392248
_cell_formula_units_Z   1
loop_
 _symmetry_equiv_pos_site_id
 _symmetry_equiv_pos_as_xyz
  1  'x, y, z'
loop_
 _atom_site_type_symbol
 _atom_site_label
 _atom_site_symmetry_multiplicity
 _atom_site_fract_x
 _atom_site_fract_y
 _atom_site_fract_z
 _atom_site_occupancy
  Ba  Ba0  1  0.942711  0.953761  0.941635  1
  Ba  Ba1  1  0.883600  0.875237  0.829240  1
  Ba  Ba2  1  0.929086  0.889211  0.727162  1
  Ba  Ba3  1  0.117914  0.120136  0.170427  1
  Ba  Ba4  1  0.084655  0.055433  0.112750  1
  Bi  Bi5  1  0.924055  0.883575  0.883006  1
  Bi  Bi6  1  0.920463  0.876890  0.778728  1
  Bi  Bi7  1  0.931304  0.886931  0.674537  1
  Bi  Bi8  1  0.943846  0.928024  0.625466  1
  Bi  Bi9  1  0.905000  0.996795  0.571558  1
  Bi  Bi10  1  0.974422  0.116042  0.531672  1
  Bi  Bi11  1  0.072947  -0.002943  0.475901  1
  Bi  Bi12  1  0.948156  0.010395  0.420391  1
  Bi  Bi13  1  0.059298  0.882820  0.364491  1
  Bi  Bi14  1  0.060314  0.086555  0.324256  1
  Bi  Bi15  1  0.066262  0.131807  0.273470  1
  Bi  Bi16  1  0.098882  0.122459  0.222048  1
  Bi  Bi17  1  0.124449  0.067362  0.063044  1
  Bi  Bi18  1  0.113349  0.134304  0.012929  1
  O  O19  1  0.587039  0.649308  0.959586  1
  O  O20  1  0.618027  0.006750  0.980241  1
  O  O21  1  0.244565  0.204858  0.917360  1
  O  O22  1  0.397668  0.204247  0.877802  1
  O  O23  1  0.296993  0.283590  0.819835  1
  O  O24  1  0.364718  0.449588  0.779430  1
  O  O25  1  0.555574  0.512769  0.740368  1
  O  O26  1  0.526043  0.360345  0.678050  1
  O  O27  1  0.406623  0.554504  0.629362  1
  O  O28  1  0.605385  0.561742  0.589468  1
  O  O29  1  0.428254  0.329844  0.511472  1
  O  O30  1  0.399935  0.486649  0.472056  1
  O  O31  1  0.615526  0.515764  0.423719  1
  O  O32  1  0.593876  0.673625  0.384720  1
  O  O33  1  0.495876  0.403239  0.309715  1
  O  O34  1  0.453186  0.448603  0.258266  1
  O  O35  1  0.483281  0.640323  0.217468  1
  O  O36  1  0.494068  0.489104  0.156963  1
  O  O37  1  0.484950  0.448378  0.101853  1
  O  O38  1  0.567252  0.639631  0.062968  1
  O  O39  1  0.780449  0.622342  0.021326  1
