# generated using pymatgen
data_Ba3La2(BO3)4
_symmetry_space_group_name_H-M   'P 1'
_cell_length_a   7.94699396
_cell_length_b   9.06327003
_cell_length_c   16.87350858
_cell_angle_alpha   90.00000000
_cell_angle_beta   90.00000000
_cell_angle_gamma   90.00000000
_symmetry_Int_Tables_number   1
_chemical_formula_structural   Ba3La2(BO3)4
_chemical_formula_sum   'Ba12 La8 B16 O48'
_cell_volume   1215.32714750
_cell_formula_units_Z   4
loop_
 _symmetry_equiv_pos_site_id
 _symmetry_equiv_pos_as_xyz
  1  'x, y, z'
loop_
 _atom_site_type_symbol
 _atom_site_label
 _atom_site_symmetry_multiplicity
 _atom_site_fract_x
 _atom_site_fract_y
 _atom_site_fract_z
 _atom_site_occupancy
  B  B0  1  0.818149  0.951602  0.463829  1
  B  B1  1  0.478159  0.892205  0.250000  1
  B  B2  1  0.978159  0.607795  0.250000  1
  B  B3  1  0.021841  0.392205  0.750000  1
  B  B4  1  0.521841  0.107795  0.750000  1
  B  B5  1  0.218494  0.139361  0.250000  1
  B  B6  1  0.718494  0.360639  0.250000  1
  B  B7  1  0.281506  0.639361  0.750000  1
  B  B8  1  0.781506  0.860639  0.750000  1
  B  B9  1  0.818149  0.951602  0.036171  1
  B  B10  1  0.318149  0.548398  0.463829  1
  B  B11  1  0.681851  0.451602  0.963829  1
  B  B12  1  0.181851  0.048398  0.536171  1
  B  B13  1  0.181851  0.048398  0.963829  1
  B  B14  1  0.681851  0.451602  0.536171  1
  B  B15  1  0.318149  0.548398  0.036171  1
  O  O16  1  0.609443  0.311860  0.533483  1
  O  O17  1  0.172506  0.522174  0.991619  1
  O  O18  1  0.827494  0.477826  0.491619  1
  O  O19  1  0.327494  0.022174  0.008381  1
  O  O20  1  0.399412  0.755912  0.250000  1
  O  O21  1  0.623333  0.563843  0.915652  1
  O  O22  1  0.123333  0.936157  0.584348  1
  O  O23  1  0.876667  0.063843  0.084348  1
  O  O24  1  0.376667  0.436157  0.415652  1
  O  O25  1  0.376667  0.436157  0.084348  1
  O  O26  1  0.876667  0.063843  0.415652  1
  O  O27  1  0.123333  0.936157  0.915652  1
  O  O28  1  0.623333  0.563843  0.584348  1
  O  O29  1  0.851955  0.997477  0.750000  1
  O  O30  1  0.351955  0.502523  0.750000  1
  O  O31  1  0.648045  0.497477  0.250000  1
  O  O32  1  0.148045  0.002523  0.250000  1
  O  O33  1  0.600588  0.244088  0.750000  1
  O  O34  1  0.100588  0.255912  0.750000  1
  O  O35  1  0.899412  0.744088  0.250000  1
  O  O36  1  0.974008  0.457260  0.822267  1
  O  O37  1  0.474008  0.042740  0.677733  1
  O  O38  1  0.525992  0.957260  0.177733  1
  O  O39  1  0.025992  0.542740  0.322267  1
  O  O40  1  0.025992  0.542740  0.177733  1
  O  O41  1  0.525992  0.957260  0.322267  1
  O  O42  1  0.474008  0.042740  0.822267  1
  O  O43  1  0.974008  0.457260  0.677733  1
  O  O44  1  0.890557  0.811860  0.466517  1
  O  O45  1  0.390557  0.688140  0.033483  1
  O  O46  1  0.672506  0.977826  0.508381  1
  O  O47  1  0.109443  0.188140  0.966517  1
  O  O48  1  0.109443  0.188140  0.533483  1
  O  O49  1  0.609443  0.311860  0.966517  1
  O  O50  1  0.390557  0.688140  0.466517  1
  O  O51  1  0.890557  0.811860  0.033483  1
  O  O52  1  0.751754  0.789062  0.822551  1
  O  O53  1  0.251754  0.710938  0.677449  1
  O  O54  1  0.748246  0.289062  0.177449  1
  O  O55  1  0.248246  0.210938  0.322551  1
  O  O56  1  0.248246  0.210938  0.177449  1
  O  O57  1  0.748246  0.289062  0.322551  1
  O  O58  1  0.251754  0.710938  0.822551  1
  O  O59  1  0.751754  0.789062  0.677449  1
  O  O60  1  0.672506  0.977826  0.991619  1
  O  O61  1  0.172506  0.522174  0.508381  1
  O  O62  1  0.827494  0.477826  0.008381  1
  O  O63  1  0.327494  0.022174  0.491619  1
  Ba  Ba64  1  0.323513  0.467612  0.250000  1
  Ba  Ba65  1  0.823513  0.032388  0.250000  1
  Ba  Ba66  1  0.176487  0.967612  0.750000  1
  Ba  Ba67  1  0.676487  0.532388  0.750000  1
  Ba  Ba68  1  0.674330  0.656378  0.123895  1
  Ba  Ba69  1  0.174330  0.843622  0.376105  1
  Ba  Ba70  1  0.825670  0.156378  0.876105  1
  Ba  Ba71  1  0.325670  0.343622  0.623895  1
  Ba  Ba72  1  0.325670  0.343622  0.876105  1
  Ba  Ba73  1  0.825670  0.156378  0.623895  1
  Ba  Ba74  1  0.674330  0.656378  0.376105  1
  Ba  Ba75  1  0.174330  0.843622  0.123895  1
  La  La76  1  0.970188  0.670365  0.584599  1
  La  La77  1  0.470188  0.829635  0.915401  1
  La  La78  1  0.529812  0.170365  0.415401  1
  La  La79  1  0.029812  0.329635  0.084599  1
  La  La80  1  0.029812  0.329635  0.415401  1
  La  La81  1  0.529812  0.170365  0.084599  1
  La  La82  1  0.470188  0.829635  0.584599  1
  La  La83  1  0.970188  0.670365  0.915401  1
