# generated using pymatgen
data_CdH8C2S2(BrN2)2
_symmetry_space_group_name_H-M   'P 1'
_cell_length_a   13.17260051
_cell_length_b   6.12160037
_cell_length_c   13.81066576
_cell_angle_alpha   90.00000000
_cell_angle_beta   90.00000000
_cell_angle_gamma   90.00000000
_symmetry_Int_Tables_number   1
_chemical_formula_structural   CdH8C2S2(BrN2)2
_chemical_formula_sum   'Cd4 H32 C8 S8 Br8 N16'
_cell_volume   1113.65612607
_cell_formula_units_Z   4
loop_
 _symmetry_equiv_pos_site_id
 _symmetry_equiv_pos_as_xyz
  1  'x, y, z'
loop_
 _atom_site_type_symbol
 _atom_site_label
 _atom_site_symmetry_multiplicity
 _atom_site_fract_x
 _atom_site_fract_y
 _atom_site_fract_z
 _atom_site_occupancy
  Cd  Cd0  1  0.844987  0.282324  0.750000  1
  Cd  Cd1  1  0.344987  0.217676  0.750000  1
  Cd  Cd2  1  0.155013  0.717676  0.250000  1
  Cd  Cd3  1  0.655013  0.782324  0.250000  1
  H  H4  1  0.876936  0.381709  0.348370  1
  H  H5  1  0.376936  0.118291  0.151630  1
  H  H6  1  0.123064  0.618291  0.848370  1
  H  H7  1  0.623064  0.881709  0.651630  1
  H  H8  1  0.123064  0.618291  0.651630  1
  H  H9  1  0.623064  0.881709  0.848370  1
  H  H10  1  0.876936  0.381709  0.151630  1
  H  H11  1  0.376936  0.118291  0.348370  1
  H  H12  1  0.895656  0.109062  0.383082  1
  H  H13  1  0.395656  0.390938  0.116918  1
  H  H14  1  0.104344  0.890938  0.883082  1
  H  H15  1  0.604344  0.609062  0.616918  1
  H  H16  1  0.104344  0.890938  0.616918  1
  H  H17  1  0.604344  0.609062  0.883082  1
  H  H18  1  0.895656  0.109062  0.116918  1
  H  H19  1  0.395656  0.390938  0.383082  1
  H  H20  1  0.857886  0.648969  0.456432  1
  H  H21  1  0.357886  0.851031  0.043568  1
  H  H22  1  0.142114  0.351031  0.956432  1
  H  H23  1  0.642114  0.148969  0.543568  1
  H  H24  1  0.142114  0.351031  0.543568  1
  H  H25  1  0.642114  0.148969  0.956432  1
  H  H26  1  0.857886  0.648969  0.043568  1
  H  H27  1  0.357886  0.851031  0.456432  1
  H  H28  1  0.861965  0.602077  0.581519  1
  H  H29  1  0.361965  0.897923  0.918481  1
  H  H30  1  0.138035  0.397923  0.081519  1
  H  H31  1  0.638035  0.102077  0.418481  1
  H  H32  1  0.138035  0.397923  0.418481  1
  H  H33  1  0.638035  0.102077  0.081519  1
  H  H34  1  0.861965  0.602077  0.918481  1
  H  H35  1  0.361965  0.897923  0.581519  1
  C  C36  1  0.880044  0.330546  0.494445  1
  C  C37  1  0.380044  0.169454  0.005555  1
  C  C38  1  0.119956  0.669454  0.994445  1
  C  C39  1  0.619956  0.830546  0.505555  1
  C  C40  1  0.119956  0.669454  0.505555  1
  C  C41  1  0.619956  0.830546  0.994445  1
  C  C42  1  0.880044  0.330546  0.005555  1
  C  C43  1  0.380044  0.169454  0.494445  1
  S  S44  1  0.895588  0.133816  0.582359  1
  S  S45  1  0.395588  0.366184  0.917641  1
  S  S46  1  0.104412  0.866184  0.082359  1
  S  S47  1  0.604412  0.633816  0.417641  1
  S  S48  1  0.104412  0.866184  0.417641  1
  S  S49  1  0.604412  0.633816  0.082359  1
  S  S50  1  0.895588  0.133816  0.917641  1
  S  S51  1  0.395588  0.366184  0.582359  1
  Br  Br52  1  0.638725  0.255175  0.750000  1
  Br  Br53  1  0.138725  0.244825  0.750000  1
  Br  Br54  1  0.361275  0.744825  0.250000  1
  Br  Br55  1  0.861275  0.755175  0.250000  1
  Br  Br56  1  0.877529  0.713718  0.750000  1
  Br  Br57  1  0.377529  0.786282  0.750000  1
  Br  Br58  1  0.122471  0.286282  0.250000  1
  Br  Br59  1  0.622471  0.213718  0.250000  1
  N  N60  1  0.883681  0.267693  0.401883  1
  N  N61  1  0.383681  0.232307  0.098117  1
  N  N62  1  0.116319  0.732307  0.901883  1
  N  N63  1  0.616319  0.767693  0.598117  1
  N  N64  1  0.116319  0.732307  0.598117  1
  N  N65  1  0.616319  0.767693  0.901883  1
  N  N66  1  0.883681  0.267693  0.098117  1
  N  N67  1  0.383681  0.232307  0.401883  1
  N  N68  1  0.864412  0.542136  0.512571  1
  N  N69  1  0.364412  0.957864  0.987429  1
  N  N70  1  0.135588  0.457864  0.012571  1
  N  N71  1  0.635588  0.042136  0.487429  1
  N  N72  1  0.135588  0.457864  0.487429  1
  N  N73  1  0.635588  0.042136  0.012571  1
  N  N74  1  0.864412  0.542136  0.987429  1
  N  N75  1  0.364412  0.957864  0.512571  1
