# generated using pymatgen
data_H4N2O3
_symmetry_space_group_name_H-M   'P 1'
_cell_length_a   4.96835987
_cell_length_b   5.93590290
_cell_length_c   5.36556128
_cell_angle_alpha   90.00000000
_cell_angle_beta   90.00000000
_cell_angle_gamma   90.00000000
_symmetry_Int_Tables_number   1
_chemical_formula_structural   H4N2O3
_chemical_formula_sum   'H8 N4 O6'
_cell_volume   158.23953305
_cell_formula_units_Z   2
loop_
 _symmetry_equiv_pos_site_id
 _symmetry_equiv_pos_as_xyz
  1  'x, y, z'
loop_
 _atom_site_type_symbol
 _atom_site_label
 _atom_site_symmetry_multiplicity
 _atom_site_fract_x
 _atom_site_fract_y
 _atom_site_fract_z
 _atom_site_occupancy
  H  H0  1  0.418135  0.750000  0.148951  1
  H  H1  1  0.081865  0.750000  0.148951  1
  H  H2  1  0.918135  0.250000  0.851049  1
  H  H3  1  0.581865  0.250000  0.851049  1
  H  H4  1  0.110296  0.750000  0.868050  1
  H  H5  1  0.389704  0.750000  0.868050  1
  H  H6  1  0.889704  0.250000  0.131950  1
  H  H7  1  0.610296  0.250000  0.131950  1
  N  N8  1  0.250000  0.750000  0.030165  1
  N  N9  1  0.750000  0.250000  0.969835  1
  N  N10  1  0.750000  0.750000  0.507445  1
  N  N11  1  0.250000  0.250000  0.492555  1
  O  O12  1  0.750000  0.750000  0.269736  1
  O  O13  1  0.250000  0.250000  0.730264  1
  O  O14  1  0.974383  0.750000  0.616666  1
  O  O15  1  0.525617  0.750000  0.616666  1
  O  O16  1  0.025617  0.250000  0.383334  1
  O  O17  1  0.474383  0.250000  0.383334  1
