# generated using pymatgen
data_Nb40N21O16
_symmetry_space_group_name_H-M   'P 1'
_cell_length_a   7.28091075
_cell_length_b   6.12428418
_cell_length_c   25.09302720
_cell_angle_alpha   88.44939549
_cell_angle_beta   90.32620609
_cell_angle_gamma   117.28232758
_symmetry_Int_Tables_number   1
_chemical_formula_structural   Nb40N21O16
_chemical_formula_sum   'Nb40 N21 O16'
_cell_volume   994.04602925
_cell_formula_units_Z   1
loop_
 _symmetry_equiv_pos_site_id
 _symmetry_equiv_pos_as_xyz
  1  'x, y, z'
loop_
 _atom_site_type_symbol
 _atom_site_label
 _atom_site_symmetry_multiplicity
 _atom_site_fract_x
 _atom_site_fract_y
 _atom_site_fract_z
 _atom_site_occupancy
  Nb  Nb0  1  0.982292  0.666809  0.168403  1
  Nb  Nb1  1  0.959284  0.656668  0.434860  1
  Nb  Nb2  1  0.972640  0.642747  0.671228  1
  Nb  Nb3  1  0.993869  0.677584  0.921795  1
  Nb  Nb4  1  0.197221  0.014980  0.063688  1
  Nb  Nb5  1  0.187557  0.005418  0.314463  1
  Nb  Nb6  1  0.954850  0.306810  0.062196  1
  Nb  Nb7  1  0.937459  0.292428  0.310713  1
  Nb  Nb8  1  0.981600  0.328224  0.579022  1
  Nb  Nb9  1  0.975519  0.336600  0.820905  1
  Nb  Nb10  1  0.391664  0.714689  0.996621  1
  Nb  Nb11  1  0.378585  0.694792  0.246287  1
  Nb  Nb12  1  0.413989  0.709327  0.748472  1
  Nb  Nb13  1  0.422297  0.709886  0.499370  1
  Nb  Nb14  1  0.414473  0.716881  0.125168  1
  Nb  Nb15  1  0.420377  0.709410  0.628519  1
  Nb  Nb16  1  0.404637  0.700693  0.378837  1
  Nb  Nb17  1  0.424628  0.725331  0.875329  1
  Nb  Nb18  1  0.198596  0.197949  0.187148  1
  Nb  Nb19  1  0.218227  0.190888  0.436250  1
  Nb  Nb20  1  0.214202  0.189767  0.686524  1
  Nb  Nb21  1  0.208307  0.205612  0.939710  1
  Nb  Nb22  1  0.783692  0.954562  0.189043  1
  Nb  Nb23  1  0.796187  0.994811  0.433725  1
  Nb  Nb24  1  0.802372  0.985950  0.688658  1
  Nb  Nb25  1  0.196041  -0.020125  0.562933  1
  Nb  Nb26  1  0.205951  0.018134  0.814459  1
  Nb  Nb27  1  0.781128  0.784528  0.062189  1
  Nb  Nb28  1  0.771865  0.781686  0.311770  1
  Nb  Nb29  1  0.787175  0.803370  0.562896  1
  Nb  Nb30  1  0.794967  0.805873  0.812694  1
  Nb  Nb31  1  0.577588  0.266096  0.123960  1
  Nb  Nb32  1  0.572016  0.275522  0.372885  1
  Nb  Nb33  1  0.577465  0.277015  0.623657  1
  Nb  Nb34  1  0.581104  0.283078  0.875606  1
  Nb  Nb35  1  0.586514  0.285541  -0.001399  1
  Nb  Nb36  1  0.588605  0.286639  0.250885  1
  Nb  Nb37  1  0.596649  0.295891  0.505003  1
  Nb  Nb38  1  0.600185  0.297549  0.751377  1
  Nb  Nb39  1  0.795772  0.979912  0.939198  1
  N  N40  1  0.268007  0.924586  0.389734  1
  N  N41  1  0.276937  0.935264  0.640977  1
  N  N42  1  0.286648  0.958768  0.889356  1
  N  N43  1  0.692949  0.027826  0.012190  1
  N  N44  1  0.709149  0.040123  0.111530  1
  N  N45  1  0.678522  0.024281  0.359240  1
  N  N46  1  0.677450  0.010990  0.260586  1
  N  N47  1  0.707629  0.042473  0.611956  1
  N  N48  1  0.736176  0.077514  0.511493  1
  N  N49  1  0.714932  0.056381  0.862078  1
  N  N50  1  0.721076  0.058180  0.762918  1
  N  N51  1  0.280374  0.952988  0.140210  1
  N  N52  1  0.264111  0.941998  0.988224  1
  N  N53  1  0.788936  0.644786  0.237068  1
  N  N54  1  0.712208  0.662732  0.487104  1
  N  N55  1  0.740794  0.662067  0.737070  1
  N  N56  1  0.773730  0.651795  0.986651  1
  N  N57  1  0.687726  0.631147  0.138784  1
  N  N58  1  0.704782  0.645418  0.390407  1
  N  N59  1  0.700482  0.647023  0.639536  1
  N  N60  1  0.703542  0.653990  0.889450  1
  O  O61  1  0.334653  0.987161  0.488673  1
  O  O62  1  0.313899  0.972362  0.741123  1
  O  O63  1  0.028975  0.378701  0.399014  1
  O  O64  1  0.055936  0.440487  0.230044  1
  O  O65  1  0.066888  0.514957  0.748037  1
  O  O66  1  0.052355  0.434295  0.982338  1
  O  O67  1  0.221684  0.343446  0.109089  1
  O  O68  1  0.310727  0.332720  0.359959  1
  O  O69  1  0.273377  0.332435  0.608438  1
  O  O70  1  0.256077  0.347488  0.858927  1
  O  O71  1  0.335187  0.354191  0.013641  1
  O  O72  1  0.327315  0.339877  0.261193  1
  O  O73  1  0.289577  0.330624  0.510808  1
  O  O74  1  0.326582  0.343712  0.760702  1
  O  O75  1  0.258965  0.937033  0.239670  1
  O  O76  1  0.074091  0.582656  0.512011  1
