# generated using pymatgen
data_Li3Sn(PO3)6
_symmetry_space_group_name_H-M   'P 1'
_cell_length_a   7.21766462
_cell_length_b   7.50408643
_cell_length_c   7.56785515
_cell_angle_alpha   66.00282535
_cell_angle_beta   107.10598168
_cell_angle_gamma   83.04349162
_symmetry_Int_Tables_number   1
_chemical_formula_structural   Li3Sn(PO3)6
_chemical_formula_sum   'Li3 Sn1 P6 O18'
_cell_volume   344.02390707
_cell_formula_units_Z   1
loop_
 _symmetry_equiv_pos_site_id
 _symmetry_equiv_pos_as_xyz
  1  'x, y, z'
loop_
 _atom_site_type_symbol
 _atom_site_label
 _atom_site_symmetry_multiplicity
 _atom_site_fract_x
 _atom_site_fract_y
 _atom_site_fract_z
 _atom_site_occupancy
  Li  Li0  1  0.525607  0.488012  0.042196  1
  Li  Li1  1  0.838404  0.693155  0.128421  1
  Li  Li2  1  0.137487  0.635300  0.536324  1
  Sn  Sn3  1  0.093653  0.207502  0.927486  1
  P  P4  1  0.772791  0.014937  0.312795  1
  P  P5  1  0.235824  0.346335  0.327879  1
  P  P6  1  0.488630  0.784255  0.257606  1
  P  P7  1  0.767334  0.676341  0.677740  1
  P  P8  1  0.247463  0.982576  0.675619  1
  P  P9  1  0.510825  0.226519  0.740953  1
  O  O10  1  0.731222  0.194232  0.844678  1
  O  O11  1  0.462567  0.008006  0.792529  1
  O  O12  1  0.742962  0.640652  0.876330  1
  O  O13  1  0.253923  0.375457  0.123869  1
  O  O14  1  0.928666  0.881965  0.291984  1
  O  O15  1  0.747101  0.235021  0.241012  1
  O  O16  1  0.455330  0.320300  0.490580  1
  O  O17  1  0.557604  0.685735  0.511129  1
  O  O18  1  0.553287  0.991628  0.201157  1
  O  O19  1  0.597538  0.646601  0.201050  1
  O  O20  1  0.268024  0.766918  0.725604  1
  O  O21  1  0.357737  0.343876  0.784794  1
  O  O22  1  0.085850  0.499561  0.329671  1
  O  O23  1  0.940592  0.524064  0.689044  1
  O  O24  1  0.082702  0.093903  0.713075  1
  O  O25  1  0.791522  0.899237  0.559386  1
  O  O26  1  0.212121  0.117502  0.432570  1
  O  O27  1  0.260477  0.857822  0.155780  1
