# generated using pymatgen
data_PbF2
_symmetry_space_group_name_H-M   'P 1'
_cell_length_a   4.25158674
_cell_length_b   8.50434522
_cell_length_c   7.37309487
_cell_angle_alpha   30.00297003
_cell_angle_beta   54.78880353
_cell_angle_gamma   60.10860051
_symmetry_Int_Tables_number   1
_chemical_formula_structural   PbF2
_chemical_formula_sum   'Pb2 F4'
_cell_volume   108.91525419
_cell_formula_units_Z   2
loop_
 _symmetry_equiv_pos_site_id
 _symmetry_equiv_pos_as_xyz
  1  'x, y, z'
loop_
 _atom_site_type_symbol
 _atom_site_label
 _atom_site_symmetry_multiplicity
 _atom_site_fract_x
 _atom_site_fract_y
 _atom_site_fract_z
 _atom_site_occupancy
  Pb  Pb0  1  0.022370  0.977479  0.022549  1
  Pb  Pb1  1  0.022455  0.477560  0.022352  1
  F  F2  1  0.276410  0.973608  0.291194  1
  F  F3  1  0.291242  0.458819  0.276380  1
  F  F4  1  0.805864  0.473659  0.761563  1
  F  F5  1  0.761659  0.958875  0.805962  1
