# generated using pymatgen
data_KHgC3(SN)3
_symmetry_space_group_name_H-M   'P 1'
_cell_length_a   4.17010016
_cell_length_b   11.39881623
_cell_length_c   11.45731668
_cell_angle_alpha   115.60754856
_cell_angle_beta   90.00000000
_cell_angle_gamma   90.00000000
_symmetry_Int_Tables_number   1
_chemical_formula_structural   KHgC3(SN)3
_chemical_formula_sum   'K2 Hg2 C6 S6 N6'
_cell_volume   491.12001286
_cell_formula_units_Z   2
loop_
 _symmetry_equiv_pos_site_id
 _symmetry_equiv_pos_as_xyz
  1  'x, y, z'
loop_
 _atom_site_type_symbol
 _atom_site_label
 _atom_site_symmetry_multiplicity
 _atom_site_fract_x
 _atom_site_fract_y
 _atom_site_fract_z
 _atom_site_occupancy
  K  K0  1  0.250000  0.280525  0.400529  1
  K  K1  1  0.750000  0.719475  0.599471  1
  Hg  Hg2  1  0.750000  0.264601  0.850448  1
  Hg  Hg3  1  0.250000  0.735399  0.149552  1
  C  C4  1  0.750000  0.457790  0.716970  1
  C  C5  1  0.250000  0.027181  0.638027  1
  C  C6  1  0.750000  0.972819  0.361973  1
  C  C7  1  0.250000  0.797159  0.906260  1
  C  C8  1  0.250000  0.542210  0.283030  1
  C  C9  1  0.750000  0.202841  0.093740  1
  S  S10  1  0.250000  0.183004  0.668835  1
  S  S11  1  0.750000  0.099972  0.937732  1
  S  S12  1  0.750000  0.496351  0.874595  1
  S  S13  1  0.250000  0.900028  0.062268  1
  S  S14  1  0.750000  0.816995  0.331165  1
  S  S15  1  0.250000  0.503649  0.125405  1
  N  N16  1  0.750000  0.084086  0.383712  1
  N  N17  1  0.750000  0.270900  0.205733  1
  N  N18  1  0.750000  0.431696  0.605350  1
  N  N19  1  0.250000  0.729100  0.794267  1
  N  N20  1  0.250000  0.915914  0.616288  1
  N  N21  1  0.250000  0.568304  0.394650  1
