# generated using pymatgen
data_TiO
_symmetry_space_group_name_H-M   'P 1'
_cell_length_a   4.28676591
_cell_length_b   20.80802971
_cell_length_c   5.80553450
_cell_angle_alpha   106.55480370
_cell_angle_beta   90.24542076
_cell_angle_gamma   114.19050562
_symmetry_Int_Tables_number   1
_chemical_formula_structural   TiO
_chemical_formula_sum   'Ti21 O21'
_cell_volume   448.43489522
_cell_formula_units_Z   21
loop_
 _symmetry_equiv_pos_site_id
 _symmetry_equiv_pos_as_xyz
  1  'x, y, z'
loop_
 _atom_site_type_symbol
 _atom_site_label
 _atom_site_symmetry_multiplicity
 _atom_site_fract_x
 _atom_site_fract_y
 _atom_site_fract_z
 _atom_site_occupancy
  Ti  Ti0  1  0.980084  0.005574  0.493585  1
  Ti  Ti1  1  0.000000  0.750000  0.500000  1
  Ti  Ti2  1  0.000000  0.750000  0.000000  1
  Ti  Ti3  1  0.366438  0.917498  0.171820  1
  Ti  Ti4  1  0.365001  0.918888  0.678411  1
  Ti  Ti5  1  0.019916  0.494426  0.506415  1
  Ti  Ti6  1  0.367584  0.657925  0.158872  1
  Ti  Ti7  1  0.384375  0.662923  0.660170  1
  Ti  Ti8  1  0.615625  0.837077  0.339830  1
  Ti  Ti9  1  0.632416  0.842075  0.841128  1
  Ti  Ti10  1  0.000000  0.250000  0.500000  1
  Ti  Ti11  1  0.293081  0.410784  0.176960  1
  Ti  Ti12  1  0.311243  0.419754  0.669752  1
  Ti  Ti13  1  0.634999  0.581112  0.321589  1
  Ti  Ti14  1  0.633562  0.582502  0.828180  1
  Ti  Ti15  1  0.343005  0.169287  0.164412  1
  Ti  Ti16  1  0.354695  0.173896  0.672385  1
  Ti  Ti17  1  0.645305  0.326104  0.327615  1
  Ti  Ti18  1  0.656995  0.330713  0.835588  1
  Ti  Ti19  1  0.688757  0.080246  0.330248  1
  Ti  Ti20  1  0.706919  0.089216  0.823040  1
  O  O21  1  0.116143  0.835765  0.837996  1
  O  O22  1  0.098365  0.833252  0.337542  1
  O  O23  1  0.472357  -0.000640  0.507242  1
  O  O24  1  0.135486  0.580341  0.822606  1
  O  O25  1  0.134101  0.577372  0.333222  1
  O  O26  1  0.500000  0.750000  0.500000  1
  O  O27  1  0.500000  0.750000  0.000000  1
  O  O28  1  0.865899  0.922628  0.666778  1
  O  O29  1  0.864514  0.919659  0.177394  1
  O  O30  1  0.160751  0.334374  0.832857  1
  O  O31  1  0.150079  0.328654  0.337006  1
  O  O32  1  0.527643  0.500640  0.492758  1
  O  O33  1  0.901635  0.666748  0.662458  1
  O  O34  1  0.883857  0.664235  0.162004  1
  O  O35  1  0.201599  0.087944  0.827393  1
  O  O36  1  0.199954  0.087646  0.333837  1
  O  O37  1  0.500000  0.250000  0.000000  1
  O  O38  1  0.800046  0.412354  0.666163  1
  O  O39  1  0.798401  0.412056  0.172607  1
  O  O40  1  0.849921  0.171346  0.662994  1
  O  O41  1  0.839249  0.165626  0.167143  1
