# generated using pymatgen
data_LaFe5(GeO5)3
_symmetry_space_group_name_H-M   'P 1'
_cell_length_a   7.76491079
_cell_length_b   12.57647014
_cell_length_c   12.57645213
_cell_angle_alpha   93.59387095
_cell_angle_beta   89.99986738
_cell_angle_gamma   89.99942385
_symmetry_Int_Tables_number   1
_chemical_formula_structural   LaFe5(GeO5)3
_chemical_formula_sum   'La4 Fe20 Ge12 O60'
_cell_volume   1225.74031236
_cell_formula_units_Z   4
loop_
 _symmetry_equiv_pos_site_id
 _symmetry_equiv_pos_as_xyz
  1  'x, y, z'
loop_
 _atom_site_type_symbol
 _atom_site_label
 _atom_site_symmetry_multiplicity
 _atom_site_fract_x
 _atom_site_fract_y
 _atom_site_fract_z
 _atom_site_occupancy
  La  La0  1  0.250011  0.056490  0.556490  1
  La  La1  1  0.750012  0.443507  0.943507  1
  La  La2  1  0.250000  0.556497  0.056484  1
  La  La3  1  0.749999  0.943516  0.443517  1
  Fe  Fe4  1  0.149594  0.292308  0.959844  1
  Fe  Fe5  1  0.350448  0.459839  0.792314  1
  Fe  Fe6  1  0.202730  0.862654  0.049423  1
  Fe  Fe7  1  0.702745  0.637366  0.450557  1
  Fe  Fe8  1  0.797260  0.137347  0.950576  1
  Fe  Fe9  1  0.649537  0.540122  0.207662  1
  Fe  Fe10  1  0.850493  0.707691  0.040189  1
  Fe  Fe11  1  0.649565  0.207679  0.540145  1
  Fe  Fe12  1  0.297254  0.362642  0.549438  1
  Fe  Fe13  1  0.850515  0.040172  0.707680  1
  Fe  Fe14  1  0.187323  0.106517  0.106517  1
  Fe  Fe15  1  0.350506  0.792321  0.459834  1
  Fe  Fe16  1  0.312664  0.606514  0.606516  1
  Fe  Fe17  1  0.702733  0.450559  0.637367  1
  Fe  Fe18  1  0.297245  0.549441  0.362632  1
  Fe  Fe19  1  0.797263  0.950577  0.137347  1
  Fe  Fe20  1  0.149505  0.959816  0.292316  1
  Fe  Fe21  1  0.202728  0.049424  0.862653  1
  Fe  Fe22  1  0.812671  0.893485  0.893483  1
  Fe  Fe23  1  0.687333  0.393503  0.393505  1
  Ge  Ge24  1  0.985237  0.617258  0.792586  1
  Ge  Ge25  1  0.999991  0.718395  0.281609  1
  Ge  Ge26  1  0.500000  0.218389  0.781605  1
  Ge  Ge27  1  0.514760  0.292583  0.117257  1
  Ge  Ge28  1  -0.000006  0.281610  0.718397  1
  Ge  Ge29  1  0.499997  0.781601  0.218397  1
  Ge  Ge30  1  0.014756  0.382742  0.207410  1
  Ge  Ge31  1  0.514754  0.117256  0.292587  1
  Ge  Ge32  1  0.485243  0.882746  0.707418  1
  Ge  Ge33  1  0.485242  0.707418  0.882745  1
  Ge  Ge34  1  0.985237  0.792584  0.617260  1
  Ge  Ge35  1  0.014757  0.207411  0.382743  1
  O  O36  1  0.466808  0.658054  0.497196  1
  O  O37  1  0.750004  0.078244  0.578250  1
  O  O38  1  0.321767  0.977012  0.743970  1
  O  O39  1  0.985468  0.607691  0.932339  1
  O  O40  1  0.189998  0.580116  0.742276  1
  O  O41  1  0.721427  0.003833  0.003834  1
  O  O42  1  0.278567  0.996167  0.996166  1
  O  O43  1  0.014527  0.067657  0.392310  1
  O  O44  1  0.809998  0.257725  0.419882  1
  O  O45  1  0.221430  0.496166  0.496162  1
  O  O46  1  0.687176  0.141396  0.810536  1
  O  O47  1  0.687171  0.810535  0.141398  1
  O  O48  1  0.249998  0.921752  0.421753  1
  O  O49  1  0.941959  0.748811  0.748813  1
  O  O50  1  0.533188  0.502805  0.341943  1
  O  O51  1  0.678227  0.022989  0.256031  1
  O  O52  1  0.033194  0.158053  0.997195  1
  O  O53  1  0.690006  0.919886  0.757726  1
  O  O54  1  0.312822  0.189466  0.858605  1
  O  O55  1  0.033191  0.997196  0.158051  1
  O  O56  1  0.812829  0.310531  0.641395  1
  O  O57  1  0.548452  0.355765  0.807257  1
  O  O58  1  0.309995  0.080117  0.242274  1
  O  O59  1  0.178220  0.243966  0.477010  1
  O  O60  1  0.187171  0.358605  0.689467  1
  O  O61  1  0.985470  0.932339  0.607690  1
  O  O62  1  0.678222  0.256032  0.022990  1
  O  O63  1  0.178220  0.477009  0.243962  1
  O  O64  1  0.750004  0.578249  0.078243  1
  O  O65  1  0.821771  0.756036  0.522991  1
  O  O66  1  0.189995  0.742275  0.580118  1
  O  O67  1  0.485465  0.567661  0.892311  1
  O  O68  1  0.558032  0.248811  0.248808  1
  O  O69  1  0.966803  0.841949  0.002804  1
  O  O70  1  0.058031  0.251190  0.251191  1
  O  O71  1  0.451546  0.192744  0.644232  1
  O  O72  1  0.048454  0.692745  0.144237  1
  O  O73  1  0.048460  0.144239  0.692743  1
  O  O74  1  0.533189  0.341944  0.502805  1
  O  O75  1  0.187162  0.689471  0.358600  1
  O  O76  1  0.466808  0.497195  0.658055  1
  O  O77  1  0.309997  0.242277  0.080116  1
  O  O78  1  0.014529  0.392310  0.067656  1
  O  O79  1  0.809998  0.419881  0.257724  1
  O  O80  1  0.321765  0.743970  0.977011  1
  O  O81  1  0.250000  0.421753  0.921753  1
  O  O82  1  0.312824  0.858603  0.189466  1
  O  O83  1  0.812831  0.641399  0.310530  1
  O  O84  1  0.966808  0.002804  0.841950  1
  O  O85  1  0.514528  0.107689  0.432342  1
  O  O86  1  0.778568  0.503836  0.503836  1
  O  O87  1  0.690002  0.757727  0.919885  1
  O  O88  1  0.951542  0.855766  0.307256  1
  O  O89  1  0.548456  0.807258  0.355769  1
  O  O90  1  0.514523  0.432338  0.107686  1
  O  O91  1  0.451546  0.644230  0.192743  1
  O  O92  1  0.441959  0.751190  0.751189  1
  O  O93  1  0.951550  0.307256  0.855764  1
  O  O94  1  0.485467  0.892311  0.567661  1
  O  O95  1  0.821774  0.522992  0.756034  1
