# generated using pymatgen
data_RbHgSbSe3
_symmetry_space_group_name_H-M   'P 1'
_cell_length_a   8.06733879
_cell_length_b   9.10858702
_cell_length_c   11.52586868
_cell_angle_alpha   90.00000000
_cell_angle_beta   90.00000000
_cell_angle_gamma   106.18286235
_symmetry_Int_Tables_number   1
_chemical_formula_structural   RbHgSbSe3
_chemical_formula_sum   'Rb4 Hg4 Sb4 Se12'
_cell_volume   813.38613781
_cell_formula_units_Z   4
loop_
 _symmetry_equiv_pos_site_id
 _symmetry_equiv_pos_as_xyz
  1  'x, y, z'
loop_
 _atom_site_type_symbol
 _atom_site_label
 _atom_site_symmetry_multiplicity
 _atom_site_fract_x
 _atom_site_fract_y
 _atom_site_fract_z
 _atom_site_occupancy
  Se  Se0  1  0.237784  0.463630  0.448173  1
  Se  Se1  1  0.762216  0.036370  0.948173  1
  Se  Se2  1  0.762216  0.536370  0.551827  1
  Se  Se3  1  0.237784  0.963630  0.051827  1
  Se  Se4  1  0.235374  0.404204  0.051194  1
  Se  Se5  1  0.764626  0.095796  0.551194  1
  Se  Se6  1  0.764626  0.595796  0.948806  1
  Se  Se7  1  0.627150  0.781404  0.225746  1
  Se  Se8  1  0.627150  0.281404  0.274254  1
  Se  Se9  1  0.372850  0.218596  0.774254  1
  Se  Se10  1  0.372850  0.718596  0.725746  1
  Se  Se11  1  0.235374  0.904204  0.448806  1
  Rb  Rb12  1  0.980388  0.619604  0.253654  1
  Rb  Rb13  1  0.980388  0.119604  0.246346  1
  Rb  Rb14  1  0.019612  0.880396  0.753654  1
  Rb  Rb15  1  0.019612  0.380396  0.746346  1
  Sb  Sb16  1  0.556230  0.264732  0.500164  1
  Sb  Sb17  1  0.443770  0.735268  0.499836  1
  Sb  Sb18  1  0.556230  0.764732  0.999836  1
  Sb  Sb19  1  0.443770  0.235268  0.000164  1
  Hg  Hg20  1  0.410977  0.478039  0.249296  1
  Hg  Hg21  1  0.589023  0.021961  0.749296  1
  Hg  Hg22  1  0.589023  0.521961  0.750704  1
  Hg  Hg23  1  0.410977  0.978039  0.250704  1
