# generated using pymatgen
data_ErH9C5(NO4)2
_symmetry_space_group_name_H-M   'P 1'
_cell_length_a   6.67841370
_cell_length_b   6.67841370
_cell_length_c   6.62268303
_cell_angle_alpha   73.93051382
_cell_angle_beta   106.06948618
_cell_angle_gamma   115.01876641
_symmetry_Int_Tables_number   1
_chemical_formula_structural   ErH9C5(NO4)2
_chemical_formula_sum   'Er1 H9 C5 N2 O8'
_cell_volume   252.84059930
_cell_formula_units_Z   1
loop_
 _symmetry_equiv_pos_site_id
 _symmetry_equiv_pos_as_xyz
  1  'x, y, z'
loop_
 _atom_site_type_symbol
 _atom_site_label
 _atom_site_symmetry_multiplicity
 _atom_site_fract_x
 _atom_site_fract_y
 _atom_site_fract_z
 _atom_site_occupancy
  Er  Er0  1  0.999087  0.999087  0.000000  1
  H  H1  1  0.185160  0.653907  0.420847  1
  H  H2  1  0.653907  0.185160  0.579153  1
  H  H3  1  0.480091  0.738374  0.519957  1
  H  H4  1  0.738374  0.480091  0.480043  1
  H  H5  1  0.834023  0.460901  0.872564  1
  H  H6  1  0.460901  0.834023  0.127436  1
  H  H7  1  0.087628  0.087628  0.500000  1
  H  H8  1  0.451571  0.457229  0.799125  1
  H  H9  1  0.457229  0.451571  0.200875  1
  C  C10  1  0.939400  0.467638  0.035066  1
  C  C11  1  0.467638  0.939400  0.964934  1
  C  C12  1  0.934124  0.934124  0.500000  1
  C  C13  1  0.292108  0.466533  0.700081  1
  C  C14  1  0.466533  0.292108  0.299919  1
  N  N15  1  0.318377  0.634923  0.535826  1
  N  N16  1  0.634923  0.318377  0.464174  1
  O  O17  1  0.008300  0.310445  0.126009  1
  O  O18  1  0.310445  0.008300  0.873991  1
  O  O19  1  0.980501  0.636997  0.115431  1
  O  O20  1  0.636997  0.980501  0.884569  1
  O  O21  1  0.844648  0.857914  0.666148  1
  O  O22  1  0.857914  0.844648  0.333852  1
  O  O23  1  0.105189  0.325534  0.744077  1
  O  O24  1  0.325534  0.105189  0.255923  1
