# generated using pymatgen
data_Sm(HO)3
_symmetry_space_group_name_H-M   'P 1'
_cell_length_a   6.38658443
_cell_length_b   6.38657220
_cell_length_c   3.69143727
_cell_angle_alpha   90.00000000
_cell_angle_beta   90.00000000
_cell_angle_gamma   119.99995463
_symmetry_Int_Tables_number   1
_chemical_formula_structural   Sm(HO)3
_chemical_formula_sum   'Sm2 H6 O6'
_cell_volume   130.39556104
_cell_formula_units_Z   2
loop_
 _symmetry_equiv_pos_site_id
 _symmetry_equiv_pos_as_xyz
  1  'x, y, z'
loop_
 _atom_site_type_symbol
 _atom_site_label
 _atom_site_symmetry_multiplicity
 _atom_site_fract_x
 _atom_site_fract_y
 _atom_site_fract_z
 _atom_site_occupancy
  Sm  Sm0  1  0.333335  0.666668  0.250000  1
  Sm  Sm1  1  0.666665  0.333332  0.750000  1
  H  H2  1  0.860733  0.724837  0.250000  1
  H  H3  1  0.864107  0.139269  0.250000  1
  H  H4  1  0.275160  0.135892  0.250000  1
  H  H5  1  0.139267  0.275163  0.750000  1
  H  H6  1  0.135893  0.860731  0.750000  1
  H  H7  1  0.724840  0.864108  0.750000  1
  O  O8  1  0.916989  0.607812  0.250000  1
  O  O9  1  0.690820  0.083011  0.250000  1
  O  O10  1  0.392190  0.309181  0.250000  1
  O  O11  1  0.083011  0.392188  0.750000  1
  O  O12  1  0.309180  0.916989  0.750000  1
  O  O13  1  0.607810  0.690819  0.750000  1
