# generated using pymatgen
data_AlHO2
_symmetry_space_group_name_H-M   'P 1'
_cell_length_a   6.81516789
_cell_length_b   6.74013222
_cell_length_c   3.74598364
_cell_angle_alpha   99.20885703
_cell_angle_beta   98.69444557
_cell_angle_gamma   25.20940121
_symmetry_Int_Tables_number   1
_chemical_formula_structural   AlHO2
_chemical_formula_sum   'Al2 H2 O4'
_cell_volume   72.33743660
_cell_formula_units_Z   2
loop_
 _symmetry_equiv_pos_site_id
 _symmetry_equiv_pos_as_xyz
  1  'x, y, z'
loop_
 _atom_site_type_symbol
 _atom_site_label
 _atom_site_symmetry_multiplicity
 _atom_site_fract_x
 _atom_site_fract_y
 _atom_site_fract_z
 _atom_site_occupancy
  Al  Al0  1  0.646984  0.697150  0.198061  1
  Al  Al1  1  0.315271  0.338202  0.782218  1
  H  H2  1  0.677859  0.067951  0.269533  1
  H  H3  1  0.985868  0.005537  0.968017  1
  O  O4  1  0.396916  0.238218  0.282708  1
  O  O5  1  0.743956  0.711505  0.725114  1
  O  O6  1  0.088873  0.116108  0.152598  1
  O  O7  1  0.908154  0.927185  0.860393  1
