# generated using pymatgen
data_NiH4C2(S2N)2
_symmetry_space_group_name_H-M   'P 1'
_cell_length_a   7.23177698
_cell_length_b   8.50619684
_cell_length_c   13.11622434
_cell_angle_alpha   90.00000000
_cell_angle_beta   90.00000000
_cell_angle_gamma   90.01113314
_symmetry_Int_Tables_number   1
_chemical_formula_structural   NiH4C2(S2N)2
_chemical_formula_sum   'Ni4 H16 C8 S16 N8'
_cell_volume   806.84345570
_cell_formula_units_Z   4
loop_
 _symmetry_equiv_pos_site_id
 _symmetry_equiv_pos_as_xyz
  1  'x, y, z'
loop_
 _atom_site_type_symbol
 _atom_site_label
 _atom_site_symmetry_multiplicity
 _atom_site_fract_x
 _atom_site_fract_y
 _atom_site_fract_z
 _atom_site_occupancy
  Ni  Ni0  1  0.861481  0.976583  0.871458  1
  Ni  Ni1  1  0.638519  0.523417  0.371458  1
  Ni  Ni2  1  0.138519  0.023417  0.128542  1
  Ni  Ni3  1  0.361481  0.476583  0.628542  1
  H  H4  1  0.359346  0.977471  0.766769  1
  H  H5  1  0.140654  0.522529  0.266769  1
  H  H6  1  0.328724  0.967787  0.504709  1
  H  H7  1  0.688851  0.564707  0.083214  1
  H  H8  1  0.828724  0.467787  0.995291  1
  H  H9  1  0.496668  0.121860  0.146943  1
  H  H10  1  0.996668  0.621860  0.353057  1
  H  H11  1  0.811149  0.935293  0.583214  1
  H  H12  1  0.171276  0.532213  0.004709  1
  H  H13  1  0.640654  0.022529  0.233231  1
  H  H14  1  0.859346  0.477471  0.733231  1
  H  H15  1  0.671276  0.032213  0.495291  1
  H  H16  1  0.188852  0.064707  0.416786  1
  H  H17  1  0.003332  0.378140  0.646943  1
  H  H18  1  0.311148  0.435293  0.916786  1
  H  H19  1  0.503332  0.878140  0.853057  1
  C  C20  1  0.308563  0.205669  0.526380  1
  C  C21  1  0.105020  0.756907  0.238374  1
  C  C22  1  0.691437  0.794331  0.473620  1
  C  C23  1  0.894980  0.243093  0.761626  1
  C  C24  1  0.394980  0.743093  0.738374  1
  C  C25  1  0.808563  0.705669  0.973620  1
  C  C26  1  0.191437  0.294331  0.026380  1
  C  C27  1  0.605020  0.256907  0.261626  1
  S  S28  1  0.764068  0.221930  0.869540  1
  S  S29  1  0.235932  0.778070  0.130460  1
  S  S30  1  0.735932  0.278070  0.369540  1
  S  S31  1  0.009691  0.935723  0.269579  1
  S  S32  1  0.719220  0.884495  0.007524  1
  S  S33  1  0.219220  0.384495  0.492476  1
  S  S34  1  0.264068  0.721930  0.630460  1
  S  S35  1  0.552355  0.772158  0.369142  1
  S  S36  1  0.990309  0.064278  0.730421  1
  S  S37  1  0.947645  0.727842  0.869142  1
  S  S38  1  0.490309  0.564277  0.769579  1
  S  S39  1  0.447645  0.227842  0.630858  1
  S  S40  1  0.052355  0.272158  0.130858  1
  S  S41  1  0.509691  0.435723  0.230421  1
  S  S42  1  0.780780  0.615505  0.507524  1
  S  S43  1  0.280780  0.115505  0.992476  1
  N  N44  1  0.225919  0.428902  0.978906  1
  N  N45  1  0.079408  0.624911  0.289606  1
  N  N46  1  0.920592  0.375089  0.710394  1
  N  N47  1  0.274081  0.071098  0.478906  1
  N  N48  1  0.420592  0.875089  0.789606  1
  N  N49  1  0.725919  0.928902  0.521094  1
  N  N50  1  0.579408  0.124911  0.210394  1
  N  N51  1  0.774081  0.571098  0.021094  1
