# generated using pymatgen
data_Ba3LiTa3Ti5O21
_symmetry_space_group_name_H-M   'P 1'
_cell_length_a   9.17745372
_cell_length_b   9.21835660
_cell_length_c   11.73045794
_cell_angle_alpha   90.00000000
_cell_angle_beta   90.00000000
_cell_angle_gamma   119.85332976
_symmetry_Int_Tables_number   1
_chemical_formula_structural   Ba3LiTa3Ti5O21
_chemical_formula_sum   'Ba6 Li2 Ta6 Ti10 O42'
_cell_volume   860.71877055
_cell_formula_units_Z   2
loop_
 _symmetry_equiv_pos_site_id
 _symmetry_equiv_pos_as_xyz
  1  'x, y, z'
loop_
 _atom_site_type_symbol
 _atom_site_label
 _atom_site_symmetry_multiplicity
 _atom_site_fract_x
 _atom_site_fract_y
 _atom_site_fract_z
 _atom_site_occupancy
  Ba  Ba0  1  0.005050  0.407325  0.749724  1
  Ba  Ba1  1  0.401000  0.000000  0.750410  1
  Ba  Ba2  1  0.599000  0.000000  0.250410  1
  Ba  Ba3  1  0.402275  0.407325  0.249724  1
  Ba  Ba4  1  0.597725  0.592675  0.749724  1
  Ba  Ba5  1  0.994950  0.592675  0.249724  1
  Li  Li6  1  0.991780  0.000000  0.244494  1
  Li  Li7  1  0.008220  0.000000  0.744494  1
  Ta  Ta8  1  0.242172  0.000000  0.411326  1
  Ta  Ta9  1  0.332135  0.666913  0.501318  1
  Ta  Ta10  1  0.334777  0.666913  0.001318  1
  Ta  Ta11  1  0.667865  0.333087  0.001318  1
  Ta  Ta12  1  0.665223  0.333087  0.501318  1
  Ta  Ta13  1  0.757828  0.000000  0.911326  1
  Ti  Ti14  1  0.251303  0.000000  0.086315  1
  Ti  Ti15  1  0.247122  0.255907  0.593127  1
  Ti  Ti16  1  0.256086  0.254312  0.911007  1
  Ti  Ti17  1  0.748697  0.000000  0.586315  1
  Ti  Ti18  1  0.752878  0.744093  0.093127  1
  Ti  Ti19  1  0.743914  0.745688  0.411007  1
  Ti  Ti20  1  0.001773  0.745688  0.911007  1
  Ti  Ti21  1  0.991215  0.744093  0.593127  1
  Ti  Ti22  1  0.008785  0.255907  0.093127  1
  Ti  Ti23  1  0.998227  0.254312  0.411007  1
  O  O24  1  0.997153  0.792224  0.750230  1
  O  O25  1  0.198864  0.000000  0.577653  1
  O  O26  1  0.196675  0.000000  0.248510  1
  O  O27  1  0.167965  0.685774  0.898450  1
  O  O28  1  0.166516  0.685887  0.597542  1
  O  O29  1  0.996609  0.202067  0.925468  1
  O  O30  1  0.003280  0.207653  0.573158  1
  O  O31  1  0.318291  0.834383  0.399091  1
  O  O32  1  0.313346  0.833123  0.099543  1
  O  O33  1  0.169660  0.482581  0.400866  1
  O  O34  1  0.168556  0.485732  0.102798  1
  O  O35  1  0.312921  0.482581  0.900866  1
  O  O36  1  0.317176  0.485732  0.602798  1
  O  O37  1  0.519777  0.833123  0.599543  1
  O  O38  1  0.516092  0.834383  0.899091  1
  O  O39  1  0.204374  0.207653  0.073158  1
  O  O40  1  0.205458  0.202067  0.425468  1
  O  O41  1  0.204929  0.207776  0.750230  1
  O  O42  1  0.517809  0.685774  0.398450  1
  O  O43  1  0.519371  0.685887  0.097542  1
  O  O44  1  0.202243  0.000000  0.926649  1
  O  O45  1  0.803325  0.000000  0.748510  1
  O  O46  1  0.801136  0.000000  0.077653  1
  O  O47  1  0.797757  0.000000  0.426649  1
  O  O48  1  0.482191  0.314226  0.898450  1
  O  O49  1  0.480629  0.314113  0.597542  1
  O  O50  1  0.795071  0.792224  0.250230  1
  O  O51  1  0.794542  0.797933  0.925468  1
  O  O52  1  0.795626  0.792347  0.573158  1
  O  O53  1  0.483908  0.165617  0.399091  1
  O  O54  1  0.480223  0.166877  0.099543  1
  O  O55  1  0.687079  0.517419  0.400866  1
  O  O56  1  0.682824  0.514268  0.102798  1
  O  O57  1  0.831444  0.514268  0.602798  1
  O  O58  1  0.830340  0.517419  0.900866  1
  O  O59  1  0.681709  0.165617  0.899091  1
  O  O60  1  0.686654  0.166877  0.599543  1
  O  O61  1  0.996720  0.792347  0.073158  1
  O  O62  1  0.003391  0.797933  0.425468  1
  O  O63  1  0.833484  0.314113  0.097542  1
  O  O64  1  0.832035  0.314226  0.398450  1
  O  O65  1  0.002847  0.207776  0.250230  1
