# generated using pymatgen
data_Na2LaPS2O7
_symmetry_space_group_name_H-M   'P 1'
_cell_length_a   5.42719578
_cell_length_b   9.82527896
_cell_length_c   14.92277900
_cell_angle_alpha   87.94884116
_cell_angle_beta   90.00000000
_cell_angle_gamma   90.00000000
_symmetry_Int_Tables_number   1
_chemical_formula_structural   Na2LaPS2O7
_chemical_formula_sum   'Na8 La4 P4 S8 O28'
_cell_volume   795.22812207
_cell_formula_units_Z   4
loop_
 _symmetry_equiv_pos_site_id
 _symmetry_equiv_pos_as_xyz
  1  'x, y, z'
loop_
 _atom_site_type_symbol
 _atom_site_label
 _atom_site_symmetry_multiplicity
 _atom_site_fract_x
 _atom_site_fract_y
 _atom_site_fract_z
 _atom_site_occupancy
  Na  Na0  1  0.000000  0.500000  0.000000  1
  Na  Na1  1  0.001179  0.180156  0.402434  1
  Na  Na2  1  0.500000  0.000000  0.500000  1
  Na  Na3  1  0.998821  0.819844  0.597566  1
  Na  Na4  1  0.501179  0.319844  0.597566  1
  Na  Na5  1  0.500000  0.000000  0.000000  1
  Na  Na6  1  0.498821  0.680156  0.402434  1
  Na  Na7  1  0.000000  0.500000  0.500000  1
  La  La8  1  0.467870  0.028594  0.221187  1
  La  La9  1  0.967870  0.471406  0.778813  1
  La  La10  1  0.032130  0.528594  0.221187  1
  La  La11  1  0.532130  0.971406  0.778813  1
  P  P12  1  0.524371  0.684608  0.150444  1
  P  P13  1  0.475629  0.315392  0.849556  1
  P  P14  1  0.975629  0.184608  0.150444  1
  P  P15  1  0.024371  0.815392  0.849556  1
  S  S16  1  0.984908  0.159555  0.760594  1
  S  S17  1  0.485969  0.649165  0.629402  1
  S  S18  1  0.484908  0.340445  0.239405  1
  S  S19  1  0.514031  0.350835  0.370598  1
  S  S20  1  0.515092  0.659555  0.760594  1
  S  S21  1  0.014031  0.149165  0.629402  1
  S  S22  1  0.985969  0.850835  0.370598  1
  S  S23  1  0.015092  0.840445  0.239405  1
  O  O24  1  0.231409  0.375242  0.886459  1
  O  O25  1  0.988337  0.340994  0.129674  1
  O  O26  1  0.488337  0.159006  0.870326  1
  O  O27  1  0.017729  0.845883  0.745549  1
  O  O28  1  0.731909  0.899072  0.393793  1
  O  O29  1  0.768591  0.624758  0.113541  1
  O  O30  1  0.982271  0.154117  0.254451  1
  O  O31  1  0.297386  0.611897  0.110011  1
  O  O32  1  0.473715  0.212753  0.415496  1
  O  O33  1  0.231909  0.600928  0.606207  1
  O  O34  1  0.011663  0.659006  0.870326  1
  O  O35  1  0.731409  0.124758  0.113541  1
  O  O36  1  0.511663  0.840994  0.129674  1
  O  O37  1  0.172425  0.947842  0.406456  1
  O  O38  1  0.202614  0.111897  0.110011  1
  O  O39  1  0.973715  0.287247  0.584504  1
  O  O40  1  0.268591  0.875242  0.886459  1
  O  O41  1  0.827575  0.052158  0.593544  1
  O  O42  1  0.702614  0.388103  0.889989  1
  O  O43  1  0.482271  0.345883  0.745549  1
  O  O44  1  0.517729  0.654117  0.254451  1
  O  O45  1  0.797386  0.888103  0.889989  1
  O  O46  1  0.268091  0.100928  0.606207  1
  O  O47  1  0.327575  0.447842  0.406456  1
  O  O48  1  0.026285  0.712753  0.415496  1
  O  O49  1  0.672425  0.552158  0.593544  1
  O  O50  1  0.768091  0.399072  0.393793  1
  O  O51  1  0.526285  0.787247  0.584504  1
