# generated using pymatgen
data_Fe7S8
_symmetry_space_group_name_H-M   'P 1'
_cell_length_a   5.73976443
_cell_length_b   6.15051470
_cell_length_c   11.17199581
_cell_angle_alpha   83.35401370
_cell_angle_beta   89.96853302
_cell_angle_gamma   90.01344790
_symmetry_Int_Tables_number   1
_chemical_formula_structural   Fe7S8
_chemical_formula_sum   'Fe14 S16'
_cell_volume   391.74907963
_cell_formula_units_Z   2
loop_
 _symmetry_equiv_pos_site_id
 _symmetry_equiv_pos_as_xyz
  1  'x, y, z'
loop_
 _atom_site_type_symbol
 _atom_site_label
 _atom_site_symmetry_multiplicity
 _atom_site_fract_x
 _atom_site_fract_y
 _atom_site_fract_z
 _atom_site_occupancy
  Fe  Fe0  1  0.997404  0.026516  0.002137  1
  Fe  Fe1  1  0.524582  0.134285  0.142360  1
  Fe  Fe2  1  0.482894  0.476995  0.982991  1
  Fe  Fe3  1  0.983565  0.272023  0.268056  1
  Fe  Fe4  1  0.025677  0.616579  0.107376  1
  Fe  Fe5  1  0.497685  0.723732  0.247834  1
  Fe  Fe6  1  0.016763  0.477668  0.482630  1
  Fe  Fe7  1  0.999710  0.874529  0.374837  1
  Fe  Fe8  1  0.503283  0.025791  0.502679  1
  Fe  Fe9  1  0.473825  0.615456  0.607127  1
  Fe  Fe10  1  0.002144  0.724002  0.748107  1
  Fe  Fe11  1  0.973255  0.134631  0.642474  1
  Fe  Fe12  1  0.500249  0.874956  0.875116  1
  Fe  Fe13  1  0.517613  0.272807  0.766740  1
  S  S14  1  0.832541  0.320706  0.059234  1
  S  S15  1  0.335276  0.429451  0.189633  1
  S  S16  1  0.671884  0.806377  0.063454  1
  S  S17  1  0.836909  0.585824  0.300687  1
  S  S18  1  0.172869  0.943254  0.186510  1
  S  S19  1  0.330723  0.694872  0.426053  1
  S  S20  1  0.669655  0.056640  0.323620  1
  S  S21  1  0.827510  0.806729  0.563526  1
  S  S22  1  0.163418  0.163700  0.448995  1
  S  S23  1  0.327783  0.942188  0.686499  1
  S  S24  1  0.665453  0.321110  0.559020  1
  S  S25  1  0.831025  0.055213  0.823989  1
  S  S26  1  0.166379  0.429451  0.691180  1
  S  S27  1  0.337815  0.165284  0.949574  1
  S  S28  1  0.661995  0.585729  0.801142  1
  S  S29  1  0.170117  0.693504  0.926422  1
