# generated using pymatgen
data_ErZr11Si11PO48
_symmetry_space_group_name_H-M   'P 1'
_cell_length_a   5.62992816
_cell_length_b   5.62992784
_cell_length_c   67.53500510
_cell_angle_alpha   106.66503870
_cell_angle_beta   106.66469698
_cell_angle_gamma   115.25570376
_symmetry_Int_Tables_number   1
_chemical_formula_structural   ErZr11Si11PO48
_chemical_formula_sum   'Er2 Zr22 Si22 P2 O96'
_cell_volume   1634.87241564
_cell_formula_units_Z   2
loop_
 _symmetry_equiv_pos_site_id
 _symmetry_equiv_pos_as_xyz
  1  'x, y, z'
loop_
 _atom_site_type_symbol
 _atom_site_label
 _atom_site_symmetry_multiplicity
 _atom_site_fract_x
 _atom_site_fract_y
 _atom_site_fract_z
 _atom_site_occupancy
  Er  Er0  1  0.126149  0.876145  0.937687  1
  Er  Er1  1  0.123904  0.873905  0.853980  1
  Zr  Zr2  1  0.124164  0.874166  0.770695  1
  Zr  Zr3  1  0.124996  0.874989  0.687498  1
  Zr  Zr4  1  0.878907  0.128916  0.979818  1
  Zr  Zr5  1  0.124990  0.874998  0.604165  1
  Zr  Zr6  1  0.875004  0.125004  0.895833  1
  Zr  Zr7  1  0.124993  0.874992  0.520833  1
  Zr  Zr8  1  0.871102  0.121093  0.811849  1
  Zr  Zr9  1  0.125010  0.875005  0.437500  1
  Zr  Zr10  1  0.875039  0.125038  0.729172  1
  Zr  Zr11  1  0.125003  0.875009  0.354167  1
  Zr  Zr12  1  0.874987  0.124987  0.645831  1
  Zr  Zr13  1  0.125001  0.875001  0.270834  1
  Zr  Zr14  1  0.875000  0.124998  0.562498  1
  Zr  Zr15  1  0.125024  0.875016  0.187502  1
  Zr  Zr16  1  0.875006  0.125009  0.479167  1
  Zr  Zr17  1  0.125016  0.875023  0.104169  1
  Zr  Zr18  1  0.875000  0.125000  0.395833  1
  Zr  Zr19  1  0.125827  0.875827  0.020972  1
  Zr  Zr20  1  0.875010  0.125008  0.312500  1
  Zr  Zr21  1  0.875016  0.125018  0.229168  1
  Zr  Zr22  1  0.875014  0.125014  0.145836  1
  Zr  Zr23  1  0.874978  0.124977  0.062495  1
  Si  Si24  1  0.378281  0.628272  0.979712  1
  Si  Si25  1  0.375005  0.625005  0.895833  1
  Si  Si26  1  0.371732  0.621740  0.811955  1
  Si  Si27  1  0.374787  0.624779  0.729130  1
  Si  Si28  1  0.625167  0.375163  0.770862  1
  Si  Si29  1  0.374991  0.624992  0.645832  1
  Si  Si30  1  0.625024  0.375027  0.687504  1
  Si  Si31  1  0.375000  0.625009  0.562500  1
  Si  Si32  1  0.624993  0.374990  0.604165  1
  Si  Si33  1  0.375005  0.624997  0.479166  1
  Si  Si34  1  0.624991  0.374991  0.520833  1
  Si  Si35  1  0.375003  0.625003  0.395833  1
  Si  Si36  1  0.625002  0.375005  0.437500  1
  Si  Si37  1  0.375007  0.625015  0.312501  1
  Si  Si38  1  0.625003  0.375001  0.354167  1
  Si  Si39  1  0.375012  0.625002  0.229167  1
  Si  Si40  1  0.624994  0.374994  0.270834  1
  Si  Si41  1  0.375013  0.625014  0.145835  1
  Si  Si42  1  0.625012  0.375015  0.187502  1
  Si  Si43  1  0.375225  0.625230  0.062537  1
  Si  Si44  1  0.624979  0.374978  0.104163  1
  Si  Si45  1  0.624815  0.374819  0.020804  1
  P  P46  1  0.624838  0.374837  0.937472  1
  P  P47  1  0.625169  0.375169  0.854194  1
  O  O48  1  0.196621  0.633466  0.994943  1
  O  O49  1  0.387158  0.811948  0.964835  1
  O  O50  1  0.190868  0.266065  0.964836  1
  O  O51  1  0.189726  0.618378  0.910742  1
  O  O52  1  0.742698  0.805852  0.994944  1
  O  O53  1  0.381619  0.810276  0.880924  1
  O  O54  1  0.284768  0.214705  0.922465  1
  O  O55  1  0.189471  0.260815  0.880924  1
  O  O56  1  0.188032  0.612833  0.826830  1
  O  O57  1  0.784314  0.714545  0.952539  1
  O  O58  1  0.739187  0.810533  0.910743  1
  O  O59  1  0.646148  0.215921  0.952537  1
  O  O60  1  0.366530  0.803378  0.796723  1
  O  O61  1  0.285474  0.215699  0.839129  1
  O  O62  1  0.194155  0.257308  0.796724  1
  O  O63  1  0.194974  0.627790  0.744388  1
  O  O64  1  0.784811  0.354881  0.922464  1
  O  O65  1  0.785314  0.715242  0.869202  1
  O  O66  1  0.733928  0.809137  0.826831  1
  O  O67  1  0.645117  0.215182  0.869201  1
  O  O68  1  0.371857  0.805082  0.713888  1
  O  O69  1  0.262431  0.195562  0.755590  1
  O  O70  1  0.194815  0.261571  0.713890  1
  O  O71  1  0.194890  0.628041  0.661091  1
  O  O72  1  0.784073  0.353845  0.839127  1
  O  O73  1  0.805199  0.738651  0.786118  1
  O  O74  1  0.737688  0.804875  0.744389  1
  O  O75  1  0.628207  0.194740  0.786117  1
  O  O76  1  0.371925  0.805089  0.630571  1
  O  O77  1  0.261819  0.194967  0.672243  1
  O  O78  1  0.194916  0.261758  0.630571  1
  O  O79  1  0.194877  0.628040  0.577758  1
  O  O80  1  0.804625  0.371508  0.755589  1
  O  O81  1  0.805089  0.738265  0.702768  1
  O  O82  1  0.738196  0.805039  0.661091  1
  O  O83  1  0.628125  0.194955  0.702768  1
  O  O84  1  0.371944  0.805087  0.547238  1
  O  O85  1  0.261778  0.194914  0.588905  1
  O  O86  1  0.194926  0.261786  0.547239  1
  O  O87  1  0.194915  0.628049  0.494427  1
  O  O88  1  0.805079  0.371932  0.672241  1
  O  O89  1  0.805048  0.738216  0.619425  1
  O  O90  1  0.738218  0.805072  0.577760  1
  O  O91  1  0.628041  0.194869  0.619424  1
  O  O92  1  0.371949  0.805089  0.463905  1
  O  O93  1  0.261769  0.194918  0.505573  1
  O  O94  1  0.194929  0.261771  0.463907  1
  O  O95  1  0.194892  0.628040  0.411092  1
  O  O96  1  0.805076  0.371933  0.588904  1
  O  O97  1  0.805078  0.738213  0.536094  1
  O  O98  1  0.738220  0.805086  0.494428  1
  O  O99  1  0.628040  0.194893  0.536093  1
  O  O100  1  0.371942  0.805100  0.380574  1
  O  O101  1  0.261785  0.194941  0.422242  1
  O  O102  1  0.194933  0.261782  0.380574  1
  O  O103  1  0.194884  0.628043  0.327759  1
  O  O104  1  0.805080  0.371948  0.505572  1
  O  O105  1  0.805071  0.738222  0.452760  1
  O  O106  1  0.738210  0.805054  0.411093  1
  O  O107  1  0.628047  0.194902  0.452760  1
  O  O108  1  0.371952  0.805089  0.297239  1
  O  O109  1  0.261787  0.194928  0.338907  1
  O  O110  1  0.194927  0.261792  0.297240  1
  O  O111  1  0.194917  0.628056  0.244428  1
  O  O112  1  0.805099  0.371944  0.422240  1
  O  O113  1  0.805063  0.738219  0.369427  1
  O  O114  1  0.738226  0.805085  0.327761  1
  O  O115  1  0.628043  0.194885  0.369425  1
  O  O116  1  0.371951  0.805096  0.213907  1
  O  O117  1  0.261777  0.194924  0.255573  1
  O  O118  1  0.194940  0.261777  0.213908  1
  O  O119  1  0.194908  0.628063  0.161096  1
  O  O120  1  0.805092  0.371945  0.338906  1
  O  O121  1  0.805084  0.738217  0.286095  1
  O  O122  1  0.738227  0.805086  0.244429  1
  O  O123  1  0.628041  0.194893  0.286094  1
  O  O124  1  0.371945  0.805103  0.130575  1
  O  O125  1  0.261788  0.194960  0.172243  1
  O  O126  1  0.194948  0.261795  0.130576  1
  O  O127  1  0.194889  0.628135  0.077777  1
  O  O128  1  0.805082  0.371948  0.255572  1
  O  O129  1  0.805087  0.738234  0.202763  1
  O  O130  1  0.738235  0.805074  0.161096  1
  O  O131  1  0.628060  0.194919  0.202762  1
  O  O132  1  0.372210  0.805029  0.047278  1
  O  O133  1  0.261743  0.194908  0.088898  1
  O  O134  1  0.195137  0.262317  0.047279  1
  O  O135  1  0.805114  0.371945  0.172242  1
  O  O136  1  0.805042  0.738189  0.119426  1
  O  O137  1  0.738424  0.805197  0.077778  1
  O  O138  1  0.628051  0.194900  0.119424  1
  O  O139  1  0.261334  0.194802  0.005549  1
  O  O140  1  0.805036  0.371867  0.088898  1
  O  O141  1  0.804443  0.737561  0.036078  1
  O  O142  1  0.628477  0.195347  0.036076  1
  O  O143  1  0.805234  0.371785  0.005549  1
