# generated using pymatgen
data_Sm2Te3
_symmetry_space_group_name_H-M   'P 1'
_cell_length_a   24.57517802
_cell_length_b   9.45335679
_cell_length_c   9.45335718
_cell_angle_alpha   90.00000000
_cell_angle_beta   54.75973472
_cell_angle_gamma   54.75973445
_symmetry_Int_Tables_number   1
_chemical_formula_structural   Sm2Te3
_chemical_formula_sum   'Sm16 Te24'
_cell_volume   1269.47652016
_cell_formula_units_Z   8
loop_
 _symmetry_equiv_pos_site_id
 _symmetry_equiv_pos_as_xyz
  1  'x, y, z'
loop_
 _atom_site_type_symbol
 _atom_site_label
 _atom_site_symmetry_multiplicity
 _atom_site_fract_x
 _atom_site_fract_y
 _atom_site_fract_z
 _atom_site_occupancy
  Sm  Sm0  1  0.080648  0.629027  0.379027  1
  Sm  Sm1  1  0.166667  0.250000  0.631064  1
  Sm  Sm2  1  0.334944  0.377289  0.253881  1
  Sm  Sm3  1  0.252685  0.870973  0.120973  1
  Sm  Sm4  1  0.334944  0.117876  0.741284  1
  Sm  Sm5  1  0.166667  0.750000  0.868936  1
  Sm  Sm6  1  0.498389  0.258716  0.622711  1
  Sm  Sm7  1  0.580648  0.879027  0.129027  1
  Sm  Sm8  1  0.666667  0.368936  0.250000  1
  Sm  Sm9  1  0.498389  0.746119  0.882124  1
  Sm  Sm10  1  0.666667  0.131064  0.750000  1
  Sm  Sm11  1  0.752685  0.620973  0.370973  1
  Sm  Sm12  1  0.834944  0.241284  0.617876  1
  Sm  Sm13  1  0.998389  0.382124  0.246119  1
  Sm  Sm14  1  0.834944  0.753881  0.877289  1
  Sm  Sm15  1  0.998389  0.122711  0.758716  1
  Te  Te16  1  0.121222  0.494678  0.996302  1
  Te  Te17  1  0.050612  0.348264  0.497253  1
  Te  Te18  1  0.282721  0.151736  0.149089  1
  Te  Te19  1  0.050612  0.999899  0.350911  1
  Te  Te20  1  0.282721  0.500101  0.002747  1
  Te  Te21  1  0.212111  0.005322  0.859970  1
  Te  Te22  1  0.121222  0.641655  0.640030  1
  Te  Te23  1  0.212111  0.858345  0.503698  1
  Te  Te24  1  0.449078  0.495623  0.000849  1
  Te  Te25  1  0.384256  0.348083  0.504377  1
  Te  Te26  1  0.384256  0.999151  0.342857  1
  Te  Te27  1  0.621222  0.140030  0.141655  1
  Te  Te28  1  0.621222  0.496302  0.994678  1
  Te  Te29  1  0.550612  0.997253  0.848264  1
  Te  Te30  1  0.449078  0.657143  0.651917  1
  Te  Te31  1  0.550612  0.850911  0.499899  1
  Te  Te32  1  0.782721  0.502747  0.000101  1
  Te  Te33  1  0.712111  0.359970  0.505322  1
  Te  Te34  1  0.712111  0.003698  0.358345  1
  Te  Te35  1  0.949078  0.151917  0.157143  1
  Te  Te36  1  0.949078  0.500849  0.995623  1
  Te  Te37  1  0.782721  0.649089  0.651736  1
  Te  Te38  1  0.884256  0.004377  0.848083  1
  Te  Te39  1  0.884256  0.842857  0.499151  1
