# generated using pymatgen
data_Mg(FeO2)2
_symmetry_space_group_name_H-M   'P 1'
_cell_length_a   5.86268768
_cell_length_b   5.85752767
_cell_length_c   5.83735388
_cell_angle_alpha   59.87989795
_cell_angle_beta   59.96502426
_cell_angle_gamma   59.95418120
_symmetry_Int_Tables_number   1
_chemical_formula_structural   Mg(FeO2)2
_chemical_formula_sum   'Mg2 Fe4 O8'
_cell_volume   141.53094472
_cell_formula_units_Z   2
loop_
 _symmetry_equiv_pos_site_id
 _symmetry_equiv_pos_as_xyz
  1  'x, y, z'
loop_
 _atom_site_type_symbol
 _atom_site_label
 _atom_site_symmetry_multiplicity
 _atom_site_fract_x
 _atom_site_fract_y
 _atom_site_fract_z
 _atom_site_occupancy
  Mg  Mg0  1  0.125012  0.124685  0.125493  1
  Mg  Mg1  1  0.874988  0.875315  0.874506  1
  Fe  Fe2  1  0.500000  0.500000  -0.000000  1
  Fe  Fe3  1  0.500000  0.000000  0.500000  1
  Fe  Fe4  1  0.500000  0.500000  0.500001  1
  Fe  Fe5  1  0.000001  0.500000  0.499999  1
  O  O6  1  0.261553  0.262572  0.263371  1
  O  O7  1  0.287301  0.737687  0.737306  1
  O  O8  1  0.736746  0.737217  0.288416  1
  O  O9  1  0.712698  0.262315  0.262695  1
  O  O10  1  0.738469  0.287746  0.736348  1
  O  O11  1  0.261532  0.712254  0.263652  1
  O  O12  1  0.263254  0.262783  0.711584  1
  O  O13  1  0.738447  0.737427  0.736629  1
