# generated using pymatgen
data_In11Cu9Se20
_symmetry_space_group_name_H-M   'P 1'
_cell_length_a   29.65247111
_cell_length_b   13.25287679
_cell_length_c   11.13128907
_cell_angle_alpha   53.38073202
_cell_angle_beta   36.88805823
_cell_angle_gamma   26.54166293
_symmetry_Int_Tables_number   1
_chemical_formula_structural   In11Cu9Se20
_chemical_formula_sum   'In11 Cu9 Se20'
_cell_volume   1051.46141825
_cell_formula_units_Z   1
loop_
 _symmetry_equiv_pos_site_id
 _symmetry_equiv_pos_as_xyz
  1  'x, y, z'
loop_
 _atom_site_type_symbol
 _atom_site_label
 _atom_site_symmetry_multiplicity
 _atom_site_fract_x
 _atom_site_fract_y
 _atom_site_fract_z
 _atom_site_occupancy
  In  In0  1  0.000073  0.000373  0.999134  1
  In  In1  1  0.104873  0.488421  0.989730  1
  In  In2  1  0.054173  0.253512  0.486991  1
  In  In3  1  0.302562  0.491036  0.009111  1
  In  In4  1  0.251009  0.247863  0.499031  1
  In  In5  1  0.499735  0.499937  -0.000180  1
  In  In6  1  0.460879  0.228904  0.485950  1
  In  In7  1  0.687654  0.519368  0.008928  1
  In  In8  1  0.638772  0.263855  0.511440  1
  In  In9  1  0.904358  0.502895  0.989304  1
  In  In10  1  0.849679  0.246725  0.513112  1
  Cu  Cu11  1  0.199513  0.001661  0.000189  1
  Cu  Cu12  1  0.399123  0.001389  0.001289  1
  Cu  Cu13  1  0.600036  0.000514  -0.000010  1
  Cu  Cu14  1  0.155793  0.737253  0.491973  1
  Cu  Cu15  1  0.799703  0.001362  0.999723  1
  Cu  Cu16  1  0.351919  0.755642  0.492432  1
  Cu  Cu17  1  0.539776  0.764276  0.508822  1
  Cu  Cu18  1  0.749613  0.751299  0.500314  1
  Cu  Cu19  1  0.950421  0.747348  0.509038  1
  Se  Se20  1  0.017744  0.374475  0.250259  1
  Se  Se21  1  0.218497  0.372495  0.252337  1
  Se  Se22  1  0.190129  0.089675  0.749205  1
  Se  Se23  1  0.132205  0.875266  0.248198  1
  Se  Se24  1  0.061581  0.657977  0.747066  1
  Se  Se25  1  0.419744  0.373074  0.247864  1
  Se  Se26  1  0.386769  0.093318  0.753443  1
  Se  Se27  1  0.333618  0.872465  0.246866  1
  Se  Se28  1  0.287413  0.621986  0.726264  1
  Se  Se29  1  0.619443  0.373278  0.248853  1
  Se  Se30  1  0.590670  0.086463  0.750479  1
  Se  Se31  1  0.529962  0.879022  0.251410  1
  Se  Se32  1  0.459916  0.659752  0.752976  1
  Se  Se33  1  0.802446  0.408211  0.274344  1
  Se  Se34  1  0.786026  0.093994  0.754873  1
  Se  Se35  1  0.733953  0.873346  0.248394  1
  Se  Se36  1  0.658960  0.664335  0.749835  1
  Se  Se37  1  0.985745  0.103782  0.727265  1
  Se  Se38  1  0.924359  0.864859  0.273254  1
  Se  Se39  1  0.861155  0.658594  0.750496  1
