# generated using pymatgen
data_Zr3S4
_symmetry_space_group_name_H-M   'P 1'
_cell_length_a   7.35249163
_cell_length_b   7.36772562
_cell_length_c   29.33513271
_cell_angle_alpha   59.88007640
_cell_angle_beta   60.09653369
_cell_angle_gamma   59.61160219
_symmetry_Int_Tables_number   1
_chemical_formula_structural   Zr3S4
_chemical_formula_sum   'Zr24 S32'
_cell_volume   1120.13543174
_cell_formula_units_Z   8
loop_
 _symmetry_equiv_pos_site_id
 _symmetry_equiv_pos_as_xyz
  1  'x, y, z'
loop_
 _atom_site_type_symbol
 _atom_site_label
 _atom_site_symmetry_multiplicity
 _atom_site_fract_x
 _atom_site_fract_y
 _atom_site_fract_z
 _atom_site_occupancy
  Zr  Zr0  1  0.987864  0.000870  0.997644  1
  Zr  Zr1  1  0.484859  0.002764  0.003407  1
  Zr  Zr2  1  0.000000  0.500000  0.125000  1
  Zr  Zr3  1  0.984332  0.016185  0.369732  1
  Zr  Zr4  1  0.000000  0.000000  0.125000  1
  Zr  Zr5  1  0.500000  0.500000  0.125000  1
  Zr  Zr6  1  0.012136  0.999130  0.252356  1
  Zr  Zr7  1  0.986000  0.534634  0.999120  1
  Zr  Zr8  1  0.521875  0.005796  0.376273  1
  Zr  Zr9  1  0.520909  0.460655  0.376861  1
  Zr  Zr10  1  0.515141  0.997236  0.246593  1
  Zr  Zr11  1  0.985842  0.995317  0.747602  1
  Zr  Zr12  1  0.014158  0.004683  0.502398  1
  Zr  Zr13  1  0.014000  0.465366  0.250880  1
  Zr  Zr14  1  0.000000  0.000000  0.625000  1
  Zr  Zr15  1  0.500000  0.500000  0.625000  1
  Zr  Zr16  1  0.512857  0.990143  0.751983  1
  Zr  Zr17  1  0.487143  0.009857  0.498017  1
  Zr  Zr18  1  0.013823  0.469422  0.502384  1
  Zr  Zr19  1  0.500000  0.000000  0.625000  1
  Zr  Zr20  1  0.015668  0.983815  0.880268  1
  Zr  Zr21  1  0.479091  0.539345  0.873139  1
  Zr  Zr22  1  0.986177  0.530578  0.747616  1
  Zr  Zr23  1  0.478125  0.994204  0.873727  1
  S  S24  1  0.247265  0.255966  0.062465  1
  S  S25  1  0.273644  0.230217  0.182234  1
  S  S26  1  0.252320  0.744371  0.060420  1
  S  S27  1  0.248743  0.739530  0.189938  1
  S  S28  1  0.260980  0.236675  0.313113  1
  S  S29  1  0.751257  0.260470  0.060062  1
  S  S30  1  0.726356  0.769783  0.067766  1
  S  S31  1  0.263659  0.743812  0.312972  1
  S  S32  1  0.747680  0.255629  0.189580  1
  S  S33  1  0.238195  0.262746  0.432917  1
  S  S34  1  0.253808  0.749503  0.435790  1
  S  S35  1  0.734474  0.267838  0.305513  1
  S  S36  1  0.252767  0.252869  0.563767  1
  S  S37  1  0.752735  0.744034  0.187535  1
  S  S38  1  0.757664  0.241057  0.439591  1
  S  S39  1  0.762087  0.735993  0.313988  1
  S  S40  1  0.238596  0.255210  0.688074  1
  S  S41  1  0.254612  0.738482  0.563355  1
  S  S42  1  0.263336  0.741044  0.688959  1
  S  S43  1  0.736664  0.258956  0.561041  1
  S  S44  1  0.241295  0.259948  0.810694  1
  S  S45  1  0.758705  0.740052  0.439306  1
  S  S46  1  0.745388  0.261518  0.686645  1
  S  S47  1  0.761404  0.744790  0.561926  1
  S  S48  1  0.242336  0.758943  0.810409  1
  S  S49  1  0.237913  0.264007  0.936012  1
  S  S50  1  0.265526  0.732162  0.944487  1
  S  S51  1  0.746192  0.250497  0.814210  1
  S  S52  1  0.747233  0.747131  0.686233  1
  S  S53  1  0.736341  0.256188  0.937028  1
  S  S54  1  0.761805  0.737254  0.817083  1
  S  S55  1  0.739020  0.763325  0.936887  1
