# generated using pymatgen
data_La6Ge11
_symmetry_space_group_name_H-M   'P 1'
_cell_length_a   8.83590618
_cell_length_b   12.98102448
_cell_length_c   14.36626271
_cell_angle_alpha   89.99219995
_cell_angle_beta   89.97943912
_cell_angle_gamma   89.87101087
_symmetry_Int_Tables_number   1
_chemical_formula_structural   La6Ge11
_chemical_formula_sum   'La24 Ge44'
_cell_volume   1647.79331271
_cell_formula_units_Z   4
loop_
 _symmetry_equiv_pos_site_id
 _symmetry_equiv_pos_as_xyz
  1  'x, y, z'
loop_
 _atom_site_type_symbol
 _atom_site_label
 _atom_site_symmetry_multiplicity
 _atom_site_fract_x
 _atom_site_fract_y
 _atom_site_fract_z
 _atom_site_occupancy
  La  La0  1  0.120191  0.165033  0.875464  1
  La  La1  1  0.868196  0.168616  0.122481  1
  La  La2  1  0.129795  0.002669  0.623288  1
  La  La3  1  0.618563  0.832786  0.878479  1
  La  La4  1  0.629509  0.164869  0.876026  1
  La  La5  1  0.870546  0.335664  0.376352  1
  La  La6  1  0.631822  0.331916  0.622358  1
  La  La7  1  0.370123  0.497204  0.123219  1
  La  La8  1  0.370403  0.835229  0.123839  1
  La  La9  1  0.881560  0.666681  0.378811  1
  La  La10  1  0.381452  0.167269  0.121408  1
  La  La11  1  0.879843  0.835001  0.124361  1
  La  La12  1  0.379683  0.995966  0.375464  1
  La  La13  1  0.129397  0.664312  0.623804  1
  La  La14  1  0.870218  0.997344  0.376799  1
  La  La15  1  0.620193  0.664477  0.624386  1
  La  La16  1  0.120376  0.504061  0.875246  1
  La  La17  1  0.379750  0.335506  0.375725  1
  La  La18  1  0.131795  0.831366  0.877336  1
  La  La19  1  0.620308  0.004117  0.624633  1
  La  La20  1  0.118593  0.333344  0.621314  1
  La  La21  1  0.368136  0.668103  0.377754  1
  La  La22  1  0.629782  0.502676  0.876591  1
  La  La23  1  0.879756  0.495822  0.124547  1
  Ge  Ge24  1  0.125326  0.293844  0.221698  1
  Ge  Ge25  1  0.378567  0.503722  0.548243  1
  Ge  Ge26  1  0.873748  0.151374  0.712355  1
  Ge  Ge27  1  0.374587  0.206408  0.721384  1
  Ge  Ge28  1  0.642881  0.834998  0.456781  1
  Ge  Ge29  1  0.373814  0.651267  0.787519  1
  Ge  Ge30  1  0.126269  0.848489  0.287752  1
  Ge  Ge31  1  0.628023  0.666635  0.069838  1
  Ge  Ge32  1  0.871709  0.501880  0.542868  1
  Ge  Ge33  1  0.373688  0.015632  0.785696  1
  Ge  Ge34  1  0.122403  0.667223  0.037339  1
  Ge  Ge35  1  0.121376  0.996345  0.048132  1
  Ge  Ge36  1  0.606384  0.333815  0.038130  1
  Ge  Ge37  1  0.128297  0.498215  0.457177  1
  Ge  Ge38  1  0.123961  0.666617  0.209769  1
  Ge  Ge39  1  0.356981  0.165034  0.543329  1
  Ge  Ge40  1  0.873837  0.515785  0.714439  1
  Ge  Ge41  1  0.626193  0.348625  0.212427  1
  Ge  Ge42  1  0.626190  0.984437  0.214312  1
  Ge  Ge43  1  0.625279  0.793727  0.278661  1
  Ge  Ge44  1  0.375872  0.833256  0.709690  1
  Ge  Ge45  1  0.106307  0.833686  0.461888  1
  Ge  Ge46  1  0.372036  0.333286  0.930093  1
  Ge  Ge47  1  0.624064  0.540779  0.276532  1
  Ge  Ge48  1  0.621406  0.496350  0.451861  1
  Ge  Ge49  1  0.124104  0.040708  0.223392  1
  Ge  Ge50  1  0.377632  0.832417  0.537421  1
  Ge  Ge51  1  0.126230  0.484309  0.285598  1
  Ge  Ge52  1  0.878677  0.003794  0.951731  1
  Ge  Ge53  1  0.877655  0.332709  0.962498  1
  Ge  Ge54  1  0.142972  0.335088  0.043149  1
  Ge  Ge55  1  0.371663  0.001910  0.957100  1
  Ge  Ge56  1  0.871954  0.832880  0.569981  1
  Ge  Ge57  1  0.875902  0.959180  0.776672  1
  Ge  Ge58  1  0.128072  0.167111  0.430080  1
  Ge  Ge59  1  0.876109  0.333288  0.790150  1
  Ge  Ge60  1  0.874818  0.706414  0.778369  1
  Ge  Ge61  1  0.623996  0.166775  0.290415  1
  Ge  Ge62  1  0.893749  0.166452  0.538294  1
  Ge  Ge63  1  0.375866  0.458901  0.723686  1
  Ge  Ge64  1  0.393647  0.666029  0.961733  1
  Ge  Ge65  1  0.622280  0.167537  0.462720  1
  Ge  Ge66  1  0.857177  0.664834  0.956587  1
  Ge  Ge67  1  0.628308  0.998199  0.042824  1
