# generated using pymatgen
data_Mg(FeO2)2
_symmetry_space_group_name_H-M   'P 1'
_cell_length_a   5.91218187
_cell_length_b   5.91218187
_cell_length_c   8.36623666
_cell_angle_alpha   90.00000000
_cell_angle_beta   90.00000000
_cell_angle_gamma   90.00000000
_symmetry_Int_Tables_number   1
_chemical_formula_structural   Mg(FeO2)2
_chemical_formula_sum   'Mg4 Fe8 O16'
_cell_volume   292.43255327
_cell_formula_units_Z   4
loop_
 _symmetry_equiv_pos_site_id
 _symmetry_equiv_pos_as_xyz
  1  'x, y, z'
loop_
 _atom_site_type_symbol
 _atom_site_label
 _atom_site_symmetry_multiplicity
 _atom_site_fract_x
 _atom_site_fract_y
 _atom_site_fract_z
 _atom_site_occupancy
  Mg  Mg0  1  0.247648  0.500000  0.750000  1
  Mg  Mg1  1  0.500000  0.752352  0.500000  1
  Mg  Mg2  1  0.752352  0.500000  0.250000  1
  Mg  Mg3  1  0.500000  0.247648  0.000000  1
  Fe  Fe4  1  0.247656  0.000000  0.750000  1
  Fe  Fe5  1  0.751474  0.248526  0.625000  1
  Fe  Fe6  1  0.752344  0.000000  0.250000  1
  Fe  Fe7  1  0.248526  0.751474  0.125000  1
  Fe  Fe8  1  0.751474  0.751474  0.875000  1
  Fe  Fe9  1  0.000000  0.752344  0.500000  1
  Fe  Fe10  1  0.248526  0.248526  0.375000  1
  Fe  Fe11  1  0.000000  0.247656  0.000000  1
  O  O12  1  0.519097  0.238393  0.249628  1
  O  O13  1  0.761597  0.013595  0.013336  1
  O  O14  1  0.986405  0.238403  0.236664  1
  O  O15  1  0.238403  0.013595  0.986664  1
  O  O16  1  0.480903  0.238393  0.750372  1
  O  O17  1  0.013595  0.238403  0.763336  1
  O  O18  1  0.986405  0.761597  0.263336  1
  O  O19  1  0.013595  0.761597  0.736664  1
  O  O20  1  0.480903  0.761607  0.749628  1
  O  O21  1  0.761607  0.519097  0.499628  1
  O  O22  1  0.761607  0.480903  0.000372  1
  O  O23  1  0.519097  0.761607  0.250372  1
  O  O24  1  0.761597  0.986405  0.486664  1
  O  O25  1  0.238393  0.480903  0.999628  1
  O  O26  1  0.238393  0.519097  0.500372  1
  O  O27  1  0.238403  0.986405  0.513336  1
