# generated using pymatgen
data_U2Tl2Mo3O16
_symmetry_space_group_name_H-M   'P 1'
_cell_length_a   8.41481583
_cell_length_b   9.87165636
_cell_length_c   20.40551528
_cell_angle_alpha   90.00010966
_cell_angle_beta   89.99994383
_cell_angle_gamma   90.00011005
_symmetry_Int_Tables_number   1
_chemical_formula_structural   U2Tl2Mo3O16
_chemical_formula_sum   'U8 Tl8 Mo12 O64'
_cell_volume   1695.04881643
_cell_formula_units_Z   4
loop_
 _symmetry_equiv_pos_site_id
 _symmetry_equiv_pos_as_xyz
  1  'x, y, z'
loop_
 _atom_site_type_symbol
 _atom_site_label
 _atom_site_symmetry_multiplicity
 _atom_site_fract_x
 _atom_site_fract_y
 _atom_site_fract_z
 _atom_site_occupancy
  U  U0  1  0.325884  0.675139  0.023717  1
  U  U1  1  0.825882  0.175141  0.476281  1
  U  U2  1  0.711171  0.594519  0.283077  1
  U  U3  1  0.788836  0.594518  0.783079  1
  U  U4  1  0.674116  0.175139  0.976282  1
  U  U5  1  0.288833  0.094524  0.716923  1
  U  U6  1  0.174118  0.675139  0.523719  1
  U  U7  1  0.211168  0.094520  0.216920  1
  Tl  Tl8  1  0.018753  0.892020  0.894028  1
  Tl  Tl9  1  0.189094  0.440056  0.353165  1
  Tl  Tl10  1  0.689095  0.940056  0.146835  1
  Tl  Tl11  1  0.481248  0.892020  0.394027  1
  Tl  Tl12  1  0.810905  0.940057  0.646835  1
  Tl  Tl13  1  0.518753  0.392020  0.605973  1
  Tl  Tl14  1  0.981247  0.392020  0.105973  1
  Tl  Tl15  1  0.310905  0.440057  0.853165  1
  Mo  Mo16  1  0.260878  0.061878  0.530326  1
  Mo  Mo17  1  0.511599  0.374755  0.134472  1
  Mo  Mo18  1  0.760879  0.561878  0.969675  1
  Mo  Mo19  1  0.429347  0.733191  0.690122  1
  Mo  Mo20  1  0.011599  0.874754  0.365528  1
  Mo  Mo21  1  0.988401  0.374754  0.634472  1
  Mo  Mo22  1  0.239121  0.061878  0.030325  1
  Mo  Mo23  1  0.929348  0.233192  0.809878  1
  Mo  Mo24  1  0.488400  0.874754  0.865527  1
  Mo  Mo25  1  0.570653  0.233192  0.309878  1
  Mo  Mo26  1  0.739121  0.561877  0.469674  1
  Mo  Mo27  1  0.070654  0.733192  0.190122  1
  O  O28  1  0.546876  0.577027  0.966649  1
  O  O29  1  0.370381  0.981629  0.814456  1
  O  O30  1  0.671786  0.168888  0.382205  1
  O  O31  1  0.021073  0.768994  0.567021  1
  O  O32  1  0.622608  0.777772  0.815752  1
  O  O33  1  0.320698  0.685464  0.759399  1
  O  O34  1  0.829738  0.650122  0.037856  1
  O  O35  1  0.629619  0.481628  0.185544  1
  O  O36  1  0.377392  0.277773  0.184248  1
  O  O37  1  0.344735  0.135093  0.605423  1
  O  O38  1  0.376881  0.153634  0.306801  1
  O  O39  1  0.643439  0.271212  0.086313  1
  O  O40  1  0.368649  0.974053  0.196060  1
  O  O41  1  0.876882  0.653634  0.193198  1
  O  O42  1  0.038209  0.916133  0.187034  1
  O  O43  1  0.392500  0.473877  0.079559  1
  O  O44  1  0.868650  0.474052  0.303940  1
  O  O45  1  0.953124  0.577026  0.466649  1
  O  O46  1  0.824534  0.074746  0.018909  1
  O  O47  1  0.683398  0.384349  0.481303  1
  O  O48  1  0.478927  0.768994  0.067021  1
  O  O49  1  0.062940  0.222990  0.235170  1
  O  O50  1  0.453123  0.077027  0.033350  1
  O  O51  1  0.828213  0.168888  0.882205  1
  O  O52  1  0.183397  0.884349  0.018697  1
  O  O53  1  0.675468  0.074748  0.518908  1
  O  O54  1  0.175468  0.574748  0.981092  1
  O  O55  1  0.820699  0.185464  0.740602  1
  O  O56  1  0.131350  0.974052  0.696060  1
  O  O57  1  0.316603  0.884349  0.518697  1
  O  O58  1  0.978925  0.268993  0.432979  1
  O  O59  1  0.329738  0.150121  0.462144  1
  O  O60  1  0.679302  0.185463  0.240601  1
  O  O61  1  0.356561  0.771211  0.913687  1
  O  O62  1  0.170262  0.150122  0.962144  1
  O  O63  1  0.171787  0.668888  0.117795  1
  O  O64  1  0.328213  0.668888  0.617795  1
  O  O65  1  0.623118  0.653634  0.693198  1
  O  O66  1  0.122608  0.277773  0.684248  1
  O  O67  1  0.155264  0.135093  0.105422  1
  O  O68  1  0.892500  0.973877  0.420442  1
  O  O69  1  0.961791  0.416133  0.812966  1
  O  O70  1  0.437058  0.222989  0.735170  1
  O  O71  1  0.937058  0.722989  0.764830  1
  O  O72  1  0.324530  0.574749  0.481092  1
  O  O73  1  0.046877  0.077026  0.533351  1
  O  O74  1  0.521076  0.268992  0.932980  1
  O  O75  1  0.461789  0.916133  0.687034  1
  O  O76  1  0.844735  0.635092  0.894577  1
  O  O77  1  0.123119  0.153635  0.806802  1
  O  O78  1  0.129619  0.981628  0.314456  1
  O  O79  1  0.816602  0.384349  0.981303  1
  O  O80  1  0.607500  0.973876  0.920441  1
  O  O81  1  0.877392  0.777772  0.315752  1
  O  O82  1  0.655265  0.635092  0.394578  1
  O  O83  1  0.856561  0.271211  0.586313  1
  O  O84  1  0.143439  0.771212  0.413687  1
  O  O85  1  0.562942  0.722989  0.264830  1
  O  O86  1  0.870381  0.481629  0.685544  1
  O  O87  1  0.179302  0.685464  0.259398  1
  O  O88  1  0.631349  0.474052  0.803941  1
  O  O89  1  0.670262  0.650123  0.537857  1
  O  O90  1  0.107500  0.473877  0.579558  1
  O  O91  1  0.538209  0.416132  0.312966  1
