# generated using pymatgen
data_AgCSN
_symmetry_space_group_name_H-M   'P 1'
_cell_length_a   6.25237149
_cell_length_b   6.25237149
_cell_length_c   8.49657794
_cell_angle_alpha   82.86066946
_cell_angle_beta   82.86066944
_cell_angle_gamma   84.68933026
_symmetry_Int_Tables_number   1
_chemical_formula_structural   AgCSN
_chemical_formula_sum   'Ag4 C4 S4 N4'
_cell_volume   326.01455126
_cell_formula_units_Z   4
loop_
 _symmetry_equiv_pos_site_id
 _symmetry_equiv_pos_as_xyz
  1  'x, y, z'
loop_
 _atom_site_type_symbol
 _atom_site_label
 _atom_site_symmetry_multiplicity
 _atom_site_fract_x
 _atom_site_fract_y
 _atom_site_fract_z
 _atom_site_occupancy
  C  C0  1  0.758214  0.034034  0.388127  1
  C  C1  1  0.465966  0.741786  0.111873  1
  C  C2  1  0.241786  0.965966  0.611873  1
  C  C3  1  0.534034  0.258214  0.888127  1
  N  N4  1  0.760481  0.856181  0.452769  1
  N  N5  1  0.356181  0.260481  0.952769  1
  N  N6  1  0.239519  0.143819  0.547231  1
  N  N7  1  0.643819  0.739519  0.047231  1
  S  S8  1  0.746385  0.283895  0.299816  1
  S  S9  1  0.253615  0.716105  0.700184  1
  S  S10  1  0.216105  0.753615  0.200184  1
  S  S11  1  0.783895  0.246385  0.799816  1
  Ag  Ag12  1  0.063296  0.264328  0.106262  1
  Ag  Ag13  1  0.235672  0.436704  0.393738  1
  Ag  Ag14  1  0.936704  0.735672  0.893738  1
  Ag  Ag15  1  0.764328  0.563296  0.606262  1
