# generated using pymatgen
data_CeP4(ClO)13
_symmetry_space_group_name_H-M   'P 1'
_cell_length_a   11.33503318
_cell_length_b   14.94583739
_cell_length_c   16.98870019
_cell_angle_alpha   90.00000000
_cell_angle_beta   96.76980238
_cell_angle_gamma   90.00000000
_symmetry_Int_Tables_number   1
_chemical_formula_structural   CeP4(ClO)13
_chemical_formula_sum   'Ce4 P16 Cl52 O52'
_cell_volume   2858.01561120
_cell_formula_units_Z   4
loop_
 _symmetry_equiv_pos_site_id
 _symmetry_equiv_pos_as_xyz
  1  'x, y, z'
loop_
 _atom_site_type_symbol
 _atom_site_label
 _atom_site_symmetry_multiplicity
 _atom_site_fract_x
 _atom_site_fract_y
 _atom_site_fract_z
 _atom_site_occupancy
  Ce  Ce0  1  0.064452  0.201947  0.465161  1
  Ce  Ce1  1  0.435548  0.701947  0.034839  1
  Ce  Ce2  1  0.935548  0.798053  0.534839  1
  Ce  Ce3  1  0.564452  0.298053  0.965161  1
  P  P4  1  0.077785  0.353051  0.659097  1
  P  P5  1  0.642489  0.887505  0.415593  1
  P  P6  1  0.533411  0.537906  0.878659  1
  P  P7  1  0.966589  0.037906  0.621341  1
  P  P8  1  0.033411  0.962094  0.378659  1
  P  P9  1  0.857511  0.387505  0.084407  1
  P  P10  1  0.142489  0.612495  0.915593  1
  P  P11  1  0.194389  0.894468  0.049768  1
  P  P12  1  0.577785  0.146949  0.159097  1
  P  P13  1  0.922215  0.646949  0.340903  1
  P  P14  1  0.357511  0.112495  0.584407  1
  P  P15  1  0.422215  0.853051  0.840903  1
  P  P16  1  0.466589  0.462094  0.121341  1
  P  P17  1  0.805611  0.105532  0.950232  1
  P  P18  1  0.305611  0.394468  0.450232  1
  P  P19  1  0.694389  0.605532  0.549768  1
  Cl  Cl20  1  0.441632  0.544401  0.768319  1
  Cl  Cl21  1  0.712599  0.491442  0.610049  1
  Cl  Cl22  1  0.842242  0.358672  0.196576  1
  Cl  Cl23  1  0.375680  0.427994  0.560383  1
  Cl  Cl24  1  0.874945  0.779066  0.716807  1
  Cl  Cl25  1  0.447501  0.979771  0.875951  1
  Cl  Cl26  1  0.787401  0.991442  0.889951  1
  Cl  Cl27  1  0.342242  0.141328  0.696576  1
  Cl  Cl28  1  0.796124  0.286969  0.444147  1
  Cl  Cl29  1  0.932269  0.318932  0.707795  1
  Cl  Cl30  1  0.201592  0.934841  0.357721  1
  Cl  Cl31  1  0.124320  0.927994  0.939617  1
  Cl  Cl32  1  0.209740  0.356803  0.747502  1
  Cl  Cl33  1  0.798408  0.065159  0.642279  1
  Cl  Cl34  1  0.203876  0.713031  0.555853  1
  Cl  Cl35  1  0.701592  0.565159  0.857721  1
  Cl  Cl36  1  0.353672  0.979282  0.578176  1
  Cl  Cl37  1  0.436564  0.329732  0.405879  1
  Cl  Cl38  1  0.875680  0.072006  0.060383  1
  Cl  Cl39  1  0.146328  0.479282  0.921824  1
  Cl  Cl40  1  0.947501  0.520229  0.375951  1
  Cl  Cl41  1  0.646328  0.020718  0.421824  1
  Cl  Cl42  1  0.287401  0.508558  0.389951  1
  Cl  Cl43  1  0.853672  0.520718  0.078176  1
  Cl  Cl44  1  0.296124  0.213031  0.944147  1
  Cl  Cl45  1  0.290260  0.856803  0.752498  1
  Cl  Cl46  1  0.567731  0.818932  0.792205  1
  Cl  Cl47  1  0.063436  0.829732  0.094121  1
  Cl  Cl48  1  0.563436  0.670268  0.594121  1
  Cl  Cl49  1  0.709740  0.143197  0.247502  1
  Cl  Cl50  1  0.067731  0.681068  0.292205  1
  Cl  Cl51  1  0.625055  0.279066  0.783193  1
  Cl  Cl52  1  0.125055  0.220934  0.283193  1
  Cl  Cl53  1  0.552499  0.020229  0.124049  1
  Cl  Cl54  1  0.624320  0.572006  0.439617  1
  Cl  Cl55  1  0.941632  0.955599  0.268319  1
  Cl  Cl56  1  0.936564  0.170268  0.905879  1
  Cl  Cl57  1  0.020439  0.348494  0.067603  1
  Cl  Cl58  1  0.212599  0.008558  0.110049  1
  Cl  Cl59  1  0.558368  0.455599  0.231681  1
  Cl  Cl60  1  0.790260  0.643197  0.252498  1
  Cl  Cl61  1  0.058368  0.044401  0.731681  1
  Cl  Cl62  1  0.432269  0.181068  0.207795  1
  Cl  Cl63  1  0.374945  0.720934  0.216807  1
  Cl  Cl64  1  0.520439  0.151506  0.567603  1
  Cl  Cl65  1  0.703876  0.786969  0.055853  1
  Cl  Cl66  1  0.052499  0.479771  0.624049  1
  Cl  Cl67  1  0.979561  0.651506  0.932397  1
  Cl  Cl68  1  0.157758  0.641328  0.803424  1
  Cl  Cl69  1  0.479561  0.848494  0.432397  1
  Cl  Cl70  1  0.657758  0.858672  0.303424  1
  Cl  Cl71  1  0.298408  0.434841  0.142279  1
  O  O72  1  0.807027  0.656121  0.550750  1
  O  O73  1  0.239207  0.173027  0.872434  1
  O  O74  1  0.596572  0.342994  0.720542  1
  O  O75  1  0.192973  0.343879  0.449250  1
  O  O76  1  0.220305  0.210163  0.006245  1
  O  O77  1  0.514582  0.254812  0.819337  1
  O  O78  1  0.668809  0.692644  0.070219  1
  O  O79  1  0.990175  0.887081  0.426498  1
  O  O80  1  0.821745  0.699518  0.745024  1
  O  O81  1  0.911340  0.333212  0.470556  1
  O  O82  1  0.509825  0.387081  0.073502  1
  O  O83  1  0.403428  0.657006  0.279458  1
  O  O84  1  0.395232  0.791642  0.904802  1
  O  O85  1  0.009825  0.112919  0.573502  1
  O  O86  1  0.279695  0.710163  0.493755  1
  O  O87  1  0.831191  0.192644  0.429781  1
  O  O88  1  0.527561  0.443824  0.908679  1
  O  O89  1  0.178255  0.300482  0.254976  1
  O  O90  1  0.096572  0.157006  0.220542  1
  O  O91  1  0.168809  0.807356  0.570219  1
  O  O92  1  0.204778  0.180605  0.349533  1
  O  O93  1  0.678255  0.199518  0.754976  1
  O  O94  1  0.260793  0.673027  0.627566  1
  O  O95  1  0.588660  0.833212  0.029444  1
  O  O96  1  0.765686  0.346029  0.026171  1
  O  O97  1  0.331191  0.307356  0.929781  1
  O  O98  1  0.234314  0.653971  0.973829  1
  O  O99  1  0.485418  0.745188  0.180663  1
  O  O100  1  0.720305  0.289837  0.506245  1
  O  O101  1  0.088660  0.666788  0.529444  1
  O  O102  1  0.779695  0.789837  0.993755  1
  O  O103  1  0.321745  0.800482  0.245024  1
  O  O104  1  0.985418  0.754812  0.680663  1
  O  O105  1  0.895232  0.708358  0.404802  1
  O  O106  1  0.307027  0.843879  0.050750  1
  O  O107  1  0.265686  0.153971  0.526171  1
  O  O108  1  0.411340  0.166788  0.970556  1
  O  O109  1  0.014582  0.245188  0.319337  1
  O  O110  1  0.027561  0.056176  0.408679  1
  O  O111  1  0.704778  0.319395  0.849533  1
  O  O112  1  0.692973  0.156121  0.949250  1
  O  O113  1  0.104768  0.291642  0.595198  1
  O  O114  1  0.760793  0.826973  0.127566  1
  O  O115  1  0.604768  0.208358  0.095198  1
  O  O116  1  0.903428  0.842994  0.779458  1
  O  O117  1  0.739207  0.326973  0.372434  1
  O  O118  1  0.472439  0.556176  0.091321  1
  O  O119  1  0.795222  0.819395  0.650467  1
  O  O120  1  0.734314  0.846029  0.473829  1
  O  O121  1  0.295222  0.680605  0.150467  1
  O  O122  1  0.972439  0.943824  0.591321  1
  O  O123  1  0.490175  0.612919  0.926498  1
