# generated using pymatgen
data_CaZrGeO5
_symmetry_space_group_name_H-M   'P 1'
_cell_length_a   7.54473901
_cell_length_b   5.81924395
_cell_length_c   5.67178399
_cell_angle_alpha   107.20266017
_cell_angle_beta   102.02406369
_cell_angle_gamma   104.12938355
_symmetry_Int_Tables_number   1
_chemical_formula_structural   CaZrGeO5
_chemical_formula_sum   'Ca2 Zr2 Ge2 O10'
_cell_volume   219.85059900
_cell_formula_units_Z   2
loop_
 _symmetry_equiv_pos_site_id
 _symmetry_equiv_pos_as_xyz
  1  'x, y, z'
loop_
 _atom_site_type_symbol
 _atom_site_label
 _atom_site_symmetry_multiplicity
 _atom_site_fract_x
 _atom_site_fract_y
 _atom_site_fract_z
 _atom_site_occupancy
  Ca  Ca0  1  0.778176  0.823267  0.157597  1
  Ca  Ca1  1  0.221824  0.176733  0.842403  1
  Zr  Zr2  1  0.500000  0.500000  0.500000  1
  Zr  Zr3  1  0.000000  0.500000  0.500000  1
  Ge  Ge4  1  0.250525  0.824510  0.183702  1
  Ge  Ge5  1  0.749475  0.175490  0.816298  1
  O  O6  1  0.250293  0.424175  0.598144  1
  O  O7  1  0.749707  0.575825  0.401856  1
  O  O8  1  0.065848  0.753711  0.893051  1
  O  O9  1  0.934152  0.246289  0.106949  1
  O  O10  1  0.404313  0.123361  0.220725  1
  O  O11  1  0.595688  0.876639  0.779275  1
  O  O12  1  0.621970  0.393305  0.814956  1
  O  O13  1  0.378030  0.606695  0.185044  1
  O  O14  1  0.872881  0.165428  0.579182  1
  O  O15  1  0.127119  0.834572  0.420818  1
