# generated using pymatgen
data_Zr2N2O
_symmetry_space_group_name_H-M   'P 1'
_cell_length_a   8.85519128
_cell_length_b   8.88862492
_cell_length_c   8.87788546
_cell_angle_alpha   109.42335598
_cell_angle_beta   109.42277912
_cell_angle_gamma   109.53828920
_symmetry_Int_Tables_number   1
_chemical_formula_structural   Zr2N2O
_chemical_formula_sum   'Zr16 N16 O8'
_cell_volume   538.11654212
_cell_formula_units_Z   8
loop_
 _symmetry_equiv_pos_site_id
 _symmetry_equiv_pos_as_xyz
  1  'x, y, z'
loop_
 _atom_site_type_symbol
 _atom_site_label
 _atom_site_symmetry_multiplicity
 _atom_site_fract_x
 _atom_site_fract_y
 _atom_site_fract_z
 _atom_site_occupancy
  Zr  Zr0  1  0.217859  0.759401  0.970428  1
  Zr  Zr1  1  0.988434  0.489887  0.481577  1
  Zr  Zr2  1  0.031408  0.779221  0.252101  1
  Zr  Zr3  1  0.243713  0.040253  0.780280  1
  Zr  Zr4  1  0.465721  0.716250  0.757168  1
  Zr  Zr5  1  0.252164  0.532746  0.292442  1
  Zr  Zr6  1  0.508215  0.018596  0.510479  1
  Zr  Zr7  1  0.997792  0.987191  0.990162  1
  Zr  Zr8  1  0.283012  0.248926  0.535157  1
  Zr  Zr9  1  0.716758  0.748357  0.459488  1
  Zr  Zr10  1  0.496420  0.506093  0.010605  1
  Zr  Zr11  1  0.755538  0.467823  0.716333  1
  Zr  Zr12  1  0.742816  0.961683  0.210587  1
  Zr  Zr13  1  0.536522  0.287322  0.258437  1
  Zr  Zr14  1  0.959474  0.204155  0.740058  1
  Zr  Zr15  1  0.785056  0.246405  0.032964  1
  N  N16  1  0.257670  0.981362  0.531296  1
  N  N17  1  0.230021  0.275058  0.762030  1
  N  N18  1  0.231494  0.456664  0.489565  1
  N  N19  1  0.726887  0.964520  0.950143  1
  N  N20  1  0.463516  0.735324  0.008037  1
  N  N21  1  0.451872  0.487547  0.224783  1
  N  N22  1  0.273793  0.030558  0.042835  1
  N  N23  1  0.487077  0.228310  0.457107  1
  N  N24  1  0.955009  0.727869  0.968615  1
  N  N25  1  0.729223  0.240782  0.773997  1
  N  N26  1  0.967329  0.958048  0.730911  1
  N  N27  1  0.778093  0.548601  0.516165  1
  N  N28  1  0.773223  0.727778  0.237961  1
  N  N29  1  0.738590  0.012042  0.467392  1
  N  N30  1  0.761035  0.228702  0.272939  1
  N  N31  1  0.990820  0.531710  0.258695  1
  O  O32  1  0.014257  0.468974  0.740162  1
  O  O33  1  0.241328  0.771259  0.730107  1
  O  O34  1  0.035021  0.049381  0.273816  1
  O  O35  1  0.046551  0.273432  0.037498  1
  O  O36  1  0.276256  0.759939  0.225877  1
  O  O37  1  0.506759  0.771562  0.541835  1
  O  O38  1  0.547282  0.513508  0.772290  1
  O  O39  1  0.535992  0.262759  0.987677  1
