# generated using pymatgen
data_La4C5Cl2
_symmetry_space_group_name_H-M   'P 1'
_cell_length_a   3.98758556
_cell_length_b   10.20068669
_cell_length_c   11.48197016
_cell_angle_alpha   95.69882092
_cell_angle_beta   99.94019206
_cell_angle_gamma   90.11523338
_symmetry_Int_Tables_number   1
_chemical_formula_structural   La4C5Cl2
_chemical_formula_sum   'La8 C10 Cl4'
_cell_volume   457.66982915
_cell_formula_units_Z   2
loop_
 _symmetry_equiv_pos_site_id
 _symmetry_equiv_pos_as_xyz
  1  'x, y, z'
loop_
 _atom_site_type_symbol
 _atom_site_label
 _atom_site_symmetry_multiplicity
 _atom_site_fract_x
 _atom_site_fract_y
 _atom_site_fract_z
 _atom_site_occupancy
  La  La0  1  0.620635  0.355409  0.236102  1
  La  La1  1  0.174549  0.024336  0.349807  1
  La  La2  1  0.043234  0.649338  0.092408  1
  La  La3  1  0.277529  0.333416  0.550213  1
  La  La4  1  0.721813  0.666329  0.449367  1
  La  La5  1  0.376598  0.647594  0.764917  1
  La  La6  1  0.948255  0.350909  0.907954  1
  La  La7  1  0.826873  0.974321  0.648752  1
  C  C8  1  0.851127  0.454817  0.712303  1
  C  C9  1  0.749452  0.129330  0.495824  1
  C  C10  1  0.468828  0.534201  0.952383  1
  C  C11  1  0.522536  0.465135  0.047313  1
  C  C12  1  0.806428  0.524832  0.621722  1
  C  C13  1  0.249652  0.868423  0.501208  1
  C  C14  1  0.191506  0.476564  0.379748  1
  C  C15  1  0.142437  0.546981  0.289049  1
  C  C16  1  0.703469  0.203592  0.405758  1
  C  C17  1  0.296484  0.796912  0.592923  1
  Cl  Cl18  1  0.603293  0.851069  0.204260  1
  Cl  Cl19  1  0.391145  0.150680  0.795266  1
  Cl  Cl20  1  0.945486  0.837857  0.884941  1
  Cl  Cl21  1  0.057872  0.167390  0.116007  1
