# generated using pymatgen
data_Sr2HoRuO6
_symmetry_space_group_name_H-M   'P 1'
_cell_length_a   5.80520931
_cell_length_b   5.86291124
_cell_length_c   8.23254745
_cell_angle_alpha   90.00000000
_cell_angle_beta   90.36636235
_cell_angle_gamma   90.00000000
_symmetry_Int_Tables_number   1
_chemical_formula_structural   Sr2HoRuO6
_chemical_formula_sum   'Sr4 Ho2 Ru2 O12'
_cell_volume   280.19253929
_cell_formula_units_Z   2
loop_
 _symmetry_equiv_pos_site_id
 _symmetry_equiv_pos_as_xyz
  1  'x, y, z'
loop_
 _atom_site_type_symbol
 _atom_site_label
 _atom_site_symmetry_multiplicity
 _atom_site_fract_x
 _atom_site_fract_y
 _atom_site_fract_z
 _atom_site_occupancy
  O  O0  1  0.426188  0.018865  0.734792  1
  O  O1  1  0.073812  0.518865  0.765208  1
  O  O2  1  0.573812  0.981135  0.265208  1
  O  O3  1  0.926188  0.481135  0.234792  1
  O  O4  1  0.698071  0.728192  0.540228  1
  O  O5  1  0.801929  0.228192  0.959772  1
  O  O6  1  0.301929  0.271808  0.459772  1
  O  O7  1  0.198071  0.771808  0.040228  1
  O  O8  1  0.270442  0.299202  0.038223  1
  O  O9  1  0.229558  0.799202  0.461777  1
  O  O10  1  0.729558  0.700798  0.961777  1
  O  O11  1  0.770442  0.200798  0.538223  1
  Sr  Sr12  1  0.008237  0.035738  0.249350  1
  Sr  Sr13  1  0.491763  0.535738  0.250650  1
  Sr  Sr14  1  0.508237  0.464262  0.749350  1
  Sr  Sr15  1  0.991763  0.964262  0.750650  1
  Ru  Ru16  1  0.500000  0.000000  0.500000  1
  Ru  Ru17  1  0.000000  0.500000  0.000000  1
  Ho  Ho18  1  0.000000  0.500000  0.500000  1
  Ho  Ho19  1  0.500000  0.000000  0.000000  1
