# generated using pymatgen
data_W2C
_symmetry_space_group_name_H-M   'P 1'
_cell_length_a   3.08028054
_cell_length_b   6.21862934
_cell_length_c   4.74812693
_cell_angle_alpha   90.00000000
_cell_angle_beta   90.00000000
_cell_angle_gamma   119.69158611
_symmetry_Int_Tables_number   1
_chemical_formula_structural   W2C
_chemical_formula_sum   'W4 C2'
_cell_volume   79.00948244
_cell_formula_units_Z   2
loop_
 _symmetry_equiv_pos_site_id
 _symmetry_equiv_pos_as_xyz
  1  'x, y, z'
loop_
 _atom_site_type_symbol
 _atom_site_label
 _atom_site_symmetry_multiplicity
 _atom_site_fract_x
 _atom_site_fract_y
 _atom_site_fract_z
 _atom_site_occupancy
  C  C0  1  0.000000  0.000000  0.000000  1
  C  C1  1  0.000000  0.500000  0.500000  1
  W  W2  1  0.339989  0.839989  0.740619  1
  W  W3  1  0.339989  0.339989  0.759381  1
  W  W4  1  0.660011  0.660011  0.240619  1
  W  W5  1  0.660011  0.160011  0.259381  1
