# generated using pymatgen
data_KB5O8
_symmetry_space_group_name_H-M   'P 1'
_cell_length_a   8.27606155
_cell_length_b   12.39026229
_cell_length_c   17.18323156
_cell_angle_alpha   90.00000000
_cell_angle_beta   90.00000000
_cell_angle_gamma   90.00000000
_symmetry_Int_Tables_number   1
_chemical_formula_structural   KB5O8
_chemical_formula_sum   'K8 B40 O64'
_cell_volume   1762.01278233
_cell_formula_units_Z   8
loop_
 _symmetry_equiv_pos_site_id
 _symmetry_equiv_pos_as_xyz
  1  'x, y, z'
loop_
 _atom_site_type_symbol
 _atom_site_label
 _atom_site_symmetry_multiplicity
 _atom_site_fract_x
 _atom_site_fract_y
 _atom_site_fract_z
 _atom_site_occupancy
  K  K0  1  0.553495  0.090005  0.802842  1
  K  K1  1  0.446505  0.909995  0.197158  1
  K  K2  1  0.053495  0.090005  0.697158  1
  K  K3  1  0.946505  0.909995  0.302842  1
  K  K4  1  0.946505  0.590005  0.802842  1
  K  K5  1  0.446505  0.590005  0.697158  1
  K  K6  1  0.053495  0.409995  0.197158  1
  K  K7  1  0.553495  0.409995  0.302842  1
  B  B8  1  0.541706  0.073259  0.554981  1
  B  B9  1  0.427140  0.779045  0.985128  1
  B  B10  1  0.776886  0.446450  0.487453  1
  B  B11  1  0.700182  0.861645  0.989845  1
  B  B12  1  0.299818  0.361645  0.510155  1
  B  B13  1  0.694145  0.232253  0.200986  1
  B  B14  1  0.927140  0.779045  0.514872  1
  B  B15  1  0.694145  0.267747  0.700986  1
  B  B16  1  0.223114  0.946450  0.012547  1
  B  B17  1  0.723114  0.553550  0.987453  1
  B  B18  1  0.700182  0.638355  0.489845  1
  B  B19  1  0.458294  0.926741  0.445019  1
  B  B20  1  0.299818  0.138355  0.010155  1
  B  B21  1  0.541706  0.426741  0.054981  1
  B  B22  1  0.072860  0.220955  0.485128  1
  B  B23  1  0.427140  0.720955  0.485128  1
  B  B24  1  0.799818  0.138355  0.489845  1
  B  B25  1  0.958294  0.926741  0.054981  1
  B  B26  1  0.799818  0.361645  0.989845  1
  B  B27  1  0.276886  0.053550  0.512547  1
  B  B28  1  0.194145  0.267747  0.799014  1
  B  B29  1  0.041706  0.426741  0.445019  1
  B  B30  1  0.276886  0.446450  0.012547  1
  B  B31  1  0.958294  0.573259  0.554981  1
  B  B32  1  0.723114  0.946450  0.487453  1
  B  B33  1  0.200182  0.638355  0.010155  1
  B  B34  1  0.200182  0.861645  0.510155  1
  B  B35  1  0.041706  0.073259  0.945019  1
  B  B36  1  0.194145  0.232253  0.299014  1
  B  B37  1  0.776886  0.053550  0.987453  1
  B  B38  1  0.305855  0.767747  0.799014  1
  B  B39  1  0.305855  0.732253  0.299014  1
  B  B40  1  0.805855  0.767747  0.700986  1
  B  B41  1  0.927140  0.720955  0.014872  1
  B  B42  1  0.072860  0.279045  0.985128  1
  B  B43  1  0.572860  0.279045  0.514872  1
  B  B44  1  0.572860  0.220955  0.014872  1
  B  B45  1  0.223114  0.553550  0.512547  1
  B  B46  1  0.805855  0.732253  0.200986  1
  B  B47  1  0.458294  0.573259  0.945019  1
  O  O48  1  0.830267  0.860488  0.509369  1
  O  O49  1  0.591767  0.780105  0.990500  1
  O  O50  1  0.877660  0.479143  0.554660  1
  O  O51  1  0.730028  0.683846  0.677980  1
  O  O52  1  0.230028  0.683846  0.822020  1
  O  O53  1  0.393804  0.656842  0.273175  1
  O  O54  1  0.887332  0.089047  0.923580  1
  O  O55  1  0.908233  0.219895  0.490500  1
  O  O56  1  0.908233  0.280105  0.990500  1
  O  O57  1  0.122340  0.520857  0.445340  1
  O  O58  1  0.269972  0.183846  0.822020  1
  O  O59  1  0.362527  0.667200  0.978909  1
  O  O60  1  0.677666  0.539732  0.462143  1
  O  O61  1  0.830267  0.639512  0.009369  1
  O  O62  1  0.091767  0.780105  0.509500  1
  O  O63  1  0.177666  0.539732  0.037857  1
  O  O64  1  0.862527  0.667200  0.521091  1
  O  O65  1  0.169733  0.139512  0.490631  1
  O  O66  1  0.606196  0.343158  0.726825  1
  O  O67  1  0.606196  0.156842  0.226825  1
  O  O68  1  0.112668  0.589047  0.576420  1
  O  O69  1  0.677666  0.960268  0.962143  1
  O  O70  1  0.377660  0.479143  0.945340  1
  O  O71  1  0.322334  0.039732  0.037857  1
  O  O72  1  0.622340  0.979143  0.554660  1
  O  O73  1  0.893804  0.656842  0.226825  1
  O  O74  1  0.362527  0.832800  0.478909  1
  O  O75  1  0.877660  0.020857  0.054660  1
  O  O76  1  0.137473  0.167200  0.978909  1
  O  O77  1  0.669733  0.139512  0.009369  1
  O  O78  1  0.393804  0.843158  0.773175  1
  O  O79  1  0.612668  0.910953  0.423580  1
  O  O80  1  0.169733  0.360488  0.990631  1
  O  O81  1  0.893804  0.843158  0.726825  1
  O  O82  1  0.106196  0.343158  0.773175  1
  O  O83  1  0.322334  0.460268  0.537857  1
  O  O84  1  0.106196  0.156842  0.273175  1
  O  O85  1  0.769972  0.183846  0.677980  1
  O  O86  1  0.269972  0.316154  0.322020  1
  O  O87  1  0.177666  0.960268  0.537857  1
  O  O88  1  0.862527  0.832800  0.021091  1
  O  O89  1  0.377660  0.020857  0.445340  1
  O  O90  1  0.408233  0.219895  0.009500  1
  O  O91  1  0.387332  0.089047  0.576420  1
  O  O92  1  0.122340  0.979143  0.945340  1
  O  O93  1  0.637473  0.332800  0.021091  1
  O  O94  1  0.091767  0.719895  0.009500  1
  O  O95  1  0.769972  0.316154  0.177980  1
  O  O96  1  0.822334  0.039732  0.462143  1
  O  O97  1  0.330267  0.639512  0.490631  1
  O  O98  1  0.612668  0.589047  0.923580  1
  O  O99  1  0.408233  0.280105  0.509500  1
  O  O100  1  0.669733  0.360488  0.509369  1
  O  O101  1  0.730028  0.816154  0.177980  1
  O  O102  1  0.230028  0.816154  0.322020  1
  O  O103  1  0.137473  0.332800  0.478909  1
  O  O104  1  0.622340  0.520857  0.054660  1
  O  O105  1  0.330267  0.860488  0.990631  1
  O  O106  1  0.387332  0.410953  0.076420  1
  O  O107  1  0.822334  0.460268  0.962143  1
  O  O108  1  0.112668  0.910953  0.076420  1
  O  O109  1  0.887332  0.410953  0.423580  1
  O  O110  1  0.591767  0.719895  0.490500  1
  O  O111  1  0.637473  0.167200  0.521091  1
