# generated using pymatgen
data_BePH3O5
_symmetry_space_group_name_H-M   'P 1'
_cell_length_a   8.75190621
_cell_length_b   8.91860942
_cell_length_c   5.13201920
_cell_angle_alpha   90.00000000
_cell_angle_beta   90.00000000
_cell_angle_gamma   90.00000000
_symmetry_Int_Tables_number   1
_chemical_formula_structural   BePH3O5
_chemical_formula_sum   'Be4 P4 H12 O20'
_cell_volume   400.57890247
_cell_formula_units_Z   4
loop_
 _symmetry_equiv_pos_site_id
 _symmetry_equiv_pos_as_xyz
  1  'x, y, z'
loop_
 _atom_site_type_symbol
 _atom_site_label
 _atom_site_symmetry_multiplicity
 _atom_site_fract_x
 _atom_site_fract_y
 _atom_site_fract_z
 _atom_site_occupancy
  Be  Be0  1  0.666202  0.600472  0.512609  1
  Be  Be1  1  0.333798  0.399527  0.012609  1
  Be  Be2  1  0.833798  0.100473  0.012609  1
  Be  Be3  1  0.166202  0.899528  0.512609  1
  P  P4  1  0.685455  0.415589  0.979254  1
  P  P5  1  0.314545  0.584411  0.479254  1
  P  P6  1  0.814545  0.915589  0.479254  1
  P  P7  1  0.185455  0.084411  0.979254  1
  H  H8  1  0.840612  0.577105  0.172857  1
  H  H9  1  0.159388  0.422895  0.672857  1
  H  H10  1  0.659388  0.077105  0.672857  1
  H  H11  1  0.340612  0.922895  0.172857  1
  H  H12  1  0.945500  0.384114  0.502734  1
  H  H13  1  0.054500  0.615886  0.002734  1
  H  H14  1  0.554500  0.884114  0.002734  1
  H  H15  1  0.445500  0.115886  0.502734  1
  H  H16  1  0.984789  0.277043  0.733766  1
  H  H17  1  0.015211  0.722957  0.233766  1
  H  H18  1  0.515211  0.777043  0.233766  1
  H  H19  1  0.484789  0.222957  0.733766  1
  O  O20  1  0.736723  0.505245  0.742029  1
  O  O21  1  0.263277  0.494755  0.242029  1
  O  O22  1  0.763277  0.005245  0.242029  1
  O  O23  1  0.236723  0.994755  0.742029  1
  O  O24  1  0.742203  0.516125  0.227380  1
  O  O25  1  0.257797  0.483875  0.727380  1
  O  O26  1  0.757797  0.016125  0.727380  1
  O  O27  1  0.242203  0.983875  0.227380  1
  O  O28  1  0.514560  0.395418  0.002254  1
  O  O29  1  0.485440  0.604582  0.502254  1
  O  O30  1  0.985440  0.895418  0.502254  1
  O  O31  1  0.014560  0.104582  0.002254  1
  O  O32  1  0.771129  0.268366  0.993694  1
  O  O33  1  0.228871  0.731634  0.493694  1
  O  O34  1  0.728871  0.768366  0.493694  1
  O  O35  1  0.271129  0.231634  0.993694  1
  O  O36  1  0.029948  0.330810  0.585322  1
  O  O37  1  0.970052  0.669190  0.085322  1
  O  O38  1  0.470052  0.830810  0.085322  1
  O  O39  1  0.529948  0.169190  0.585322  1
