# generated using pymatgen
data_Li3ErCl6
_symmetry_space_group_name_H-M   'P 1'
_cell_length_a   11.08728965
_cell_length_b   11.08728969
_cell_length_c   6.11251245
_cell_angle_alpha   90.00000000
_cell_angle_beta   90.00000000
_cell_angle_gamma   119.99999984
_symmetry_Int_Tables_number   1
_chemical_formula_structural   Li3ErCl6
_chemical_formula_sum   'Li9 Er3 Cl18'
_cell_volume   650.73052231
_cell_formula_units_Z   3
loop_
 _symmetry_equiv_pos_site_id
 _symmetry_equiv_pos_as_xyz
  1  'x, y, z'
loop_
 _atom_site_type_symbol
 _atom_site_label
 _atom_site_symmetry_multiplicity
 _atom_site_fract_x
 _atom_site_fract_y
 _atom_site_fract_z
 _atom_site_occupancy
  Li  Li0  1  0.000000  0.699092  0.500000  1
  Li  Li1  1  0.000000  0.654760  0.000000  1
  Li  Li2  1  0.300908  0.300908  0.500000  1
  Li  Li3  1  0.345240  0.345240  0.000000  1
  Li  Li4  1  0.653542  0.653542  0.000000  1
  Li  Li5  1  0.346458  0.000000  0.000000  1
  Li  Li6  1  0.654760  0.000000  0.000000  1
  Li  Li7  1  0.699092  0.000000  0.500000  1
  Li  Li8  1  0.000000  0.346458  0.000000  1
  Er  Er9  1  0.333333  0.666667  0.511282  1
  Er  Er10  1  0.000000  0.000000  0.000000  1
  Er  Er11  1  0.666667  0.333333  0.488718  1
  Cl  Cl12  1  0.117068  0.885853  0.774300  1
  Cl  Cl13  1  0.108242  0.560074  0.755904  1
  Cl  Cl14  1  0.210284  0.771869  0.269104  1
  Cl  Cl15  1  0.228131  0.438415  0.269104  1
  Cl  Cl16  1  0.451832  0.891758  0.755904  1
  Cl  Cl17  1  0.114147  0.231214  0.774300  1
  Cl  Cl18  1  0.561585  0.789716  0.269104  1
  Cl  Cl19  1  0.439926  0.548168  0.755904  1
  Cl  Cl20  1  0.231214  0.114147  0.225700  1
  Cl  Cl21  1  0.768786  0.882932  0.774300  1
  Cl  Cl22  1  0.548168  0.439926  0.244096  1
  Cl  Cl23  1  0.438415  0.228131  0.730896  1
  Cl  Cl24  1  0.882932  0.768786  0.225700  1
  Cl  Cl25  1  0.560074  0.108242  0.244096  1
  Cl  Cl26  1  0.789716  0.561585  0.730896  1
  Cl  Cl27  1  0.771869  0.210284  0.730896  1
  Cl  Cl28  1  0.891758  0.451832  0.244096  1
  Cl  Cl29  1  0.885853  0.117068  0.225700  1
