# generated using pymatgen
data_CsMo4(PO4)7
_symmetry_space_group_name_H-M   'P 1'
_cell_length_a   9.66643909
_cell_length_b   10.97551289
_cell_length_c   12.75508220
_cell_angle_alpha   94.28753640
_cell_angle_beta   102.54585400
_cell_angle_gamma   104.10624800
_symmetry_Int_Tables_number   1
_chemical_formula_structural   CsMo4(PO4)7
_chemical_formula_sum   'Cs2 Mo8 P14 O56'
_cell_volume   1269.38606509
_cell_formula_units_Z   2
loop_
 _symmetry_equiv_pos_site_id
 _symmetry_equiv_pos_as_xyz
  1  'x, y, z'
loop_
 _atom_site_type_symbol
 _atom_site_label
 _atom_site_symmetry_multiplicity
 _atom_site_fract_x
 _atom_site_fract_y
 _atom_site_fract_z
 _atom_site_occupancy
  Cs  Cs0  1  0.980888  0.784278  0.235567  1
  Cs  Cs1  1  0.019112  0.215722  0.764433  1
  Mo  Mo2  1  0.730537  0.518536  0.397005  1
  Mo  Mo3  1  0.726022  0.978774  0.907555  1
  Mo  Mo4  1  0.269463  0.481464  0.602995  1
  Mo  Mo5  1  0.723819  0.991864  0.403856  1
  Mo  Mo6  1  0.747586  0.516050  0.877918  1
  Mo  Mo7  1  0.273978  0.021226  0.092445  1
  Mo  Mo8  1  0.276181  0.008136  0.596144  1
  Mo  Mo9  1  0.252414  0.483950  0.122082  1
  P  P10  1  0.372543  0.055878  0.358085  1
  P  P11  1  0.091770  0.699731  0.975982  1
  P  P12  1  0.045444  0.586453  0.754752  1
  P  P13  1  0.581411  0.715205  0.742408  1
  P  P14  1  0.418589  0.284795  0.257592  1
  P  P15  1  0.390300  0.072340  0.861696  1
  P  P16  1  0.060620  0.688795  0.546803  1
  P  P17  1  0.954556  0.413547  0.245248  1
  P  P18  1  0.939380  0.311205  0.453197  1
  P  P19  1  0.908230  0.300269  0.024018  1
  P  P20  1  0.627457  0.944122  0.641915  1
  P  P21  1  0.545680  0.715606  0.265816  1
  P  P22  1  0.609700  0.927660  0.138304  1
  P  P23  1  0.454320  0.284394  0.734184  1
  O  O24  1  0.993615  0.333155  0.342266  1
  O  O25  1  0.153864  0.515961  0.732532  1
  O  O26  1  0.907014  0.504872  0.776335  1
  O  O27  1  0.075078  0.336377  0.035934  1
  O  O28  1  0.693135  0.016260  0.244176  1
  O  O29  1  0.306865  0.983740  0.755824  1
  O  O30  1  0.149899  0.595658  0.528330  1
  O  O31  1  0.878226  0.302226  0.144795  1
  O  O32  1  0.347357  0.366990  0.709300  1
  O  O33  1  0.615128  0.360291  0.771615  1
  O  O34  1  0.724283  0.990283  0.565125  1
  O  O35  1  0.459207  0.944697  0.092770  1
  O  O36  1  0.121774  0.697774  0.855205  1
  O  O37  1  0.134460  0.076487  0.593846  1
  O  O38  1  0.150291  0.824492  0.557974  1
  O  O39  1  0.349381  0.453332  0.501391  1
  O  O40  1  0.849709  0.175508  0.442026  1
  O  O41  1  0.163065  0.604394  0.030810  1
  O  O42  1  0.310936  0.365757  0.232620  1
  O  O43  1  0.092986  0.495128  0.223665  1
  O  O44  1  0.406934  0.217492  0.834418  1
  O  O45  1  0.418937  0.194272  0.159195  1
  O  O46  1  0.700871  0.028009  0.752562  1
  O  O47  1  0.540793  0.055303  0.907230  1
  O  O48  1  0.632642  0.541914  0.955049  1
  O  O49  1  0.006385  0.666845  0.657734  1
  O  O50  1  0.299129  0.971991  0.247438  1
  O  O51  1  0.689064  0.634243  0.767380  1
  O  O52  1  0.465852  0.935521  0.601773  1
  O  O53  1  0.836935  0.395606  0.969190  1
  O  O54  1  0.575738  0.360500  0.311522  1
  O  O55  1  0.581063  0.805728  0.840805  1
  O  O56  1  0.118244  0.067417  0.093749  1
  O  O57  1  0.275717  0.009717  0.434875  1
  O  O58  1  0.642859  0.801929  0.656769  1
  O  O59  1  0.865540  0.923513  0.406154  1
  O  O60  1  0.841125  0.166546  0.967427  1
  O  O61  1  0.367358  0.458086  0.044951  1
  O  O62  1  0.650619  0.546668  0.498609  1
  O  O63  1  0.158875  0.833454  0.032573  1
  O  O64  1  0.357141  0.198071  0.343231  1
  O  O65  1  0.920793  0.666606  0.455860  1
  O  O66  1  0.593066  0.782508  0.165582  1
  O  O67  1  0.708839  0.937281  0.059433  1
  O  O68  1  0.563790  0.819370  0.358947  1
  O  O69  1  0.881756  0.932583  0.906251  1
  O  O70  1  0.291161  0.062719  0.940567  1
  O  O71  1  0.846136  0.484039  0.267468  1
  O  O72  1  0.924922  0.663623  0.964066  1
  O  O73  1  0.424262  0.639500  0.688478  1
  O  O74  1  0.850101  0.404342  0.471670  1
  O  O75  1  0.079207  0.333394  0.544140  1
  O  O76  1  0.652643  0.633010  0.290700  1
  O  O77  1  0.534148  0.064479  0.398227  1
  O  O78  1  0.436210  0.180630  0.641053  1
  O  O79  1  0.384872  0.639709  0.228385  1
