# generated using pymatgen
data_Sr2TbRuO6
_symmetry_space_group_name_H-M   'P 1'
_cell_length_a   5.82291124
_cell_length_b   5.89708095
_cell_length_c   8.26700474
_cell_angle_alpha   90.00000000
_cell_angle_beta   90.42341133
_cell_angle_gamma   90.00000000
_symmetry_Int_Tables_number   1
_chemical_formula_structural   Sr2TbRuO6
_chemical_formula_sum   'Sr4 Tb2 Ru2 O12'
_cell_volume   283.86613702
_cell_formula_units_Z   2
loop_
 _symmetry_equiv_pos_site_id
 _symmetry_equiv_pos_as_xyz
  1  'x, y, z'
loop_
 _atom_site_type_symbol
 _atom_site_label
 _atom_site_symmetry_multiplicity
 _atom_site_fract_x
 _atom_site_fract_y
 _atom_site_fract_z
 _atom_site_occupancy
  O  O0  1  0.729246  0.197788  0.960256  1
  O  O1  1  0.770754  0.697788  0.539744  1
  O  O2  1  0.270754  0.802212  0.039744  1
  O  O3  1  0.229246  0.302212  0.460257  1
  O  O4  1  0.805337  0.728017  0.957549  1
  O  O5  1  0.694663  0.228017  0.542451  1
  O  O6  1  0.194663  0.271983  0.042451  1
  O  O7  1  0.305337  0.771983  0.457549  1
  O  O8  1  0.422815  0.521288  0.733203  1
  O  O9  1  0.077185  0.021288  0.766797  1
  O  O10  1  0.577185  0.478712  0.266797  1
  O  O11  1  0.922815  0.978712  0.233203  1
  Sr  Sr12  1  0.990857  0.461667  0.750606  1
  Sr  Sr13  1  0.509143  0.961667  0.749394  1
  Sr  Sr14  1  0.490857  0.038333  0.250606  1
  Sr  Sr15  1  0.009143  0.538333  0.249394  1
  Ru  Ru16  1  0.000000  0.000000  0.000000  1
  Ru  Ru17  1  0.500000  0.500000  0.500000  1
  Tb  Tb18  1  0.500000  0.500000  0.000000  1
  Tb  Tb19  1  0.000000  0.000000  0.500000  1
