# generated using pymatgen
data_Si6O13
_symmetry_space_group_name_H-M   'P 1'
_cell_length_a   13.80132274
_cell_length_b   14.06364233
_cell_length_c   7.66671199
_cell_angle_alpha   90.00000000
_cell_angle_beta   90.00000000
_cell_angle_gamma   120.53691483
_symmetry_Int_Tables_number   1
_chemical_formula_structural   Si6O13
_chemical_formula_sum   'Si24 O52'
_cell_volume   1281.69036644
_cell_formula_units_Z   4
loop_
 _symmetry_equiv_pos_site_id
 _symmetry_equiv_pos_as_xyz
  1  'x, y, z'
loop_
 _atom_site_type_symbol
 _atom_site_label
 _atom_site_symmetry_multiplicity
 _atom_site_fract_x
 _atom_site_fract_y
 _atom_site_fract_z
 _atom_site_occupancy
  Si  Si0  1  0.127786  0.670261  0.655094  1
  Si  Si1  1  0.127786  0.670261  0.344906  1
  Si  Si2  1  0.129613  0.464986  0.210458  1
  Si  Si3  1  0.129613  0.464986  0.789542  1
  Si  Si4  1  0.327725  0.875580  0.846857  1
  Si  Si5  1  0.327725  0.875580  0.153143  1
  Si  Si6  1  0.542760  0.880730  0.282711  1
  Si  Si7  1  0.542760  0.880730  0.717289  1
  Si  Si8  1  0.336193  0.453810  0.348851  1
  Si  Si9  1  0.336193  0.453810  0.651149  1
  Si  Si10  1  0.553326  0.669464  0.210321  1
  Si  Si11  1  0.553326  0.669464  0.789679  1
  Si  Si12  1  0.462342  0.337934  0.208978  1
  Si  Si13  1  0.462342  0.337934  0.791022  1
  Si  Si14  1  0.684223  0.554035  0.345930  1
  Si  Si15  1  0.684223  0.554035  0.654070  1
  Si  Si16  1  0.459383  0.118163  0.293905  1
  Si  Si17  1  0.459383  0.118163  0.706095  1
  Si  Si18  1  0.678664  0.127164  0.843635  1
  Si  Si19  1  0.678664  0.127164  0.156365  1
  Si  Si20  1  0.881424  0.541810  0.160635  1
  Si  Si21  1  0.881424  0.541810  0.839365  1
  Si  Si22  1  0.873487  0.337553  0.341300  1
  Si  Si23  1  0.873487  0.337553  0.658700  1
  O  O24  1  0.000374  0.000341  0.419374  1
  O  O25  1  0.006428  0.622979  0.755060  1
  O  O26  1  0.213134  0.790410  0.259171  1
  O  O27  1  0.213134  0.790410  0.740829  1
  O  O28  1  0.001784  0.378902  0.726248  1
  O  O29  1  0.173559  0.585475  0.297979  1
  O  O30  1  0.173559  0.585475  0.702021  1
  O  O31  1  0.133276  0.476644  0.000000  1
  O  O32  1  0.428845  0.844648  0.178438  1
  O  O33  1  0.428845  0.844648  0.821562  1
  O  O34  1  0.211638  0.419930  0.725718  1
  O  O35  1  0.211638  0.419930  0.274282  1
  O  O36  1  0.002591  0.004161  0.080265  1
  O  O37  1  0.002591  0.004161  0.919735  1
  O  O38  1  0.507029  0.877778  0.500000  1
  O  O39  1  0.427977  0.578393  0.721097  1
  O  O40  1  0.427977  0.578393  0.278903  1
  O  O41  1  0.365590  0.360705  0.283310  1
  O  O42  1  0.365590  0.360705  0.716690  1
  O  O43  1  0.586261  0.793961  0.272111  1
  O  O44  1  0.586261  0.793961  0.727889  1
  O  O45  1  0.551987  0.667081  0.000000  1
  O  O46  1  0.427722  0.213081  0.259833  1
  O  O47  1  0.427722  0.213081  0.740167  1
  O  O48  1  0.648941  0.645774  0.286146  1
  O  O49  1  0.648941  0.645774  0.713854  1
  O  O50  1  0.364424  0.002083  0.208631  1
  O  O51  1  0.364424  0.002083  0.791369  1
  O  O52  1  0.581877  0.429545  0.706037  1
  O  O53  1  0.581877  0.429545  0.293963  1
  O  O54  1  0.396352  0.875508  0.500000  1
  O  O55  1  0.951976  0.183716  0.500000  1
  O  O56  1  0.468588  0.103161  0.500000  1
  O  O57  1  0.796689  0.583241  0.232191  1
  O  O58  1  0.796689  0.583241  0.767809  1
  O  O59  1  0.579424  0.154150  0.200215  1
  O  O60  1  0.579424  0.154150  0.799785  1
  O  O61  1  0.975792  0.779769  0.000000  1
  O  O62  1  0.471950  0.354815  0.000000  1
  O  O63  1  0.079055  0.824781  0.000000  1
  O  O64  1  0.254128  0.341253  0.000000  1
  O  O65  1  0.834388  0.417157  0.242666  1
  O  O66  1  0.834388  0.417157  0.757334  1
  O  O67  1  0.642995  0.002801  0.231375  1
  O  O68  1  0.642995  0.002801  0.768625  1
  O  O69  1  0.006428  0.622979  0.244940  1
  O  O70  1  0.792303  0.212455  0.735249  1
  O  O71  1  0.792303  0.212455  0.264751  1
  O  O72  1  0.670942  0.353879  0.500000  1
  O  O73  1  0.055484  0.234051  0.500000  1
  O  O74  1  0.001784  0.378902  0.273752  1
  O  O75  1  0.000374  0.000341  0.580626  1
