# generated using pymatgen
data_Mo(HO2)2
_symmetry_space_group_name_H-M   'P 1'
_cell_length_a   7.61561616
_cell_length_b   6.35590081
_cell_length_c   3.76314388
_cell_angle_alpha   105.92810001
_cell_angle_beta   88.07589992
_cell_angle_gamma   112.92436768
_symmetry_Int_Tables_number   1
_chemical_formula_structural   Mo(HO2)2
_chemical_formula_sum   'Mo2 H4 O8'
_cell_volume   160.77043282
_cell_formula_units_Z   2
loop_
 _symmetry_equiv_pos_site_id
 _symmetry_equiv_pos_as_xyz
  1  'x, y, z'
loop_
 _atom_site_type_symbol
 _atom_site_label
 _atom_site_symmetry_multiplicity
 _atom_site_fract_x
 _atom_site_fract_y
 _atom_site_fract_z
 _atom_site_occupancy
  Mo  Mo0  1  0.786107  0.918078  0.724426  1
  Mo  Mo1  1  0.213893  0.081922  0.275574  1
  H  H2  1  0.855166  0.411075  0.974162  1
  H  H3  1  0.144834  0.588925  0.025838  1
  H  H4  1  0.687236  0.466707  0.501241  1
  H  H5  1  0.312764  0.533293  0.498759  1
  O  O6  1  0.540683  0.793605  0.674923  1
  O  O7  1  0.459317  0.206395  0.325077  1
  O  O8  1  0.131853  0.051468  0.763449  1
  O  O9  1  0.868147  0.948532  0.236551  1
  O  O10  1  0.821059  0.239610  0.878927  1
  O  O11  1  0.178941  0.760390  0.121073  1
  O  O12  1  0.806026  0.610124  0.592717  1
  O  O13  1  0.193974  0.389876  0.407283  1
