# generated using pymatgen
data_Os2Pt(CO)10
_symmetry_space_group_name_H-M   'P 1'
_cell_length_a   7.14474828
_cell_length_b   9.11847288
_cell_length_c   13.07253460
_cell_angle_alpha   81.31712030
_cell_angle_beta   81.62055310
_cell_angle_gamma   74.31800431
_symmetry_Int_Tables_number   1
_chemical_formula_structural   Os2Pt(CO)10
_chemical_formula_sum   'Os4 Pt2 C20 O20'
_cell_volume   805.62512986
_cell_formula_units_Z   2
loop_
 _symmetry_equiv_pos_site_id
 _symmetry_equiv_pos_as_xyz
  1  'x, y, z'
loop_
 _atom_site_type_symbol
 _atom_site_label
 _atom_site_symmetry_multiplicity
 _atom_site_fract_x
 _atom_site_fract_y
 _atom_site_fract_z
 _atom_site_occupancy
  Os  Os0  1  0.625327  0.619529  0.698336  1
  Os  Os1  1  0.417930  0.834808  0.848651  1
  Os  Os2  1  0.374673  0.380471  0.301664  1
  Os  Os3  1  0.582070  0.165192  0.151349  1
  Pt  Pt4  1  0.643656  0.112809  0.359155  1
  Pt  Pt5  1  0.356344  0.887191  0.640845  1
  C  C6  1  0.774958  0.480694  0.800997  1
  C  C7  1  0.277802  0.476371  0.425615  1
  C  C8  1  0.722198  0.523629  0.574385  1
  C  C9  1  0.408561  0.520545  0.723561  1
  C  C10  1  0.379637  0.838545  0.501879  1
  C  C11  1  0.799723  0.260835  0.140047  1
  C  C12  1  0.806389  0.748929  0.655641  1
  C  C13  1  0.620363  0.161455  0.498121  1
  C  C14  1  0.622478  0.944663  0.813457  1
  C  C15  1  0.193611  0.251071  0.344359  1
  C  C16  1  0.832244  0.920091  0.349848  1
  C  C17  1  0.200277  0.739165  0.859953  1
  C  C18  1  0.471193  0.285878  0.030670  1
  C  C19  1  0.225042  0.519306  0.199003  1
  C  C20  1  0.167756  0.079909  0.650152  1
  C  C21  1  0.254013  0.007811  0.911060  1
  C  C22  1  0.528807  0.714122  0.969330  1
  C  C23  1  0.591439  0.479455  0.276439  1
  C  C24  1  0.745987  0.992189  0.088940  1
  C  C25  1  0.377522  0.055337  0.186543  1
  O  O26  1  0.841253  0.888030  0.047715  1
  O  O27  1  0.608506  0.193120  0.581837  1
  O  O28  1  0.714047  0.543192  0.267860  1
  O  O29  1  0.285953  0.456808  0.732140  1
  O  O30  1  0.064891  0.689369  0.869675  1
  O  O31  1  0.949958  0.804670  0.347122  1
  O  O32  1  0.783400  0.468346  0.497694  1
  O  O33  1  0.391494  0.806880  0.418163  1
  O  O34  1  0.263228  0.982905  0.201854  1
  O  O35  1  0.860521  0.400918  0.865811  1
  O  O36  1  0.050042  0.195330  0.652878  1
  O  O37  1  0.736772  0.017095  0.798146  1
  O  O38  1  0.139479  0.599082  0.134189  1
  O  O39  1  0.596601  0.639261  0.041497  1
  O  O40  1  0.082917  0.178517  0.378114  1
  O  O41  1  0.935109  0.310631  0.130325  1
  O  O42  1  0.917083  0.821483  0.621886  1
  O  O43  1  0.216600  0.531654  0.502306  1
  O  O44  1  0.158747  0.111970  0.952285  1
  O  O45  1  0.403399  0.360739  0.958503  1
