# generated using pymatgen
data_Ta(CoTe)2
_symmetry_space_group_name_H-M   'P 1'
_cell_length_a   6.55093776
_cell_length_b   6.57538030
_cell_length_c   18.11023034
_cell_angle_alpha   89.99959344
_cell_angle_beta   89.99804723
_cell_angle_gamma   89.99996350
_symmetry_Int_Tables_number   1
_chemical_formula_structural   Ta(CoTe)2
_chemical_formula_sum   'Ta8 Co16 Te16'
_cell_volume   780.09648910
_cell_formula_units_Z   8
loop_
 _symmetry_equiv_pos_site_id
 _symmetry_equiv_pos_as_xyz
  1  'x, y, z'
loop_
 _atom_site_type_symbol
 _atom_site_label
 _atom_site_symmetry_multiplicity
 _atom_site_fract_x
 _atom_site_fract_y
 _atom_site_fract_z
 _atom_site_occupancy
  Ta  Ta0  1  0.849495  0.250000  0.775795  1
  Ta  Ta1  1  0.150561  0.750000  0.224158  1
  Ta  Ta2  1  0.150964  0.250004  0.235491  1
  Ta  Ta3  1  0.349474  0.749996  0.724211  1
  Ta  Ta4  1  0.650805  0.749994  0.264488  1
  Ta  Ta5  1  0.349127  0.249999  0.735489  1
  Ta  Ta6  1  0.849108  0.749997  0.764527  1
  Ta  Ta7  1  0.650434  0.250008  0.275826  1
  Co  Co8  1  0.544133  0.967357  0.817970  1
  Co  Co9  1  0.544198  0.532641  0.817963  1
  Co  Co10  1  0.154082  0.965907  0.817985  1
  Co  Co11  1  0.955803  0.967343  0.317935  1
  Co  Co12  1  0.154147  0.534088  0.817993  1
  Co  Co13  1  0.044171  0.467375  0.682057  1
  Co  Co14  1  0.044218  0.032657  0.682030  1
  Co  Co15  1  0.455826  0.467342  0.182022  1
  Co  Co16  1  0.654125  0.034085  0.682037  1
  Co  Co17  1  0.845890  0.465894  0.182035  1
  Co  Co18  1  0.345964  0.534091  0.317955  1
  Co  Co19  1  0.345937  0.965872  0.317952  1
  Co  Co20  1  0.955820  0.532679  0.317929  1
  Co  Co21  1  0.654080  0.465886  0.682015  1
  Co  Co22  1  0.455793  0.032645  0.182042  1
  Co  Co23  1  0.845862  0.034133  0.182031  1
  Te  Te24  1  0.652959  0.750001  0.108702  1
  Te  Te25  1  0.152979  0.249996  0.391347  1
  Te  Te26  1  0.349256  0.002915  0.594991  1
  Te  Te27  1  0.847034  0.750000  0.608682  1
  Te  Te28  1  0.850373  0.250001  0.589842  1
  Te  Te29  1  0.649605  0.250001  0.089858  1
  Te  Te30  1  0.149641  0.750004  0.410202  1
  Te  Te31  1  0.150777  0.002911  0.095011  1
  Te  Te32  1  0.347053  0.250005  0.891288  1
  Te  Te33  1  0.849238  0.997074  0.904990  1
  Te  Te34  1  0.150752  0.497091  0.095011  1
  Te  Te35  1  0.349232  0.497080  0.594992  1
  Te  Te36  1  0.849234  0.502930  0.904989  1
  Te  Te37  1  0.650698  0.502889  0.405021  1
  Te  Te38  1  0.650768  0.997110  0.405018  1
  Te  Te39  1  0.350384  0.749999  0.910118  1
