# generated using pymatgen
data_KZrPSe6
_symmetry_space_group_name_H-M   'P 1'
_cell_length_a   3.86223172
_cell_length_b   15.22530082
_cell_length_c   18.35260000
_cell_angle_alpha   90.00000000
_cell_angle_beta   90.00000000
_cell_angle_gamma   90.00000000
_symmetry_Int_Tables_number   1
_chemical_formula_structural   KZrPSe6
_chemical_formula_sum   'K4 Zr4 P4 Se24'
_cell_volume   1079.19967931
_cell_formula_units_Z   4
loop_
 _symmetry_equiv_pos_site_id
 _symmetry_equiv_pos_as_xyz
  1  'x, y, z'
loop_
 _atom_site_type_symbol
 _atom_site_label
 _atom_site_symmetry_multiplicity
 _atom_site_fract_x
 _atom_site_fract_y
 _atom_site_fract_z
 _atom_site_occupancy
  K  K0  1  0.000000  0.107002  0.824602  1
  K  K1  1  0.000000  0.892998  0.324602  1
  K  K2  1  0.000000  0.454587  0.816326  1
  K  K3  1  0.000000  0.545413  0.316326  1
  Zr  Zr4  1  0.500000  0.290746  0.602276  1
  Zr  Zr5  1  0.500000  0.797203  0.733828  1
  Zr  Zr6  1  0.500000  0.202797  0.233828  1
  Zr  Zr7  1  0.500000  0.709254  0.102276  1
  P  P8  1  0.000000  0.882440  0.572662  1
  P  P9  1  0.000000  0.117560  0.072662  1
  P  P10  1  0.000000  0.475760  0.516521  1
  P  P11  1  0.000000  0.524240  0.016521  1
  Se  Se12  1  0.500000  0.789294  0.574269  1
  Se  Se13  1  0.000000  0.828470  0.134921  1
  Se  Se14  1  0.000000  0.579094  0.133411  1
  Se  Se15  1  0.000000  0.387284  0.997764  1
  Se  Se16  1  0.000000  0.171530  0.634921  1
  Se  Se17  1  0.000000  0.785842  0.009965  1
  Se  Se18  1  0.000000  0.420906  0.633411  1
  Se  Se19  1  0.500000  0.295961  0.754229  1
  Se  Se20  1  0.000000  0.020555  0.990362  1
  Se  Se21  1  0.000000  0.078152  0.195397  1
  Se  Se22  1  0.500000  0.210706  0.074269  1
  Se  Se23  1  0.000000  0.334204  0.200934  1
  Se  Se24  1  0.500000  0.078480  0.339632  1
  Se  Se25  1  0.000000  0.214158  0.509965  1
  Se  Se26  1  0.000000  0.723949  0.822773  1
  Se  Se27  1  0.000000  0.276051  0.322773  1
  Se  Se28  1  0.500000  0.597055  0.970619  1
  Se  Se29  1  0.500000  0.704039  0.254229  1
  Se  Se30  1  0.000000  0.979445  0.490362  1
  Se  Se31  1  0.000000  0.612716  0.497764  1
  Se  Se32  1  0.500000  0.402946  0.470619  1
  Se  Se33  1  0.000000  0.921848  0.695397  1
  Se  Se34  1  0.000000  0.665796  0.700934  1
  Se  Se35  1  0.500000  0.921520  0.839632  1
