# generated using pymatgen
data_CaIn4Ni
_symmetry_space_group_name_H-M   'P 1'
_cell_length_a   4.32537758
_cell_length_b   7.14105815
_cell_length_c   8.53387824
_cell_angle_alpha   89.39427830
_cell_angle_beta   104.48004668
_cell_angle_gamma   89.96202397
_symmetry_Int_Tables_number   1
_chemical_formula_structural   CaIn4Ni
_chemical_formula_sum   'Ca2 In8 Ni2'
_cell_volume   255.20366802
_cell_formula_units_Z   2
loop_
 _symmetry_equiv_pos_site_id
 _symmetry_equiv_pos_as_xyz
  1  'x, y, z'
loop_
 _atom_site_type_symbol
 _atom_site_label
 _atom_site_symmetry_multiplicity
 _atom_site_fract_x
 _atom_site_fract_y
 _atom_site_fract_z
 _atom_site_occupancy
  Ca  Ca0  1  0.882183  0.250897  0.758205  1
  Ca  Ca1  1  0.121933  0.752509  0.246309  1
  In  In2  1  0.316016  0.544205  0.631191  1
  In  In3  1  0.070188  0.248328  0.143806  1
  In  In4  1  0.685329  0.044878  0.374538  1
  In  In5  1  0.501394  0.001599  0.000532  1
  In  In6  1  0.925978  0.751807  0.856579  1
  In  In7  1  0.679980  0.455684  0.370923  1
  In  In8  1  0.315964  0.956004  0.630242  1
  In  In9  1  0.494705  0.500689  0.001079  1
  Ni  Ni10  1  0.224916  0.251605  0.454789  1
  Ni  Ni11  1  0.771752  0.748711  0.548285  1
