# generated using pymatgen
data_Cs2MnTe2
_symmetry_space_group_name_H-M   'P 1'
_cell_length_a   7.28899037
_cell_length_b   8.03620144
_cell_length_c   9.43121279
_cell_angle_alpha   115.20286219
_cell_angle_beta   112.53643858
_cell_angle_gamma   90.07534416
_symmetry_Int_Tables_number   1
_chemical_formula_structural   Cs2MnTe2
_chemical_formula_sum   'Cs4 Mn2 Te4'
_cell_volume   452.64624226
_cell_formula_units_Z   2
loop_
 _symmetry_equiv_pos_site_id
 _symmetry_equiv_pos_as_xyz
  1  'x, y, z'
loop_
 _atom_site_type_symbol
 _atom_site_label
 _atom_site_symmetry_multiplicity
 _atom_site_fract_x
 _atom_site_fract_y
 _atom_site_fract_z
 _atom_site_occupancy
  Cs  Cs0  1  0.144704  0.473917  0.289086  1
  Cs  Cs1  1  0.353815  0.180942  0.704815  1
  Cs  Cs2  1  0.641281  0.815993  0.288162  1
  Cs  Cs3  1  0.856639  0.526826  0.712070  1
  Mn  Mn4  1  0.748365  0.001487  0.997438  1
  Mn  Mn5  1  0.250664  0.998799  0.997590  1
  Te  Te6  1  0.903939  0.081401  0.801090  1
  Te  Te7  1  0.402274  0.721639  0.799781  1
  Te  Te8  1  0.596915  0.277372  0.195270  1
  Te  Te9  1  0.094685  0.918213  0.193627  1
