# generated using pymatgen
data_Sr2YNbO6
_symmetry_space_group_name_H-M   'P 1'
_cell_length_a   5.86822198
_cell_length_b   5.96790958
_cell_length_c   8.34785528
_cell_angle_alpha   90.00000000
_cell_angle_beta   90.18997677
_cell_angle_gamma   90.00000000
_symmetry_Int_Tables_number   1
_chemical_formula_structural   Sr2YNbO6
_chemical_formula_sum   'Sr4 Y2 Nb2 O12'
_cell_volume   292.34878430
_cell_formula_units_Z   2
loop_
 _symmetry_equiv_pos_site_id
 _symmetry_equiv_pos_as_xyz
  1  'x, y, z'
loop_
 _atom_site_type_symbol
 _atom_site_label
 _atom_site_symmetry_multiplicity
 _atom_site_fract_x
 _atom_site_fract_y
 _atom_site_fract_z
 _atom_site_occupancy
  O  O0  1  0.723185  0.196454  0.457142  1
  O  O1  1  0.776815  0.696454  0.042857  1
  O  O2  1  0.276816  0.803546  0.542858  1
  O  O3  1  0.223185  0.303546  0.957141  1
  O  O4  1  0.806265  0.722805  0.452695  1
  O  O5  1  0.693734  0.222805  0.047304  1
  O  O6  1  0.193734  0.277195  0.547305  1
  O  O7  1  0.306265  0.777195  0.952696  1
  O  O8  1  0.084830  0.026931  0.264292  1
  O  O9  1  0.415171  0.526931  0.235709  1
  O  O10  1  0.584830  0.473069  0.764292  1
  O  O11  1  0.915169  0.973069  0.735709  1
  Sr  Sr12  1  0.990880  0.460820  0.249385  1
  Sr  Sr13  1  0.509119  0.960820  0.250614  1
  Sr  Sr14  1  0.009119  0.539180  0.750615  1
  Sr  Sr15  1  0.490880  0.039180  0.749386  1
  Y  Y16  1  0.000000  0.000000  0.000000  1
  Y  Y17  1  0.500000  0.500000  0.500000  1
  Nb  Nb18  1  0.999999  0.000000  0.500000  1
  Nb  Nb19  1  0.499999  0.500000  1.000000  1
