# generated using pymatgen
data_Ca10P6ClO24F
_symmetry_space_group_name_H-M   'P 1'
_cell_length_a   9.59093060
_cell_length_b   9.59093098
_cell_length_c   13.83271773
_cell_angle_alpha   90.00000000
_cell_angle_beta   90.00000000
_cell_angle_gamma   119.99999872
_symmetry_Int_Tables_number   1
_chemical_formula_structural   Ca10P6ClO24F
_chemical_formula_sum   'Ca20 P12 Cl2 O48 F2'
_cell_volume   1101.94435926
_cell_formula_units_Z   2
loop_
 _symmetry_equiv_pos_site_id
 _symmetry_equiv_pos_as_xyz
  1  'x, y, z'
loop_
 _atom_site_type_symbol
 _atom_site_label
 _atom_site_symmetry_multiplicity
 _atom_site_fract_x
 _atom_site_fract_y
 _atom_site_fract_z
 _atom_site_occupancy
  Ca  Ca0  1  0.260893  0.994405  0.125181  1
  Ca  Ca1  1  0.242348  0.998047  0.623814  1
  Ca  Ca2  1  0.005595  0.266488  0.125181  1
  Ca  Ca3  1  0.001953  0.244302  0.623814  1
  Ca  Ca4  1  0.333333  0.666667  0.999407  1
  Ca  Ca5  1  0.333333  0.666667  0.501451  1
  Ca  Ca6  1  0.333333  0.666667  0.250080  1
  Ca  Ca7  1  0.333333  0.666667  0.748479  1
  Ca  Ca8  1  0.264647  0.259362  0.373146  1
  Ca  Ca9  1  0.246530  0.244193  0.873547  1
  Ca  Ca10  1  0.733512  0.739107  0.125181  1
  Ca  Ca11  1  0.755698  0.757652  0.623814  1
  Ca  Ca12  1  0.666667  0.333333  0.250267  1
  Ca  Ca13  1  0.666667  0.333333  0.750319  1
  Ca  Ca14  1  0.666667  0.333333  0.996934  1
  Ca  Ca15  1  0.666667  0.333333  0.501164  1
  Ca  Ca16  1  0.994715  0.735353  0.373146  1
  Ca  Ca17  1  0.997663  0.753470  0.873547  1
  Ca  Ca18  1  0.740638  0.005285  0.373146  1
  Ca  Ca19  1  0.755807  0.002337  0.873547  1
  P  P20  1  0.032747  0.402809  0.376310  1
  P  P21  1  0.030410  0.399563  0.874842  1
  P  P22  1  0.370062  0.967253  0.376310  1
  P  P23  1  0.369153  0.969590  0.874842  1
  P  P24  1  0.399702  0.367381  0.124791  1
  P  P25  1  0.402203  0.371431  0.625732  1
  P  P26  1  0.597191  0.629938  0.376310  1
  P  P27  1  0.600437  0.630847  0.874842  1
  P  P28  1  0.632619  0.032320  0.124791  1
  P  P29  1  0.628569  0.030772  0.625732  1
  P  P30  1  0.967680  0.600298  0.124791  1
  P  P31  1  0.969228  0.597797  0.625732  1
  Cl  Cl32  1  0.000000  0.000000  0.439697  1
  Cl  Cl33  1  0.000000  0.000000  0.193816  1
  O  O34  1  0.264878  0.907921  0.468240  1
  O  O35  1  0.257523  0.912946  0.965476  1
  O  O36  1  0.258017  0.912542  0.286100  1
  O  O37  1  0.257215  0.914316  0.784958  1
  O  O38  1  0.152960  0.669271  0.125686  1
  O  O39  1  0.154453  0.670122  0.625911  1
  O  O40  1  0.124501  0.590779  0.372350  1
  O  O41  1  0.121428  0.587665  0.875407  1
  O  O42  1  0.087458  0.345475  0.286100  1
  O  O43  1  0.085684  0.342900  0.784958  1
  O  O44  1  0.092079  0.356957  0.468240  1
  O  O45  1  0.087054  0.344576  0.965476  1
  O  O46  1  0.466277  0.875499  0.372350  1
  O  O47  1  0.466238  0.878572  0.875407  1
  O  O48  1  0.516311  0.847040  0.125686  1
  O  O49  1  0.515669  0.845547  0.625911  1
  O  O50  1  0.330729  0.483689  0.125686  1
  O  O51  1  0.329878  0.484331  0.625911  1
  O  O52  1  0.409221  0.533723  0.372350  1
  O  O53  1  0.412335  0.533762  0.875407  1
  O  O54  1  0.334757  0.251127  0.036814  1
  O  O55  1  0.349325  0.261578  0.534701  1
  O  O56  1  0.358656  0.264430  0.217644  1
  O  O57  1  0.345148  0.258631  0.715704  1
  O  O58  1  0.654525  0.741983  0.286100  1
  O  O59  1  0.643043  0.735122  0.468240  1
  O  O60  1  0.657100  0.742785  0.784958  1
  O  O61  1  0.655424  0.742477  0.965476  1
  O  O62  1  0.587746  0.463589  0.119141  1
  O  O63  1  0.590076  0.468397  0.626867  1
  O  O64  1  0.667777  0.515083  0.375912  1
  O  O65  1  0.671585  0.516773  0.875560  1
  O  O66  1  0.484917  0.152693  0.375912  1
  O  O67  1  0.483227  0.154812  0.875560  1
  O  O68  1  0.536411  0.124156  0.119141  1
  O  O69  1  0.531603  0.121678  0.626867  1
  O  O70  1  0.916370  0.665243  0.036814  1
  O  O71  1  0.905774  0.641344  0.217644  1
  O  O72  1  0.912252  0.650675  0.534701  1
  O  O73  1  0.913483  0.654852  0.715704  1
  O  O74  1  0.875844  0.412254  0.119141  1
  O  O75  1  0.878321  0.409924  0.626867  1
  O  O76  1  0.847307  0.332223  0.375912  1
  O  O77  1  0.845188  0.328415  0.875560  1
  O  O78  1  0.748873  0.083630  0.036814  1
  O  O79  1  0.735570  0.094226  0.217644  1
  O  O80  1  0.741369  0.086517  0.715704  1
  O  O81  1  0.738422  0.087748  0.534701  1
  F  F82  1  0.000000  0.000000  0.648284  1
  F  F83  1  0.000000  0.000000  0.878907  1
