# generated using pymatgen
data_SiO2
_symmetry_space_group_name_H-M   'P 1'
_cell_length_a   6.56997379
_cell_length_b   6.56997314
_cell_length_c   6.56997394
_cell_angle_alpha   112.87502757
_cell_angle_beta   112.87502420
_cell_angle_gamma   112.87502897
_symmetry_Int_Tables_number   1
_chemical_formula_structural   SiO2
_chemical_formula_sum   'Si6 O12'
_cell_volume   185.79121976
_cell_formula_units_Z   6
loop_
 _symmetry_equiv_pos_site_id
 _symmetry_equiv_pos_as_xyz
  1  'x, y, z'
loop_
 _atom_site_type_symbol
 _atom_site_label
 _atom_site_symmetry_multiplicity
 _atom_site_fract_x
 _atom_site_fract_y
 _atom_site_fract_z
 _atom_site_occupancy
  Si  Si0  1  0.250000  0.077606  0.422394  1
  Si  Si1  1  0.750000  0.922394  0.577606  1
  Si  Si2  1  0.922394  0.577606  0.750000  1
  Si  Si3  1  0.422394  0.250000  0.077606  1
  Si  Si4  1  0.077606  0.422394  0.250000  1
  Si  Si5  1  0.577606  0.750000  0.922394  1
  O  O6  1  0.500000  0.500000  0.000000  1
  O  O7  1  0.000000  0.500000  0.500000  1
  O  O8  1  0.371663  0.128337  0.250000  1
  O  O9  1  0.500000  0.000000  0.000000  1
  O  O10  1  0.500000  0.000000  0.500000  1
  O  O11  1  0.128337  0.250000  0.371663  1
  O  O12  1  0.250000  0.371663  0.128337  1
  O  O13  1  0.628337  0.871663  0.750000  1
  O  O14  1  0.871663  0.750000  0.628337  1
  O  O15  1  0.000000  0.500000  0.000000  1
  O  O16  1  0.750000  0.628337  0.871663  1
  O  O17  1  0.000000  0.000000  0.500000  1
