# generated using pymatgen
data_As4Pd5Pb
_symmetry_space_group_name_H-M   'P 1'
_cell_length_a   19.72310231
_cell_length_b   6.81606960
_cell_length_c   6.88341220
_cell_angle_alpha   60.10400553
_cell_angle_beta   55.62289360
_cell_angle_gamma   29.59527137
_symmetry_Int_Tables_number   1
_chemical_formula_structural   As4Pd5Pb
_chemical_formula_sum   'As8 Pd10 Pb2'
_cell_volume   377.12521649
_cell_formula_units_Z   2
loop_
 _symmetry_equiv_pos_site_id
 _symmetry_equiv_pos_as_xyz
  1  'x, y, z'
loop_
 _atom_site_type_symbol
 _atom_site_label
 _atom_site_symmetry_multiplicity
 _atom_site_fract_x
 _atom_site_fract_y
 _atom_site_fract_z
 _atom_site_occupancy
  As  As0  1  0.060044  0.311295  0.721241  1
  As  As1  1  0.140123  0.683888  0.280063  1
  As  As2  1  0.242588  0.350277  0.780175  1
  As  As3  1  0.452827  0.353339  0.732360  1
  As  As4  1  0.561377  0.663764  0.213538  1
  As  As5  1  0.642597  0.331498  0.777808  1
  As  As6  1  0.740434  0.658882  0.283603  1
  As  As7  1  0.950779  0.653859  0.231740  1
  Pd  Pd8  1  -0.001421  0.034442  0.015425  1
  Pd  Pd9  1  0.102681  0.990199  0.501580  1
  Pd  Pd10  1  0.195656  -0.011102  -0.012580  1
  Pd  Pd11  1  0.382066  0.103606  0.996225  1
  Pd  Pd12  1  0.321768  0.009593  0.500618  1
  Pd  Pd13  1  0.600062  0.998434  0.008509  1
  Pd  Pd14  1  0.499066  0.953095  0.514089  1
  Pd  Pd15  1  0.821868  0.880545  -0.003770  1
  Pd  Pd16  1  0.692761  0.059773  0.488463  1
  Pd  Pd17  1  0.884464  0.984072  0.503663  1
  Pb  Pb18  1  0.348460  0.690193  0.252767  1
  Pb  Pb19  1  0.849557  0.310748  0.753132  1
