# generated using pymatgen
data_U3CuO10
_symmetry_space_group_name_H-M   'P 1'
_cell_length_a   5.61641082
_cell_length_b   5.66431350
_cell_length_c   7.59280199
_cell_angle_alpha   71.04687638
_cell_angle_beta   70.20390906
_cell_angle_gamma   71.26270695
_symmetry_Int_Tables_number   1
_chemical_formula_structural   U3CuO10
_chemical_formula_sum   'U3 Cu1 O10'
_cell_volume   208.81077922
_cell_formula_units_Z   1
loop_
 _symmetry_equiv_pos_site_id
 _symmetry_equiv_pos_as_xyz
  1  'x, y, z'
loop_
 _atom_site_type_symbol
 _atom_site_label
 _atom_site_symmetry_multiplicity
 _atom_site_fract_x
 _atom_site_fract_y
 _atom_site_fract_z
 _atom_site_occupancy
  U  U0  1  0.000000  0.000000  0.000000  1
  U  U1  1  0.543888  0.458424  0.732027  1
  U  U2  1  0.456112  0.541576  0.267973  1
  Cu  Cu3  1  0.000000  0.000000  0.500000  1
  O  O4  1  0.695445  0.760896  0.138229  1
  O  O5  1  0.916494  0.078167  0.748602  1
  O  O6  1  0.083506  0.921833  0.251398  1
  O  O7  1  0.235001  0.325639  0.357211  1
  O  O8  1  0.311903  0.700198  0.533993  1
  O  O9  1  0.295619  0.691302  0.965856  1
  O  O10  1  0.304555  0.239104  0.861771  1
  O  O11  1  0.688097  0.299802  0.466007  1
  O  O12  1  0.764999  0.674361  0.642789  1
  O  O13  1  0.704381  0.308698  0.034144  1
