# generated using pymatgen
data_Gd2S3
_symmetry_space_group_name_H-M   'P 1'
_cell_length_a   21.85207912
_cell_length_b   8.41486549
_cell_length_c   8.41486529
_cell_angle_alpha   90.00000000
_cell_angle_beta   54.71635919
_cell_angle_gamma   54.71635826
_symmetry_Int_Tables_number   1
_chemical_formula_structural   Gd2S3
_chemical_formula_sum   'Gd16 S24'
_cell_volume   892.51043876
_cell_formula_units_Z   8
loop_
 _symmetry_equiv_pos_site_id
 _symmetry_equiv_pos_as_xyz
  1  'x, y, z'
loop_
 _atom_site_type_symbol
 _atom_site_label
 _atom_site_symmetry_multiplicity
 _atom_site_fract_x
 _atom_site_fract_y
 _atom_site_fract_z
 _atom_site_occupancy
  Gd  Gd0  1  0.085040  0.622439  0.372439  1
  Gd  Gd1  1  0.166667  0.250000  0.630531  1
  Gd  Gd2  1  0.248293  0.877561  0.127561  1
  Gd  Gd3  1  0.338484  0.380375  0.251005  1
  Gd  Gd4  1  0.338484  0.104173  0.733543  1
  Gd  Gd5  1  0.166667  0.750000  0.869469  1
  Gd  Gd6  1  0.494849  0.266457  0.619625  1
  Gd  Gd7  1  0.585040  0.872439  0.122439  1
  Gd  Gd8  1  0.666667  0.369469  0.250000  1
  Gd  Gd9  1  0.494849  0.748995  0.895827  1
  Gd  Gd10  1  0.666667  0.130531  0.750000  1
  Gd  Gd11  1  0.748293  0.627561  0.377561  1
  Gd  Gd12  1  0.838484  0.233543  0.604173  1
  Gd  Gd13  1  0.994849  0.395827  0.248995  1
  Gd  Gd14  1  0.994849  0.119625  0.766457  1
  Gd  Gd15  1  0.838484  0.751005  0.880375  1
  S  S16  1  0.127153  0.488017  0.992339  1
  S  S17  1  0.048884  0.355023  0.494979  1
  S  S18  1  0.048884  0.998323  0.358367  1
  S  S19  1  0.284449  0.144977  0.141633  1
  S  S20  1  0.284449  0.501677  0.005021  1
  S  S21  1  0.127153  0.630524  0.626203  1
  S  S22  1  0.206180  0.869476  0.507661  1
  S  S23  1  0.450759  0.494799  0.995864  1
  S  S24  1  0.382575  0.348139  0.505201  1
  S  S25  1  0.206180  0.011983  0.873797  1
  S  S26  1  0.382575  0.004136  0.347074  1
  S  S27  1  0.627153  0.126203  0.130524  1
  S  S28  1  0.627153  0.492339  0.988017  1
  S  S29  1  0.450759  0.652926  0.651861  1
  S  S30  1  0.548884  0.858367  0.498323  1
  S  S31  1  0.784449  0.505021  0.001677  1
  S  S32  1  0.706180  0.373797  0.511983  1
  S  S33  1  0.548884  0.994979  0.855023  1
  S  S34  1  0.950759  0.151861  0.152926  1
  S  S35  1  0.706180  0.007661  0.369476  1
  S  S36  1  0.950759  0.495864  0.994799  1
  S  S37  1  0.784449  0.641633  0.644977  1
  S  S38  1  0.882575  0.847074  0.504136  1
  S  S39  1  0.882575  0.005201  0.848139  1
