# generated using pymatgen
data_Ba3Na7Ti3Nb7O30
_symmetry_space_group_name_H-M   'P 1'
_cell_length_a   4.01785473
_cell_length_b   8.03527965
_cell_length_c   20.10536458
_cell_angle_alpha   89.99796850
_cell_angle_beta   90.00000000
_cell_angle_gamma   90.00000000
_symmetry_Int_Tables_number   1
_chemical_formula_structural   Ba3Na7Ti3Nb7O30
_chemical_formula_sum   'Ba3 Na7 Ti3 Nb7 O30'
_cell_volume   649.09337865
_cell_formula_units_Z   1
loop_
 _symmetry_equiv_pos_site_id
 _symmetry_equiv_pos_as_xyz
  1  'x, y, z'
loop_
 _atom_site_type_symbol
 _atom_site_label
 _atom_site_symmetry_multiplicity
 _atom_site_fract_x
 _atom_site_fract_y
 _atom_site_fract_z
 _atom_site_occupancy
  Ba  Ba0  1  0.000000  0.498728  0.003898  1
  Ba  Ba1  1  0.000000  0.494914  0.198510  1
  Ba  Ba2  1  0.000000  0.004926  0.198515  1
  Na  Na3  1  0.000000  0.000718  0.002801  1
  Na  Na4  1  0.000000  0.495548  0.399503  1
  Na  Na5  1  0.000000  0.004470  0.399486  1
  Na  Na6  1  0.000000  0.498348  0.599708  1
  Na  Na7  1  0.000000  0.499007  0.798901  1
  Na  Na8  1  0.000000  0.001641  0.599723  1
  Na  Na9  1  0.000000  0.001032  0.798825  1
  Ti  Ti10  1  0.500000  0.244044  0.099997  1
  Ti  Ti11  1  0.500000  0.249929  0.302866  1
  Ti  Ti12  1  0.500000  0.757070  0.097798  1
  Nb  Nb13  1  0.500000  0.750085  0.302955  1
  Nb  Nb14  1  0.500000  0.249995  0.496795  1
  Nb  Nb15  1  0.500000  0.750000  0.700336  1
  Nb  Nb16  1  0.500000  0.250004  0.698023  1
  Nb  Nb17  1  0.500000  0.750007  0.501369  1
  Nb  Nb18  1  0.500000  0.246358  0.898886  1
  Nb  Nb19  1  0.500000  0.753555  0.899147  1
  O  O20  1  0.500000  0.250185  0.999091  1
  O  O21  1  0.500000  0.249065  0.199588  1
  O  O22  1  0.500000  0.750003  0.999326  1
  O  O23  1  0.500000  0.500208  0.099148  1
  O  O24  1  0.500000  0.750740  0.200415  1
  O  O25  1  0.500000  0.750014  0.401022  1
  O  O26  1  0.500000  0.249998  0.400193  1
  O  O27  1  0.500000  0.250041  0.600462  1
  O  O28  1  0.500000  0.499244  0.300648  1
  O  O29  1  0.500000  0.999412  0.099841  1
  O  O30  1  0.500000  0.500080  0.500337  1
  O  O31  1  0.500000  0.749974  0.600099  1
  O  O32  1  0.500000  0.750448  0.799867  1
  O  O33  1  0.500000  0.000743  0.300633  1
  O  O34  1  0.500000  0.249532  0.800125  1
  O  O35  1  0.500000  0.500803  0.700499  1
  O  O36  1  0.500000  -0.000070  0.500340  1
  O  O37  1  0.500000  0.500854  0.899799  1
  O  O38  1  0.500000  0.999204  0.700455  1
  O  O39  1  0.500000  0.999171  0.899321  1
  O  O40  1  0.000000  0.248758  0.099327  1
  O  O41  1  0.000000  0.249918  0.300724  1
  O  O42  1  0.000000  0.249999  0.500632  1
  O  O43  1  0.000000  0.751138  0.099593  1
  O  O44  1  0.000000  0.250028  0.700716  1
  O  O45  1  0.000000  0.249809  0.899601  1
  O  O46  1  0.000000  0.750045  0.300554  1
  O  O47  1  0.000000  0.750010  0.499901  1
  O  O48  1  0.000000  0.749979  0.700166  1
  O  O49  1  0.000000  0.750291  0.899534  1
