# generated using pymatgen
data_TaTe2
_symmetry_space_group_name_H-M   'P 1'
_cell_length_a   3.65324454
_cell_length_b   7.87243606
_cell_length_c   9.64276082
_cell_angle_alpha   111.98151518
_cell_angle_beta   90.01121153
_cell_angle_gamma   103.38033854
_symmetry_Int_Tables_number   1
_chemical_formula_structural   TaTe2
_chemical_formula_sum   'Ta3 Te6'
_cell_volume   249.02310143
_cell_formula_units_Z   3
loop_
 _symmetry_equiv_pos_site_id
 _symmetry_equiv_pos_as_xyz
  1  'x, y, z'
loop_
 _atom_site_type_symbol
 _atom_site_label
 _atom_site_symmetry_multiplicity
 _atom_site_fract_x
 _atom_site_fract_y
 _atom_site_fract_z
 _atom_site_occupancy
  Ta  Ta0  1  0.362817  0.721043  0.710054  1
  Ta  Ta1  1  0.639226  0.275788  0.288079  1
  Ta  Ta2  1  0.002742  0.998787  0.999325  1
  Te  Te3  1  0.356894  0.706534  0.984236  1
  Te  Te4  1  0.647827  0.291038  0.014007  1
  Te  Te5  1  0.709873  0.411310  0.617301  1
  Te  Te6  1  0.993168  0.983705  0.694823  1
  Te  Te7  1  0.008192  0.013731  0.304247  1
  Te  Te8  1  0.296551  0.585284  0.381428  1
