# generated using pymatgen
data_Ba2Tl(NO2)5
_symmetry_space_group_name_H-M   'P 1'
_cell_length_a   4.97093901
_cell_length_b   13.42980468
_cell_length_c   19.04292061
_cell_angle_alpha   90.00000000
_cell_angle_beta   90.00000000
_cell_angle_gamma   90.00000000
_symmetry_Int_Tables_number   1
_chemical_formula_structural   Ba2Tl(NO2)5
_chemical_formula_sum   'Ba8 Tl4 N20 O40'
_cell_volume   1271.28138547
_cell_formula_units_Z   4
loop_
 _symmetry_equiv_pos_site_id
 _symmetry_equiv_pos_as_xyz
  1  'x, y, z'
loop_
 _atom_site_type_symbol
 _atom_site_label
 _atom_site_symmetry_multiplicity
 _atom_site_fract_x
 _atom_site_fract_y
 _atom_site_fract_z
 _atom_site_occupancy
  Ba  Ba0  1  0.157019  0.751969  0.346404  1
  Ba  Ba1  1  0.997592  0.632501  0.599540  1
  Ba  Ba2  1  0.842981  0.251969  0.653596  1
  Ba  Ba3  1  0.002408  0.132501  0.400460  1
  Ba  Ba4  1  0.997592  0.132501  0.900460  1
  Ba  Ba5  1  0.002408  0.632501  0.099540  1
  Ba  Ba6  1  0.842981  0.751969  0.846404  1
  Ba  Ba7  1  0.157019  0.251969  0.153596  1
  Tl  Tl8  1  0.466712  0.895996  0.114194  1
  Tl  Tl9  1  0.533288  0.895996  0.614194  1
  Tl  Tl10  1  0.533288  0.395996  0.885806  1
  Tl  Tl11  1  0.466712  0.395996  0.385806  1
  N  N12  1  0.548772  0.205319  0.273437  1
  N  N13  1  0.615185  0.948018  0.376733  1
  N  N14  1  0.011253  0.495858  0.969043  1
  N  N15  1  0.887630  0.997404  0.746641  1
  N  N16  1  0.451228  0.205319  0.773437  1
  N  N17  1  0.887630  0.497404  0.753359  1
  N  N18  1  0.988747  0.995858  0.030957  1
  N  N19  1  0.548772  0.705319  0.226563  1
  N  N20  1  0.112370  0.497404  0.253359  1
  N  N21  1  0.397532  0.144317  0.531546  1
  N  N22  1  0.384815  0.948018  0.876733  1
  N  N23  1  0.397532  0.644317  0.968454  1
  N  N24  1  0.602468  0.144317  0.031546  1
  N  N25  1  0.112370  0.997404  0.246641  1
  N  N26  1  0.011253  0.995858  0.530957  1
  N  N27  1  0.615185  0.448018  0.123267  1
  N  N28  1  0.988747  0.495858  0.469043  1
  N  N29  1  0.384815  0.448018  0.623267  1
  N  N30  1  0.602468  0.644317  0.468454  1
  N  N31  1  0.451228  0.705319  0.726563  1
  O  O32  1  0.022716  0.919714  0.003301  1
  O  O33  1  0.170037  0.549568  0.306761  1
  O  O34  1  0.831379  0.905461  0.740962  1
  O  O35  1  0.977284  0.919714  0.503301  1
  O  O36  1  0.673042  0.863631  0.350971  1
  O  O37  1  0.478663  0.685985  0.163150  1
  O  O38  1  0.673042  0.363631  0.149029  1
  O  O39  1  0.081086  0.311248  0.437320  1
  O  O40  1  0.370311  0.957425  0.394984  1
  O  O41  1  0.350850  0.152111  0.019422  1
  O  O42  1  0.649150  0.152111  0.519422  1
  O  O43  1  0.918914  0.311248  0.937320  1
  O  O44  1  0.799439  0.708467  0.235533  1
  O  O45  1  0.629689  0.957425  0.894984  1
  O  O46  1  0.326958  0.363631  0.649029  1
  O  O47  1  0.022716  0.419714  0.496699  1
  O  O48  1  0.478663  0.185985  0.336850  1
  O  O49  1  0.521337  0.185985  0.836850  1
  O  O50  1  0.370311  0.457425  0.105016  1
  O  O51  1  0.328669  0.166537  0.593450  1
  O  O52  1  0.629689  0.457425  0.605016  1
  O  O53  1  0.168621  0.905461  0.240962  1
  O  O54  1  0.829963  0.049568  0.693239  1
  O  O55  1  0.671331  0.166537  0.093450  1
  O  O56  1  0.649150  0.652111  0.980578  1
  O  O57  1  0.521337  0.685985  0.663150  1
  O  O58  1  0.200561  0.208467  0.764467  1
  O  O59  1  0.831379  0.405461  0.759038  1
  O  O60  1  0.829963  0.549568  0.806761  1
  O  O61  1  0.799439  0.208467  0.264467  1
  O  O62  1  0.326958  0.863631  0.850971  1
  O  O63  1  0.328669  0.666537  0.906550  1
  O  O64  1  0.168621  0.405461  0.259038  1
  O  O65  1  0.170037  0.049568  0.193239  1
  O  O66  1  0.081086  0.811248  0.062680  1
  O  O67  1  0.918914  0.811248  0.562680  1
  O  O68  1  0.200561  0.708467  0.735533  1
  O  O69  1  0.350850  0.652111  0.480578  1
  O  O70  1  0.671331  0.666537  0.406550  1
  O  O71  1  0.977284  0.419714  0.996699  1
