# generated using pymatgen
data_GaSb
_symmetry_space_group_name_H-M   'P 1'
_cell_length_a   3.11180276
_cell_length_b   6.17921345
_cell_length_c   4.23301126
_cell_angle_alpha   43.11868129
_cell_angle_beta   111.43329465
_cell_angle_gamma   120.02571723
_symmetry_Int_Tables_number   1
_chemical_formula_structural   GaSb
_chemical_formula_sum   'Ga1 Sb1'
_cell_volume   48.16801131
_cell_formula_units_Z   1
loop_
 _symmetry_equiv_pos_site_id
 _symmetry_equiv_pos_as_xyz
  1  'x, y, z'
loop_
 _atom_site_type_symbol
 _atom_site_label
 _atom_site_symmetry_multiplicity
 _atom_site_fract_x
 _atom_site_fract_y
 _atom_site_fract_z
 _atom_site_occupancy
  Ga  Ga0  1  0.018178  0.504130  0.993565  1
  Sb  Sb1  1  0.014358  0.007942  0.990848  1
