# generated using pymatgen
data_Al2Si2H4O9
_symmetry_space_group_name_H-M   'P 1'
_cell_length_a   5.20670873
_cell_length_b   5.20670873
_cell_length_c   14.48656921
_cell_angle_alpha   90.46750806
_cell_angle_beta   89.53249194
_cell_angle_gamma   60.16726050
_symmetry_Int_Tables_number   1
_chemical_formula_structural   Al2Si2H4O9
_chemical_formula_sum   'Al4 Si4 H8 O18'
_cell_volume   340.63926468
_cell_formula_units_Z   2
loop_
 _symmetry_equiv_pos_site_id
 _symmetry_equiv_pos_as_xyz
  1  'x, y, z'
loop_
 _atom_site_type_symbol
 _atom_site_label
 _atom_site_symmetry_multiplicity
 _atom_site_fract_x
 _atom_site_fract_y
 _atom_site_fract_z
 _atom_site_occupancy
  Al  Al0  1  0.551635  0.785964  0.731796  1
  Al  Al1  1  0.214036  0.448365  0.231796  1
  Al  Al2  1  0.892177  0.114509  0.732364  1
  Al  Al3  1  0.885491  0.107823  0.232364  1
  Si  Si4  1  0.563720  0.465622  0.541467  1
  Si  Si5  1  0.534378  0.436280  0.041467  1
  Si  Si6  1  0.876665  0.811049  0.540648  1
  Si  Si7  1  0.188951  0.123335  0.040648  1
  H  H8  1  0.221212  0.248640  0.649337  1
  H  H9  1  0.751360  0.778788  0.149337  1
  H  H10  1  0.953155  0.454408  0.844891  1
  H  H11  1  0.545592  0.046845  0.344891  1
  H  H12  1  0.220666  0.744533  0.856748  1
  H  H13  1  0.255467  0.779334  0.356748  1
  H  H14  1  0.559890  0.113599  0.862926  1
  H  H15  1  0.886401  0.440110  0.362926  1
  O  O16  1  0.681903  0.674129  0.492541  1
  O  O17  1  0.325871  0.318097  0.992541  1
  O  O18  1  0.761533  0.134918  0.494254  1
  O  O19  1  0.865082  0.238467  0.994254  1
  O  O20  1  0.221502  0.585145  0.510572  1
  O  O21  1  0.414855  0.778498  0.010572  1
  O  O22  1  0.606097  0.453112  0.652503  1
  O  O23  1  0.546888  0.393903  0.152503  1
  O  O24  1  0.831368  0.842134  0.652050  1
  O  O25  1  0.157866  0.168632  0.152050  1
  O  O26  1  0.223763  0.062297  0.658069  1
  O  O27  1  0.937703  0.776237  0.158069  1
  O  O28  1  0.830841  0.455540  0.794997  1
  O  O29  1  0.544460  0.169159  0.294997  1
  O  O30  1  0.219917  0.840244  0.799501  1
  O  O31  1  0.159756  0.780083  0.299501  1
  O  O32  1  0.611711  0.061910  0.798336  1
  O  O33  1  0.938090  0.388289  0.298336  1
