# generated using pymatgen
data_Pr5Ga3
_symmetry_space_group_name_H-M   'P 1'
_cell_length_a   7.97173851
_cell_length_b   7.97173851
_cell_length_c   14.71838163
_cell_angle_alpha   90.00000000
_cell_angle_beta   90.00000000
_cell_angle_gamma   90.00000000
_symmetry_Int_Tables_number   1
_chemical_formula_structural   Pr5Ga3
_chemical_formula_sum   'Pr20 Ga12'
_cell_volume   935.33276574
_cell_formula_units_Z   4
loop_
 _symmetry_equiv_pos_site_id
 _symmetry_equiv_pos_as_xyz
  1  'x, y, z'
loop_
 _atom_site_type_symbol
 _atom_site_label
 _atom_site_symmetry_multiplicity
 _atom_site_fract_x
 _atom_site_fract_y
 _atom_site_fract_z
 _atom_site_occupancy
  Pr  Pr0  1  0.565518  0.090406  0.603043  1
  Pr  Pr1  1  0.934482  0.090406  0.103043  1
  Pr  Pr2  1  0.909594  0.065518  0.396957  1
  Pr  Pr3  1  0.750000  0.750000  0.719560  1
  Pr  Pr4  1  0.590406  0.434482  0.396957  1
  Pr  Pr5  1  0.434482  0.909594  0.396957  1
  Pr  Pr6  1  0.409594  0.565518  0.603043  1
  Pr  Pr7  1  0.090406  0.934482  0.603043  1
  Pr  Pr8  1  0.750000  0.750000  0.219560  1
  Pr  Pr9  1  0.409594  0.934482  0.103043  1
  Pr  Pr10  1  0.434482  0.590406  0.896957  1
  Pr  Pr11  1  0.590406  0.065518  0.896957  1
  Pr  Pr12  1  0.065518  0.590406  0.396957  1
  Pr  Pr13  1  0.934482  0.409594  0.603043  1
  Pr  Pr14  1  0.565518  0.409594  0.103043  1
  Pr  Pr15  1  0.065518  0.909594  0.896957  1
  Pr  Pr16  1  0.090406  0.565518  0.103043  1
  Pr  Pr17  1  0.250000  0.250000  0.280440  1
  Pr  Pr18  1  0.909594  0.434482  0.896957  1
  Pr  Pr19  1  0.250000  0.250000  0.780440  1
  Ga  Ga20  1  0.368570  0.631430  0.250000  1
  Ga  Ga21  1  0.868570  0.131430  0.750000  1
  Ga  Ga22  1  0.131430  0.631430  0.750000  1
  Ga  Ga23  1  0.131430  0.868570  0.250000  1
  Ga  Ga24  1  0.631430  0.131430  0.250000  1
  Ga  Ga25  1  0.368570  0.868570  0.750000  1
  Ga  Ga26  1  0.750000  0.750000  0.503506  1
  Ga  Ga27  1  0.631430  0.368570  0.750000  1
  Ga  Ga28  1  0.250000  0.250000  0.496494  1
  Ga  Ga29  1  0.250000  0.250000  0.996494  1
  Ga  Ga30  1  0.868570  0.368570  0.250000  1
  Ga  Ga31  1  0.750000  0.750000  0.003506  1
