# generated using pymatgen
data_NaCaAl3(SiO4)3
_symmetry_space_group_name_H-M   'P 1'
_cell_length_a   12.68345609
_cell_length_b   12.43055082
_cell_length_c   12.29239926
_cell_angle_alpha   90.70469649
_cell_angle_beta   90.36075791
_cell_angle_gamma   89.41038665
_symmetry_Int_Tables_number   1
_chemical_formula_structural   NaCaAl3(SiO4)3
_chemical_formula_sum   'Na4 Ca4 Al12 Si12 O48'
_cell_volume   1937.76241130
_cell_formula_units_Z   4
loop_
 _symmetry_equiv_pos_site_id
 _symmetry_equiv_pos_as_xyz
  1  'x, y, z'
loop_
 _atom_site_type_symbol
 _atom_site_label
 _atom_site_symmetry_multiplicity
 _atom_site_fract_x
 _atom_site_fract_y
 _atom_site_fract_z
 _atom_site_occupancy
  Na  Na0  1  0.193166  0.782804  0.797656  1
  Na  Na1  1  0.193336  0.210863  0.786013  1
  Na  Na2  1  0.208216  0.790133  0.197035  1
  Na  Na3  1  0.195441  0.215560  0.211590  1
  Ca  Ca4  1  0.784574  0.184671  0.807657  1
  Ca  Ca5  1  0.786282  0.200832  0.186474  1
  Ca  Ca6  1  0.778883  0.816501  0.182532  1
  Ca  Ca7  1  0.796989  0.808003  0.810791  1
  Al  Al8  1  0.186322  0.622181  0.000691  1
  Al  Al9  1  0.612935  0.190158  0.011398  1
  Al  Al10  1  0.614891  0.814207  0.988709  1
  Al  Al11  1  0.611883  0.998988  0.192947  1
  Al  Al12  1  0.616928  0.005710  0.810666  1
  Al  Al13  1  0.831543  -0.000170  0.359289  1
  Al  Al14  1  0.824769  0.367371  0.000100  1
  Al  Al15  1  0.830868  0.634218  0.001673  1
  Al  Al16  1  0.828471  0.002986  0.631785  1
  Al  Al17  1  0.001963  0.184296  0.365487  1
  Al  Al18  1  0.000575  0.366389  0.817284  1
  Al  Al19  1  0.004116  0.815742  0.630615  1
  Si  Si20  1  0.005857  0.375573  0.186535  1
  Si  Si21  1  0.181219  0.994575  0.369651  1
  Si  Si22  1  0.184495  0.373291  0.002603  1
  Si  Si23  1  0.183760  0.994724  0.625648  1
  Si  Si24  1  0.359244  0.179313  0.006830  1
  Si  Si25  1  0.364267  0.820105  0.991878  1
  Si  Si26  1  0.365110  0.998203  0.186296  1
  Si  Si27  1  0.361177  0.004266  0.816514  1
  Si  Si28  1  0.005989  0.182042  0.628551  1
  Si  Si29  1  0.006656  0.630966  0.187338  1
  Si  Si30  1  0.003189  0.626112  0.813713  1
  Si  Si31  1  0.006798  0.815218  0.365594  1
  O  O32  1  0.993957  0.503743  0.217639  1
  O  O33  1  0.032021  0.285712  0.703908  1
  O  O34  1  0.021819  0.700192  0.300609  1
  O  O35  1  0.998282  0.792254  0.492048  1
  O  O36  1  0.015860  0.698943  0.705830  1
  O  O37  1  0.116004  0.102321  0.339191  1
  O  O38  1  0.113378  0.355778  0.113414  1
  O  O39  1  0.116131  0.340688  0.896580  1
  O  O40  1  0.117274  0.883022  0.338405  1
  O  O41  1  0.112547  0.102676  0.648693  1
  O  O42  1  0.113546  0.651713  0.119426  1
  O  O43  1  0.109151  0.648958  0.886768  1
  O  O44  1  0.123851  0.886310  0.660155  1
  O  O45  1  0.234971  0.491149  0.002765  1
  O  O46  1  0.220275  0.991365  0.497151  1
  O  O47  1  0.277393  0.280226  0.015453  1
  O  O48  1  0.286262  0.010198  0.706977  1
  O  O49  1  0.280640  0.724123  0.999239  1
  O  O50  1  0.282288  0.987816  0.287397  1
  O  O51  1  0.329372  0.106865  0.116328  1
  O  O52  1  0.325637  0.110487  0.894113  1
  O  O53  1  0.342182  0.893613  0.104986  1
  O  O54  1  0.326724  0.895650  0.885308  1
  O  O55  1  0.477559  0.220307  0.007347  1
  O  O56  1  0.481244  0.006700  0.781272  1
  O  O57  1  0.482388  0.777215  0.978104  1
  O  O58  1  0.480563  0.003097  0.236708  1
  O  O59  1  0.639516  0.121923  0.132798  1
  O  O60  1  0.645717  0.117577  0.893877  1
  O  O61  1  0.630465  0.885682  0.109833  1
  O  O62  1  0.649165  0.881779  0.869694  1
  O  O63  1  0.718946  0.022840  0.716427  1
  O  O64  1  0.716918  0.282933  0.020778  1
  O  O65  1  0.728469  0.730174  0.001446  1
  O  O66  1  0.721633  0.976438  0.276893  1
  O  O67  1  0.802718  0.502036  0.001927  1
  O  O68  1  0.811682  0.003372  0.495060  1
  O  O69  1  0.891468  0.119048  0.309012  1
  O  O70  1  0.901856  0.331156  0.121245  1
  O  O71  1  0.888390  0.313816  0.882327  1
  O  O72  1  0.907115  0.880763  0.311975  1
  O  O73  1  0.903338  0.119701  0.678095  1
  O  O74  1  0.900562  0.677128  0.124978  1
  O  O75  1  0.900738  0.676533  0.882984  1
  O  O76  1  0.893079  0.885432  0.682002  1
  O  O77  1  0.993985  0.211549  0.502842  1
  O  O78  1  0.027324  0.301901  0.292012  1
  O  O79  1  0.985685  0.501267  0.786443  1
