# generated using pymatgen
data_Al(HO)3
_symmetry_space_group_name_H-M   'P 1'
_cell_length_a   9.03540372
_cell_length_b   5.22419861
_cell_length_c   9.62721574
_cell_angle_alpha   90.00000000
_cell_angle_beta   91.33286436
_cell_angle_gamma   90.00000000
_symmetry_Int_Tables_number   1
_chemical_formula_structural   Al(HO)3
_chemical_formula_sum   'Al8 H24 O24'
_cell_volume   454.30804114
_cell_formula_units_Z   8
loop_
 _symmetry_equiv_pos_site_id
 _symmetry_equiv_pos_as_xyz
  1  'x, y, z'
loop_
 _atom_site_type_symbol
 _atom_site_label
 _atom_site_symmetry_multiplicity
 _atom_site_fract_x
 _atom_site_fract_y
 _atom_site_fract_z
 _atom_site_occupancy
  Al  Al0  1  0.336790  0.998347  0.522599  1
  Al  Al1  1  0.836790  0.501653  0.022599  1
  Al  Al2  1  0.671085  0.990533  0.522177  1
  Al  Al3  1  0.171085  0.509467  0.022177  1
  Al  Al4  1  0.169917  0.500986  0.522891  1
  Al  Al5  1  0.669917  0.999014  0.022891  1
  Al  Al6  1  0.837132  0.493302  0.522101  1
  Al  Al7  1  0.337132  0.006698  0.022101  1
  H  H8  1  0.320379  0.691239  0.721181  1
  H  H9  1  0.820379  0.808761  0.221181  1
  H  H10  1  0.600066  0.395368  0.445633  1
  H  H11  1  0.681968  0.323006  0.220532  1
  H  H12  1  0.100066  0.104632  0.945633  1
  H  H13  1  0.181968  0.176994  0.720533  1
  H  H14  1  0.836243  0.161457  0.718947  1
  H  H15  1  0.336243  0.338543  0.218947  1
  H  H16  1  0.096468  0.900144  0.457868  1
  H  H17  1  0.596468  0.599856  0.957868  1
  H  H18  1  0.002921  0.642147  0.718450  1
  H  H19  1  0.502921  0.857853  0.218450  1
  H  H20  1  0.005257  0.193143  0.457068  1
  H  H21  1  0.505257  0.306857  0.957068  1
  H  H22  1  0.509334  0.158458  0.717933  1
  H  H23  1  0.009334  0.341542  0.217933  1
  H  H24  1  0.487490  0.688973  0.405805  1
  H  H25  1  0.987490  0.811027  0.905805  1
  H  H26  1  0.899469  0.903760  0.401111  1
  H  H27  1  0.399469  0.596240  0.901111  1
  H  H28  1  0.673149  0.659781  0.716205  1
  H  H29  1  0.173149  0.840219  0.216205  1
  H  H30  1  0.404046  0.400458  0.465521  1
  H  H31  1  0.904046  0.099542  0.965521  1
  O  O32  1  0.319565  0.686733  0.618597  1
  O  O33  1  0.819565  0.813267  0.118597  1
  O  O34  1  0.686511  0.307739  0.408918  1
  O  O35  1  0.186511  0.192261  0.908918  1
  O  O36  1  0.822536  0.175774  0.617375  1
  O  O37  1  0.322536  0.324226  0.117375  1
  O  O38  1  0.178522  0.819285  0.410226  1
  O  O39  1  0.678522  0.680715  0.910226  1
  O  O40  1  0.004624  0.627030  0.616521  1
  O  O41  1  0.504624  0.872970  0.116521  1
  O  O42  1  0.001187  0.358611  0.409861  1
  O  O43  1  0.501187  0.141389  0.909861  1
  O  O44  1  0.507439  0.126701  0.616917  1
  O  O45  1  0.007439  0.373299  0.116917  1
  O  O46  1  0.495397  0.874016  0.406485  1
  O  O47  1  0.995397  0.625984  0.906485  1
  O  O48  1  0.192281  0.186542  0.618318  1
  O  O49  1  0.692281  0.313458  0.118318  1
  O  O50  1  0.809061  0.803868  0.404459  1
  O  O51  1  0.309061  0.696132  0.904459  1
  O  O52  1  0.690978  0.677044  0.616206  1
  O  O53  1  0.190978  0.822956  0.116207  1
  O  O54  1  0.320497  0.326404  0.412819  1
  O  O55  1  0.820497  0.173596  0.912819  1
