# generated using pymatgen
data_KNO3
_symmetry_space_group_name_H-M   'P 1'
_cell_length_a   4.62593370
_cell_length_b   9.26902843
_cell_length_c   7.40534222
_cell_angle_alpha   36.95901143
_cell_angle_beta   69.73155407
_cell_angle_gamma   73.82931280
_symmetry_Int_Tables_number   1
_chemical_formula_structural   KNO3
_chemical_formula_sum   'K2 N2 O6'
_cell_volume   179.08822734
_cell_formula_units_Z   2
loop_
 _symmetry_equiv_pos_site_id
 _symmetry_equiv_pos_as_xyz
  1  'x, y, z'
loop_
 _atom_site_type_symbol
 _atom_site_label
 _atom_site_symmetry_multiplicity
 _atom_site_fract_x
 _atom_site_fract_y
 _atom_site_fract_z
 _atom_site_occupancy
  K  K0  1  0.995599  0.997966  0.983817  1
  K  K1  1  0.976580  0.502036  0.988083  1
  N  N2  1  0.433638  0.500813  0.433179  1
  N  N3  1  0.479574  0.999117  0.480031  1
  O  O4  1  0.249315  0.108644  0.484531  1
  O  O5  1  0.165682  0.501251  0.561683  1
  O  O6  1  0.706967  0.116349  0.251391  1
  O  O7  1  0.565048  0.303861  0.564824  1
  O  O8  1  0.564554  0.698319  0.171045  1
  O  O9  1  0.484043  0.771642  0.702417  1
