# generated using pymatgen
data_H7NO6
_symmetry_space_group_name_H-M   'P 1'
_cell_length_a   9.97853454
_cell_length_b   15.24941258
_cell_length_c   3.59412999
_cell_angle_alpha   90.00000000
_cell_angle_beta   90.10829484
_cell_angle_gamma   90.00000000
_symmetry_Int_Tables_number   1
_chemical_formula_structural   H7NO6
_chemical_formula_sum   'H28 N4 O24'
_cell_volume   546.90624709
_cell_formula_units_Z   4
loop_
 _symmetry_equiv_pos_site_id
 _symmetry_equiv_pos_as_xyz
  1  'x, y, z'
loop_
 _atom_site_type_symbol
 _atom_site_label
 _atom_site_symmetry_multiplicity
 _atom_site_fract_x
 _atom_site_fract_y
 _atom_site_fract_z
 _atom_site_occupancy
  H  H0  1  0.562224  0.711700  0.271095  1
  H  H1  1  0.905116  0.277921  0.830657  1
  H  H2  1  0.094884  0.777921  0.669343  1
  H  H3  1  0.437776  0.211700  0.228905  1
  H  H4  1  0.847531  0.942655  0.243888  1
  H  H5  1  0.152469  0.442655  0.256112  1
  H  H6  1  0.472090  0.680829  0.942912  1
  H  H7  1  0.540095  0.562467  0.305689  1
  H  H8  1  0.958003  0.403477  0.778069  1
  H  H9  1  0.000761  0.326914  0.470618  1
  H  H10  1  0.041997  0.903477  0.721931  1
  H  H11  1  0.999239  0.826914  0.029382  1
  H  H12  1  0.459905  0.062467  0.194311  1
  H  H13  1  0.527910  0.180829  0.557088  1
  H  H14  1  0.562846  0.989304  0.151867  1
  H  H15  1  0.083010  0.034128  0.611510  1
  H  H16  1  0.928362  0.033570  0.696313  1
  H  H17  1  0.916990  0.534128  0.888490  1
  H  H18  1  0.071638  0.533570  0.803687  1
  H  H19  1  0.437154  0.489304  0.348133  1
  H  H20  1  0.344958  0.933306  0.228683  1
  H  H21  1  0.312615  0.857249  0.506320  1
  H  H22  1  0.290289  0.116945  0.649858  1
  H  H23  1  0.187612  0.150344  0.946683  1
  H  H24  1  0.812388  0.650344  0.553317  1
  H  H25  1  0.709711  0.616945  0.850142  1
  H  H26  1  0.687385  0.357249  0.993680  1
  H  H27  1  0.655042  0.433306  0.271317  1
  N  N28  1  0.729573  0.843293  0.347559  1
  N  N29  1  0.769175  0.169466  0.817924  1
  N  N30  1  0.230825  0.669466  0.682076  1
  N  N31  1  0.270427  0.343293  0.152441  1
  O  O32  1  0.617126  0.830176  0.468538  1
  O  O33  1  0.883668  0.201683  0.934200  1
  O  O34  1  0.116332  0.701683  0.565800  1
  O  O35  1  0.382874  0.330176  0.031462  1
  O  O36  1  0.822103  0.791359  0.309929  1
  O  O37  1  0.672498  0.220157  0.769727  1
  O  O38  1  0.327502  0.720157  0.730273  1
  O  O39  1  0.177897  0.291359  0.190071  1
  O  O40  1  0.749689  0.930197  0.225372  1
  O  O41  1  0.763284  0.088736  0.765156  1
  O  O42  1  0.236716  0.588736  0.734844  1
  O  O43  1  0.250311  0.430197  0.274628  1
  O  O44  1  0.557566  0.667846  0.073151  1
  O  O45  1  0.968664  0.337694  0.722518  1
  O  O46  1  0.031336  0.837694  0.777482  1
  O  O47  1  0.442434  0.167846  0.426849  1
  O  O48  1  0.476247  0.007736  0.054608  1
  O  O49  1  0.999878  0.997253  0.584420  1
  O  O50  1  0.000122  0.497253  0.915580  1
  O  O51  1  0.523753  0.507736  0.445392  1
  O  O52  1  0.275889  0.889168  0.294322  1
  O  O53  1  0.200312  0.106571  0.752791  1
  O  O54  1  0.799688  0.606571  0.747209  1
  O  O55  1  0.724111  0.389168  0.205678  1
