# generated using pymatgen
data_Ca4GdB3O10
_symmetry_space_group_name_H-M   'P 1'
_cell_length_a   3.58311321
_cell_length_b   8.15072789
_cell_length_c   9.05739423
_cell_angle_alpha   63.25959899
_cell_angle_beta   84.95874565
_cell_angle_gamma   78.73801079
_symmetry_Int_Tables_number   1
_chemical_formula_structural   Ca4GdB3O10
_chemical_formula_sum   'Ca4 Gd1 B3 O10'
_cell_volume   231.68287501
_cell_formula_units_Z   1
loop_
 _symmetry_equiv_pos_site_id
 _symmetry_equiv_pos_as_xyz
  1  'x, y, z'
loop_
 _atom_site_type_symbol
 _atom_site_label
 _atom_site_symmetry_multiplicity
 _atom_site_fract_x
 _atom_site_fract_y
 _atom_site_fract_z
 _atom_site_occupancy
  B  B0  1  0.080331  0.856116  0.389818  1
  B  B1  1  0.080331  0.245934  0.610182  1
  B  B2  1  0.701190  0.624721  0.000000  1
  O  O3  1  0.606984  0.798919  0.000000  1
  O  O4  1  0.271586  0.763117  0.539369  1
  O  O5  1  0.421763  0.171870  0.000000  1
  O  O6  1  0.747990  0.464570  0.148930  1
  O  O7  1  0.747990  0.613500  0.851070  1
  O  O8  1  0.883091  0.380575  0.655178  1
  O  O9  1  0.883091  0.035754  0.344822  1
  O  O10  1  0.081668  0.056637  0.713777  1
  O  O11  1  0.081668  0.770414  0.286223  1
  O  O12  1  0.271586  0.302486  0.460631  1
  Ca  Ca13  1  0.657511  0.554500  0.363743  1
  Ca  Ca14  1  0.657511  0.918243  0.636257  1
  Ca  Ca15  1  0.327403  0.471287  0.774301  1
  Ca  Ca16  1  0.327403  0.245588  0.225699  1
  Gd  Gd17  1  0.002103  0.998871  0.000000  1
