# generated using pymatgen
data_SrUS2
_symmetry_space_group_name_H-M   'P 1'
_cell_length_a   9.13005671
_cell_length_b   9.13005659
_cell_length_c   9.13005577
_cell_angle_alpha   127.48188263
_cell_angle_beta   77.46587587
_cell_angle_gamma   127.48188247
_symmetry_Int_Tables_number   1
_chemical_formula_structural   SrUS2
_chemical_formula_sum   'Sr4 U4 S8'
_cell_volume   464.84107508
_cell_formula_units_Z   4
loop_
 _symmetry_equiv_pos_site_id
 _symmetry_equiv_pos_as_xyz
  1  'x, y, z'
loop_
 _atom_site_type_symbol
 _atom_site_label
 _atom_site_symmetry_multiplicity
 _atom_site_fract_x
 _atom_site_fract_y
 _atom_site_fract_z
 _atom_site_occupancy
  Sr  Sr0  1  0.142292  0.892292  0.250000  1
  Sr  Sr1  1  0.250000  0.107708  0.857708  1
  Sr  Sr2  1  0.357708  0.607708  0.750000  1
  Sr  Sr3  1  0.750000  0.392292  0.642292  1
  U  U4  1  0.250000  0.594229  0.344229  1
  U  U5  1  0.750000  0.905771  0.155771  1
  U  U6  1  0.655771  0.405771  0.250000  1
  U  U7  1  0.844229  0.094229  0.750000  1
  S  S8  1  0.011442  0.708492  0.467242  1
  S  S9  1  0.967242  0.208492  0.511442  1
  S  S10  1  0.302950  0.291508  0.258750  1
  S  S11  1  0.197050  0.455800  0.988558  1
  S  S12  1  0.758750  0.791508  0.802950  1
  S  S13  1  0.488558  0.955800  0.697050  1
  S  S14  1  0.532758  0.044200  0.241250  1
  S  S15  1  0.741250  0.544200  0.032758  1
