# generated using pymatgen
data_C7SeNF5
_symmetry_space_group_name_H-M   'P 1'
_cell_length_a   5.95945394
_cell_length_b   10.07925222
_cell_length_c   29.45177211
_cell_angle_alpha   98.87401809
_cell_angle_beta   90.00000000
_cell_angle_gamma   90.00000000
_symmetry_Int_Tables_number   1
_chemical_formula_structural   C7SeNF5
_chemical_formula_sum   'C56 Se8 N8 F40'
_cell_volume   1747.89889717
_cell_formula_units_Z   8
loop_
 _symmetry_equiv_pos_site_id
 _symmetry_equiv_pos_as_xyz
  1  'x, y, z'
loop_
 _atom_site_type_symbol
 _atom_site_label
 _atom_site_symmetry_multiplicity
 _atom_site_fract_x
 _atom_site_fract_y
 _atom_site_fract_z
 _atom_site_occupancy
  C  C0  1  0.886561  0.059676  0.890665  1
  C  C1  1  0.646335  0.563010  0.131632  1
  C  C2  1  0.113439  0.940324  0.109335  1
  C  C3  1  0.511655  0.496684  0.202033  1
  C  C4  1  0.026459  0.930774  0.819677  1
  C  C5  1  0.026169  0.925047  0.548495  1
  C  C6  1  0.526459  0.069226  0.680323  1
  C  C7  1  0.490538  0.959368  0.703171  1
  C  C8  1  0.389642  0.565664  0.892581  1
  C  C9  1  0.474789  0.058959  0.633648  1
  C  C10  1  0.613439  0.059676  0.390665  1
  C  C11  1  0.969896  0.402590  0.047102  1
  C  C12  1  0.530104  0.402590  0.547102  1
  C  C13  1  0.973541  0.069226  0.180323  1
  C  C14  1  0.974789  0.941041  0.866352  1
  C  C15  1  0.011655  0.503316  0.297967  1
  C  C16  1  0.146335  0.436990  0.368368  1
  C  C17  1  0.469896  0.597410  0.452898  1
  C  C18  1  0.889642  0.434336  0.607419  1
  C  C19  1  0.352551  0.831604  0.632813  1
  C  C20  1  0.386561  0.940324  0.609335  1
  C  C21  1  0.900130  0.594800  0.678530  1
  C  C22  1  0.852551  0.168396  0.867187  1
  C  C23  1  0.853665  0.563010  0.631632  1
  C  C24  1  0.988345  0.496684  0.702033  1
  C  C25  1  0.400130  0.405200  0.821470  1
  C  C26  1  0.902378  0.159933  0.820525  1
  C  C27  1  0.023030  0.662679  0.368343  1
  C  C28  1  0.973831  0.074953  0.451505  1
  C  C29  1  0.353665  0.436990  0.868368  1
  C  C30  1  0.473541  0.930774  0.319677  1
  C  C31  1  0.097622  0.840067  0.179475  1
  C  C32  1  0.597622  0.159933  0.320525  1
  C  C33  1  0.025211  0.058959  0.133648  1
  C  C34  1  0.523030  0.337321  0.131657  1
  C  C35  1  0.472242  0.367808  0.178375  1
  C  C36  1  0.509462  0.040632  0.296829  1
  C  C37  1  0.990538  0.040632  0.796829  1
  C  C38  1  0.402378  0.840067  0.679475  1
  C  C39  1  0.147449  0.831604  0.132813  1
  C  C40  1  0.027758  0.367808  0.678375  1
  C  C41  1  0.647449  0.168396  0.367187  1
  C  C42  1  0.030104  0.597410  0.952898  1
  C  C43  1  0.610358  0.434336  0.107419  1
  C  C44  1  0.476970  0.662679  0.868343  1
  C  C45  1  0.972242  0.632192  0.321625  1
  C  C46  1  0.009462  0.959368  0.203171  1
  C  C47  1  0.527758  0.632192  0.821625  1
  C  C48  1  0.110358  0.565664  0.392581  1
  C  C49  1  0.099870  0.405200  0.321470  1
  C  C50  1  0.976970  0.337321  0.631657  1
  C  C51  1  0.525211  0.941041  0.366352  1
  C  C52  1  0.599870  0.594800  0.178530  1
  C  C53  1  0.526169  0.074953  0.951505  1
  C  C54  1  0.473831  0.925047  0.048495  1
  C  C55  1  0.488345  0.503316  0.797967  1
  Se  Se56  1  0.162453  0.924408  0.043916  1
  Se  Se57  1  0.837547  0.075592  0.956084  1
  Se  Se58  1  0.337547  0.924408  0.543916  1
  Se  Se59  1  0.658720  0.394479  0.041961  1
  Se  Se60  1  0.158720  0.605521  0.458039  1
  Se  Se61  1  0.341280  0.605521  0.958039  1
  Se  Se62  1  0.841280  0.394479  0.541961  1
  Se  Se63  1  0.662453  0.075592  0.456084  1
  N  N64  1  0.170919  0.073559  0.450659  1
  N  N65  1  0.329081  0.073559  0.950659  1
  N  N66  1  0.829081  0.926441  0.549341  1
  N  N67  1  0.666655  0.593551  0.452875  1
  N  N68  1  0.333345  0.406449  0.547125  1
  N  N69  1  0.166655  0.406449  0.047125  1
  N  N70  1  0.670919  0.926441  0.049341  1
  N  N71  1  0.833345  0.593551  0.952875  1
  F  F72  1  0.487352  0.210314  0.110862  1
  F  F73  1  0.775120  0.662046  0.609956  1
  F  F74  1  0.036849  0.031234  0.751691  1
  F  F75  1  0.133367  0.279474  0.299124  1
  F  F76  1  0.633367  0.720526  0.200876  1
  F  F77  1  0.724880  0.662046  0.109956  1
  F  F78  1  0.512648  0.789686  0.889138  1
  F  F79  1  0.127845  0.733369  0.201400  1
  F  F80  1  0.012648  0.210314  0.610862  1
  F  F81  1  0.964701  0.474530  0.252827  1
  F  F82  1  0.610324  0.184061  0.703692  1
  F  F83  1  0.011251  0.832590  0.887054  1
  F  F84  1  0.610728  0.727224  0.798727  1
  F  F85  1  0.536849  0.968766  0.748309  1
  F  F86  1  0.366633  0.279474  0.799124  1
  F  F87  1  0.463151  0.031234  0.251691  1
  F  F88  1  0.872155  0.266631  0.798600  1
  F  F89  1  0.389272  0.272776  0.201273  1
  F  F90  1  0.227941  0.714243  0.110461  1
  F  F91  1  0.110728  0.272776  0.701273  1
  F  F92  1  0.110324  0.815939  0.796308  1
  F  F93  1  0.727941  0.285757  0.389539  1
  F  F94  1  0.488749  0.832590  0.387054  1
  F  F95  1  0.772059  0.285757  0.889539  1
  F  F96  1  0.511251  0.167410  0.612946  1
  F  F97  1  0.224880  0.337954  0.390044  1
  F  F98  1  0.035299  0.525470  0.747173  1
  F  F99  1  0.535299  0.474530  0.752827  1
  F  F100  1  0.389676  0.815939  0.296308  1
  F  F101  1  0.889272  0.727224  0.298727  1
  F  F102  1  0.275120  0.337954  0.890044  1
  F  F103  1  0.866633  0.720526  0.700876  1
  F  F104  1  0.372155  0.733369  0.701400  1
  F  F105  1  0.464701  0.525470  0.247173  1
  F  F106  1  0.627845  0.266631  0.298600  1
  F  F107  1  0.963151  0.968766  0.248309  1
  F  F108  1  0.987352  0.789686  0.389138  1
  F  F109  1  0.272059  0.714243  0.610461  1
  F  F110  1  0.988749  0.167410  0.112946  1
  F  F111  1  0.889676  0.184061  0.203692  1
