# generated using pymatgen
data_Hg2ClO
_symmetry_space_group_name_H-M   'P 1'
_cell_length_a   6.76787856
_cell_length_b   7.17838638
_cell_length_c   9.87489658
_cell_angle_alpha   105.79367140
_cell_angle_beta   89.32626186
_cell_angle_gamma   117.84694588
_symmetry_Int_Tables_number   1
_chemical_formula_structural   Hg2ClO
_chemical_formula_sum   'Hg8 Cl4 O4'
_cell_volume   404.40678984
_cell_formula_units_Z   4
loop_
 _symmetry_equiv_pos_site_id
 _symmetry_equiv_pos_as_xyz
  1  'x, y, z'
loop_
 _atom_site_type_symbol
 _atom_site_label
 _atom_site_symmetry_multiplicity
 _atom_site_fract_x
 _atom_site_fract_y
 _atom_site_fract_z
 _atom_site_occupancy
  Hg  Hg0  1  0.804465  0.091888  0.888825  1
  Hg  Hg1  1  0.281856  0.091803  0.387859  1
  Hg  Hg2  1  0.285874  0.000256  0.748413  1
  Hg  Hg3  1  0.713481  0.999199  0.248947  1
  Hg  Hg4  1  0.000532  0.500174  0.498510  1
  Hg  Hg5  1  0.195917  0.908377  0.108925  1
  Hg  Hg6  1  0.718478  0.909635  0.609915  1
  Hg  Hg7  1  0.498911  0.499881  0.998696  1
  Cl  Cl8  1  0.632958  0.634377  0.371818  1
  Cl  Cl9  1  0.000256  0.635481  0.872535  1
  Cl  Cl10  1  0.998743  0.364372  0.125642  1
  Cl  Cl11  1  0.366974  0.365766  0.626084  1
  O  O12  1  0.793082  0.169646  0.462449  1
  O  O13  1  0.208429  0.830787  0.534729  1
  O  O14  1  0.389450  0.170214  0.961517  1
  O  O15  1  0.607894  0.829433  0.036015  1
