# generated using pymatgen
data_TbMn5Ge3
_symmetry_space_group_name_H-M   'P 1'
_cell_length_a   4.11989065
_cell_length_b   12.19125937
_cell_length_c   13.98888077
_cell_angle_alpha   90.00000000
_cell_angle_beta   90.00000000
_cell_angle_gamma   90.00000000
_symmetry_Int_Tables_number   1
_chemical_formula_structural   TbMn5Ge3
_chemical_formula_sum   'Tb4 Mn20 Ge12'
_cell_volume   702.61469513
_cell_formula_units_Z   4
loop_
 _symmetry_equiv_pos_site_id
 _symmetry_equiv_pos_as_xyz
  1  'x, y, z'
loop_
 _atom_site_type_symbol
 _atom_site_label
 _atom_site_symmetry_multiplicity
 _atom_site_fract_x
 _atom_site_fract_y
 _atom_site_fract_z
 _atom_site_occupancy
  Tb  Tb0  1  0.750000  0.412450  0.293247  1
  Tb  Tb1  1  0.250000  0.587550  0.706753  1
  Tb  Tb2  1  0.250000  0.912450  0.206753  1
  Tb  Tb3  1  0.750000  0.087550  0.793247  1
  Mn  Mn4  1  0.750000  0.965748  0.563425  1
  Mn  Mn5  1  0.750000  0.117296  0.313103  1
  Mn  Mn6  1  0.250000  0.293479  0.684841  1
  Mn  Mn7  1  0.750000  0.382704  0.813103  1
  Mn  Mn8  1  0.250000  0.410587  0.498007  1
  Mn  Mn9  1  0.250000  0.617296  0.186897  1
  Mn  Mn10  1  0.750000  0.793479  0.815159  1
  Mn  Mn11  1  0.250000  0.206521  0.184841  1
  Mn  Mn12  1  0.250000  0.089413  0.998007  1
  Mn  Mn13  1  0.750000  0.534252  0.063425  1
  Mn  Mn14  1  0.250000  0.882704  0.686897  1
  Mn  Mn15  1  0.750000  0.290587  0.019434  1
  Mn  Mn16  1  0.750000  0.706521  0.315159  1
  Mn  Mn17  1  0.250000  0.790587  0.480566  1
  Mn  Mn18  1  0.750000  0.910587  0.001993  1
  Mn  Mn19  1  0.750000  0.209413  0.519434  1
  Mn  Mn20  1  0.250000  0.465748  0.936575  1
  Mn  Mn21  1  0.750000  0.589413  0.501993  1
  Mn  Mn22  1  0.250000  0.709413  0.980566  1
  Mn  Mn23  1  0.250000  0.034252  0.436575  1
  Ge  Ge24  1  0.750000  0.410845  0.619502  1
  Ge  Ge25  1  0.250000  0.589155  0.380498  1
  Ge  Ge26  1  0.250000  0.910845  0.880498  1
  Ge  Ge27  1  0.750000  0.909618  0.379937  1
  Ge  Ge28  1  0.250000  0.090382  0.620063  1
  Ge  Ge29  1  0.250000  0.240122  0.378053  1
  Ge  Ge30  1  0.750000  0.590382  0.879937  1
  Ge  Ge31  1  0.750000  0.740122  0.121947  1
  Ge  Ge32  1  0.750000  0.759878  0.621947  1
  Ge  Ge33  1  0.750000  0.089155  0.119502  1
  Ge  Ge34  1  0.250000  0.409618  0.120063  1
  Ge  Ge35  1  0.250000  0.259878  0.878053  1
