# generated using pymatgen
data_FeC3SO3
_symmetry_space_group_name_H-M   'P 1'
_cell_length_a   6.74614149
_cell_length_b   7.91297910
_cell_length_c   11.62983834
_cell_angle_alpha   83.41804748
_cell_angle_beta   76.15906052
_cell_angle_gamma   78.17913358
_symmetry_Int_Tables_number   1
_chemical_formula_structural   FeC3SO3
_chemical_formula_sum   'Fe4 C12 S4 O12'
_cell_volume   588.60673851
_cell_formula_units_Z   4
loop_
 _symmetry_equiv_pos_site_id
 _symmetry_equiv_pos_as_xyz
  1  'x, y, z'
loop_
 _atom_site_type_symbol
 _atom_site_label
 _atom_site_symmetry_multiplicity
 _atom_site_fract_x
 _atom_site_fract_y
 _atom_site_fract_z
 _atom_site_occupancy
  Fe  Fe0  1  0.787285  0.186152  0.761632  1
  Fe  Fe1  1  0.212715  0.813848  0.238368  1
  Fe  Fe2  1  0.360810  0.489985  0.280966  1
  Fe  Fe3  1  0.639190  0.510015  0.719034  1
  C  C4  1  0.450939  0.892666  0.178014  1
  C  C5  1  0.957373  0.984785  0.725800  1
  C  C6  1  0.156409  0.795237  0.096868  1
  C  C7  1  0.843591  0.204763  0.903132  1
  C  C8  1  0.628901  0.505692  0.223761  1
  C  C9  1  0.549061  0.107334  0.821986  1
  C  C10  1  0.332273  0.405033  0.150148  1
  C  C11  1  0.610956  0.709386  0.629119  1
  C  C12  1  0.389044  0.290614  0.370881  1
  C  C13  1  0.042627  0.015215  0.274200  1
  C  C14  1  0.667727  0.594967  0.849852  1
  C  C15  1  0.371099  0.494308  0.776239  1
  S  S16  1  0.966407  0.377395  0.643742  1
  S  S17  1  0.033593  0.622605  0.356258  1
  S  S18  1  0.737723  0.308673  0.582141  1
  S  S19  1  0.262277  0.691327  0.417859  1
  O  O20  1  0.603094  0.946503  0.140427  1
  O  O21  1  0.120249  0.783246  0.006172  1
  O  O22  1  0.068420  0.853752  0.705511  1
  O  O23  1  0.411220  0.158976  0.425657  1
  O  O24  1  0.588780  0.841024  0.574343  1
  O  O25  1  0.198864  0.482977  0.813257  1
  O  O26  1  0.396906  0.053497  0.859573  1
  O  O27  1  0.801136  0.517023  0.186743  1
  O  O28  1  0.683791  0.653156  0.933354  1
  O  O29  1  0.879751  0.216754  0.993828  1
  O  O30  1  0.931580  0.146248  0.294489  1
  O  O31  1  0.316209  0.346844  0.066646  1
