# generated using pymatgen
data_KNaMg5(Si2O5)6
_symmetry_space_group_name_H-M   'P 1'
_cell_length_a   10.35252097
_cell_length_b   10.35252106
_cell_length_c   14.17783869
_cell_angle_alpha   90.00000000
_cell_angle_beta   90.00000000
_cell_angle_gamma   119.99999973
_symmetry_Int_Tables_number   1
_chemical_formula_structural   KNaMg5(Si2O5)6
_chemical_formula_sum   'K2 Na2 Mg10 Si24 O60'
_cell_volume   1315.93035616
_cell_formula_units_Z   2
loop_
 _symmetry_equiv_pos_site_id
 _symmetry_equiv_pos_as_xyz
  1  'x, y, z'
loop_
 _atom_site_type_symbol
 _atom_site_label
 _atom_site_symmetry_multiplicity
 _atom_site_fract_x
 _atom_site_fract_y
 _atom_site_fract_z
 _atom_site_occupancy
  K  K0  1  0.000000  0.000000  0.750000  1
  K  K1  1  0.000000  0.000000  0.250000  1
  Na  Na2  1  0.333333  0.666667  0.500000  1
  Na  Na3  1  0.666667  0.333333  0.000000  1
  Mg  Mg4  1  1.000000  0.504582  0.750000  1
  Mg  Mg5  1  0.333333  0.666667  0.244833  1
  Mg  Mg6  1  0.504582  0.000000  0.750000  1
  Mg  Mg7  1  0.333333  0.666667  0.755167  1
  Mg  Mg8  1  0.495418  0.495418  0.250000  1
  Mg  Mg9  1  0.495418  0.495418  0.750000  1
  Mg  Mg10  1  0.666667  0.333333  0.255167  1
  Mg  Mg11  1  0.504582  0.000000  0.250000  1
  Mg  Mg12  1  0.666667  0.333333  0.744833  1
  Mg  Mg13  1  1.000000  0.504582  0.250000  1
  Si  Si14  1  0.115029  0.768922  0.386004  1
  Si  Si15  1  0.115029  0.768922  0.613996  1
  Si  Si16  1  0.233653  0.886745  0.886342  1
  Si  Si17  1  0.233653  0.886745  0.113658  1
  Si  Si18  1  0.113255  0.346907  0.113658  1
  Si  Si19  1  0.113255  0.346907  0.886342  1
  Si  Si20  1  0.231078  0.346107  0.386004  1
  Si  Si21  1  0.231078  0.346107  0.613996  1
  Si  Si22  1  0.653893  0.884971  0.613996  1
  Si  Si23  1  0.653893  0.884971  0.386004  1
  Si  Si24  1  0.346107  0.231078  0.113996  1
  Si  Si25  1  0.346107  0.231078  0.886004  1
  Si  Si26  1  0.653093  0.766347  0.113658  1
  Si  Si27  1  0.653093  0.766347  0.886342  1
  Si  Si28  1  0.346907  0.113255  0.613658  1
  Si  Si29  1  0.346907  0.113255  0.386342  1
  Si  Si30  1  0.766347  0.653093  0.386342  1
  Si  Si31  1  0.766347  0.653093  0.613658  1
  Si  Si32  1  0.884971  0.653893  0.113996  1
  Si  Si33  1  0.884971  0.653893  0.886004  1
  Si  Si34  1  0.768922  0.115029  0.886004  1
  Si  Si35  1  0.768922  0.115029  0.113996  1
  Si  Si36  1  0.886745  0.233653  0.386342  1
  Si  Si37  1  0.886745  0.233653  0.613658  1
  O  O38  1  0.057460  0.776706  0.858095  1
  O  O39  1  0.057460  0.776706  0.141905  1
  O  O40  1  0.212840  0.944737  0.355190  1
  O  O41  1  0.212840  0.944737  0.644810  1
  O  O42  1  0.136394  0.758609  0.500000  1
  O  O43  1  0.159809  0.660026  0.332248  1
  O  O44  1  0.159809  0.660026  0.667752  1
  O  O45  1  0.247542  0.882941  0.000000  1
  O  O46  1  0.152422  0.496016  0.170764  1
  O  O47  1  0.152422  0.496016  0.829236  1
  O  O48  1  0.343594  0.847578  0.170764  1
  O  O49  1  0.343594  0.847578  0.829236  1
  O  O50  1  0.055263  0.268103  0.355190  1
  O  O51  1  0.055263  0.268103  0.644810  1
  O  O52  1  0.117059  0.364601  0.000000  1
  O  O53  1  0.241391  0.377784  0.500000  1
  O  O54  1  0.223294  0.280755  0.141905  1
  O  O55  1  0.223294  0.280755  0.858095  1
  O  O56  1  0.500217  0.840191  0.667752  1
  O  O57  1  0.500217  0.840191  0.332248  1
  O  O58  1  0.339974  0.499783  0.332248  1
  O  O59  1  0.339974  0.499783  0.667752  1
  O  O60  1  0.280755  0.223294  0.641905  1
  O  O61  1  0.280755  0.223294  0.358095  1
  O  O62  1  0.622216  0.863607  0.500000  1
  O  O63  1  0.503984  0.656406  0.170764  1
  O  O64  1  0.503984  0.656406  0.829236  1
  O  O65  1  0.635399  0.752458  0.000000  1
  O  O66  1  0.268103  0.055263  0.144810  1
  O  O67  1  0.268103  0.055263  0.855190  1
  O  O68  1  0.719245  0.942540  0.141905  1
  O  O69  1  0.719245  0.942540  0.858095  1
  O  O70  1  0.377784  0.241391  0.000000  1
  O  O71  1  0.499783  0.339974  0.167752  1
  O  O72  1  0.499783  0.339974  0.832248  1
  O  O73  1  0.364601  0.117059  0.500000  1
  O  O74  1  0.731897  0.787160  0.644810  1
  O  O75  1  0.731897  0.787160  0.355190  1
  O  O76  1  0.656406  0.503984  0.329236  1
  O  O77  1  0.656406  0.503984  0.670764  1
  O  O78  1  0.496016  0.152422  0.670764  1
  O  O79  1  0.496016  0.152422  0.329236  1
  O  O80  1  0.787160  0.731897  0.144810  1
  O  O81  1  0.787160  0.731897  0.855190  1
  O  O82  1  0.752458  0.635399  0.500000  1
  O  O83  1  0.863607  0.622216  0.000000  1
  O  O84  1  0.942540  0.719245  0.358095  1
  O  O85  1  0.942540  0.719245  0.641905  1
  O  O86  1  0.660026  0.159809  0.167752  1
  O  O87  1  0.660026  0.159809  0.832248  1
  O  O88  1  0.840191  0.500217  0.167752  1
  O  O89  1  0.840191  0.500217  0.832248  1
  O  O90  1  0.758609  0.136394  0.000000  1
  O  O91  1  0.847578  0.343594  0.329236  1
  O  O92  1  0.847578  0.343594  0.670764  1
  O  O93  1  0.882941  0.247542  0.500000  1
  O  O94  1  0.776706  0.057460  0.358095  1
  O  O95  1  0.776706  0.057460  0.641905  1
  O  O96  1  0.944737  0.212840  0.855190  1
  O  O97  1  0.944737  0.212840  0.144810  1
