# generated using pymatgen
data_NiH6C2(SN2)2
_symmetry_space_group_name_H-M   'P 1'
_cell_length_a   5.70528075
_cell_length_b   5.97875817
_cell_length_c   5.97875729
_cell_angle_alpha   86.90024038
_cell_angle_beta   79.18991058
_cell_angle_gamma   79.18991219
_symmetry_Int_Tables_number   1
_chemical_formula_structural   NiH6C2(SN2)2
_chemical_formula_sum   'Ni1 H6 C2 S2 N4'
_cell_volume   196.72675648
_cell_formula_units_Z   1
loop_
 _symmetry_equiv_pos_site_id
 _symmetry_equiv_pos_as_xyz
  1  'x, y, z'
loop_
 _atom_site_type_symbol
 _atom_site_label
 _atom_site_symmetry_multiplicity
 _atom_site_fract_x
 _atom_site_fract_y
 _atom_site_fract_z
 _atom_site_occupancy
  C  C0  1  0.409047  0.193971  0.193971  1
  C  C1  1  0.592844  0.804349  0.804349  1
  H  H2  1  0.163244  0.636813  0.239027  1
  H  H3  1  0.163244  0.239027  0.636813  1
  H  H4  1  0.869653  0.251467  0.648674  1
  H  H5  1  0.869653  0.648674  0.251467  1
  H  H6  1  0.964642  0.417104  0.810769  1
  H  H7  1  0.964642  0.810769  0.417104  1
  N  N8  1  -0.000852  0.257540  0.744682  1
  N  N9  1  0.233285  0.145710  0.145710  1
  N  N10  1  0.771254  0.850264  0.850264  1
  N  N11  1  -0.000852  0.744682  0.257540  1
  Ni  Ni12  1  0.000570  0.999892  0.999892  1
  S  S13  1  0.351518  0.737343  0.737343  1
  S  S14  1  0.650108  0.262396  0.262396  1
