# generated using pymatgen
data_Fe5C2
_symmetry_space_group_name_H-M   'P 1'
_cell_length_a   4.52288476
_cell_length_b   5.00411378
_cell_length_c   11.56926997
_cell_angle_alpha   97.56235678
_cell_angle_beta   90.25177613
_cell_angle_gamma   90.04739659
_symmetry_Int_Tables_number   1
_chemical_formula_structural   Fe5C2
_chemical_formula_sum   'Fe20 C8'
_cell_volume   259.56737312
_cell_formula_units_Z   4
loop_
 _symmetry_equiv_pos_site_id
 _symmetry_equiv_pos_as_xyz
  1  'x, y, z'
loop_
 _atom_site_type_symbol
 _atom_site_label
 _atom_site_symmetry_multiplicity
 _atom_site_fract_x
 _atom_site_fract_y
 _atom_site_fract_z
 _atom_site_occupancy
  Fe  Fe0  1  0.837928  0.581581  0.152257  1
  Fe  Fe1  1  0.162072  0.418419  0.847743  1
  Fe  Fe2  1  0.167886  0.190228  0.035433  1
  Fe  Fe3  1  0.832661  0.690142  0.535985  1
  Fe  Fe4  1  0.671654  0.414028  0.347090  1
  Fe  Fe5  1  0.167339  0.309858  0.464015  1
  Fe  Fe6  1  0.162542  0.084740  0.651668  1
  Fe  Fe7  1  0.812302  0.753338  0.750408  1
  Fe  Fe8  1  0.837458  0.915260  0.348332  1
  Fe  Fe9  1  0.671209  0.080417  0.151535  1
  Fe  Fe10  1  0.328791  0.919583  0.848465  1
  Fe  Fe11  1  0.334592  0.689045  0.035828  1
  Fe  Fe12  1  0.832114  0.809772  0.964567  1
  Fe  Fe13  1  0.666655  0.191205  0.535327  1
  Fe  Fe14  1  0.665408  0.310955  0.964172  1
  Fe  Fe15  1  0.333345  0.808795  0.464673  1
  Fe  Fe16  1  0.187698  0.246662  0.249592  1
  Fe  Fe17  1  0.328346  0.585972  0.652910  1
  Fe  Fe18  1  0.325051  0.748107  0.250231  1
  Fe  Fe19  1  0.674949  0.251893  0.749769  1
  C  C20  1  0.559682  0.921269  0.634781  1
  C  C21  1  0.558311  0.581897  0.862999  1
  C  C22  1  0.067713  0.919405  0.136450  1
  C  C23  1  0.932124  0.423216  0.638708  1
  C  C24  1  0.067876  0.576784  0.361292  1
  C  C25  1  0.440318  0.078731  0.365219  1
  C  C26  1  0.932287  0.080595  0.863550  1
  C  C27  1  0.441689  0.418103  0.137001  1
