# generated using pymatgen
data_U2O5
_symmetry_space_group_name_H-M   'P 1'
_cell_length_a   6.97431084
_cell_length_b   8.33023479
_cell_length_c   30.97984832
_cell_angle_alpha   90.00000000
_cell_angle_beta   90.00000000
_cell_angle_gamma   90.00000000
_symmetry_Int_Tables_number   1
_chemical_formula_structural   U2O5
_chemical_formula_sum   'U32 O80'
_cell_volume   1799.85628548
_cell_formula_units_Z   16
loop_
 _symmetry_equiv_pos_site_id
 _symmetry_equiv_pos_as_xyz
  1  'x, y, z'
loop_
 _atom_site_type_symbol
 _atom_site_label
 _atom_site_symmetry_multiplicity
 _atom_site_fract_x
 _atom_site_fract_y
 _atom_site_fract_z
 _atom_site_occupancy
  U  U0  1  0.243283  0.000117  0.159656  1
  U  U1  1  0.743283  0.499883  0.340344  1
  U  U2  1  0.215346  0.499918  0.787561  1
  U  U3  1  0.756717  -0.000117  0.840344  1
  U  U4  1  0.284654  0.500082  0.287561  1
  U  U5  1  0.242591  0.000082  0.024543  1
  U  U6  1  0.715346  0.499918  0.712439  1
  U  U7  1  0.743283  0.000117  0.340344  1
  U  U8  1  0.218920  0.499932  0.405721  1
  U  U9  1  0.718920  0.000068  0.094279  1
  U  U10  1  0.784654  0.500082  0.212439  1
  U  U11  1  0.215346  0.000082  0.787561  1
  U  U12  1  0.242591  0.499918  0.024543  1
  U  U13  1  0.256717  -0.000117  0.659656  1
  U  U14  1  0.256717  0.500117  0.659656  1
  U  U15  1  0.243283  0.499883  0.159656  1
  U  U16  1  0.742591  0.000082  0.475457  1
  U  U17  1  0.757409  0.999918  0.975457  1
  U  U18  1  0.257409  0.999918  0.524543  1
  U  U19  1  0.757409  0.500082  0.975457  1
  U  U20  1  0.281080  -0.000068  0.905721  1
  U  U21  1  0.218920  0.000068  0.405721  1
  U  U22  1  0.756717  0.500117  0.840344  1
  U  U23  1  0.781080  -0.000068  0.594279  1
  U  U24  1  0.281080  0.500068  0.905721  1
  U  U25  1  0.742591  0.499918  0.475457  1
  U  U26  1  0.257409  0.500082  0.524543  1
  U  U27  1  0.715346  0.000082  0.712439  1
  U  U28  1  0.781080  0.500068  0.594279  1
  U  U29  1  0.718920  0.499932  0.094279  1
  U  U30  1  0.284654  -0.000082  0.287561  1
  U  U31  1  0.784654  -0.000082  0.212439  1
  O  O32  1  0.564633  0.001151  0.036613  1
  O  O33  1  0.744382  0.250000  0.476385  1
  O  O34  1  0.935367  0.501151  0.536613  1
  O  O35  1  0.943309  0.500166  0.665091  1
  O  O36  1  0.755153  0.250000  0.975809  1
  O  O37  1  0.933616  0.499987  0.041249  1
  O  O38  1  0.277848  0.250000  0.904868  1
  O  O39  1  0.784350  0.250000  0.213421  1
  O  O40  1  0.225180  0.250000  0.404469  1
  O  O41  1  0.388048  0.000836  0.727934  1
  O  O42  1  0.215650  0.750000  0.786579  1
  O  O43  1  0.443309  0.999834  0.834909  1
  O  O44  1  0.295036  0.002015  0.094337  1
  O  O45  1  0.566384  0.500013  0.541249  1
  O  O46  1  0.564633  0.498849  0.036613  1
  O  O47  1  0.244382  0.250000  0.023615  1
  O  O48  1  0.245860  0.750000  0.163286  1
  O  O49  1  0.431216  0.500429  0.351768  1
  O  O50  1  0.556691  0.499834  0.165091  1
  O  O51  1  0.568784  0.499571  0.648232  1
  O  O52  1  0.064633  0.001151  0.463387  1
  O  O53  1  0.274820  0.750000  0.904469  1
  O  O54  1  0.754140  0.250000  0.836714  1
  O  O55  1  0.722152  0.750000  0.095132  1
  O  O56  1  0.774820  0.750000  0.595531  1
  O  O57  1  0.111952  0.999164  0.227934  1
  O  O58  1  0.755618  0.750000  0.976385  1
  O  O59  1  0.443309  0.500166  0.834909  1
  O  O60  1  0.284350  0.250000  0.286579  1
  O  O61  1  0.431216  0.999571  0.351768  1
  O  O62  1  0.704964  0.997985  0.905663  1
  O  O63  1  0.611952  0.999164  0.272066  1
  O  O64  1  0.204964  0.502015  0.594337  1
  O  O65  1  0.068784  0.499571  0.851768  1
  O  O66  1  0.568784  0.000429  0.648232  1
  O  O67  1  0.725180  0.250000  0.095531  1
  O  O68  1  0.556691  0.000166  0.165091  1
  O  O69  1  0.215985  0.250000  0.786728  1
  O  O70  1  0.388048  0.499164  0.727934  1
  O  O71  1  0.744889  0.250000  0.335668  1
  O  O72  1  0.068784  0.000429  0.851768  1
  O  O73  1  0.888048  0.499164  0.772066  1
  O  O74  1  0.284015  0.750000  0.286728  1
  O  O75  1  0.755111  0.750000  0.835668  1
  O  O76  1  0.111952  0.500836  0.227934  1
  O  O77  1  0.254140  0.250000  0.663286  1
  O  O78  1  0.244847  0.750000  0.024191  1
  O  O79  1  0.943309  0.999834  0.665091  1
  O  O80  1  0.255618  0.750000  0.523615  1
  O  O81  1  0.795036  0.497985  0.405663  1
  O  O82  1  0.064633  0.498849  0.463387  1
  O  O83  1  0.066384  -0.000013  0.958751  1
  O  O84  1  0.931216  0.500429  0.148232  1
  O  O85  1  0.244889  0.250000  0.164332  1
  O  O86  1  0.784015  0.750000  0.213272  1
  O  O87  1  0.433616  0.499987  0.458751  1
  O  O88  1  0.066384  0.500013  0.958751  1
  O  O89  1  0.744847  0.750000  0.475809  1
  O  O90  1  0.056691  0.499834  0.334909  1
  O  O91  1  0.935367  0.998849  0.536613  1
  O  O92  1  0.255111  0.750000  0.664332  1
  O  O93  1  0.795036  0.002015  0.405663  1
  O  O94  1  0.222152  0.750000  0.404868  1
  O  O95  1  0.777848  0.250000  0.595132  1
  O  O96  1  0.745860  0.750000  0.336714  1
  O  O97  1  0.433616  0.000013  0.458751  1
  O  O98  1  0.611952  0.500836  0.272066  1
  O  O99  1  0.566384  -0.000013  0.541249  1
  O  O100  1  0.715650  0.750000  0.713421  1
  O  O101  1  0.931216  0.999571  0.148232  1
  O  O102  1  0.255153  0.250000  0.524191  1
  O  O103  1  0.435367  0.998849  0.963387  1
  O  O104  1  0.204964  0.997985  0.594337  1
  O  O105  1  0.715985  0.250000  0.713272  1
  O  O106  1  0.435367  0.501151  0.963387  1
  O  O107  1  0.933616  0.000013  0.041249  1
  O  O108  1  0.295036  0.497985  0.094337  1
  O  O109  1  0.704964  0.502015  0.905663  1
  O  O110  1  0.888048  0.000836  0.772066  1
  O  O111  1  0.056691  0.000166  0.334909  1
