# generated using pymatgen
data_LaH6S3(NO3)3
_symmetry_space_group_name_H-M   'P 1'
_cell_length_a   9.88498684
_cell_length_b   9.86825735
_cell_length_c   6.07937974
_cell_angle_alpha   89.72363723
_cell_angle_beta   89.64665073
_cell_angle_gamma   120.01981833
_symmetry_Int_Tables_number   1
_chemical_formula_structural   LaH6S3(NO3)3
_chemical_formula_sum   'La2 H12 S6 N6 O18'
_cell_volume   513.44428430
_cell_formula_units_Z   2
loop_
 _symmetry_equiv_pos_site_id
 _symmetry_equiv_pos_as_xyz
  1  'x, y, z'
loop_
 _atom_site_type_symbol
 _atom_site_label
 _atom_site_symmetry_multiplicity
 _atom_site_fract_x
 _atom_site_fract_y
 _atom_site_fract_z
 _atom_site_occupancy
  La  La0  1  0.333343  0.666463  0.249211  1
  La  La1  1  0.666733  0.333630  0.748974  1
  H  H2  1  0.112855  0.912517  0.629617  1
  H  H3  1  0.267193  0.937583  0.768494  1
  H  H4  1  0.063085  0.329583  0.730429  1
  H  H5  1  0.089195  0.201197  0.873744  1
  H  H6  1  0.199372  0.100418  0.132662  1
  H  H7  1  0.322297  0.260743  0.273709  1
  H  H8  1  0.672923  0.735312  0.730261  1
  H  H9  1  0.797360  0.890456  0.872895  1
  H  H10  1  0.902017  0.798723  0.368798  1
  H  H11  1  0.938331  0.675951  0.224621  1
  H  H12  1  0.737271  0.062449  0.231091  1
  H  H13  1  0.892918  0.094551  0.375287  1
  S  S14  1  0.086490  0.685172  0.750047  1
  S  S15  1  0.315381  0.401832  0.751370  1
  S  S16  1  0.598525  0.913980  0.747793  1
  S  S17  1  0.402622  0.085246  0.251217  1
  S  S18  1  0.683109  0.597580  0.249179  1
  S  S19  1  0.914854  0.316531  0.248725  1
  N  N20  1  0.147416  0.875202  0.763556  1
  N  N21  1  0.125948  0.272687  0.738442  1
  N  N22  1  0.270493  0.141218  0.266150  1
  N  N23  1  0.729633  0.855411  0.735251  1
  N  N24  1  0.871561  0.728619  0.233997  1
  N  N25  1  0.856922  0.126910  0.237158  1
  O  O26  1  0.146877  0.651721  0.949358  1
  O  O27  1  0.146358  0.649278  0.549612  1
  O  O28  1  0.307837  0.914205  0.252179  1
  O  O29  1  0.085272  0.392225  0.248455  1
  O  O30  1  0.504824  0.851598  0.550278  1
  O  O31  1  0.503623  0.854783  0.950136  1
  O  O32  1  0.348110  0.495952  0.551021  1
  O  O33  1  0.351633  0.497390  0.950831  1
  O  O34  1  0.389638  0.304850  0.755582  1
  O  O35  1  0.608014  0.693110  0.249362  1
  O  O36  1  0.652740  0.502720  0.051256  1
  O  O37  1  0.646389  0.502587  0.451761  1
  O  O38  1  0.497353  0.144846  0.048717  1
  O  O39  1  0.497154  0.148969  0.448920  1
  O  O40  1  0.915384  0.610807  0.747181  1
  O  O41  1  0.694518  0.085557  0.747563  1
  O  O42  1  0.854676  0.351603  0.449983  1
  O  O43  1  0.851753  0.347837  0.049729  1
