# generated using pymatgen
data_Rb14Si10O17
_symmetry_space_group_name_H-M   'P 1'
_cell_length_a   8.00023308
_cell_length_b   14.73044298
_cell_length_c   32.97298915
_cell_angle_alpha   102.17521239
_cell_angle_beta   90.00000000
_cell_angle_gamma   90.00000000
_symmetry_Int_Tables_number   1
_chemical_formula_structural   Rb14Si10O17
_chemical_formula_sum   'Rb56 Si40 O68'
_cell_volume   3798.36542487
_cell_formula_units_Z   4
loop_
 _symmetry_equiv_pos_site_id
 _symmetry_equiv_pos_as_xyz
  1  'x, y, z'
loop_
 _atom_site_type_symbol
 _atom_site_label
 _atom_site_symmetry_multiplicity
 _atom_site_fract_x
 _atom_site_fract_y
 _atom_site_fract_z
 _atom_site_occupancy
  Rb  Rb0  1  0.053562  0.204049  0.257505  1
  Rb  Rb1  1  0.597660  0.420937  0.712333  1
  Rb  Rb2  1  0.638552  0.799440  0.360689  1
  Rb  Rb3  1  0.969396  0.177936  0.371451  1
  Rb  Rb4  1  0.863332  0.574024  0.784659  1
  Rb  Rb5  1  0.902340  0.920937  0.212333  1
  Rb  Rb6  1  0.138552  0.700560  0.139311  1
  Rb  Rb7  1  0.901285  0.209040  0.144582  1
  Rb  Rb8  1  0.598715  0.709040  0.644582  1
  Rb  Rb9  1  0.988963  0.705512  0.258134  1
  Rb  Rb10  1  0.367700  0.856559  0.472244  1
  Rb  Rb11  1  0.542642  0.050999  0.066124  1
  Rb  Rb12  1  0.097660  0.079063  0.787667  1
  Rb  Rb13  1  0.490244  0.491755  0.933641  1
  Rb  Rb14  1  0.636668  0.074024  0.284659  1
  Rb  Rb15  1  0.402340  0.579063  0.287667  1
  Rb  Rb16  1  0.370683  0.626622  0.532937  1
  Rb  Rb17  1  0.509756  0.508245  0.066359  1
  Rb  Rb18  1  0.129317  0.126622  0.032937  1
  Rb  Rb19  1  0.957358  0.550999  0.566124  1
  Rb  Rb20  1  0.555024  0.552520  0.390148  1
  Rb  Rb21  1  0.401285  0.290960  0.355418  1
  Rb  Rb22  1  0.629317  0.373378  0.467063  1
  Rb  Rb23  1  0.052093  0.680536  0.384386  1
  Rb  Rb24  1  0.870683  0.873378  0.967063  1
  Rb  Rb25  1  0.530604  0.677936  0.871451  1
  Rb  Rb26  1  0.867700  0.643441  0.027756  1
  Rb  Rb27  1  0.446438  0.704049  0.757505  1
  Rb  Rb28  1  0.098715  0.790960  0.855418  1
  Rb  Rb29  1  0.136668  0.425976  0.215341  1
  Rb  Rb30  1  0.447907  0.180536  0.884386  1
  Rb  Rb31  1  0.030604  0.822064  0.628549  1
  Rb  Rb32  1  0.483775  0.050400  0.391815  1
  Rb  Rb33  1  0.947907  0.319464  0.615614  1
  Rb  Rb34  1  0.511037  0.205512  0.758134  1
  Rb  Rb35  1  0.132300  0.356559  0.972244  1
  Rb  Rb36  1  0.632300  0.143441  0.527756  1
  Rb  Rb37  1  0.055024  0.947480  0.109852  1
  Rb  Rb38  1  0.469396  0.322064  0.128549  1
  Rb  Rb39  1  0.361448  0.200560  0.639311  1
  Rb  Rb40  1  0.016225  0.550400  0.891815  1
  Rb  Rb41  1  0.516225  0.949600  0.608185  1
  Rb  Rb42  1  0.990244  0.008245  0.566359  1
  Rb  Rb43  1  0.946438  0.795951  0.742495  1
  Rb  Rb44  1  0.444976  0.447480  0.609852  1
  Rb  Rb45  1  0.488963  0.794488  0.241866  1
  Rb  Rb46  1  0.861448  0.299440  0.860689  1
  Rb  Rb47  1  0.944976  0.052520  0.890148  1
  Rb  Rb48  1  0.009756  0.991755  0.433641  1
  Rb  Rb49  1  0.363332  0.925976  0.715341  1
  Rb  Rb50  1  0.983775  0.449600  0.108185  1
  Rb  Rb51  1  0.553562  0.295951  0.242495  1
  Rb  Rb52  1  0.011037  0.294488  0.741866  1
  Rb  Rb53  1  0.457358  0.949001  0.933876  1
  Rb  Rb54  1  0.042642  0.449001  0.433876  1
  Rb  Rb55  1  0.552093  0.819464  0.115614  1
  Si  Si56  1  0.895377  0.935393  0.324160  1
  Si  Si57  1  0.183634  0.474478  0.698655  1
  Si  Si58  1  0.237762  0.854308  0.345956  1
  Si  Si59  1  0.293119  0.145650  0.159441  1
  Si  Si60  1  0.604623  0.435393  0.824160  1
  Si  Si61  1  0.729155  0.154203  0.979829  1
  Si  Si62  1  0.706881  0.854350  0.840559  1
  Si  Si63  1  0.762238  0.145692  0.654044  1
  Si  Si64  1  0.772494  0.985571  0.701786  1
  Si  Si65  1  0.104623  0.064607  0.675840  1
  Si  Si66  1  0.262238  0.354308  0.845956  1
  Si  Si67  1  0.358867  0.939722  0.826325  1
  Si  Si68  1  0.485657  0.247882  0.007485  1
  Si  Si69  1  0.227506  0.014429  0.298214  1
  Si  Si70  1  0.514343  0.752118  0.992515  1
  Si  Si71  1  0.210948  0.180521  0.523660  1
  Si  Si72  1  0.789053  0.819479  0.476340  1
  Si  Si73  1  0.289052  0.680521  0.023660  1
  Si  Si74  1  0.737762  0.645692  0.154044  1
  Si  Si75  1  0.744086  0.772445  0.542536  1
  Si  Si76  1  0.141133  0.439722  0.326325  1
  Si  Si77  1  0.272494  0.514429  0.798214  1
  Si  Si78  1  0.229155  0.345797  0.520171  1
  Si  Si79  1  0.395377  0.564607  0.175840  1
  Si  Si80  1  0.816366  0.525522  0.301345  1
  Si  Si81  1  0.858867  0.560278  0.673675  1
  Si  Si82  1  0.255914  0.227555  0.457464  1
  Si  Si83  1  0.770845  0.654203  0.479829  1
  Si  Si84  1  0.793119  0.354350  0.340559  1
  Si  Si85  1  0.014343  0.747882  0.507485  1
  Si  Si86  1  0.270845  0.845797  0.020171  1
  Si  Si87  1  0.985657  0.252118  0.492515  1
  Si  Si88  1  0.244086  0.727555  0.957464  1
  Si  Si89  1  0.710947  0.319479  0.976340  1
  Si  Si90  1  0.206881  0.645650  0.659441  1
  Si  Si91  1  0.683634  0.025522  0.801345  1
  Si  Si92  1  0.727506  0.485571  0.201786  1
  Si  Si93  1  0.641133  0.060278  0.173675  1
  Si  Si94  1  0.755914  0.272445  0.042536  1
  Si  Si95  1  0.316366  0.974478  0.198655  1
  O  O96  1  0.293406  0.885749  0.394250  1
  O  O97  1  0.752702  0.622021  0.328627  1
  O  O98  1  0.995889  0.636805  0.660188  1
  O  O99  1  0.276752  0.980934  0.248513  1
  O  O100  1  0.479261  0.504247  0.801064  1
  O  O101  1  0.237772  0.247270  0.184769  1
  O  O102  1  0.262228  0.747270  0.684769  1
  O  O103  1  0.209174  0.617173  0.817264  1
  O  O104  1  0.021328  0.511847  0.304140  1
  O  O105  1  0.277029  0.625031  0.211024  1
  O  O106  1  0.196607  0.997602  0.637013  1
  O  O107  1  0.504111  0.136805  0.160188  1
  O  O108  1  0.735687  0.614444  0.709509  1
  O  O109  1  0.979261  0.995753  0.698936  1
  O  O110  1  0.776752  0.519066  0.251487  1
  O  O111  1  0.247298  0.377979  0.671373  1
  O  O112  1  0.521328  0.988153  0.195860  1
  O  O113  1  0.971969  0.135861  0.657716  1
  O  O114  1  0.206594  0.385749  0.894250  1
  O  O115  1  0.777029  0.874969  0.288976  1
  O  O116  1  0.722971  0.374969  0.788976  1
  O  O117  1  0.226519  0.499818  0.367914  1
  O  O118  1  0.814393  0.565480  0.179805  1
  O  O119  1  0.303393  0.497602  0.137013  1
  O  O120  1  0.762228  0.752730  0.815231  1
  O  O121  1  0.235687  0.885556  0.790491  1
  O  O122  1  0.478672  0.011847  0.804140  1
  O  O123  1  0.314393  0.934520  0.320195  1
  O  O124  1  0.264313  0.385556  0.290491  1
  O  O125  1  0.020739  0.004247  0.301064  1
  O  O126  1  0.790826  0.382827  0.182736  1
  O  O127  1  0.737772  0.252730  0.315231  1
  O  O128  1  0.028031  0.864139  0.342284  1
  O  O129  1  0.185607  0.434520  0.820195  1
  O  O130  1  0.252702  0.877979  0.171373  1
  O  O131  1  0.702984  0.247305  0.677839  1
  O  O132  1  0.764313  0.114444  0.209509  1
  O  O133  1  0.747298  0.122021  0.828627  1
  O  O134  1  0.726519  0.000182  0.132086  1
  O  O135  1  0.709174  0.882827  0.682736  1
  O  O136  1  0.227026  0.119553  0.111966  1
  O  O137  1  0.723530  0.434668  0.314169  1
  O  O138  1  0.793406  0.614251  0.105750  1
  O  O139  1  0.727026  0.380447  0.388034  1
  O  O140  1  0.776470  0.934668  0.814169  1
  O  O141  1  0.696607  0.502398  0.862987  1
  O  O142  1  0.272974  0.619553  0.611966  1
  O  O143  1  0.528031  0.635861  0.157716  1
  O  O144  1  0.290826  0.117173  0.317264  1
  O  O145  1  0.520739  0.495753  0.198936  1
  O  O146  1  0.222971  0.125031  0.711024  1
  O  O147  1  0.004111  0.363195  0.339812  1
  O  O148  1  0.297016  0.752695  0.322161  1
  O  O149  1  0.803393  0.002398  0.362987  1
  O  O150  1  0.223530  0.065332  0.185831  1
  O  O151  1  0.723248  0.019066  0.751487  1
  O  O152  1  0.223248  0.480934  0.748513  1
  O  O153  1  0.685607  0.065480  0.679805  1
  O  O154  1  0.773481  0.500182  0.632086  1
  O  O155  1  0.471969  0.364139  0.842284  1
  O  O156  1  0.276470  0.565332  0.685831  1
  O  O157  1  0.706594  0.114251  0.605750  1
  O  O158  1  0.978672  0.488153  0.695860  1
  O  O159  1  0.202984  0.252695  0.822161  1
  O  O160  1  0.495889  0.863195  0.839812  1
  O  O161  1  0.273481  0.999818  0.867914  1
  O  O162  1  0.797016  0.747305  0.177839  1
  O  O163  1  0.772974  0.880447  0.888034  1
