# generated using pymatgen
data_CeTl2P2S7
_symmetry_space_group_name_H-M   'P 1'
_cell_length_a   6.78721845
_cell_length_b   9.39871351
_cell_length_c   19.94837811
_cell_angle_alpha   97.56144034
_cell_angle_beta   90.00000000
_cell_angle_gamma   90.00000000
_symmetry_Int_Tables_number   1
_chemical_formula_structural   CeTl2P2S7
_chemical_formula_sum   'Ce4 Tl8 P8 S28'
_cell_volume   1261.46391186
_cell_formula_units_Z   4
loop_
 _symmetry_equiv_pos_site_id
 _symmetry_equiv_pos_as_xyz
  1  'x, y, z'
loop_
 _atom_site_type_symbol
 _atom_site_label
 _atom_site_symmetry_multiplicity
 _atom_site_fract_x
 _atom_site_fract_y
 _atom_site_fract_z
 _atom_site_occupancy
  Ce  Ce0  1  0.524207  0.686189  0.347801  1
  Ce  Ce1  1  0.024207  0.813811  0.152199  1
  Ce  Ce2  1  0.475793  0.313811  0.652199  1
  Ce  Ce3  1  0.975793  0.186189  0.847801  1
  Tl  Tl4  1  0.008584  0.636492  0.814087  1
  Tl  Tl5  1  0.513665  0.744468  0.990218  1
  Tl  Tl6  1  0.986335  0.244468  0.490218  1
  Tl  Tl7  1  0.491416  0.136492  0.314087  1
  Tl  Tl8  1  0.486335  0.255532  0.009782  1
  Tl  Tl9  1  0.991416  0.363508  0.185913  1
  Tl  Tl10  1  0.508584  0.863508  0.685913  1
  Tl  Tl11  1  0.013665  0.755532  0.509782  1
  P  P12  1  0.489045  0.597758  0.166068  1
  P  P13  1  0.993105  0.079915  0.046939  1
  P  P14  1  0.989045  0.902242  0.333932  1
  P  P15  1  0.010955  0.097758  0.666068  1
  P  P16  1  0.506895  0.579915  0.546939  1
  P  P17  1  0.493105  0.420085  0.453061  1
  P  P18  1  0.510955  0.402242  0.833932  1
  P  P19  1  0.006895  0.920085  0.953061  1
  S  S20  1  0.756398  0.024984  0.099427  1
  S  S21  1  0.743602  0.524984  0.599427  1
  S  S22  1  0.256398  0.475016  0.400573  1
  S  S23  1  0.498686  0.542220  0.765168  1
  S  S24  1  0.442335  0.803790  0.216730  1
  S  S25  1  0.738081  0.582578  0.107199  1
  S  S26  1  0.740472  0.453236  0.399684  1
  S  S27  1  0.238081  0.917422  0.392801  1
  S  S28  1  0.759528  0.953236  0.899684  1
  S  S29  1  0.479314  0.230994  0.488526  1
  S  S30  1  0.942335  0.696210  0.283270  1
  S  S31  1  0.979314  0.269006  0.011474  1
  S  S32  1  0.261919  0.417422  0.892801  1
  S  S33  1  0.240472  0.046764  0.100316  1
  S  S34  1  0.246891  0.053471  0.602092  1
  S  S35  1  0.753109  0.946529  0.397908  1
  S  S36  1  0.253109  0.553471  0.102092  1
  S  S37  1  0.259528  0.546764  0.600316  1
  S  S38  1  0.998686  0.957780  0.734832  1
  S  S39  1  0.761919  0.082578  0.607199  1
  S  S40  1  0.057665  0.303790  0.716730  1
  S  S41  1  0.520686  0.769006  0.511474  1
  S  S42  1  0.001314  0.042220  0.265168  1
  S  S43  1  0.020686  0.730994  0.988526  1
  S  S44  1  0.557665  0.196210  0.783270  1
  S  S45  1  0.501314  0.457780  0.234832  1
  S  S46  1  0.746891  0.446529  0.897908  1
  S  S47  1  0.243602  0.975016  0.900573  1
