# generated using pymatgen
data_NaSr2LaTi4O12
_symmetry_space_group_name_H-M   'P 1'
_cell_length_a   5.53073562
_cell_length_b   5.53074061
_cell_length_c   33.29409267
_cell_angle_alpha   119.88985285
_cell_angle_beta   119.88989366
_cell_angle_gamma   89.99965302
_symmetry_Int_Tables_number   1
_chemical_formula_structural   NaSr2LaTi4O12
_chemical_formula_sum   'Na3 Sr6 La3 Ti12 O36'
_cell_volume   722.53536133
_cell_formula_units_Z   3
loop_
 _symmetry_equiv_pos_site_id
 _symmetry_equiv_pos_as_xyz
  1  'x, y, z'
loop_
 _atom_site_type_symbol
 _atom_site_label
 _atom_site_symmetry_multiplicity
 _atom_site_fract_x
 _atom_site_fract_y
 _atom_site_fract_z
 _atom_site_occupancy
  Na  Na0  1  0.249170  0.749171  0.916401  1
  Na  Na1  1  0.250000  0.750000  0.750002  1
  Na  Na2  1  0.250915  0.750916  0.583623  1
  Sr  Sr3  1  0.250720  0.750710  0.416897  1
  Sr  Sr4  1  0.249998  0.749994  0.249997  1
  Sr  Sr5  1  0.752996  0.252999  0.417663  1
  Sr  Sr6  1  0.249284  0.749291  0.083101  1
  Sr  Sr7  1  0.749990  0.249980  0.249999  1
  Sr  Sr8  1  0.746991  0.246993  0.082333  1
  La  La9  1  0.748673  0.248676  0.916216  1
  La  La10  1  0.750034  0.250032  0.750002  1
  La  La11  1  0.751348  0.251343  0.583782  1
  Ti  Ti12  1  0.001518  0.001527  0.667173  1
  Ti  Ti13  1  0.498510  0.498501  0.832831  1
  Ti  Ti14  1  0.005023  0.005040  0.501676  1
  Ti  Ti15  1  0.501526  0.501517  0.667173  1
  Ti  Ti16  1  0.998502  0.998512  0.832831  1
  Ti  Ti17  1  0.001206  0.001205  0.333731  1
  Ti  Ti18  1  0.505039  0.505026  0.501677  1
  Ti  Ti19  1  0.998762  0.998774  0.166259  1
  Ti  Ti20  1  0.501206  0.501209  0.333732  1
  Ti  Ti21  1  0.994948  0.994966  0.998314  1
  Ti  Ti22  1  0.498775  0.498766  0.166260  1
  Ti  Ti23  1  0.494971  0.494955  0.998315  1
  O  O24  1  0.248020  0.248008  0.916022  1
  O  O25  1  0.207311  0.707308  0.831292  1
  O  O26  1  0.290481  0.218421  0.834829  1
  O  O27  1  0.249992  0.249975  0.749997  1
  O  O28  1  0.748006  0.748017  0.916022  1
  O  O29  1  0.209482  0.709480  0.665162  1
  O  O30  1  0.718420  0.790480  0.834829  1
  O  O31  1  0.292663  0.219568  0.668702  1
  O  O32  1  0.780442  0.280446  0.831306  1
  O  O33  1  0.251982  0.251961  0.583977  1
  O  O34  1  0.749970  0.749989  0.749996  1
  O  O35  1  0.229605  0.729606  0.500899  1
  O  O36  1  0.719558  0.792660  0.668701  1
  O  O37  1  0.293988  0.222152  0.502690  1
  O  O38  1  0.781572  0.281576  0.665178  1
  O  O39  1  0.252244  0.252227  0.417426  1
  O  O40  1  0.751961  0.751980  0.583977  1
  O  O41  1  0.225193  0.725194  0.333261  1
  O  O42  1  0.722151  0.793989  0.502689  1
  O  O43  1  0.276078  0.226324  0.333748  1
  O  O44  1  0.775782  0.275782  0.500899  1
  O  O45  1  0.250021  0.249991  0.250002  1
  O  O46  1  0.752231  0.752246  0.417427  1
  O  O47  1  0.223909  0.723909  0.166248  1
  O  O48  1  0.726326  0.776079  0.333748  1
  O  O49  1  0.274790  0.225720  0.166737  1
  O  O50  1  0.774297  0.274295  0.333271  1
  O  O51  1  0.247789  0.247758  0.082578  1
  O  O52  1  0.749995  0.750024  0.250003  1
  O  O53  1  0.205995  0.705994  0.997305  1
  O  O54  1  0.725719  0.774789  0.166736  1
  O  O55  1  0.270387  0.224214  0.999102  1
  O  O56  1  0.773712  0.273714  0.166260  1
  O  O57  1  0.747754  0.747789  0.082578  1
  O  O58  1  0.724217  0.770389  0.999103  1
  O  O59  1  0.777850  0.277848  0.997311  1
