# generated using pymatgen
data_Mn11Ge8
_symmetry_space_group_name_H-M   'P 1'
_cell_length_a   5.00442446
_cell_length_b   12.96860822
_cell_length_c   15.68556830
_cell_angle_alpha   90.00000000
_cell_angle_beta   90.00000000
_cell_angle_gamma   90.00000000
_symmetry_Int_Tables_number   1
_chemical_formula_structural   Mn11Ge8
_chemical_formula_sum   'Mn44 Ge32'
_cell_volume   1017.99997356
_cell_formula_units_Z   4
loop_
 _symmetry_equiv_pos_site_id
 _symmetry_equiv_pos_as_xyz
  1  'x, y, z'
loop_
 _atom_site_type_symbol
 _atom_site_label
 _atom_site_symmetry_multiplicity
 _atom_site_fract_x
 _atom_site_fract_y
 _atom_site_fract_z
 _atom_site_occupancy
  Mn  Mn0  1  0.750000  0.134863  0.342943  1
  Mn  Mn1  1  0.250000  0.365137  0.842943  1
  Mn  Mn2  1  0.750000  0.634863  0.157057  1
  Mn  Mn3  1  0.250000  0.130447  0.458302  1
  Mn  Mn4  1  0.250000  0.694909  0.747801  1
  Mn  Mn5  1  0.750000  0.305091  0.252199  1
  Mn  Mn6  1  0.998832  0.939755  0.379182  1
  Mn  Mn7  1  0.492737  0.364962  0.675508  1
  Mn  Mn8  1  0.250000  0.751995  0.469247  1
  Mn  Mn9  1  0.992737  0.635038  0.324492  1
  Mn  Mn10  1  0.250000  0.877024  0.994820  1
  Mn  Mn11  1  0.501168  0.439755  0.120818  1
  Mn  Mn12  1  0.250000  0.251995  0.030753  1
  Mn  Mn13  1  0.507263  0.635038  0.324492  1
  Mn  Mn14  1  0.001168  0.060245  0.620818  1
  Mn  Mn15  1  0.498832  0.060245  0.620818  1
  Mn  Mn16  1  0.750000  0.122976  0.005180  1
  Mn  Mn17  1  0.250000  0.433158  0.305679  1
  Mn  Mn18  1  0.750000  0.805091  0.247801  1
  Mn  Mn19  1  0.992737  0.135038  0.175508  1
  Mn  Mn20  1  0.750000  0.066842  0.805679  1
  Mn  Mn21  1  0.001168  0.560245  0.879182  1
  Mn  Mn22  1  0.501168  0.939755  0.379182  1
  Mn  Mn23  1  0.750000  0.369553  0.958302  1
  Mn  Mn24  1  0.250000  0.377024  0.505180  1
  Mn  Mn25  1  0.250000  0.630447  0.041698  1
  Mn  Mn26  1  0.250000  0.194909  0.752199  1
  Mn  Mn27  1  0.507263  0.135038  0.175508  1
  Mn  Mn28  1  0.750000  0.566842  0.694321  1
  Mn  Mn29  1  0.750000  0.748005  0.969247  1
  Mn  Mn30  1  0.007263  0.364962  0.675508  1
  Mn  Mn31  1  0.250000  0.546357  0.593565  1
  Mn  Mn32  1  0.007263  0.864962  0.824492  1
  Mn  Mn33  1  0.250000  0.046357  0.906435  1
  Mn  Mn34  1  0.750000  0.248005  0.530753  1
  Mn  Mn35  1  0.250000  0.865137  0.657057  1
  Mn  Mn36  1  0.998832  0.439755  0.120818  1
  Mn  Mn37  1  0.750000  0.453643  0.406435  1
  Mn  Mn38  1  0.750000  0.953643  0.093565  1
  Mn  Mn39  1  0.492737  0.864962  0.824492  1
  Mn  Mn40  1  0.250000  0.933158  0.194321  1
  Mn  Mn41  1  0.750000  0.622976  0.494820  1
  Mn  Mn42  1  0.498832  0.560245  0.879182  1
  Mn  Mn43  1  0.750000  0.869553  0.541698  1
  Ge  Ge44  1  0.250000  0.795042  0.304463  1
  Ge  Ge45  1  0.750000  0.055955  0.483483  1
  Ge  Ge46  1  0.750000  0.491045  0.255378  1
  Ge  Ge47  1  0.750000  0.448343  0.563220  1
  Ge  Ge48  1  0.250000  0.225944  0.596308  1
  Ge  Ge49  1  0.503269  0.213584  0.887863  1
  Ge  Ge50  1  0.750000  0.204958  0.695537  1
  Ge  Ge51  1  0.750000  0.415458  0.803858  1
  Ge  Ge52  1  0.250000  0.551657  0.436780  1
  Ge  Ge53  1  0.250000  0.008955  0.755378  1
  Ge  Ge54  1  0.996731  0.213584  0.887863  1
  Ge  Ge55  1  0.750000  0.915458  0.696142  1
  Ge  Ge56  1  0.750000  0.774056  0.403692  1
  Ge  Ge57  1  0.750000  0.274056  0.096308  1
  Ge  Ge58  1  0.250000  0.084542  0.303858  1
  Ge  Ge59  1  0.750000  0.991045  0.244622  1
  Ge  Ge60  1  0.750000  0.704958  0.804463  1
  Ge  Ge61  1  0.750000  0.555955  0.016517  1
  Ge  Ge62  1  0.250000  0.944045  0.516517  1
  Ge  Ge63  1  0.003269  0.286416  0.387863  1
  Ge  Ge64  1  0.003269  0.786416  0.112137  1
  Ge  Ge65  1  0.250000  0.295042  0.195537  1
  Ge  Ge66  1  0.250000  0.051657  0.063220  1
  Ge  Ge67  1  0.250000  0.584542  0.196142  1
  Ge  Ge68  1  0.503269  0.713584  0.612137  1
  Ge  Ge69  1  0.750000  0.948343  0.936780  1
  Ge  Ge70  1  0.496731  0.786416  0.112137  1
  Ge  Ge71  1  0.250000  0.725944  0.903692  1
  Ge  Ge72  1  0.496731  0.286416  0.387863  1
  Ge  Ge73  1  0.250000  0.444045  0.983483  1
  Ge  Ge74  1  0.996731  0.713584  0.612137  1
  Ge  Ge75  1  0.250000  0.508955  0.744622  1
