# generated using pymatgen
data_CuSi2P3
_symmetry_space_group_name_H-M   'P 1'
_cell_length_a   3.63834021
_cell_length_b   7.39815164
_cell_length_c   16.24925328
_cell_angle_alpha   48.09067377
_cell_angle_beta   55.96009096
_cell_angle_gamma   60.54167225
_symmetry_Int_Tables_number   1
_chemical_formula_structural   CuSi2P3
_chemical_formula_sum   'Cu2 Si4 P6'
_cell_volume   264.75060415
_cell_formula_units_Z   2
loop_
 _symmetry_equiv_pos_site_id
 _symmetry_equiv_pos_as_xyz
  1  'x, y, z'
loop_
 _atom_site_type_symbol
 _atom_site_label
 _atom_site_symmetry_multiplicity
 _atom_site_fract_x
 _atom_site_fract_y
 _atom_site_fract_z
 _atom_site_occupancy
  Cu  Cu0  1  0.060071  0.281848  0.463233  1
  Cu  Cu1  1  0.963156  0.839239  0.279042  1
  Si  Si2  1  0.899296  0.317180  0.313410  1
  Si  Si3  1  0.002563  0.129592  0.747138  1
  Si  Si4  1  0.022025  0.735923  0.496821  1
  Si  Si5  1  0.991813  0.618186  0.756001  1
  P  P6  1  0.344127  0.555090  0.240313  1
  P  P7  1  0.282588  0.345442  0.548788  1
  P  P8  1  0.254574  0.991281  0.301658  1
  P  P9  1  0.217929  0.193738  0.835333  1
  P  P10  1  0.251342  0.855996  0.557065  1
  P  P11  1  0.210518  0.698985  0.836199  1
