# generated using pymatgen
data_VOsCl
_symmetry_space_group_name_H-M   'P 1'
_cell_length_a   4.13611900
_cell_length_b   4.13610339
_cell_length_c   4.13611836
_cell_angle_alpha   59.99980732
_cell_angle_beta   59.99980998
_cell_angle_gamma   59.99985539
_symmetry_Int_Tables_number   1
_chemical_formula_structural   VOsCl
_chemical_formula_sum   'V1 Os1 Cl1'
_cell_volume   50.03347196
_cell_formula_units_Z   1
loop_
 _symmetry_equiv_pos_site_id
 _symmetry_equiv_pos_as_xyz
  1  'x, y, z'
loop_
 _atom_site_type_symbol
 _atom_site_label
 _atom_site_symmetry_multiplicity
 _atom_site_fract_x
 _atom_site_fract_y
 _atom_site_fract_z
 _atom_site_occupancy
  V  V0  1  0.749997  0.750003  0.750002  1
  Os  Os1  1  0.500001  0.499997  0.499999  1
  Cl  Cl2  1  0.000002  0.999999  0.999999  1
