# generated using pymatgen
data_Y6Te2Pd
_symmetry_space_group_name_H-M   'P 1'
_cell_length_a   4.03025570
_cell_length_b   11.53454541
_cell_length_c   22.00054426
_cell_angle_alpha   89.98934221
_cell_angle_beta   89.99959167
_cell_angle_gamma   90.00022846
_symmetry_Int_Tables_number   1
_chemical_formula_structural   Y6Te2Pd
_chemical_formula_sum   'Y24 Te8 Pd4'
_cell_volume   1022.74296611
_cell_formula_units_Z   4
loop_
 _symmetry_equiv_pos_site_id
 _symmetry_equiv_pos_as_xyz
  1  'x, y, z'
loop_
 _atom_site_type_symbol
 _atom_site_label
 _atom_site_symmetry_multiplicity
 _atom_site_fract_x
 _atom_site_fract_y
 _atom_site_fract_z
 _atom_site_occupancy
  Y  Y0  1  0.250000  0.075632  0.354452  1
  Y  Y1  1  0.750003  0.674132  0.891435  1
  Y  Y2  1  0.749996  0.385788  0.987573  1
  Y  Y3  1  0.249998  0.325828  0.108562  1
  Y  Y4  1  0.249999  0.379409  0.474730  1
  Y  Y5  1  0.249999  0.120581  0.974749  1
  Y  Y6  1  0.250001  0.885739  0.512410  1
  Y  Y7  1  0.749996  0.924376  0.645565  1
  Y  Y8  1  0.749998  0.575618  0.145562  1
  Y  Y9  1  0.749999  0.246047  0.733899  1
  Y  Y10  1  0.749995  0.541000  0.345973  1
  Y  Y11  1  0.749998  0.253970  0.233945  1
  Y  Y12  1  0.249998  0.753983  0.266101  1
  Y  Y13  1  0.250000  0.174288  0.608547  1
  Y  Y14  1  0.750003  0.620546  0.525240  1
  Y  Y15  1  0.250004  0.746028  0.766080  1
  Y  Y16  1  0.249999  0.040993  0.154061  1
  Y  Y17  1  0.750000  0.958947  0.845960  1
  Y  Y18  1  0.250003  0.458926  0.654016  1
  Y  Y19  1  0.250002  0.614177  0.012391  1
  Y  Y20  1  0.750002  0.825809  0.391438  1
  Y  Y21  1  0.249999  0.424379  0.854426  1
  Y  Y22  1  0.749996  0.114245  0.487572  1
  Y  Y23  1  0.750002  0.879422  0.025282  1
  Te  Te24  1  0.250004  0.469330  0.239044  1
  Te  Te25  1  0.250001  0.778291  0.126526  1
  Te  Te26  1  0.749998  0.278314  0.373498  1
  Te  Te27  1  0.750001  0.530683  0.760966  1
  Te  Te28  1  0.749998  0.221785  0.873506  1
  Te  Te29  1  0.750001  0.969291  0.260986  1
  Te  Te30  1  0.250001  0.721681  0.626473  1
  Te  Te31  1  0.250002  0.030712  0.739020  1
  Pd  Pd32  1  0.250001  0.645775  0.426595  1
  Pd  Pd33  1  0.750003  0.354250  0.573364  1
  Pd  Pd34  1  0.749997  0.145864  0.073401  1
  Pd  Pd35  1  0.250003  0.854162  0.926652  1
