# generated using pymatgen
data_B3H7N
_symmetry_space_group_name_H-M   'P 1'
_cell_length_a   10.42170377
_cell_length_b   5.04699094
_cell_length_c   10.45494083
_cell_angle_alpha   90.00000000
_cell_angle_beta   122.77704158
_cell_angle_gamma   90.00000000
_symmetry_Int_Tables_number   1
_chemical_formula_structural   B3H7N
_chemical_formula_sum   'B12 H28 N4'
_cell_volume   462.35659846
_cell_formula_units_Z   4
loop_
 _symmetry_equiv_pos_site_id
 _symmetry_equiv_pos_as_xyz
  1  'x, y, z'
loop_
 _atom_site_type_symbol
 _atom_site_label
 _atom_site_symmetry_multiplicity
 _atom_site_fract_x
 _atom_site_fract_y
 _atom_site_fract_z
 _atom_site_occupancy
  B  B0  1  0.537944  0.963572  0.233901  1
  B  B1  1  0.037944  0.536428  0.733901  1
  B  B2  1  0.462056  0.036428  0.766099  1
  B  B3  1  0.962056  0.463572  0.266099  1
  B  B4  1  0.421534  0.200137  0.300543  1
  B  B5  1  0.921534  0.299863  0.800543  1
  B  B6  1  0.578466  0.799863  0.699457  1
  B  B7  1  0.078466  0.700137  0.199457  1
  B  B8  1  0.406799  0.198820  0.094281  1
  B  B9  1  0.906799  0.301180  0.594281  1
  B  B10  1  0.593201  0.801180  0.905719  1
  B  B11  1  0.093201  0.698820  0.405719  1
  H  H12  1  0.608238  0.154843  0.222019  1
  H  H13  1  0.108238  0.345157  0.722019  1
  H  H14  1  0.391762  0.845157  0.777981  1
  H  H15  1  0.891762  0.654843  0.277981  1
  H  H16  1  0.622492  0.780752  0.298054  1
  H  H17  1  0.122492  0.719248  0.798054  1
  H  H18  1  0.377508  0.219248  0.701946  1
  H  H19  1  0.877508  0.280752  0.201946  1
  H  H20  1  0.535708  0.035314  0.357279  1
  H  H21  1  0.035708  0.464686  0.857279  1
  H  H22  1  0.464292  0.964686  0.642721  1
  H  H23  1  0.964292  0.535314  0.142721  1
  H  H24  1  0.484108  0.381788  0.388929  1
  H  H25  1  0.984108  0.118212  0.888929  1
  H  H26  1  0.515892  0.618212  0.611071  1
  H  H27  1  0.015892  0.881788  0.111071  1
  H  H28  1  0.316242  0.086387  0.290303  1
  H  H29  1  0.816242  0.413613  0.790303  1
  H  H30  1  0.683758  0.913613  0.709697  1
  H  H31  1  0.183758  0.586387  0.209697  1
  H  H32  1  0.369898  0.347025  0.178241  1
  H  H33  1  0.869898  0.152975  0.678241  1
  H  H34  1  0.630102  0.652975  0.821759  1
  H  H35  1  0.130102  0.847025  0.321759  1
  H  H36  1  0.410067  0.367212  0.016433  1
  H  H37  1  0.910067  0.132788  0.516433  1
  H  H38  1  0.589933  0.632788  0.983567  1
  H  H39  1  0.089933  0.867212  0.483567  1
  N  N40  1  0.377627  0.921515  0.088596  1
  N  N41  1  0.877627  0.578485  0.588596  1
  N  N42  1  0.622373  0.078485  0.911404  1
  N  N43  1  0.122373  0.421515  0.411404  1
