# generated using pymatgen
data_Ta22O21
_symmetry_space_group_name_H-M   'P 1'
_cell_length_a   3.85510855
_cell_length_b   2.92780563
_cell_length_c   61.21969006
_cell_angle_alpha   71.33987359
_cell_angle_beta   89.23648221
_cell_angle_gamma   89.56668309
_symmetry_Int_Tables_number   1
_chemical_formula_structural   Ta22O21
_chemical_formula_sum   'Ta22 O21'
_cell_volume   654.60206357
_cell_formula_units_Z   1
loop_
 _symmetry_equiv_pos_site_id
 _symmetry_equiv_pos_as_xyz
  1  'x, y, z'
loop_
 _atom_site_type_symbol
 _atom_site_label
 _atom_site_symmetry_multiplicity
 _atom_site_fract_x
 _atom_site_fract_y
 _atom_site_fract_z
 _atom_site_occupancy
  Ta  Ta0  1  0.861382  0.534902  0.019512  1
  Ta  Ta1  1  0.814908  0.746733  0.079667  1
  Ta  Ta2  1  0.283290  0.084625  0.106954  1
  Ta  Ta3  1  0.315928  0.706745  0.172491  1
  Ta  Ta4  1  0.874986  0.968119  0.208031  1
  Ta  Ta5  1  -0.005035  0.993851  0.301797  1
  Ta  Ta6  1  0.000236  0.001861  0.397103  1
  Ta  Ta7  1  0.999356  0.049420  0.443617  1
  Ta  Ta8  1  -0.000619  0.207177  0.539922  1
  Ta  Ta9  1  0.995792  0.812086  0.605574  1
  Ta  Ta10  1  0.000602  0.932477  0.654042  1
  Ta  Ta11  1  0.132634  -0.004149  0.790217  1
  Ta  Ta12  1  0.090353  0.488107  0.868282  1
  Ta  Ta13  1  0.087296  0.968552  0.948851  1
  Ta  Ta14  1  0.354996  0.208618  0.990020  1
  Ta  Ta15  1  0.488442  0.721430  0.908715  1
  Ta  Ta16  1  -0.000073  0.025795  0.348674  1
  Ta  Ta17  1  -0.015851  0.018700  0.253186  1
  Ta  Ta18  1  0.998637  0.063053  0.491457  1
  Ta  Ta19  1  0.982929  -0.043523  0.701614  1
  Ta  Ta20  1  0.916680  0.972868  0.748043  1
  Ta  Ta21  1  0.824020  0.249380  0.829120  1
  O  O22  1  0.845238  0.874437  0.045686  1
  O  O23  1  0.098103  0.221603  0.909608  1
  O  O24  1  0.921498  0.769432  0.983072  1
  O  O25  1  0.383269  0.011206  0.201521  1
  O  O26  1  0.481743  0.026749  0.249285  1
  O  O27  1  0.494941  0.005833  0.299633  1
  O  O28  1  0.499933  0.020516  0.348966  1
  O  O29  1  0.500238  0.996660  0.397002  1
  O  O30  1  0.499354  0.035287  0.444608  1
  O  O31  1  0.498614  0.073160  0.491560  1
  O  O32  1  0.500447  0.231133  0.536000  1
  O  O33  1  0.494677  0.787036  0.610106  1
  O  O34  1  0.500612  0.916922  0.657066  1
  O  O35  1  0.478562  -0.050959  0.706141  1
  O  O36  1  0.618326  -0.082618  0.803910  1
  O  O37  1  0.427467  0.956028  0.757143  1
  O  O38  1  0.596639  0.391252  0.882819  1
  O  O39  1  0.312963  0.138046  0.845052  1
  O  O40  1  0.587042  0.041588  0.935802  1
  O  O41  1  0.261846  -0.080555  0.140481  1
  O  O42  1  -0.002402  0.010419  0.572651  1
