# generated using pymatgen
data_Cu11S16
_symmetry_space_group_name_H-M   'P 1'
_cell_length_a   5.94236601
_cell_length_b   5.94236572
_cell_length_c   47.24368551
_cell_angle_alpha   34.09156462
_cell_angle_beta   34.09156879
_cell_angle_gamma   36.97117200
_symmetry_Int_Tables_number   1
_chemical_formula_structural   Cu11S16
_chemical_formula_sum   'Cu11 S16'
_cell_volume   488.98132467
_cell_formula_units_Z   1
loop_
 _symmetry_equiv_pos_site_id
 _symmetry_equiv_pos_as_xyz
  1  'x, y, z'
loop_
 _atom_site_type_symbol
 _atom_site_label
 _atom_site_symmetry_multiplicity
 _atom_site_fract_x
 _atom_site_fract_y
 _atom_site_fract_z
 _atom_site_occupancy
  Cu  Cu0  1  0.641429  0.641429  0.070915  1
  Cu  Cu1  1  0.158816  0.158816  0.261557  1
  Cu  Cu2  1  0.620479  0.620479  0.203732  1
  Cu  Cu3  1  0.596455  0.596455  0.341475  1
  Cu  Cu4  1  0.648146  0.648146  0.443995  1
  Cu  Cu5  1  0.171643  0.171643  0.633214  1
  Cu  Cu6  1  0.627314  0.627314  0.576557  1
  Cu  Cu7  1  0.607262  0.607262  0.713340  1
  Cu  Cu8  1  0.112184  0.112184  0.896442  1
  Cu  Cu9  1  0.643710  0.643710  0.822743  1
  Cu  Cu10  1  0.580304  0.580304  0.969961  1
  S  S11  1  0.032595  0.032595  0.006464  1
  S  S12  1  0.028375  0.028375  0.115216  1
  S  S13  1  0.313671  0.313671  0.106034  1
  S  S14  1  0.008408  0.008408  0.248112  1
  S  S15  1  0.617395  0.617395  0.155569  1
  S  S16  1  0.038501  0.038501  0.378721  1
  S  S17  1  0.527984  0.527984  0.308850  1
  S  S18  1  0.035228  0.035228  0.488552  1
  S  S19  1  0.322942  0.322942  0.478617  1
  S  S20  1  0.016197  0.016197  0.621226  1
  S  S21  1  0.624338  0.624338  0.528705  1
  S  S22  1  0.033136  0.033136  0.756502  1
  S  S23  1  0.544711  0.544711  0.679670  1
  S  S24  1  -0.015855  -0.015855  0.876035  1
  S  S25  1  0.506479  0.506479  0.807406  1
  S  S26  1  0.463155  0.463155  0.948512  1
