# generated using pymatgen
data_Ce(In2Pd)2
_symmetry_space_group_name_H-M   'P 1'
_cell_length_a   4.52914340
_cell_length_b   7.32565399
_cell_length_c   18.33435450
_cell_angle_alpha   89.95758248
_cell_angle_beta   90.00855191
_cell_angle_gamma   90.01167488
_symmetry_Int_Tables_number   1
_chemical_formula_structural   Ce(In2Pd)2
_chemical_formula_sum   'Ce4 In16 Pd8'
_cell_volume   608.31421403
_cell_formula_units_Z   4
loop_
 _symmetry_equiv_pos_site_id
 _symmetry_equiv_pos_as_xyz
  1  'x, y, z'
loop_
 _atom_site_type_symbol
 _atom_site_label
 _atom_site_symmetry_multiplicity
 _atom_site_fract_x
 _atom_site_fract_y
 _atom_site_fract_z
 _atom_site_occupancy
  Ce  Ce0  1  0.250037  0.540149  0.358001  1
  Ce  Ce1  1  0.750049  0.039908  0.141931  1
  Ce  Ce2  1  0.749898  0.459980  0.642067  1
  Ce  Ce3  1  0.250149  0.959935  0.857962  1
  In  In4  1  0.749968  0.253779  0.808725  1
  In  In5  1  0.750045  0.511610  0.070592  1
  In  In6  1  0.750013  0.655122  0.813956  1
  In  In7  1  0.250069  0.011662  0.429427  1
  In  In8  1  0.749952  0.353884  0.466515  1
  In  In9  1  0.249970  0.753783  0.691255  1
  In  In10  1  0.250006  0.646149  0.533640  1
  In  In11  1  0.250018  0.853802  0.033446  1
  In  In12  1  0.749985  0.246080  0.308773  1
  In  In13  1  0.249979  0.488387  0.929340  1
  In  In14  1  0.250003  0.155155  0.686082  1
  In  In15  1  0.750033  0.844979  0.313991  1
  In  In16  1  0.249989  0.745981  0.191279  1
  In  In17  1  0.750064  0.988447  0.570695  1
  In  In18  1  0.250016  0.345107  0.186001  1
  In  In19  1  0.749998  0.146016  0.966307  1
  Pd  Pd20  1  0.249972  0.238682  0.042812  1
  Pd  Pd21  1  0.749945  0.548788  0.222355  1
  Pd  Pd22  1  0.749968  0.761459  0.957016  1
  Pd  Pd23  1  0.249982  0.261384  0.542932  1
  Pd  Pd24  1  0.749963  0.738574  0.457128  1
  Pd  Pd25  1  0.249910  0.451194  0.777699  1
  Pd  Pd26  1  0.750045  0.951303  0.722375  1
  Pd  Pd27  1  0.249973  0.048702  0.277698  1
