# generated using pymatgen
data_K3HRhC5N5O
_symmetry_space_group_name_H-M   'P 1'
_cell_length_a   7.66488555
_cell_length_b   8.71485169
_cell_length_c   9.03310000
_cell_angle_alpha   89.64124982
_cell_angle_beta   80.36170316
_cell_angle_gamma   78.81218932
_symmetry_Int_Tables_number   1
_chemical_formula_structural   K3HRhC5N5O
_chemical_formula_sum   'K6 H2 Rh2 C10 N10 O2'
_cell_volume   583.35939439
_cell_formula_units_Z   2
loop_
 _symmetry_equiv_pos_site_id
 _symmetry_equiv_pos_as_xyz
  1  'x, y, z'
loop_
 _atom_site_type_symbol
 _atom_site_label
 _atom_site_symmetry_multiplicity
 _atom_site_fract_x
 _atom_site_fract_y
 _atom_site_fract_z
 _atom_site_occupancy
  K  K0  1  0.660512  0.630440  0.172895  1
  K  K1  1  0.339488  0.369560  0.827105  1
  K  K2  1  0.306020  0.911231  0.824809  1
  K  K3  1  0.693980  0.088769  0.175191  1
  K  K4  1  0.124066  0.691436  0.311835  1
  K  K5  1  0.875934  0.308564  0.688165  1
  H  H6  1  0.995232  0.930392  0.692682  1
  H  H7  1  0.004768  0.069608  0.307318  1
  Rh  Rh8  1  0.862288  0.808534  0.735975  1
  Rh  Rh9  1  0.137712  0.191466  0.264025  1
  C  C10  1  0.695965  -0.004925  0.807215  1
  C  C11  1  0.304035  0.004925  0.192785  1
  C  C12  1  0.226585  0.646923  0.601392  1
  C  C13  1  0.773415  0.353077  0.398608  1
  C  C14  1  0.937676  0.787870  0.937433  1
  C  C15  1  0.062324  0.212130  0.062567  1
  C  C16  1  0.791563  0.845905  0.529479  1
  C  C17  1  0.208437  0.154095  0.470521  1
  C  C18  1  0.679680  0.659851  0.791130  1
  C  C19  1  0.320320  0.340149  0.208870  1
  N  N20  1  0.978454  0.777897  0.058083  1
  N  N21  1  0.021546  0.222103  0.941917  1
  N  N22  1  0.597714  0.112212  0.855232  1
  N  N23  1  0.402286  0.887788  0.144768  1
  N  N24  1  0.748569  0.871949  0.411231  1
  N  N25  1  0.251431  0.128051  0.588769  1
  N  N26  1  0.093765  0.600187  0.661935  1
  N  N27  1  0.906235  0.399813  0.338065  1
  N  N28  1  0.569957  0.582905  0.827031  1
  N  N29  1  0.430043  0.417095  0.172969  1
  O  O30  1  0.358290  0.690553  0.535226  1
  O  O31  1  0.641710  0.309447  0.464774  1
