# generated using pymatgen
data_K4(CoO2)7
_symmetry_space_group_name_H-M   'P 1'
_cell_length_a   7.84531070
_cell_length_b   7.84531074
_cell_length_c   12.69915127
_cell_angle_alpha   90.00000000
_cell_angle_beta   90.00000000
_cell_angle_gamma   119.99999982
_symmetry_Int_Tables_number   1
_chemical_formula_structural   K4(CoO2)7
_chemical_formula_sum   'K8 Co14 O28'
_cell_volume   676.90173368
_cell_formula_units_Z   2
loop_
 _symmetry_equiv_pos_site_id
 _symmetry_equiv_pos_as_xyz
  1  'x, y, z'
loop_
 _atom_site_type_symbol
 _atom_site_label
 _atom_site_symmetry_multiplicity
 _atom_site_fract_x
 _atom_site_fract_y
 _atom_site_fract_z
 _atom_site_occupancy
  K  K0  1  0.420574  0.972170  0.750000  1
  K  K1  1  0.027830  0.448403  0.750000  1
  K  K2  1  0.579426  0.027830  0.250000  1
  K  K3  1  0.551597  0.579426  0.750000  1
  K  K4  1  0.448403  0.420574  0.250000  1
  K  K5  1  0.000000  0.000000  0.750000  1
  K  K6  1  0.972170  0.551597  0.250000  1
  K  K7  1  0.000000  0.000000  0.250000  1
  Co  Co8  1  0.283455  0.429301  0.505887  1
  Co  Co9  1  0.716545  0.570699  0.005887  1
  Co  Co10  1  0.570699  0.854154  0.505887  1
  Co  Co11  1  0.145846  0.716545  0.505887  1
  Co  Co12  1  0.429301  0.145846  0.005887  1
  Co  Co13  1  0.854154  0.283455  0.494113  1
  Co  Co14  1  0.145846  0.716545  0.994113  1
  Co  Co15  1  0.000000  0.000000  0.000000  1
  Co  Co16  1  0.570699  0.854154  0.994113  1
  Co  Co17  1  0.716545  0.570699  0.494113  1
  Co  Co18  1  0.283455  0.429301  0.994113  1
  Co  Co19  1  0.854154  0.283455  0.005887  1
  Co  Co20  1  0.000000  0.000000  0.500000  1
  Co  Co21  1  0.429301  0.145846  0.494113  1
  O  O22  1  0.666667  0.333333  0.095292  1
  O  O23  1  0.369879  0.901072  0.076299  1
  O  O24  1  0.630121  0.098928  0.923701  1
  O  O25  1  0.333333  0.666667  0.904708  1
  O  O26  1  0.901072  0.531193  0.576299  1
  O  O27  1  0.666667  0.333333  0.404708  1
  O  O28  1  0.042898  0.219949  0.918557  1
  O  O29  1  0.369879  0.901072  0.423701  1
  O  O30  1  0.531193  0.630121  0.423701  1
  O  O31  1  0.780051  0.822949  0.918557  1
  O  O32  1  0.177051  0.957102  0.918557  1
  O  O33  1  0.219949  0.177051  0.081443  1
  O  O34  1  0.468807  0.369879  0.576299  1
  O  O35  1  0.468807  0.369879  0.923701  1
  O  O36  1  0.098928  0.468807  0.423701  1
  O  O37  1  0.531193  0.630121  0.076299  1
  O  O38  1  0.219949  0.177051  0.418557  1
  O  O39  1  0.177051  0.957102  0.581443  1
  O  O40  1  0.822949  0.042898  0.081443  1
  O  O41  1  0.780051  0.822949  0.581443  1
  O  O42  1  0.098928  0.468807  0.076299  1
  O  O43  1  0.957102  0.780051  0.418557  1
  O  O44  1  0.957102  0.780051  0.081443  1
  O  O45  1  0.042898  0.219949  0.581443  1
  O  O46  1  0.822949  0.042898  0.418557  1
  O  O47  1  0.630121  0.098928  0.576299  1
  O  O48  1  0.333333  0.666667  0.595292  1
  O  O49  1  0.901072  0.531193  0.923701  1
