# generated using pymatgen
data_CuH12N2(Cl2O)2
_symmetry_space_group_name_H-M   'P 1'
_cell_length_a   7.67660907
_cell_length_b   7.67661036
_cell_length_c   8.14591871
_cell_angle_alpha   89.99998566
_cell_angle_beta   90.00004497
_cell_angle_gamma   89.94140009
_symmetry_Int_Tables_number   1
_chemical_formula_structural   CuH12N2(Cl2O)2
_chemical_formula_sum   'Cu2 H24 N4 Cl8 O4'
_cell_volume   480.04148184
_cell_formula_units_Z   2
loop_
 _symmetry_equiv_pos_site_id
 _symmetry_equiv_pos_as_xyz
  1  'x, y, z'
loop_
 _atom_site_type_symbol
 _atom_site_label
 _atom_site_symmetry_multiplicity
 _atom_site_fract_x
 _atom_site_fract_y
 _atom_site_fract_z
 _atom_site_occupancy
  Cu  Cu0  1  0.999999  0.999999  0.500002  1
  Cu  Cu1  1  0.500001  0.499999  -0.000000  1
  H  H2  1  0.074656  0.074656  0.812154  1
  H  H3  1  0.586680  0.931693  0.176674  1
  H  H4  1  0.913376  0.431764  0.323346  1
  H  H5  1  0.925344  0.925344  0.187846  1
  H  H6  1  0.425288  0.574712  0.312177  1
  H  H7  1  0.074656  0.074656  0.187846  1
  H  H8  1  0.086624  0.568236  0.676654  1
  H  H9  1  0.925345  0.925345  0.812153  1
  H  H10  1  0.586680  0.931693  0.823326  1
  H  H11  1  0.568236  0.086624  0.676654  1
  H  H12  1  0.068307  0.413320  0.176674  1
  H  H13  1  0.413320  0.068308  0.176674  1
  H  H14  1  0.574711  0.425289  0.687823  1
  H  H15  1  0.068308  0.413320  0.823326  1
  H  H16  1  0.574711  0.425289  0.312176  1
  H  H17  1  0.431764  0.913376  0.676654  1
  H  H18  1  0.913376  0.431764  0.676654  1
  H  H19  1  0.086624  0.568236  0.323346  1
  H  H20  1  0.413320  0.068308  0.823326  1
  H  H21  1  0.931693  0.586680  0.823326  1
  H  H22  1  0.425289  0.574711  0.687823  1
  H  H23  1  0.931692  0.586680  0.176674  1
  H  H24  1  0.568236  0.086625  0.323346  1
  H  H25  1  0.431764  0.913376  0.323346  1
  N  N26  1  0.500000  -0.000000  0.749997  1
  N  N27  1  -0.000000  0.500000  0.250003  1
  N  N28  1  0.500000  0.000000  0.250003  1
  N  N29  1  0.000000  0.500000  0.749996  1
  Cl  Cl30  1  0.716418  0.283582  0.500000  1
  Cl  Cl31  1  0.783572  0.783573  -0.000000  1
  Cl  Cl32  1  0.283583  0.716418  0.500000  1
  Cl  Cl33  1  0.208837  0.208839  0.500003  1
  Cl  Cl34  1  0.290982  0.709019  -0.000001  1
  Cl  Cl35  1  0.709017  0.290983  -0.000001  1
  Cl  Cl36  1  0.216427  0.216427  0.000000  1
  Cl  Cl37  1  0.791163  0.791160  0.500000  1
  O  O38  1  0.500000  0.500000  0.757839  1
  O  O39  1  -0.000000  -0.000000  0.257808  1
  O  O40  1  0.500000  0.500000  0.242161  1
  O  O41  1  0.000000  -0.000000  0.742192  1
