# generated using pymatgen
data_TeAs(SeF3)2
_symmetry_space_group_name_H-M   'P 1'
_cell_length_a   9.07036042
_cell_length_b   13.26355606
_cell_length_c   15.97052044
_cell_angle_alpha   90.00000000
_cell_angle_beta   90.00000000
_cell_angle_gamma   90.00000000
_symmetry_Int_Tables_number   1
_chemical_formula_structural   TeAs(SeF3)2
_chemical_formula_sum   'Te8 As8 Se16 F48'
_cell_volume   1921.33719728
_cell_formula_units_Z   8
loop_
 _symmetry_equiv_pos_site_id
 _symmetry_equiv_pos_as_xyz
  1  'x, y, z'
loop_
 _atom_site_type_symbol
 _atom_site_label
 _atom_site_symmetry_multiplicity
 _atom_site_fract_x
 _atom_site_fract_y
 _atom_site_fract_z
 _atom_site_occupancy
  Te  Te0  1  0.504318  0.781073  0.107617  1
  Te  Te1  1  0.995682  0.218927  0.607617  1
  Te  Te2  1  0.004318  0.718927  0.892383  1
  Te  Te3  1  0.185407  0.825326  0.773664  1
  Te  Te4  1  0.495682  0.281073  0.392383  1
  Te  Te5  1  0.814593  0.325326  0.726336  1
  Te  Te6  1  0.314593  0.174674  0.273664  1
  Te  Te7  1  0.685407  0.674674  0.226336  1
  As  As8  1  0.724608  0.727867  0.708113  1
  As  As9  1  0.275392  0.227867  0.791887  1
  As  As10  1  0.735899  0.540701  0.994768  1
  As  As11  1  0.264101  0.040701  0.505232  1
  As  As12  1  0.235899  0.959299  0.005232  1
  As  As13  1  0.775392  0.272133  0.208113  1
  As  As14  1  0.224608  0.772133  0.291887  1
  As  As15  1  0.764101  0.459299  0.494768  1
  Se  Se16  1  0.867686  0.920106  0.181670  1
  Se  Se17  1  0.718593  0.865786  0.298428  1
  Se  Se18  1  0.142418  0.542492  0.879124  1
  Se  Se19  1  0.132314  0.420106  0.318330  1
  Se  Se20  1  0.218593  0.634214  0.701572  1
  Se  Se21  1  0.781407  0.134214  0.798428  1
  Se  Se22  1  0.857582  0.042492  0.620876  1
  Se  Se23  1  0.357582  0.457508  0.379124  1
  Se  Se24  1  0.187139  0.243301  0.099866  1
  Se  Se25  1  0.632314  0.079894  0.681670  1
  Se  Se26  1  0.642418  0.957508  0.120876  1
  Se  Se27  1  0.281407  0.365786  0.201572  1
  Se  Se28  1  0.312861  0.756699  0.599866  1
  Se  Se29  1  0.687139  0.256699  0.900134  1
  Se  Se30  1  0.367686  0.579894  0.818330  1
  Se  Se31  1  0.812861  0.743301  0.400134  1
  F  F32  1  0.829709  0.840293  0.700429  1
  F  F33  1  0.416910  0.229130  0.498996  1
  F  F34  1  0.431545  0.291044  0.836850  1
  F  F35  1  0.169495  0.733818  0.190284  1
  F  F36  1  0.568455  0.791044  0.663150  1
  F  F37  1  0.146420  0.943870  0.857068  1
  F  F38  1  0.119876  0.883818  0.281889  1
  F  F39  1  0.853580  0.443870  0.642932  1
  F  F40  1  0.265508  0.973191  0.116556  1
  F  F41  1  0.880124  0.383818  0.218111  1
  F  F42  1  0.330505  0.266182  0.690284  1
  F  F43  1  0.382248  0.836636  0.243699  1
  F  F44  1  0.380124  0.116182  0.781889  1
  F  F45  1  0.413308  0.953798  0.508763  1
  F  F46  1  0.353580  0.056130  0.357068  1
  F  F47  1  0.913308  0.546202  0.491237  1
  F  F48  1  0.670291  0.159707  0.200429  1
  F  F49  1  0.234492  0.026809  0.616556  1
  F  F50  1  0.128712  0.753011  0.557682  1
  F  F51  1  0.646420  0.556130  0.142932  1
  F  F52  1  0.583090  0.729130  0.001004  1
  F  F53  1  0.916910  0.270870  0.501004  1
  F  F54  1  0.586692  0.453798  0.991237  1
  F  F55  1  0.381623  0.043457  0.980412  1
  F  F56  1  0.211048  0.189923  0.889777  1
  F  F57  1  0.083090  0.770870  -0.001004  1
  F  F58  1  0.619876  0.616182  0.718111  1
  F  F59  1  0.882248  0.663364  0.756301  1
  F  F60  1  0.288952  0.810077  0.389777  1
  F  F61  1  0.617752  0.336636  0.256301  1
  F  F62  1  0.711048  0.310077  0.110223  1
  F  F63  1  0.118377  0.956543  0.480412  1
  F  F64  1  0.628712  0.746989  0.442318  1
  F  F65  1  0.068455  0.708956  0.336850  1
  F  F66  1  0.669495  0.766182  0.809716  1
  F  F67  1  0.117752  0.163364  0.743699  1
  F  F68  1  0.170291  0.340293  0.799571  1
  F  F69  1  0.329709  0.659707  0.299571  1
  F  F70  1  0.086692  0.046202  0.008763  1
  F  F71  1  0.931545  0.208956  0.163150  1
  F  F72  1  0.371288  0.246989  0.057682  1
  F  F73  1  0.734492  0.473191  0.383444  1
  F  F74  1  0.830505  0.233818  0.309716  1
  F  F75  1  0.788952  0.689923  0.610223  1
  F  F76  1  0.871288  0.253011  0.942318  1
  F  F77  1  0.881623  0.456543  0.019588  1
  F  F78  1  0.765508  0.526809  0.883444  1
  F  F79  1  0.618377  0.543457  0.519588  1
