# generated using pymatgen
data_FeHO2
_symmetry_space_group_name_H-M   'P 1'
_cell_length_a   10.65328599
_cell_length_b   6.14173022
_cell_length_c   10.62161647
_cell_angle_alpha   89.89320645
_cell_angle_beta   88.95410985
_cell_angle_gamma   89.98619281
_symmetry_Int_Tables_number   1
_chemical_formula_structural   FeHO2
_chemical_formula_sum   'Fe16 H16 O32'
_cell_volume   694.85120100
_cell_formula_units_Z   16
loop_
 _symmetry_equiv_pos_site_id
 _symmetry_equiv_pos_as_xyz
  1  'x, y, z'
loop_
 _atom_site_type_symbol
 _atom_site_label
 _atom_site_symmetry_multiplicity
 _atom_site_fract_x
 _atom_site_fract_y
 _atom_site_fract_z
 _atom_site_occupancy
  Fe  Fe0  1  0.330011  0.984773  0.128515  1
  Fe  Fe1  1  0.142815  0.990570  0.634624  1
  Fe  Fe2  1  0.847395  0.246468  0.627750  1
  Fe  Fe3  1  0.673887  0.242441  0.119553  1
  Fe  Fe4  1  0.660540  0.007120  0.820761  1
  Fe  Fe5  1  0.868167  0.993516  0.325681  1
  Fe  Fe6  1  0.148930  0.244613  0.349266  1
  Fe  Fe7  1  0.351154  0.241339  0.827199  1
  Fe  Fe8  1  0.324226  0.506319  0.127056  1
  Fe  Fe9  1  0.143697  0.495918  0.634545  1
  Fe  Fe10  1  0.849726  0.745232  0.613527  1
  Fe  Fe11  1  0.682280  0.741835  0.119432  1
  Fe  Fe12  1  0.658154  0.487281  0.818817  1
  Fe  Fe13  1  0.868617  0.492951  0.325643  1
  Fe  Fe14  1  0.164632  0.745546  0.334257  1
  Fe  Fe15  1  0.359948  0.741981  0.824470  1
  H  H16  1  0.333418  0.988683  0.413247  1
  H  H17  1  0.412561  0.978178  0.629254  1
  H  H18  1  0.917535  0.246072  0.104136  1
  H  H19  1  0.649025  0.028811  0.556954  1
  H  H20  1  0.603783  0.972081  0.315966  1
  H  H21  1  0.136834  0.221778  0.093277  1
  H  H22  1  0.471345  0.254840  0.035911  1
  H  H23  1  0.091978  0.241918  0.841093  1
  H  H24  1  0.336074  0.506151  0.408678  1
  H  H25  1  0.413965  0.464257  0.631710  1
  H  H26  1  0.859316  0.733029  0.862385  1
  H  H27  1  0.944253  0.740232  0.129252  1
  H  H28  1  0.662772  0.510691  0.540684  1
  H  H29  1  0.596961  0.483635  0.309674  1
  H  H30  1  0.482215  0.745170  0.032380  1
  H  H31  1  0.117949  0.740562  0.856285  1
  O  O32  1  0.293884  0.993501  0.331376  1
  O  O33  1  0.047411  0.989581  0.321570  1
  O  O34  1  0.341801  0.990756  0.688357  1
  O  O35  1  0.332145  0.991156  0.945846  1
  O  O36  1  0.785768  0.250021  0.806034  1
  O  O37  1  0.533308  0.245384  0.813658  1
  O  O38  1  0.859325  0.242936  0.175871  1
  O  O39  1  0.835290  0.243382  0.433288  1
  O  O40  1  0.705313  0.994191  0.625077  1
  O  O41  1  0.961727  0.992592  0.639670  1
  O  O42  1  0.672664  0.989565  0.255979  1
  O  O43  1  0.678447  0.991464  0.009062  1
  O  O44  1  0.206832  0.241199  0.149900  1
  O  O45  1  0.464627  0.246592  0.128899  1
  O  O46  1  0.157892  0.241261  0.776708  1
  O  O47  1  0.174271  0.243494  0.526073  1
  O  O48  1  0.292654  0.496626  0.329082  1
  O  O49  1  0.047721  0.500154  0.321430  1
  O  O50  1  0.342493  0.489339  0.688677  1
  O  O51  1  0.331527  0.493635  0.945445  1
  O  O52  1  0.790846  0.744500  0.803695  1
  O  O53  1  0.540637  0.746327  0.813551  1
  O  O54  1  0.865335  0.741038  0.178012  1
  O  O55  1  0.828984  0.743079  0.430501  1
  O  O56  1  0.706025  0.500533  0.620146  1
  O  O57  1  0.962622  0.497965  0.639849  1
  O  O58  1  0.671337  0.490694  0.255901  1
  O  O59  1  0.677209  0.493931  0.008678  1
  O  O60  1  0.207759  0.747910  0.151899  1
  O  O61  1  0.468726  0.743581  0.124959  1
  O  O62  1  0.164220  0.741243  0.776360  1
  O  O63  1  0.173534  0.743807  0.518645  1
