# generated using pymatgen
data_Tl7Bi3I16
_symmetry_space_group_name_H-M   'P 1'
_cell_length_a   14.66633683
_cell_length_b   14.66633720
_cell_length_c   36.88744442
_cell_angle_alpha   90.00000000
_cell_angle_beta   90.00000000
_cell_angle_gamma   119.56255385
_symmetry_Int_Tables_number   1
_chemical_formula_structural   Tl7Bi3I16
_chemical_formula_sum   'Tl42 Bi18 I96'
_cell_volume   6901.60439353
_cell_formula_units_Z   6
loop_
 _symmetry_equiv_pos_site_id
 _symmetry_equiv_pos_as_xyz
  1  'x, y, z'
loop_
 _atom_site_type_symbol
 _atom_site_label
 _atom_site_symmetry_multiplicity
 _atom_site_fract_x
 _atom_site_fract_y
 _atom_site_fract_z
 _atom_site_occupancy
  Tl  Tl0  1  0.627114  0.627114  0.544284  1
  Tl  Tl1  1  0.375939  0.672793  0.119997  1
  Tl  Tl2  1  0.385021  0.668720  0.250000  1
  Tl  Tl3  1  0.669615  0.004862  0.620269  1
  Tl  Tl4  1  0.672793  0.375939  0.119997  1
  Tl  Tl5  1  0.672043  0.998839  0.750000  1
  Tl  Tl6  1  0.330385  0.995138  0.379731  1
  Tl  Tl7  1  0.624061  0.327207  0.619997  1
  Tl  Tl8  1  0.327207  0.624061  0.619997  1
  Tl  Tl9  1  0.668720  0.385021  0.250000  1
  Tl  Tl10  1  0.039909  0.336862  0.971667  1
  Tl  Tl11  1  0.039909  0.336862  0.528333  1
  Tl  Tl12  1  0.330385  0.995138  0.120269  1
  Tl  Tl13  1  0.327207  0.624061  0.880003  1
  Tl  Tl14  1  0.624061  0.327207  0.880003  1
  Tl  Tl15  1  0.327957  0.001161  0.250000  1
  Tl  Tl16  1  0.669615  0.004862  0.879731  1
  Tl  Tl17  1  0.627114  0.627114  0.955716  1
  Tl  Tl18  1  0.960091  0.663138  0.028333  1
  Tl  Tl19  1  0.336862  0.039909  0.971667  1
  Tl  Tl20  1  0.948182  0.948182  0.115890  1
  Tl  Tl21  1  0.960091  0.663138  0.471667  1
  Tl  Tl22  1  0.372886  0.372886  0.455716  1
  Tl  Tl23  1  0.947574  0.947574  0.250000  1
  Tl  Tl24  1  0.948182  0.948182  0.384110  1
  Tl  Tl25  1  0.051818  0.051818  0.884110  1
  Tl  Tl26  1  0.004862  0.669615  0.620269  1
  Tl  Tl27  1  0.995138  0.330385  0.379731  1
  Tl  Tl28  1  0.001161  0.327957  0.250000  1
  Tl  Tl29  1  0.372886  0.372886  0.044284  1
  Tl  Tl30  1  0.998839  0.672043  0.750000  1
  Tl  Tl31  1  0.004862  0.669615  0.879731  1
  Tl  Tl32  1  0.995138  0.330385  0.120269  1
  Tl  Tl33  1  0.331280  0.614979  0.750000  1
  Tl  Tl34  1  0.375939  0.672793  0.380003  1
  Tl  Tl35  1  0.051818  0.051818  0.615890  1
  Tl  Tl36  1  0.052426  0.052426  0.750000  1
  Tl  Tl37  1  0.663138  0.960091  0.028333  1
  Tl  Tl38  1  0.672793  0.375939  0.380003  1
  Tl  Tl39  1  0.614979  0.331280  0.750000  1
  Tl  Tl40  1  0.663138  0.960091  0.471667  1
  Tl  Tl41  1  0.336862  0.039909  0.528333  1
  Bi  Bi42  1  0.327418  0.002759  0.816563  1
  Bi  Bi43  1  0.335536  0.664464  0.000000  1
  Bi  Bi44  1  0.997241  0.672582  0.183437  1
  Bi  Bi45  1  0.339429  0.339429  0.315778  1
  Bi  Bi46  1  0.997241  0.672582  0.316563  1
  Bi  Bi47  1  0.664464  0.335536  0.000000  1
  Bi  Bi48  1  0.327418  0.002759  0.683437  1
  Bi  Bi49  1  0.000000  0.000000  0.500000  1
  Bi  Bi50  1  0.002759  0.327418  0.816563  1
  Bi  Bi51  1  0.664464  0.335536  0.500000  1
  Bi  Bi52  1  0.335536  0.664464  0.500000  1
  Bi  Bi53  1  0.660571  0.660571  0.684222  1
  Bi  Bi54  1  0.660571  0.660571  0.815778  1
  Bi  Bi55  1  0.339429  0.339429  0.184222  1
  Bi  Bi56  1  0.672582  0.997241  0.183437  1
  Bi  Bi57  1  0.672582  0.997241  0.316563  1
  Bi  Bi58  1  0.000000  0.000000  0.000000  1
  Bi  Bi59  1  0.002759  0.327418  0.683437  1
  I  I60  1  0.082818  0.885827  0.815239  1
  I  I61  1  0.950140  0.135331  0.446880  1
  I  I62  1  0.487797  0.332596  0.543257  1
  I  I63  1  0.667404  0.512203  0.456743  1
  I  I64  1  0.332596  0.487797  0.956743  1
  I  I65  1  0.321150  0.852535  0.750000  1
  I  I66  1  0.878237  0.426286  0.313820  1
  I  I67  1  0.878237  0.426286  0.186180  1
  I  I68  1  0.917182  0.114173  0.315239  1
  I  I69  1  0.807191  0.515725  0.553695  1
  I  I70  1  0.190889  0.190889  0.530808  1
  I  I71  1  0.333198  0.160685  0.868880  1
  I  I72  1  0.208772  0.208772  0.121933  1
  I  I73  1  0.885827  0.082818  0.684761  1
  I  I74  1  0.208772  0.208772  0.378067  1
  I  I75  1  0.496768  0.496768  0.366595  1
  I  I76  1  0.152665  0.331828  0.750000  1
  I  I77  1  0.512203  0.667404  0.043257  1
  I  I78  1  0.331828  0.152665  0.750000  1
  I  I79  1  0.464633  0.217170  0.185551  1
  I  I80  1  0.147465  0.678850  0.250000  1
  I  I81  1  0.535367  0.782830  0.814449  1
  I  I82  1  0.512987  0.512987  0.750000  1
  I  I83  1  0.121763  0.573714  0.813820  1
  I  I84  1  0.864669  0.049860  0.553120  1
  I  I85  1  0.678273  0.130388  0.379235  1
  I  I86  1  0.130388  0.678273  0.120765  1
  I  I87  1  0.381299  0.864708  0.045745  1
  I  I88  1  0.864669  0.049860  0.946880  1
  I  I89  1  0.121763  0.573714  0.686180  1
  I  I90  1  0.809111  0.809111  0.030808  1
  I  I91  1  0.839315  0.666802  0.131120  1
  I  I92  1  0.535367  0.782830  0.685551  1
  I  I93  1  0.114173  0.917182  0.315239  1
  I  I94  1  0.464633  0.217170  0.314449  1
  I  I95  1  0.885827  0.082818  0.815239  1
  I  I96  1  0.839315  0.666802  0.368880  1
  I  I97  1  0.333198  0.160685  0.631120  1
  I  I98  1  0.192809  0.484275  0.053695  1
  I  I99  1  0.573714  0.121763  0.686180  1
  I  I100  1  0.190889  0.190889  0.969192  1
  I  I101  1  0.114173  0.917182  0.184761  1
  I  I102  1  0.135331  0.950140  0.053120  1
  I  I103  1  0.484275  0.192809  0.446305  1
  I  I104  1  0.332596  0.487797  0.543257  1
  I  I105  1  0.217170  0.464633  0.185551  1
  I  I106  1  0.082818  0.885827  0.684761  1
  I  I107  1  0.160685  0.333198  0.631120  1
  I  I108  1  0.512203  0.667404  0.456743  1
  I  I109  1  0.678850  0.147465  0.250000  1
  I  I110  1  0.426286  0.878237  0.186180  1
  I  I111  1  0.809111  0.809111  0.469192  1
  I  I112  1  0.666802  0.839315  0.368880  1
  I  I113  1  0.135331  0.950140  0.446880  1
  I  I114  1  0.782830  0.535367  0.814449  1
  I  I115  1  0.217170  0.464633  0.314449  1
  I  I116  1  0.503232  0.503232  0.633405  1
  I  I117  1  0.917182  0.114173  0.184761  1
  I  I118  1  0.496768  0.496768  0.133405  1
  I  I119  1  0.791228  0.791228  0.878067  1
  I  I120  1  0.484275  0.192809  0.053695  1
  I  I121  1  0.515725  0.807191  0.553695  1
  I  I122  1  0.667404  0.512203  0.043257  1
  I  I123  1  0.852535  0.321150  0.750000  1
  I  I124  1  0.130388  0.678273  0.379235  1
  I  I125  1  0.049860  0.864669  0.946880  1
  I  I126  1  0.618701  0.135292  0.954255  1
  I  I127  1  0.869612  0.321727  0.620765  1
  I  I128  1  0.487013  0.487013  0.250000  1
  I  I129  1  0.321727  0.869612  0.879235  1
  I  I130  1  0.321727  0.869612  0.620765  1
  I  I131  1  0.192175  0.192175  0.250000  1
  I  I132  1  0.135292  0.618701  0.954255  1
  I  I133  1  0.807825  0.807825  0.750000  1
  I  I134  1  0.869612  0.321727  0.879235  1
  I  I135  1  0.618701  0.135292  0.545745  1
  I  I136  1  0.049860  0.864669  0.553120  1
  I  I137  1  0.573714  0.121763  0.813820  1
  I  I138  1  0.666802  0.839315  0.131120  1
  I  I139  1  0.135292  0.618701  0.545745  1
  I  I140  1  0.487797  0.332596  0.956743  1
  I  I141  1  0.678273  0.130388  0.120765  1
  I  I142  1  0.515725  0.807191  0.946305  1
  I  I143  1  0.791228  0.791228  0.621933  1
  I  I144  1  0.192809  0.484275  0.446305  1
  I  I145  1  0.426286  0.878237  0.313820  1
  I  I146  1  0.847335  0.668172  0.250000  1
  I  I147  1  0.503232  0.503232  0.866595  1
  I  I148  1  0.782830  0.535367  0.685551  1
  I  I149  1  0.668172  0.847335  0.250000  1
  I  I150  1  0.950140  0.135331  0.053120  1
  I  I151  1  0.864708  0.381299  0.045745  1
  I  I152  1  0.381299  0.864708  0.454255  1
  I  I153  1  0.807191  0.515725  0.946305  1
  I  I154  1  0.160685  0.333198  0.868880  1
  I  I155  1  0.864708  0.381299  0.454255  1
