# generated using pymatgen
data_Ba14Ir8(PdO11)3
_symmetry_space_group_name_H-M   'P 1'
_cell_length_a   10.20827300
_cell_length_b   10.20827266
_cell_length_c   30.78914979
_cell_angle_alpha   90.00000000
_cell_angle_beta   90.00000000
_cell_angle_gamma   120.00000111
_symmetry_Int_Tables_number   1
_chemical_formula_structural   Ba14Ir8(PdO11)3
_chemical_formula_sum   'Ba42 Ir24 Pd9 O99'
_cell_volume   2778.64369244
_cell_formula_units_Z   3
loop_
 _symmetry_equiv_pos_site_id
 _symmetry_equiv_pos_as_xyz
  1  'x, y, z'
loop_
 _atom_site_type_symbol
 _atom_site_label
 _atom_site_symmetry_multiplicity
 _atom_site_fract_x
 _atom_site_fract_y
 _atom_site_fract_z
 _atom_site_occupancy
  Ba  Ba0  1  1.000000  0.650244  0.000000  1
  Ba  Ba1  1  0.999700  0.350039  0.640479  1
  Ba  Ba2  1  0.015375  0.682250  0.429368  1
  Ba  Ba3  1  0.670507  0.670507  0.500000  1
  Ba  Ba4  1  0.000300  0.350339  0.359521  1
  Ba  Ba5  1  0.681533  0.013954  0.289323  1
  Ba  Ba6  1  0.998417  0.330564  0.215627  1
  Ba  Ba7  1  0.667579  0.986046  0.710677  1
  Ba  Ba8  1  0.318467  0.332421  0.710677  1
  Ba  Ba9  1  0.331119  0.015704  0.929696  1
  Ba  Ba10  1  0.013954  0.681533  0.710677  1
  Ba  Ba11  1  0.330564  0.998417  0.784373  1
  Ba  Ba12  1  0.668881  0.684585  0.070304  1
  Ba  Ba13  1  0.649661  0.649961  0.359521  1
  Ba  Ba14  1  0.997651  0.668090  0.856291  1
  Ba  Ba15  1  0.667853  0.669436  0.784373  1
  Ba  Ba16  1  0.350039  0.999700  0.359521  1
  Ba  Ba17  1  0.666876  0.984625  0.429368  1
  Ba  Ba18  1  0.350339  0.000300  0.640479  1
  Ba  Ba19  1  0.669436  0.667853  0.215627  1
  Ba  Ba20  1  0.332421  0.318467  0.289323  1
  Ba  Ba21  1  0.001583  0.332147  0.784373  1
  Ba  Ba22  1  0.331910  0.329561  0.856291  1
  Ba  Ba23  1  0.650244  0.000000  0.000000  1
  Ba  Ba24  1  0.317750  0.333124  0.429368  1
  Ba  Ba25  1  0.002349  0.670439  0.143709  1
  Ba  Ba26  1  0.668090  0.997651  0.143709  1
  Ba  Ba27  1  0.649961  0.649661  0.640479  1
  Ba  Ba28  1  0.329493  0.000000  0.500000  1
  Ba  Ba29  1  0.349756  0.349756  0.000000  1
  Ba  Ba30  1  0.986046  0.667579  0.289323  1
  Ba  Ba31  1  0.015704  0.331119  0.070304  1
  Ba  Ba32  1  0.332147  0.001583  0.215627  1
  Ba  Ba33  1  0.329561  0.331910  0.143709  1
  Ba  Ba34  1  0.984296  0.315415  0.929696  1
  Ba  Ba35  1  0.684585  0.668881  0.929696  1
  Ba  Ba36  1  0.682250  0.015375  0.570632  1
  Ba  Ba37  1  0.315415  0.984296  0.070304  1
  Ba  Ba38  1  0.333124  0.317750  0.570632  1
  Ba  Ba39  1  0.670439  0.002349  0.856291  1
  Ba  Ba40  1  0.984625  0.666876  0.570632  1
  Ba  Ba41  1  0.000000  0.329493  0.500000  1
  Ir  Ir42  1  0.000000  0.000000  0.097124  1
  Ir  Ir43  1  0.666667  0.333333  0.247118  1
  Ir  Ir44  1  0.666667  0.333333  0.971741  1
  Ir  Ir45  1  0.000000  0.000000  0.819400  1
  Ir  Ir46  1  0.000000  0.000000  0.180600  1
  Ir  Ir47  1  0.000000  0.000000  0.902876  1
  Ir  Ir48  1  0.666667  0.333333  0.330065  1
  Ir  Ir49  1  0.333333  0.666667  0.028259  1
  Ir  Ir50  1  0.333333  0.666667  0.836959  1
  Ir  Ir51  1  0.333333  0.666667  0.389754  1
  Ir  Ir52  1  0.666667  0.333333  0.610246  1
  Ir  Ir53  1  0.333333  0.666667  0.111401  1
  Ir  Ir54  1  0.000000  0.000000  0.736419  1
  Ir  Ir55  1  0.333333  0.666667  0.669935  1
  Ir  Ir56  1  0.666667  0.333333  0.888599  1
  Ir  Ir57  1  0.666667  0.333333  0.804691  1
  Ir  Ir58  1  0.000000  0.000000  0.263581  1
  Ir  Ir59  1  0.333333  0.666667  0.752882  1
  Ir  Ir60  1  0.666667  0.333333  0.523047  1
  Ir  Ir61  1  0.666667  0.333333  0.163041  1
  Ir  Ir62  1  0.333333  0.666667  0.195309  1
  Ir  Ir63  1  0.000000  0.000000  0.542924  1
  Ir  Ir64  1  0.333333  0.666667  0.476953  1
  Ir  Ir65  1  0.000000  0.000000  0.457076  1
  Pd  Pd66  1  0.000000  0.000000  0.639707  1
  Pd  Pd67  1  0.000000  0.000000  0.360293  1
  Pd  Pd68  1  0.666667  0.333333  0.707635  1
  Pd  Pd69  1  0.333333  0.666667  0.574025  1
  Pd  Pd70  1  0.666667  0.333333  0.067088  1
  Pd  Pd71  1  0.000000  0.000000  0.000000  1
  Pd  Pd72  1  0.333333  0.666667  0.292365  1
  Pd  Pd73  1  0.333333  0.666667  0.932912  1
  Pd  Pd74  1  0.666667  0.333333  0.425975  1
  O  O75  1  0.152372  0.992061  0.581795  1
  O  O76  1  1.000000  0.841668  0.500000  1
  O  O77  1  0.833619  0.490831  0.929274  1
  O  O78  1  0.184705  0.514410  0.876547  1
  O  O79  1  0.676801  0.493398  0.010849  1
  O  O80  1  0.847628  0.839689  0.418205  1
  O  O81  1  0.342788  0.509169  0.070726  1
  O  O82  1  0.340305  0.832241  0.712383  1
  O  O83  1  0.821252  0.482195  0.483709  1
  O  O84  1  0.676079  0.181371  0.368778  1
  O  O85  1  0.517805  0.339056  0.483709  1
  O  O86  1  0.491936  0.659695  0.712383  1
  O  O87  1  0.838791  0.840968  0.140264  1
  O  O88  1  0.509169  0.342788  0.929274  1
  O  O89  1  0.332756  0.507788  0.793542  1
  O  O90  1  0.832241  0.340305  0.287617  1
  O  O91  1  0.181371  0.676079  0.631222  1
  O  O92  1  0.660944  0.178748  0.483709  1
  O  O93  1  0.659695  0.491936  0.287617  1
  O  O94  1  0.179096  0.658724  0.234697  1
  O  O95  1  0.485590  0.670296  0.876547  1
  O  O96  1  0.494708  0.818629  0.631222  1
  O  O97  1  0.505292  0.323921  0.368778  1
  O  O98  1  0.175032  0.667244  0.793542  1
  O  O99  1  0.000790  0.840145  0.779484  1
  O  O100  1  0.161209  0.002177  0.859736  1
  O  O101  1  0.479628  0.820904  0.234697  1
  O  O102  1  0.327748  0.822539  0.151603  1
  O  O103  1  0.183403  0.506602  0.989151  1
  O  O104  1  0.658724  0.179096  0.765303  1
  O  O105  1  0.506602  0.183403  0.010849  1
  O  O106  1  0.657212  0.166381  0.929274  1
  O  O107  1  0.160644  0.159855  0.220516  1
  O  O108  1  0.493398  0.676801  0.989151  1
  O  O109  1  0.490831  0.833619  0.070726  1
  O  O110  1  0.007313  0.849563  0.942274  1
  O  O111  1  0.820904  0.479628  0.765303  1
  O  O112  1  0.182683  0.673816  0.350081  1
  O  O113  1  0.491133  0.817317  0.350081  1
  O  O114  1  0.007939  0.160311  0.581795  1
  O  O115  1  0.841668  0.000000  0.500000  1
  O  O116  1  0.177461  0.505209  0.151603  1
  O  O117  1  0.323921  0.505292  0.631222  1
  O  O118  1  0.159032  0.997823  0.140264  1
  O  O119  1  0.514410  0.184705  0.123453  1
  O  O120  1  0.326184  0.508867  0.350081  1
  O  O121  1  0.492212  0.824968  0.793542  1
  O  O122  1  0.505209  0.177461  0.848397  1
  O  O123  1  0.006867  0.158453  0.302519  1
  O  O124  1  0.818629  0.494708  0.368778  1
  O  O125  1  0.329704  0.815295  0.876547  1
  O  O126  1  0.840145  0.000790  0.220516  1
  O  O127  1  0.827161  0.336781  0.566810  1
  O  O128  1  0.158453  0.006867  0.697481  1
  O  O129  1  0.509619  0.172839  0.566810  1
  O  O130  1  0.667244  0.175032  0.206458  1
  O  O131  1  0.178748  0.660944  0.516291  1
  O  O132  1  0.339056  0.517805  0.516291  1
  O  O133  1  0.840968  0.838791  0.859736  1
  O  O134  1  0.663219  0.490381  0.566810  1
  O  O135  1  0.507788  0.332756  0.206458  1
  O  O136  1  0.336781  0.827161  0.433190  1
  O  O137  1  0.817317  0.491133  0.649919  1
  O  O138  1  0.158332  0.158332  0.500000  1
  O  O139  1  0.166381  0.657212  0.070726  1
  O  O140  1  0.673816  0.182683  0.649919  1
  O  O141  1  0.815295  0.329704  0.123453  1
  O  O142  1  0.849563  0.007313  0.057726  1
  O  O143  1  0.341276  0.520372  0.234697  1
  O  O144  1  0.508064  0.167759  0.287617  1
  O  O145  1  0.848414  0.841547  0.697481  1
  O  O146  1  0.159855  0.160644  0.779484  1
  O  O147  1  0.157750  0.150437  0.057726  1
  O  O148  1  0.841547  0.848414  0.302519  1
  O  O149  1  0.992061  0.152372  0.418205  1
  O  O150  1  0.824968  0.492212  0.206458  1
  O  O151  1  0.672252  0.494791  0.848397  1
  O  O152  1  0.323199  0.816597  0.989151  1
  O  O153  1  0.508867  0.326184  0.649919  1
  O  O154  1  0.670296  0.485590  0.123453  1
  O  O155  1  0.167759  0.508064  0.712383  1
  O  O156  1  0.494791  0.672252  0.151603  1
  O  O157  1  0.520372  0.341276  0.765303  1
  O  O158  1  0.839356  0.999210  0.779484  1
  O  O159  1  0.997823  0.159032  0.859736  1
  O  O160  1  0.150437  0.157750  0.942274  1
  O  O161  1  0.999210  0.839356  0.220516  1
  O  O162  1  0.490381  0.663219  0.433190  1
  O  O163  1  0.002177  0.161209  0.140264  1
  O  O164  1  0.993133  0.151586  0.697481  1
  O  O165  1  0.160311  0.007939  0.418205  1
  O  O166  1  0.822539  0.327748  0.848397  1
  O  O167  1  0.151586  0.993133  0.302519  1
  O  O168  1  0.842250  0.992687  0.942274  1
  O  O169  1  0.172839  0.509619  0.433190  1
  O  O170  1  0.482195  0.821252  0.516291  1
  O  O171  1  0.992687  0.842250  0.057726  1
  O  O172  1  0.816597  0.323199  0.010849  1
  O  O173  1  0.839689  0.847628  0.581795  1
