# generated using pymatgen
data_Ca(H8O5)2
_symmetry_space_group_name_H-M   'P 1'
_cell_length_a   6.26743460
_cell_length_b   6.25292291
_cell_length_c   10.78814259
_cell_angle_alpha   89.98773875
_cell_angle_beta   90.20005590
_cell_angle_gamma   90.33289887
_symmetry_Int_Tables_number   1
_chemical_formula_structural   Ca(H8O5)2
_chemical_formula_sum   'Ca2 H32 O20'
_cell_volume   422.77527162
_cell_formula_units_Z   2
loop_
 _symmetry_equiv_pos_site_id
 _symmetry_equiv_pos_as_xyz
  1  'x, y, z'
loop_
 _atom_site_type_symbol
 _atom_site_label
 _atom_site_symmetry_multiplicity
 _atom_site_fract_x
 _atom_site_fract_y
 _atom_site_fract_z
 _atom_site_occupancy
  Ca  Ca0  1  0.987460  0.008815  0.236399  1
  Ca  Ca1  1  0.984976  0.008682  0.739071  1
  H  H2  1  0.259101  0.333358  0.363724  1
  H  H3  1  0.031934  0.433677  0.371770  1
  H  H4  1  0.755861  0.614708  0.343997  1
  H  H5  1  0.880810  0.694943  0.462503  1
  H  H6  1  0.622992  0.234902  0.354311  1
  H  H7  1  0.684582  0.103239  0.486031  1
  H  H8  1  0.294075  0.866416  0.457856  1
  H  H9  1  0.457345  0.958033  0.361382  1
  H  H10  1  0.759346  0.368989  0.855793  1
  H  H11  1  0.892278  0.310546  0.988755  1
  H  H12  1  0.132526  0.700739  0.957711  1
  H  H13  1  0.040105  0.537502  0.861413  1
  H  H14  1  0.387151  0.249163  0.842563  1
  H  H15  1  0.311409  0.125382  0.962452  1
  H  H16  1  0.561990  0.968927  0.866273  1
  H  H17  1  0.646898  0.735624  0.848901  1
  H  H18  1  0.953700  0.552300  0.634695  1
  H  H19  1  0.711296  0.626235  0.638975  1
  H  H20  1  0.259190  0.393054  0.643851  1
  H  H21  1  0.099551  0.296670  0.542047  1
  H  H22  1  0.444292  0.987388  0.614273  1
  H  H23  1  0.363784  0.748979  0.633859  1
  H  H24  1  0.627758  0.256507  0.628522  1
  H  H25  1  0.016610  0.553578  0.116035  1
  H  H26  1  0.255163  0.631539  0.136750  1
  H  H27  1  0.744696  0.372296  0.131827  1
  H  H28  1  0.608395  0.729211  0.141468  1
  H  H29  1  0.699386  0.875386  0.032762  1
  H  H30  1  0.376707  0.282179  0.143203  1
  H  H31  1  0.448093  0.039027  0.131228  1
  H  H32  1  0.416906  0.652458  0.334354  1
  H  H33  1  0.345435  0.582543  0.830975  1
  O  O34  1  0.110020  0.294601  0.382710  1
  O  O35  1  0.899061  0.668031  0.371386  1
  O  O36  1  0.677077  0.094449  0.379006  1
  O  O37  1  0.321779  0.866062  0.365046  1
  O  O38  1  0.899295  0.315541  0.881649  1
  O  O39  1  0.131689  0.673196  0.864935  1
  O  O40  1  0.334106  0.107958  0.870761  1
  O  O41  1  0.695637  0.880448  0.874196  1
  O  O42  1  0.861848  0.681534  0.623462  1
  O  O43  1  0.110069  0.330611  0.632296  1
  O  O44  1  0.307586  0.894681  0.611146  1
  O  O45  1  0.675656  0.110383  0.609169  1
  O  O46  1  0.111222  0.688407  0.111192  1
  O  O47  1  0.889918  0.321744  0.111606  1
  O  O48  1  0.672048  0.876275  0.124480  1
  O  O49  1  0.319813  0.132836  0.123810  1
  O  O50  1  0.496504  0.511674  0.310608  1
  O  O51  1  0.490252  0.511772  0.806262  1
  O  O52  1  0.480072  0.519808  0.668809  1
  O  O53  1  0.482782  0.512539  0.172973  1
