# generated using pymatgen
data_KPb2Cl5
_symmetry_space_group_name_H-M   'P 1'
_cell_length_a   8.09070498
_cell_length_b   8.98449690
_cell_length_c   12.71918941
_cell_angle_alpha   89.95344278
_cell_angle_beta   90.00000000
_cell_angle_gamma   90.00000000
_symmetry_Int_Tables_number   1
_chemical_formula_structural   KPb2Cl5
_chemical_formula_sum   'K4 Pb8 Cl20'
_cell_volume   924.56919648
_cell_formula_units_Z   4
loop_
 _symmetry_equiv_pos_site_id
 _symmetry_equiv_pos_as_xyz
  1  'x, y, z'
loop_
 _atom_site_type_symbol
 _atom_site_label
 _atom_site_symmetry_multiplicity
 _atom_site_fract_x
 _atom_site_fract_y
 _atom_site_fract_z
 _atom_site_occupancy
  K  K0  1  0.949136  0.490453  0.829734  1
  K  K1  1  0.550864  0.490453  0.329734  1
  K  K2  1  0.449136  0.509547  0.670266  1
  K  K3  1  0.050864  0.509547  0.170266  1
  Pb  Pb4  1  0.936655  0.745264  0.505803  1
  Pb  Pb5  1  0.496819  0.007424  0.674618  1
  Pb  Pb6  1  0.996819  0.992576  0.825382  1
  Pb  Pb7  1  0.003181  0.007424  0.174618  1
  Pb  Pb8  1  0.563345  0.745264  0.005803  1
  Pb  Pb9  1  0.503181  0.992576  0.325382  1
  Pb  Pb10  1  0.436655  0.254736  0.994197  1
  Pb  Pb11  1  0.063345  0.254736  0.494197  1
  Cl  Cl12  1  0.812748  0.765894  0.280838  1
  Cl  Cl13  1  0.678031  0.461058  0.081242  1
  Cl  Cl14  1  0.334780  0.959565  0.900710  1
  Cl  Cl15  1  0.653500  0.228948  0.811471  1
  Cl  Cl16  1  0.042071  0.220237  0.998549  1
  Cl  Cl17  1  0.957929  0.779763  0.001451  1
  Cl  Cl18  1  0.687252  0.765894  0.780838  1
  Cl  Cl19  1  0.153500  0.771052  0.688529  1
  Cl  Cl20  1  0.457929  0.220237  0.498549  1
  Cl  Cl21  1  0.665220  0.040435  0.099290  1
  Cl  Cl22  1  0.834780  0.040435  0.599290  1
  Cl  Cl23  1  0.821969  0.461058  0.581242  1
  Cl  Cl24  1  0.321969  0.538942  0.918758  1
  Cl  Cl25  1  0.846500  0.228948  0.311471  1
  Cl  Cl26  1  0.187252  0.234106  0.719162  1
  Cl  Cl27  1  0.542071  0.779763  0.501451  1
  Cl  Cl28  1  0.346500  0.771052  0.188529  1
  Cl  Cl29  1  0.312748  0.234106  0.219162  1
  Cl  Cl30  1  0.165220  0.959565  0.400710  1
  Cl  Cl31  1  0.178031  0.538942  0.418758  1
