# generated using pymatgen
data_SnH2N2O3F2
_symmetry_space_group_name_H-M   'P 1'
_cell_length_a   8.12947817
_cell_length_b   8.12947817
_cell_length_c   6.77883941
_cell_angle_alpha   71.69297996
_cell_angle_beta   108.30702004
_cell_angle_gamma   142.51866249
_symmetry_Int_Tables_number   1
_chemical_formula_structural   SnH2N2O3F2
_chemical_formula_sum   'Sn2 H4 N4 O6 F4'
_cell_volume   257.17765563
_cell_formula_units_Z   2
loop_
 _symmetry_equiv_pos_site_id
 _symmetry_equiv_pos_as_xyz
  1  'x, y, z'
loop_
 _atom_site_type_symbol
 _atom_site_label
 _atom_site_symmetry_multiplicity
 _atom_site_fract_x
 _atom_site_fract_y
 _atom_site_fract_z
 _atom_site_occupancy
  Sn  Sn0  1  0.006893  0.093063  0.224483  1
  Sn  Sn1  1  0.093063  0.006893  0.775517  1
  H  H2  1  0.670665  0.432383  0.113283  1
  H  H3  1  0.432383  0.670665  0.886717  1
  H  H4  1  0.811727  0.334039  0.167408  1
  H  H5  1  0.334039  0.811727  0.832592  1
  N  N6  1  0.743720  0.375480  0.224598  1
  N  N7  1  0.375480  0.743720  0.775402  1
  N  N8  1  0.451792  0.699333  0.387442  1
  N  N9  1  0.699333  0.451792  0.612558  1
  O  O10  1  0.521493  0.665877  0.265311  1
  O  O11  1  0.665877  0.521493  0.734689  1
  O  O12  1  0.633403  0.923836  0.456832  1
  O  O13  1  0.923836  0.633403  0.543168  1
  O  O14  1  0.210422  0.501647  0.426035  1
  O  O15  1  0.501647  0.210422  0.573965  1
  F  F16  1  0.824002  0.824002  0.000000  1
  F  F17  1  0.288269  0.288269  0.000000  1
  F  F18  1  0.892123  0.236832  0.028230  1
  F  F19  1  0.236832  0.892123  0.971770  1
