# generated using pymatgen
data_H10PtC(N4O)2
_symmetry_space_group_name_H-M   'P 1'
_cell_length_a   5.12097069
_cell_length_b   5.73491019
_cell_length_c   14.77626165
_cell_angle_alpha   86.72125477
_cell_angle_beta   82.58439123
_cell_angle_gamma   82.52301148
_symmetry_Int_Tables_number   1
_chemical_formula_structural   H10PtC(N4O)2
_chemical_formula_sum   'H20 Pt2 C2 N16 O4'
_cell_volume   426.30493830
_cell_formula_units_Z   2
loop_
 _symmetry_equiv_pos_site_id
 _symmetry_equiv_pos_as_xyz
  1  'x, y, z'
loop_
 _atom_site_type_symbol
 _atom_site_label
 _atom_site_symmetry_multiplicity
 _atom_site_fract_x
 _atom_site_fract_y
 _atom_site_fract_z
 _atom_site_occupancy
  H  H0  1  0.070805  0.500676  0.088739  1
  H  H1  1  0.676947  0.944067  0.566989  1
  H  H2  1  0.622934  0.735993  0.649807  1
  H  H3  1  0.014990  0.191288  0.906466  1
  H  H4  1  0.985010  0.808712  0.093534  1
  H  H5  1  0.134105  0.094151  0.347300  1
  H  H6  1  0.929195  0.499324  0.911261  1
  H  H7  1  0.053460  0.617434  0.241999  1
  H  H8  1  0.982275  0.058312  0.218039  1
  H  H9  1  0.323053  0.055933  0.433011  1
  H  H10  1  0.182161  0.553807  0.764610  1
  H  H11  1  0.239444  0.642095  0.370468  1
  H  H12  1  0.946540  0.382566  0.758001  1
  H  H13  1  0.817839  0.446193  0.235390  1
  H  H14  1  0.760556  0.357905  0.629532  1
  H  H15  1  0.268773  0.376719  0.912877  1
  H  H16  1  0.377066  0.264007  0.350193  1
  H  H17  1  0.865895  0.905849  0.652700  1
  H  H18  1  0.731227  0.623281  0.087123  1
  H  H19  1  0.017725  0.941688  0.781961  1
  Pt  Pt20  1  0.593737  0.856907  0.288189  1
  Pt  Pt21  1  0.406263  0.143093  0.711811  1
  C  C22  1  0.915650  0.639116  0.115071  1
  C  C23  1  0.084350  0.360884  0.884929  1
  N  N24  1  0.771064  0.756120  0.405898  1
  N  N25  1  0.232819  0.448495  0.567569  1
  N  N26  1  0.495355  0.092445  0.117749  1
  N  N27  1  0.676068  0.904373  0.635651  1
  N  N28  1  0.504645  0.907555  0.882251  1
  N  N29  1  0.126394  0.387254  0.783985  1
  N  N30  1  0.391723  0.963753  0.176321  1
  N  N31  1  0.775564  0.358961  0.461988  1
  N  N32  1  0.767181  0.551505  0.432431  1
  N  N33  1  0.323932  0.095627  0.364349  1
  N  N34  1  0.418798  0.787503  0.941769  1
  N  N35  1  0.873606  0.612746  0.216015  1
  N  N36  1  0.224436  0.641039  0.538012  1
  N  N37  1  0.608277  0.036247  0.823679  1
  N  N38  1  0.228936  0.243880  0.594102  1
  N  N39  1  0.581202  0.212497  0.058231  1
  O  O40  1  0.832917  0.118824  0.262430  1
  O  O41  1  0.167083  0.881176  0.737570  1
  O  O42  1  0.651065  0.402723  0.686567  1
  O  O43  1  0.348935  0.597277  0.313433  1
