# generated using pymatgen
data_Os2C6SO6
_symmetry_space_group_name_H-M   'P 1'
_cell_length_a   8.57184430
_cell_length_b   9.31696526
_cell_length_c   14.50207721
_cell_angle_alpha   80.59605653
_cell_angle_beta   86.02626276
_cell_angle_gamma   68.29985201
_symmetry_Int_Tables_number   1
_chemical_formula_structural   Os2C6SO6
_chemical_formula_sum   'Os8 C24 S4 O24'
_cell_volume   1061.59706337
_cell_formula_units_Z   4
loop_
 _symmetry_equiv_pos_site_id
 _symmetry_equiv_pos_as_xyz
  1  'x, y, z'
loop_
 _atom_site_type_symbol
 _atom_site_label
 _atom_site_symmetry_multiplicity
 _atom_site_fract_x
 _atom_site_fract_y
 _atom_site_fract_z
 _atom_site_occupancy
  Os  Os0  1  0.534097  0.189820  0.278719  1
  Os  Os1  1  0.208824  0.305718  0.177150  1
  Os  Os2  1  0.215281  0.258046  0.389192  1
  Os  Os3  1  0.784719  0.741954  0.610808  1
  Os  Os4  1  0.639174  0.035227  0.762124  1
  Os  Os5  1  0.791176  0.694282  0.822850  1
  Os  Os6  1  0.360826  0.964773  0.237876  1
  Os  Os7  1  0.465903  0.810180  0.721281  1
  C  C8  1  0.531719  0.382525  0.207204  1
  C  C9  1  0.034849  0.456467  0.369021  1
  C  C10  1  0.662025  0.212538  0.372333  1
  C  C11  1  0.150984  0.524636  0.169391  1
  C  C12  1  0.419409  0.160951  0.800568  1
  C  C13  1  0.468281  0.617475  0.792796  1
  C  C14  1  0.580591  0.839049  0.199432  1
  C  C15  1  0.965151  0.543533  0.630979  1
  C  C16  1  0.117758  0.177779  0.497971  1
  C  C17  1  0.849016  0.475364  0.830609  1
  C  C18  1  0.329975  0.343676  0.461000  1
  C  C19  1  0.670025  0.656324  0.539000  1
  C  C20  1  0.975487  0.661217  0.898865  1
  C  C21  1  0.271331  0.967878  0.118809  1
  C  C22  1  0.362459  0.294716  0.075502  1
  C  C23  1  0.024513  0.338783  0.101135  1
  C  C24  1  0.732743  0.074469  0.217130  1
  C  C25  1  0.313855  0.788523  0.298962  1
  C  C26  1  0.686145  0.211477  0.701038  1
  C  C27  1  0.728669  0.032122  0.881191  1
  C  C28  1  0.637541  0.705284  0.924498  1
  C  C29  1  0.267257  0.925531  0.782870  1
  C  C30  1  0.882242  0.822221  0.502029  1
  C  C31  1  0.337975  0.787462  0.627667  1
  S  S32  1  0.911816  0.850183  0.714749  1
  S  S33  1  0.449222  0.005957  0.384910  1
  S  S34  1  0.088184  0.149817  0.285251  1
  S  S35  1  0.550778  0.994043  0.615090  1
  O  O36  1  0.091884  0.640679  0.943320  1
  O  O37  1  0.450489  0.287759  0.010145  1
  O  O38  1  0.908116  0.359321  0.056680  1
  O  O39  1  0.389012  0.397941  0.509067  1
  O  O40  1  0.289803  0.242187  0.825696  1
  O  O41  1  0.284267  0.683168  0.339049  1
  O  O42  1  0.710197  0.757813  0.174304  1
  O  O43  1  0.883299  0.341147  0.836609  1
  O  O44  1  0.537332  0.501250  0.170116  1
  O  O45  1  0.211607  0.968000  0.049405  1
  O  O46  1  0.855089  0.004639  0.179675  1
  O  O47  1  0.788393  0.032000  0.950595  1
  O  O48  1  0.610988  0.602059  0.490933  1
  O  O49  1  0.715733  0.316832  0.660951  1
  O  O50  1  0.144911  0.995361  0.820325  1
  O  O51  1  0.549511  0.712241  0.989855  1
  O  O52  1  0.738666  0.230618  0.429617  1
  O  O53  1  0.462668  0.498750  0.829884  1
  O  O54  1  0.941461  0.872158  0.436507  1
  O  O55  1  0.921395  0.574797  0.359772  1
  O  O56  1  0.261334  0.769382  0.570383  1
  O  O57  1  0.078605  0.425203  0.640228  1
  O  O58  1  0.116701  0.658853  0.163391  1
  O  O59  1  0.058539  0.127842  0.563493  1
