# generated using pymatgen
data_SrAl2(SiO4)2
_symmetry_space_group_name_H-M   'P 1'
_cell_length_a   9.66840183
_cell_length_b   9.33291903
_cell_length_c   9.33291946
_cell_angle_alpha   74.85377701
_cell_angle_beta   81.14387796
_cell_angle_gamma   81.14387620
_symmetry_Int_Tables_number   1
_chemical_formula_structural   SrAl2(SiO4)2
_chemical_formula_sum   'Sr4 Al8 Si8 O32'
_cell_volume   797.47394639
_cell_formula_units_Z   4
loop_
 _symmetry_equiv_pos_site_id
 _symmetry_equiv_pos_as_xyz
  1  'x, y, z'
loop_
 _atom_site_type_symbol
 _atom_site_label
 _atom_site_symmetry_multiplicity
 _atom_site_fract_x
 _atom_site_fract_y
 _atom_site_fract_z
 _atom_site_occupancy
  Sr  Sr0  1  0.222196  0.050925  0.366752  1
  Sr  Sr1  1  0.777804  0.949075  0.633248  1
  Sr  Sr2  1  0.277804  0.633248  0.949075  1
  Sr  Sr3  1  0.722196  0.366752  0.050925  1
  Al  Al4  1  0.113902  0.141102  0.030719  1
  Al  Al5  1  0.035677  0.734049  0.469276  1
  Al  Al6  1  0.386098  0.969281  0.858898  1
  Al  Al7  1  0.535677  0.469276  0.734049  1
  Al  Al8  1  0.613902  0.030719  0.141102  1
  Al  Al9  1  -0.035677  0.265951  0.530724  1
  Al  Al10  1  0.886098  0.858898  0.969281  1
  Al  Al11  1  0.464323  0.530724  0.265951  1
  Si  Si12  1  0.386757  0.240955  -0.002878  1
  Si  Si13  1  0.613243  0.759045  0.002878  1
  Si  Si14  1  0.132479  0.479536  0.278679  1
  Si  Si15  1  0.867521  0.520464  0.721321  1
  Si  Si16  1  0.113243  0.002878  0.759045  1
  Si  Si17  1  0.886757  -0.002878  0.240955  1
  Si  Si18  1  0.367521  0.721321  0.520464  1
  Si  Si19  1  0.632479  0.278679  0.479536  1
  O  O20  1  0.904282  0.687930  0.625911  1
  O  O21  1  0.087016  0.123582  0.859642  1
  O  O22  1  0.557324  0.362157  0.606174  1
  O  O23  1  0.595718  0.374089  0.312070  1
  O  O24  1  0.196907  0.767015  0.514848  1
  O  O25  1  0.458680  0.396468  0.920863  1
  O  O26  1  -0.057324  0.393826  0.637843  1
  O  O27  1  0.284142  0.871789  0.030130  1
  O  O28  1  0.587016  0.859642  0.123582  1
  O  O29  1  0.458662  0.157463  0.152329  1
  O  O30  1  0.442676  0.637843  0.393826  1
  O  O31  1  0.715407  0.040693  0.280932  1
  O  O32  1  0.404282  0.625911  0.687930  1
  O  O33  1  0.041338  0.847671  0.842537  1
  O  O34  1  0.041320  0.079137  0.603532  1
  O  O35  1  0.215407  0.280932  0.040693  1
  O  O36  1  0.803093  0.232985  0.485152  1
  O  O37  1  0.057324  0.606174  0.362157  1
  O  O38  1  0.958680  0.920863  0.396468  1
  O  O39  1  0.095718  0.312070  0.374089  1
  O  O40  1  0.541338  0.842537  0.847671  1
  O  O41  1  0.412984  0.140358  0.876418  1
  O  O42  1  0.784593  0.719068  0.959307  1
  O  O43  1  0.284593  0.959307  0.719068  1
  O  O44  1  0.303093  0.485152  0.232985  1
  O  O45  1  0.912984  0.876418  0.140358  1
  O  O46  1  0.541320  0.603532  0.079137  1
  O  O47  1  0.784142  0.030130  0.871789  1
  O  O48  1  0.715858  0.128211  0.969870  1
  O  O49  1  0.696907  0.514848  0.767015  1
  O  O50  1  0.958662  0.152329  0.157463  1
  O  O51  1  0.215858  0.969870  0.128211  1
