# generated using pymatgen
data_Sb4Pb5S11
_symmetry_space_group_name_H-M   'P 1'
_cell_length_a   8.16189803
_cell_length_b   22.10672601
_cell_length_c   23.85082396
_cell_angle_alpha   90.00000000
_cell_angle_beta   90.00000000
_cell_angle_gamma   100.84958182
_symmetry_Int_Tables_number   1
_chemical_formula_structural   Sb4Pb5S11
_chemical_formula_sum   'Sb32 Pb40 S88'
_cell_volume   4226.54626055
_cell_formula_units_Z   8
loop_
 _symmetry_equiv_pos_site_id
 _symmetry_equiv_pos_as_xyz
  1  'x, y, z'
loop_
 _atom_site_type_symbol
 _atom_site_label
 _atom_site_symmetry_multiplicity
 _atom_site_fract_x
 _atom_site_fract_y
 _atom_site_fract_z
 _atom_site_occupancy
  Sb  Sb0  1  0.094789  0.438350  0.731439  1
  Sb  Sb1  1  0.905211  0.061650  0.231439  1
  Sb  Sb2  1  0.635771  0.015138  0.620356  1
  Sb  Sb3  1  0.331214  0.969114  0.062269  1
  Sb  Sb4  1  0.179415  0.613364  0.716231  1
  Sb  Sb5  1  0.273398  0.790428  0.043821  1
  Sb  Sb6  1  0.320361  0.375961  0.604641  1
  Sb  Sb7  1  0.679639  0.124039  0.104641  1
  Sb  Sb8  1  0.364229  0.484862  0.120356  1
  Sb  Sb9  1  0.635771  0.515138  0.879644  1
  Sb  Sb10  1  0.762856  0.281723  0.465321  1
  Sb  Sb11  1  0.668786  0.030886  0.937731  1
  Sb  Sb12  1  0.237144  0.218277  0.965321  1
  Sb  Sb13  1  0.237144  0.718277  0.534679  1
  Sb  Sb14  1  0.668786  0.530886  0.562269  1
  Sb  Sb15  1  0.331214  0.469114  0.437731  1
  Sb  Sb16  1  0.273398  0.290428  0.456179  1
  Sb  Sb17  1  0.307183  0.369538  0.309527  1
  Sb  Sb18  1  0.726602  0.209572  0.956179  1
  Sb  Sb19  1  0.692817  0.130462  0.809527  1
  Sb  Sb20  1  0.307183  0.869538  0.190473  1
  Sb  Sb21  1  0.692817  0.630462  0.690473  1
  Sb  Sb22  1  0.094789  0.938350  0.768561  1
  Sb  Sb23  1  0.726602  0.709572  0.543821  1
  Sb  Sb24  1  0.905211  0.561650  0.268561  1
  Sb  Sb25  1  0.679639  0.624039  0.395359  1
  Sb  Sb26  1  0.762856  0.781723  0.034679  1
  Sb  Sb27  1  0.820585  0.386636  0.283769  1
  Sb  Sb28  1  0.179415  0.113364  0.783769  1
  Sb  Sb29  1  0.364229  0.984862  0.379644  1
  Sb  Sb30  1  0.320361  0.875961  0.895359  1
  Sb  Sb31  1  0.820585  0.886636  0.216231  1
  Pb  Pb32  1  0.973606  0.691827  0.839782  1
  Pb  Pb33  1  0.850219  0.953010  0.069595  1
  Pb  Pb34  1  0.521494  0.791308  0.677519  1
  Pb  Pb35  1  0.149781  0.046990  0.930405  1
  Pb  Pb36  1  0.467639  0.693530  0.838646  1
  Pb  Pb37  1  0.467639  0.193530  0.661354  1
  Pb  Pb38  1  0.149781  0.546990  0.569595  1
  Pb  Pb39  1  0.056720  0.877181  0.500231  1
  Pb  Pb40  1  0.203217  0.131073  0.094935  1
  Pb  Pb41  1  0.397038  0.040379  0.233020  1
  Pb  Pb42  1  0.532361  0.306470  0.161354  1
  Pb  Pb43  1  0.397038  0.540379  0.266980  1
  Pb  Pb44  1  0.478506  0.208693  0.322481  1
  Pb  Pb45  1  0.575649  0.388702  0.999840  1
  Pb  Pb46  1  0.943280  0.122819  0.499769  1
  Pb  Pb47  1  0.026394  0.308173  0.160218  1
  Pb  Pb48  1  0.056720  0.377181  0.999769  1
  Pb  Pb49  1  0.850219  0.453010  0.430405  1
  Pb  Pb50  1  0.602962  0.959621  0.766980  1
  Pb  Pb51  1  0.943280  0.622819  0.000231  1
  Pb  Pb52  1  0.026394  0.808173  0.339782  1
  Pb  Pb53  1  0.021786  0.795058  0.674965  1
  Pb  Pb54  1  0.532361  0.806470  0.338646  1
  Pb  Pb55  1  0.575649  0.888702  0.500160  1
  Pb  Pb56  1  0.867776  0.985975  0.365024  1
  Pb  Pb57  1  0.796783  0.368927  0.594935  1
  Pb  Pb58  1  0.521494  0.291307  0.822481  1
  Pb  Pb59  1  0.478506  0.708692  0.177519  1
  Pb  Pb60  1  0.132224  0.514025  0.865024  1
  Pb  Pb61  1  0.132224  0.014025  0.634976  1
  Pb  Pb62  1  0.973606  0.191827  0.660218  1
  Pb  Pb63  1  0.978214  0.704942  0.174965  1
  Pb  Pb64  1  0.021786  0.295058  0.825035  1
  Pb  Pb65  1  0.978214  0.204942  0.325035  1
  Pb  Pb66  1  0.796783  0.868927  0.905065  1
  Pb  Pb67  1  0.424351  0.611298  0.000160  1
  Pb  Pb68  1  0.424351  0.111298  0.499840  1
  Pb  Pb69  1  0.602962  0.459621  0.733020  1
  Pb  Pb70  1  0.203217  0.631073  0.405065  1
  Pb  Pb71  1  0.867776  0.485975  0.134976  1
  S  S72  1  0.187447  0.631940  0.914643  1
  S  S73  1  0.155552  0.014073  0.444321  1
  S  S74  1  0.859344  0.488938  0.633917  1
  S  S75  1  0.286907  0.314406  0.911841  1
  S  S76  1  0.690998  0.626150  0.908314  1
  S  S77  1  0.761692  0.278264  0.251181  1
  S  S78  1  0.512060  0.754737  0.973251  1
  S  S79  1  0.608493  0.919129  0.280224  1
  S  S80  1  0.286907  0.814406  0.588159  1
  S  S81  1  0.942646  0.656187  0.328564  1
  S  S82  1  0.067200  0.332728  0.375002  1
  S  S83  1  0.015984  0.748383  0.472862  1
  S  S84  1  0.613084  0.011278  0.439407  1
  S  S85  1  0.309001  0.873850  0.408314  1
  S  S86  1  0.264768  0.276790  0.249471  1
  S  S87  1  0.984016  0.251617  0.527138  1
  S  S88  1  0.238308  0.221736  0.751181  1
  S  S89  1  0.849200  0.402179  0.793209  1
  S  S90  1  0.512010  0.326918  0.375255  1
  S  S91  1  0.735232  0.723210  0.750529  1
  S  S92  1  0.487940  0.745263  0.473251  1
  S  S93  1  0.391507  0.580871  0.780224  1
  S  S94  1  0.984016  0.751617  0.972862  1
  S  S95  1  0.106648  0.935007  0.987164  1
  S  S96  1  0.155552  0.514073  0.055679  1
  S  S97  1  0.942646  0.156187  0.171436  1
  S  S98  1  0.468232  0.654346  0.327274  1
  S  S99  1  0.487990  0.173082  0.875255  1
  S  S100  1  0.391507  0.080871  0.719776  1
  S  S101  1  0.423063  0.571372  0.480945  1
  S  S102  1  0.309001  0.373850  0.091686  1
  S  S103  1  0.057354  0.343813  0.671436  1
  S  S104  1  0.057354  0.843813  0.828564  1
  S  S105  1  0.700318  0.094326  0.295383  1
  S  S106  1  0.531768  0.345654  0.672726  1
  S  S107  1  0.783200  0.813427  0.584300  1
  S  S108  1  0.812553  0.368060  0.085357  1
  S  S109  1  0.713093  0.185594  0.411841  1
  S  S110  1  0.576937  0.928628  0.980945  1
  S  S111  1  0.067200  0.832728  0.124998  1
  S  S112  1  0.735232  0.223210  0.749471  1
  S  S113  1  0.150800  0.597821  0.206791  1
  S  S114  1  0.216800  0.686573  0.084300  1
  S  S115  1  0.073114  0.916783  0.276602  1
  S  S116  1  0.859344  0.988938  0.866083  1
  S  S117  1  0.812553  0.868060  0.414643  1
  S  S118  1  0.386916  0.488722  0.939407  1
  S  S119  1  0.073114  0.416783  0.223398  1
  S  S120  1  0.926886  0.083217  0.723398  1
  S  S121  1  0.761692  0.778264  0.248819  1
  S  S122  1  0.140656  0.011062  0.133917  1
  S  S123  1  0.150800  0.097821  0.293209  1
  S  S124  1  0.783200  0.313427  0.915700  1
  S  S125  1  0.371570  0.982163  0.860577  1
  S  S126  1  0.893352  0.064993  0.012836  1
  S  S127  1  0.487940  0.245263  0.026749  1
  S  S128  1  0.608493  0.419129  0.219776  1
  S  S129  1  0.216800  0.186573  0.415700  1
  S  S130  1  0.576937  0.428628  0.519055  1
  S  S131  1  0.140656  0.511062  0.366083  1
  S  S132  1  0.893352  0.564993  0.487164  1
  S  S133  1  0.628430  0.517837  0.360577  1
  S  S134  1  0.932800  0.667272  0.624998  1
  S  S135  1  0.106648  0.435007  0.512836  1
  S  S136  1  0.264768  0.776790  0.250529  1
  S  S137  1  0.926886  0.583217  0.776602  1
  S  S138  1  0.932800  0.167272  0.875002  1
  S  S139  1  0.844448  0.985927  0.555679  1
  S  S140  1  0.531768  0.845654  0.827274  1
  S  S141  1  0.386916  0.988722  0.560593  1
  S  S142  1  0.423063  0.071372  0.019055  1
  S  S143  1  0.468232  0.154346  0.172726  1
  S  S144  1  0.371570  0.482163  0.639423  1
  S  S145  1  0.849200  0.902179  0.706791  1
  S  S146  1  0.700318  0.594326  0.204617  1
  S  S147  1  0.512060  0.254737  0.526749  1
  S  S148  1  0.487990  0.673082  0.624745  1
  S  S149  1  0.844448  0.485927  0.944321  1
  S  S150  1  0.015984  0.248383  0.027138  1
  S  S151  1  0.299682  0.905674  0.704617  1
  S  S152  1  0.299682  0.405674  0.795383  1
  S  S153  1  0.187447  0.131940  0.585357  1
  S  S154  1  0.713093  0.685594  0.088159  1
  S  S155  1  0.512010  0.826918  0.124745  1
  S  S156  1  0.613084  0.511278  0.060593  1
  S  S157  1  0.238308  0.721736  0.748819  1
  S  S158  1  0.690998  0.126150  0.591686  1
  S  S159  1  0.628430  0.017837  0.139423  1
