# generated using pymatgen
data_CsHO
_symmetry_space_group_name_H-M   'P 1'
_cell_length_a   4.46863617
_cell_length_b   13.18941088
_cell_length_c   4.41278272
_cell_angle_alpha   90.00000000
_cell_angle_beta   90.00000000
_cell_angle_gamma   90.00000000
_symmetry_Int_Tables_number   1
_chemical_formula_structural   CsHO
_chemical_formula_sum   'Cs4 H4 O4'
_cell_volume   260.08358211
_cell_formula_units_Z   4
loop_
 _symmetry_equiv_pos_site_id
 _symmetry_equiv_pos_as_xyz
  1  'x, y, z'
loop_
 _atom_site_type_symbol
 _atom_site_label
 _atom_site_symmetry_multiplicity
 _atom_site_fract_x
 _atom_site_fract_y
 _atom_site_fract_z
 _atom_site_occupancy
  Cs  Cs0  1  0.992436  0.650336  0.251378  1
  Cs  Cs1  1  0.507564  0.349664  0.751378  1
  Cs  Cs2  1  0.492436  0.849664  0.748622  1
  Cs  Cs3  1  0.007564  0.150336  0.248622  1
  H  H4  1  0.996694  0.945330  0.355856  1
  H  H5  1  0.503306  0.054670  0.855856  1
  H  H6  1  0.496694  0.554670  0.644144  1
  H  H7  1  0.003306  0.445330  0.144144  1
  O  O8  1  0.998842  0.883999  0.234318  1
  O  O9  1  0.501158  0.116001  0.734318  1
  O  O10  1  0.498842  0.616001  0.765682  1
  O  O11  1  0.001158  0.383999  0.265682  1
