# generated using pymatgen
data_BaMo2P3O14
_symmetry_space_group_name_H-M   'P 1'
_cell_length_a   8.33156946
_cell_length_b   8.33156888
_cell_length_c   8.79983179
_cell_angle_alpha   82.31182435
_cell_angle_beta   82.31182488
_cell_angle_gamma   72.73367097
_symmetry_Int_Tables_number   1
_chemical_formula_structural   BaMo2P3O14
_chemical_formula_sum   'Ba2 Mo4 P6 O28'
_cell_volume   575.20668653
_cell_formula_units_Z   2
loop_
 _symmetry_equiv_pos_site_id
 _symmetry_equiv_pos_as_xyz
  1  'x, y, z'
loop_
 _atom_site_type_symbol
 _atom_site_label
 _atom_site_symmetry_multiplicity
 _atom_site_fract_x
 _atom_site_fract_y
 _atom_site_fract_z
 _atom_site_occupancy
  Ba  Ba0  1  0.037971  0.963074  0.494568  1
  Ba  Ba1  1  0.963074  0.037971  0.994568  1
  Mo  Mo2  1  0.489892  0.195854  0.326034  1
  Mo  Mo3  1  0.195854  0.489892  0.826034  1
  Mo  Mo4  1  0.488434  0.809903  0.153042  1
  Mo  Mo5  1  0.809903  0.488434  0.653042  1
  P  P6  1  0.886939  0.681366  0.302449  1
  P  P7  1  0.681366  0.886939  0.802449  1
  P  P8  1  0.434225  0.574883  0.493882  1
  P  P9  1  0.343211  0.101791  0.692630  1
  P  P10  1  0.574883  0.434225  0.993882  1
  P  P11  1  0.101791  0.343211  0.192630  1
  O  O12  1  0.084407  0.684896  0.886513  1
  O  O13  1  0.748650  0.701799  0.771675  1
  O  O14  1  0.590204  0.580105  0.074491  1
  O  O15  1  0.632959  0.907582  0.976861  1
  O  O16  1  0.041919  0.188743  0.247572  1
  O  O17  1  0.947059  0.509082  0.219687  1
  O  O18  1  0.251178  0.363815  0.262409  1
  O  O19  1  0.907582  0.632959  0.476861  1
  O  O20  1  0.134728  0.347607  0.013266  1
  O  O21  1  0.278947  0.593729  0.618201  1
  O  O22  1  0.509082  0.947059  0.719687  1
  O  O23  1  0.188743  0.041919  0.747572  1
  O  O24  1  0.864482  0.303486  0.566136  1
  O  O25  1  0.303486  0.864482  0.066136  1
  O  O26  1  0.347607  0.134728  0.513266  1
  O  O27  1  0.440633  0.035871  0.236101  1
  O  O28  1  0.035871  0.440633  0.736101  1
  O  O29  1  0.684896  0.084407  0.386513  1
  O  O30  1  0.802138  0.989827  0.740728  1
  O  O31  1  0.363815  0.251178  0.762409  1
  O  O32  1  0.724187  0.377503  0.869043  1
  O  O33  1  0.377503  0.724187  0.369043  1
  O  O34  1  0.485282  0.404997  0.424011  1
  O  O35  1  0.404997  0.485282  0.924011  1
  O  O36  1  0.989827  0.802138  0.240728  1
  O  O37  1  0.580105  0.590204  0.574491  1
  O  O38  1  0.701799  0.748650  0.271675  1
  O  O39  1  0.593729  0.278947  0.118201  1
