# generated using pymatgen
data_Eu(Sb3Os)4
_symmetry_space_group_name_H-M   'P 1'
_cell_length_a   8.37118040
_cell_length_b   8.36653419
_cell_length_c   8.36536222
_cell_angle_alpha   109.52658053
_cell_angle_beta   109.46578636
_cell_angle_gamma   109.50128806
_symmetry_Int_Tables_number   1
_chemical_formula_structural   Eu(Sb3Os)4
_chemical_formula_sum   'Eu1 Sb12 Os4'
_cell_volume   450.57342351
_cell_formula_units_Z   1
loop_
 _symmetry_equiv_pos_site_id
 _symmetry_equiv_pos_as_xyz
  1  'x, y, z'
loop_
 _atom_site_type_symbol
 _atom_site_label
 _atom_site_symmetry_multiplicity
 _atom_site_fract_x
 _atom_site_fract_y
 _atom_site_fract_z
 _atom_site_occupancy
  Eu  Eu0  1  0.000000  0.000001  0.000000  1
  Sb  Sb1  1  0.496496  0.339611  0.156834  1
  Sb  Sb2  1  0.182656  0.339571  0.843082  1
  Sb  Sb3  1  0.817344  0.660429  0.156918  1
  Sb  Sb4  1  0.157100  0.817528  0.660633  1
  Sb  Sb5  1  0.339534  0.156837  0.496534  1
  Sb  Sb6  1  0.842932  0.503565  0.660478  1
  Sb  Sb7  1  0.339510  0.842972  0.182690  1
  Sb  Sb8  1  0.503504  0.660389  0.843166  1
  Sb  Sb9  1  0.842900  0.182472  0.339367  1
  Sb  Sb10  1  0.660490  0.157028  0.817310  1
  Sb  Sb11  1  0.157068  0.496435  0.339522  1
  Sb  Sb12  1  0.660466  0.843163  0.503466  1
  Os  Os13  1  0.500000  0.500000  0.500000  1
  Os  Os14  1  -0.000000  -0.000000  0.500000  1
  Os  Os15  1  0.000000  0.500000  0.000000  1
  Os  Os16  1  0.500000  -0.000000  -0.000000  1
