# generated using pymatgen
data_Os10C23S2O23
_symmetry_space_group_name_H-M   'P 1'
_cell_length_a   10.84319688
_cell_length_b   11.77999484
_cell_length_c   19.42920733
_cell_angle_alpha   83.05108362
_cell_angle_beta   73.80924037
_cell_angle_gamma   62.67645955
_symmetry_Int_Tables_number   1
_chemical_formula_structural   Os10C23S2O23
_chemical_formula_sum   'Os20 C46 S4 O46'
_cell_volume   2117.33652731
_cell_formula_units_Z   2
loop_
 _symmetry_equiv_pos_site_id
 _symmetry_equiv_pos_as_xyz
  1  'x, y, z'
loop_
 _atom_site_type_symbol
 _atom_site_label
 _atom_site_symmetry_multiplicity
 _atom_site_fract_x
 _atom_site_fract_y
 _atom_site_fract_z
 _atom_site_occupancy
  Os  Os0  1  0.395280  0.783010  0.622331  1
  Os  Os1  1  0.215275  0.750875  0.749435  1
  Os  Os2  1  0.478376  0.749646  0.750031  1
  Os  Os3  1  0.486328  0.545167  0.688012  1
  Os  Os4  1  0.779496  0.044036  0.187668  1
  Os  Os5  1  0.510649  0.455521  0.311864  1
  Os  Os6  1  0.692059  0.502746  0.178565  1
  Os  Os7  1  0.221458  0.955775  0.811846  1
  Os  Os8  1  0.127857  0.003871  0.677722  1
  Os  Os9  1  0.701497  0.281432  0.121915  1
  Os  Os10  1  0.872711  0.996989  0.321158  1
  Os  Os11  1  0.305933  0.498139  0.821763  1
  Os  Os12  1  0.684964  0.632330  0.620148  1
  Os  Os13  1  0.521247  0.248941  0.250079  1
  Os  Os14  1  0.439604  0.867821  0.878751  1
  Os  Os15  1  0.561265  0.132347  0.120270  1
  Os  Os16  1  0.784071  0.249601  0.249775  1
  Os  Os17  1  0.605532  0.218757  0.377874  1
  Os  Os18  1  0.313481  0.366757  0.379565  1
  Os  Os19  1  0.298218  0.718558  0.877525  1
  C  C20  1  0.347719  0.381545  0.747356  1
  C  C21  1  0.985331  0.025698  0.358995  1
  C  C22  1  0.475408  0.023108  0.159872  1
  C  C23  1  0.352977  0.694378  0.965534  1
  C  C24  1  0.021777  0.814683  0.808304  1
  C  C25  1  0.237439  0.245882  0.408890  1
  C  C26  1  0.362721  0.955306  0.967900  1
  C  C27  1  0.976983  0.120129  0.751477  1
  C  C28  1  0.871239  0.473123  0.140284  1
  C  C29  1  0.648603  0.305910  0.032990  1
  C  C30  1  0.655569  0.751184  0.749296  1
  C  C31  1  0.704412  0.233528  0.441037  1
  C  C32  1  0.122168  0.731582  0.940975  1
  C  C33  1  0.787154  0.888781  0.163492  1
  C  C34  1  0.840683  0.523419  0.659543  1
  C  C35  1  0.762811  0.751796  0.590842  1
  C  C36  1  0.130545  0.144566  0.615738  1
  C  C37  1  0.143310  0.687106  0.690945  1
  C  C38  1  0.954346  0.990256  0.115958  1
  C  C39  1  0.878209  0.267122  0.058733  1
  C  C40  1  0.525108  0.977650  0.839908  1
  C  C41  1  0.653207  0.619122  0.252471  1
  C  C42  1  0.384403  0.358507  0.884530  1
  C  C43  1  0.023077  0.879491  0.247433  1
  C  C44  1  0.343001  0.250040  0.249896  1
  C  C45  1  0.436728  0.492578  0.616054  1
  C  C46  1  0.511152  0.810757  0.533936  1
  C  C47  1  0.854790  0.314731  0.308142  1
  C  C48  1  0.658227  0.390112  0.663575  1
  C  C49  1  0.213097  0.112364  0.835429  1
  C  C50  1  0.127105  0.525880  0.858857  1
  C  C51  1  0.487660  0.193759  0.466148  1
  C  C52  1  0.785380  0.543602  0.531464  1
  C  C53  1  0.607815  0.748023  0.907869  1
  C  C54  1  0.870191  0.857549  0.383964  1
  C  C55  1  0.015941  0.974550  0.639665  1
  C  C56  1  0.047483  0.008023  0.883781  1
  C  C57  1  0.339075  0.610808  0.335573  1
  C  C58  1  0.613138  0.642904  0.116048  1
  C  C59  1  0.393046  0.252573  0.091604  1
  C  C60  1  0.213052  0.454619  0.468451  1
  C  C61  1  0.157591  0.476499  0.340535  1
  C  C62  1  0.978034  0.185366  0.191131  1
  C  C63  1  0.296516  0.768411  0.558935  1
  C  C64  1  0.559719  0.509887  0.383790  1
  C  C65  1  0.636558  0.044690  0.031327  1
  S  S66  1  0.615577  0.056744  0.307660  1
  S  S67  1  0.516914  0.558121  0.808024  1
  S  S68  1  0.482980  0.440549  0.192209  1
  S  S69  1  0.383242  0.940434  0.692680  1
  O  O70  1  0.323260  0.007650  0.022215  1
  O  O71  1  0.061262  0.951675  0.071061  1
  O  O72  1  0.460740  0.017633  0.663540  1
  O  O73  1  0.373521  0.678712  0.022610  1
  O  O74  1  0.420843  0.958860  0.186878  1
  O  O75  1  0.763286  0.752125  0.748886  1
  O  O76  1  0.237381  0.707435  0.352575  1
  O  O77  1  0.582740  0.549284  0.428514  1
  O  O78  1  0.809885  0.824646  0.574163  1
  O  O79  1  0.097255  0.149360  0.159290  1
  O  O80  1  0.241329  0.756411  0.518732  1
  O  O81  1  0.853905  0.489703  0.477643  1
  O  O82  1  0.579226  0.042932  0.814140  1
  O  O83  1  0.758203  0.292207  0.646799  1
  O  O84  1  0.904912  0.352397  0.340036  1
  O  O85  1  0.200197  0.210445  0.851067  1
  O  O86  1  0.902728  0.850316  0.840726  1
  O  O87  1  0.572078  0.823999  0.475992  1
  O  O88  1  0.359760  0.518685  0.161419  1
  O  O89  1  0.091089  0.651236  0.659425  1
  O  O90  1  0.129928  0.804769  0.212709  1
  O  O91  1  0.119572  0.235836  0.582948  1
  O  O92  1  0.234303  0.251723  0.249543  1
  O  O93  1  0.064542  0.541872  0.314649  1
  O  O94  1  0.538460  0.979375  0.338991  1
  O  O95  1  0.939565  0.047755  0.927781  1
  O  O96  1  0.412309  0.452749  0.572085  1
  O  O97  1  0.426193  0.176380  0.523118  1
  O  O98  1  0.432283  0.267624  0.917560  1
  O  O99  1  0.652517  0.692675  0.287414  1
  O  O100  1  0.799984  0.791894  0.146396  1
  O  O101  1  0.674637  0.990956  0.977505  1
  O  O102  1  0.759819  0.243520  0.481927  1
  O  O103  1  0.350682  0.306633  0.712431  1
  O  O104  1  0.143659  0.508114  0.522303  1
  O  O105  1  0.984048  0.256670  0.017601  1
  O  O106  1  0.565726  0.733728  0.082768  1
  O  O107  1  0.641723  0.479968  0.837766  1
  O  O108  1  0.933185  0.459652  0.686075  1
  O  O109  1  0.016158  0.742359  0.982081  1
  O  O110  1  0.880068  0.767187  0.417711  1
  O  O111  1  0.629279  0.320218  0.975604  1
  O  O112  1  0.192240  0.172045  0.426088  1
  O  O113  1  0.709818  0.674545  0.925223  1
  O  O114  1  0.290235  0.325401  0.074972  1
  O  O115  1  0.870576  0.194371  0.786844  1
