# generated using pymatgen
data_Al2CoO4
_symmetry_space_group_name_H-M   'P 1'
_cell_length_a   5.77289126
_cell_length_b   5.77289134
_cell_length_c   17.30497084
_cell_angle_alpha   59.97380509
_cell_angle_beta   59.97380463
_cell_angle_gamma   60.00000123
_symmetry_Int_Tables_number   1
_chemical_formula_structural   Al2CoO4
_chemical_formula_sum   'Al12 Co6 O24'
_cell_volume   407.63415943
_cell_formula_units_Z   6
loop_
 _symmetry_equiv_pos_site_id
 _symmetry_equiv_pos_as_xyz
  1  'x, y, z'
loop_
 _atom_site_type_symbol
 _atom_site_label
 _atom_site_symmetry_multiplicity
 _atom_site_fract_x
 _atom_site_fract_y
 _atom_site_fract_z
 _atom_site_occupancy
  Al  Al0  1  0.248556  0.248556  0.084777  1
  Al  Al1  1  0.123957  0.627437  0.207056  1
  Al  Al2  1  0.627437  0.123957  0.207056  1
  Al  Al3  1  0.627437  0.627437  0.207056  1
  Al  Al4  1  0.124553  0.624772  0.541968  1
  Al  Al5  1  0.624772  0.124553  0.541968  1
  Al  Al6  1  0.625018  0.625018  0.374982  1
  Al  Al7  1  0.624772  0.624772  0.541968  1
  Al  Al8  1  0.120412  0.626215  0.875719  1
  Al  Al9  1  0.626215  0.120412  0.875719  1
  Al  Al10  1  0.624349  0.624349  0.708984  1
  Al  Al11  1  0.626215  0.626215  0.875719  1
  Co  Co12  1  0.002671  0.002671  0.997329  1
  Co  Co13  1  0.251164  0.251164  0.415503  1
  Co  Co14  1  0.627229  0.627229  0.039438  1
  Co  Co15  1  -0.000017  -0.000017  0.333350  1
  Co  Co16  1  0.247584  0.247584  0.752416  1
  Co  Co17  1  0.000329  0.000329  0.666338  1
  O  O18  1  0.371148  0.371148  0.131766  1
  O  O19  1  0.394694  0.394694  0.271973  1
  O  O20  1  0.371148  0.862407  0.131766  1
  O  O21  1  0.862407  0.371148  0.131766  1
  O  O22  1  0.389197  0.389197  0.463101  1
  O  O23  1  0.418891  0.859372  0.287455  1
  O  O24  1  0.861295  0.861295  0.138705  1
  O  O25  1  0.388764  0.388764  0.611236  1
  O  O26  1  0.389197  0.832303  0.463101  1
  O  O27  1  0.859372  0.418891  0.287455  1
  O  O28  1  0.832303  0.389197  0.463101  1
  O  O29  1  0.859372  0.859372  0.287455  1
  O  O30  1  0.389594  0.389594  0.798181  1
  O  O31  1  0.418363  0.860192  0.620418  1
  O  O32  1  0.860344  0.860344  0.472989  1
  O  O33  1  0.377988  0.377988  0.955345  1
  O  O34  1  0.389594  0.826269  0.798181  1
  O  O35  1  0.860192  0.418363  0.620418  1
  O  O36  1  0.826269  0.389594  0.798181  1
  O  O37  1  0.860192  0.860192  0.620418  1
  O  O38  1  0.413897  0.870652  0.948267  1
  O  O39  1  0.861822  0.861822  0.804845  1
  O  O40  1  0.870652  0.413897  0.948267  1
  O  O41  1  0.870652  0.870652  0.948267  1
