# generated using pymatgen
data_LiAl(SiO3)2
_symmetry_space_group_name_H-M   'P 1'
_cell_length_a   5.27527550
_cell_length_b   6.41391166
_cell_length_c   6.41391165
_cell_angle_alpha   82.70063515
_cell_angle_beta   74.65246425
_cell_angle_gamma   74.65246424
_symmetry_Int_Tables_number   1
_chemical_formula_structural   LiAl(SiO3)2
_chemical_formula_sum   'Li2 Al2 Si4 O12'
_cell_volume   201.43383004
_cell_formula_units_Z   2
loop_
 _symmetry_equiv_pos_site_id
 _symmetry_equiv_pos_as_xyz
  1  'x, y, z'
loop_
 _atom_site_type_symbol
 _atom_site_label
 _atom_site_symmetry_multiplicity
 _atom_site_fract_x
 _atom_site_fract_y
 _atom_site_fract_z
 _atom_site_occupancy
  Li  Li0  1  0.750000  0.272899  0.727101  1
  Li  Li1  1  0.250000  0.727101  0.272899  1
  O  O2  1  0.934505  0.336666  0.373093  1
  O  O3  1  0.434505  0.373093  0.336666  1
  O  O4  1  0.065495  0.663334  0.626907  1
  O  O5  1  0.565495  0.626907  0.663334  1
  O  O6  1  0.140792  0.808193  0.973441  1
  O  O7  1  0.201113  0.099719  0.631849  1
  O  O8  1  0.859208  0.191807  0.026559  1
  O  O9  1  0.640792  0.973441  0.808193  1
  O  O10  1  0.359208  0.026559  0.191807  1
  O  O11  1  0.798887  0.900281  0.368151  1
  O  O12  1  0.701113  0.631849  0.099719  1
  O  O13  1  0.298887  0.368151  0.900281  1
  Al  Al14  1  0.750000  0.905486  0.094514  1
  Al  Al15  1  0.250000  0.094514  0.905486  1
  Si  Si16  1  0.242134  0.199800  0.386538  1
  Si  Si17  1  0.257866  0.613462  0.800200  1
  Si  Si18  1  0.742134  0.386538  0.199800  1
  Si  Si19  1  0.757866  0.800200  0.613462  1
