# generated using pymatgen
data_MgSiO3
_symmetry_space_group_name_H-M   'P 1'
_cell_length_a   4.83475858
_cell_length_b   6.40258372
_cell_length_c   6.40258384
_cell_angle_alpha   80.18526940
_cell_angle_beta   82.53395093
_cell_angle_gamma   82.53395489
_symmetry_Int_Tables_number   1
_chemical_formula_structural   MgSiO3
_chemical_formula_sum   'Mg4 Si4 O12'
_cell_volume   192.45321907
_cell_formula_units_Z   4
loop_
 _symmetry_equiv_pos_site_id
 _symmetry_equiv_pos_as_xyz
  1  'x, y, z'
loop_
 _atom_site_type_symbol
 _atom_site_label
 _atom_site_symmetry_multiplicity
 _atom_site_fract_x
 _atom_site_fract_y
 _atom_site_fract_z
 _atom_site_occupancy
  Mg  Mg0  1  0.750000  0.882656  0.117344  1
  Mg  Mg1  1  0.750000  0.320108  0.679892  1
  Mg  Mg2  1  0.250000  0.117344  0.882656  1
  Mg  Mg3  1  0.250000  0.679892  0.320108  1
  Si  Si4  1  0.479719  0.676037  0.836552  1
  Si  Si5  1  0.520281  0.323963  0.163448  1
  Si  Si6  1  0.020281  0.163448  0.323963  1
  Si  Si7  1  -0.020281  0.836552  0.676037  1
  O  O8  1  0.366360  0.066960  0.194842  1
  O  O9  1  0.677022  0.283614  0.398376  1
  O  O10  1  0.073925  0.106992  0.611153  1
  O  O11  1  0.866360  0.194842  0.066960  1
  O  O12  1  0.133640  0.805158  0.933040  1
  O  O13  1  0.177022  0.398376  0.283614  1
  O  O14  1  0.926075  0.893008  0.388847  1
  O  O15  1  0.573925  0.611153  0.106992  1
  O  O16  1  0.426075  0.388847  0.893008  1
  O  O17  1  0.822978  0.601624  0.716386  1
  O  O18  1  0.322978  0.716386  0.601624  1
  O  O19  1  0.633640  0.933040  0.805158  1
