# generated using pymatgen
data_La3Sn13Rh4
_symmetry_space_group_name_H-M   'P 1'
_cell_length_a   17.10275508
_cell_length_b   17.10275515
_cell_length_c   17.10275516
_cell_angle_alpha   109.47122066
_cell_angle_beta   109.47122075
_cell_angle_gamma   109.47122042
_symmetry_Int_Tables_number   1
_chemical_formula_structural   La3Sn13Rh4
_chemical_formula_sum   'La24 Sn104 Rh32'
_cell_volume   3851.02504280
_cell_formula_units_Z   8
loop_
 _symmetry_equiv_pos_site_id
 _symmetry_equiv_pos_as_xyz
  1  'x, y, z'
loop_
 _atom_site_type_symbol
 _atom_site_label
 _atom_site_symmetry_multiplicity
 _atom_site_fract_x
 _atom_site_fract_y
 _atom_site_fract_z
 _atom_site_occupancy
  La  La0  1  0.875586  0.624414  0.750000  1
  La  La1  1  0.125105  0.374895  0.250000  1
  La  La2  1  0.125586  0.750000  0.374414  1
  La  La3  1  0.750000  0.374414  0.125586  1
  La  La4  1  0.374895  0.250000  0.125105  1
  La  La5  1  0.250210  0.875105  0.125105  1
  La  La6  1  0.125105  0.250210  0.875105  1
  La  La7  1  0.374414  0.125586  0.750000  1
  La  La8  1  0.875105  0.250000  0.624895  1
  La  La9  1  0.751172  0.125586  0.875586  1
  La  La10  1  0.624895  0.249790  0.374895  1
  La  La11  1  0.624414  0.374414  0.748828  1
  La  La12  1  0.125586  0.875586  0.751172  1
  La  La13  1  0.624414  0.750000  0.875586  1
  La  La14  1  0.250000  0.125105  0.374895  1
  La  La15  1  0.374414  0.748828  0.624414  1
  La  La16  1  0.624895  0.875105  0.250000  1
  La  La17  1  0.875586  0.751172  0.125586  1
  La  La18  1  0.875105  0.125105  0.250210  1
  La  La19  1  0.748828  0.624414  0.374414  1
  La  La20  1  0.250000  0.624895  0.875105  1
  La  La21  1  0.249790  0.374895  0.624895  1
  La  La22  1  0.750000  0.875586  0.624414  1
  La  La23  1  0.374895  0.624895  0.249790  1
  Sn  Sn24  1  0.423390  0.076435  0.346458  1
  Sn  Sn25  1  0.076435  0.229977  0.653045  1
  Sn  Sn26  1  0.001770  0.500000  0.000000  1
  Sn  Sn27  1  0.577554  0.346057  0.923209  1
  Sn  Sn28  1  0.930683  0.074106  0.856536  1
  Sn  Sn29  1  0.923209  0.577554  0.346057  1
  Sn  Sn30  1  0.643464  0.717570  0.074148  1
  Sn  Sn31  1  0.079776  0.921288  0.158722  1
  Sn  Sn32  1  0.262566  0.841511  0.921288  1
  Sn  Sn33  1  0.841511  0.921288  0.262566  1
  Sn  Sn34  1  0.658489  0.237434  0.578712  1
  Sn  Sn35  1  0.643464  0.425894  0.569317  1
  Sn  Sn36  1  0.356578  0.782430  0.425894  1
  Sn  Sn37  1  0.654345  0.576791  0.922848  1
  Sn  Sn38  1  0.578712  0.658489  0.237434  1
  Sn  Sn39  1  0.846955  0.076932  0.423390  1
  Sn  Sn40  1  0.578712  0.420224  0.341278  1
  Sn  Sn41  1  0.229977  0.653045  0.076435  1
  Sn  Sn42  1  0.856536  0.425852  0.782430  1
  Sn  Sn43  1  0.076435  0.346458  0.423390  1
  Sn  Sn44  1  0.076932  0.423390  0.846955  1
  Sn  Sn45  1  0.930683  0.356578  0.074148  1
  Sn  Sn46  1  0.856536  0.930683  0.074106  1
  Sn  Sn47  1  0.717570  0.074148  0.643464  1
  Sn  Sn48  1  0.921288  0.262566  0.841511  1
  Sn  Sn49  1  0.717570  0.143422  0.074106  1
  Sn  Sn50  1  0.578946  0.841511  0.420224  1
  Sn  Sn51  1  0.229977  0.076932  0.153542  1
  Sn  Sn52  1  0.420224  0.578946  0.841511  1
  Sn  Sn53  1  0.356578  0.074148  0.930683  1
  Sn  Sn54  1  0.921288  0.158722  0.079776  1
  Sn  Sn55  1  0.923209  0.845655  0.577152  1
  Sn  Sn56  1  0.074106  0.856536  0.930683  1
  Sn  Sn57  1  0.423068  0.653045  0.076610  1
  Sn  Sn58  1  0.143422  0.569317  0.425852  1
  Sn  Sn59  1  0.237434  0.158722  0.578946  1
  Sn  Sn60  1  0.577554  0.731497  0.654345  1
  Sn  Sn61  1  0.498230  0.500000  1.000000  1
  Sn  Sn62  1  0.578946  0.237434  0.158722  1
  Sn  Sn63  1  0.845655  0.768503  0.922446  1
  Sn  Sn64  1  0.074148  0.643464  0.717570  1
  Sn  Sn65  1  0.153943  0.922446  0.576791  1
  Sn  Sn66  1  0.498230  0.498230  0.498230  1
  Sn  Sn67  1  0.731497  0.577152  0.153943  1
  Sn  Sn68  1  0.654345  0.577554  0.731497  1
  Sn  Sn69  1  0.577152  0.923209  0.845655  1
  Sn  Sn70  1  0.921054  0.079776  0.658489  1
  Sn  Sn71  1  0.569317  0.643464  0.425894  1
  Sn  Sn72  1  0.922848  0.768503  0.346057  1
  Sn  Sn73  1  0.569317  0.425852  0.143422  1
  Sn  Sn74  1  0.153943  0.731497  0.577152  1
  Sn  Sn75  1  0.425894  0.569317  0.643464  1
  Sn  Sn76  1  0.846955  0.270023  0.423565  1
  Sn  Sn77  1  0.425852  0.782430  0.856536  1
  Sn  Sn78  1  0.346458  0.423390  0.076435  1
  Sn  Sn79  1  0.782430  0.425894  0.356578  1
  Sn  Sn80  1  0.845655  0.577152  0.923209  1
  Sn  Sn81  1  0.074106  0.717570  0.143422  1
  Sn  Sn82  1  0.153542  0.229977  0.076932  1
  Sn  Sn83  1  0.237434  0.578712  0.658489  1
  Sn  Sn84  1  0.658489  0.921054  0.079776  1
  Sn  Sn85  1  0.346057  0.922848  0.768503  1
  Sn  Sn86  1  0.500000  0.000000  0.498230  1
  Sn  Sn87  1  0.423390  0.846955  0.076932  1
  Sn  Sn88  1  0.922446  0.845655  0.768503  1
  Sn  Sn89  1  0.346057  0.923209  0.577554  1
  Sn  Sn90  1  0.653045  0.076435  0.229977  1
  Sn  Sn91  1  0.153542  0.423565  0.076610  1
  Sn  Sn92  1  0.158722  0.079776  0.921288  1
  Sn  Sn93  1  0.576791  0.922848  0.654345  1
  Sn  Sn94  1  0.001770  0.001770  0.001770  1
  Sn  Sn95  1  0.782430  0.856536  0.425852  1
  Sn  Sn96  1  0.768503  0.922446  0.845655  1
  Sn  Sn97  1  0.921054  0.341278  0.262566  1
  Sn  Sn98  1  0.425894  0.356578  0.782430  1
  Sn  Sn99  1  0.341278  0.578712  0.420224  1
  Sn  Sn100  1  0.076610  0.153542  0.423565  1
  Sn  Sn101  1  0.000000  0.498230  0.500000  1
  Sn  Sn102  1  0.074148  0.930683  0.356578  1
  Sn  Sn103  1  0.420224  0.341278  0.578712  1
  Sn  Sn104  1  0.653045  0.076610  0.423068  1
  Sn  Sn105  1  0.423565  0.076610  0.153542  1
  Sn  Sn106  1  0.270023  0.423565  0.846955  1
  Sn  Sn107  1  0.341278  0.262566  0.921054  1
  Sn  Sn108  1  0.500000  0.000000  0.001770  1
  Sn  Sn109  1  0.262566  0.921054  0.341278  1
  Sn  Sn110  1  0.577152  0.153943  0.731497  1
  Sn  Sn111  1  0.076932  0.153542  0.229977  1
  Sn  Sn112  1  0.270023  0.346458  0.423068  1
  Sn  Sn113  1  0.143422  0.074106  0.717570  1
  Sn  Sn114  1  0.576791  0.153943  0.922446  1
  Sn  Sn115  1  1.000000  0.001770  0.500000  1
  Sn  Sn116  1  0.922446  0.576791  0.153943  1
  Sn  Sn117  1  0.922848  0.654345  0.576791  1
  Sn  Sn118  1  0.076610  0.423068  0.653045  1
  Sn  Sn119  1  0.346458  0.423068  0.270023  1
  Sn  Sn120  1  0.768503  0.346057  0.922848  1
  Sn  Sn121  1  0.423565  0.846955  0.270023  1
  Sn  Sn122  1  0.425852  0.143422  0.569317  1
  Sn  Sn123  1  0.423068  0.270023  0.346458  1
  Sn  Sn124  1  0.841511  0.420224  0.578946  1
  Sn  Sn125  1  0.158722  0.578946  0.237434  1
  Sn  Sn126  1  0.079776  0.658489  0.921054  1
  Sn  Sn127  1  0.731497  0.654345  0.577554  1
  Rh  Rh128  1  0.500248  0.750248  0.500496  1
  Rh  Rh129  1  0.249828  0.499655  0.499828  1
  Rh  Rh130  1  0.499655  0.499828  0.249828  1
  Rh  Rh131  1  0.750248  0.500496  0.500248  1
  Rh  Rh132  1  0.000345  0.250172  0.000172  1
  Rh  Rh133  1  0.500000  0.000000  0.750000  1
  Rh  Rh134  1  0.250000  0.750248  0.749752  1
  Rh  Rh135  1  0.749752  0.999752  0.999504  1
  Rh  Rh136  1  0.000172  0.499828  0.750000  1
  Rh  Rh137  1  0.250000  0.250000  0.250000  1
  Rh  Rh138  1  0.250000  0.500000  0.000000  1
  Rh  Rh139  1  0.749752  0.250000  0.750248  1
  Rh  Rh140  1  0.999752  0.999504  0.749752  1
  Rh  Rh141  1  0.500000  0.000000  0.250000  1
  Rh  Rh142  1  0.000172  0.000345  0.250172  1
  Rh  Rh143  1  0.000000  0.250000  0.500000  1
  Rh  Rh144  1  0.250172  0.000172  0.000345  1
  Rh  Rh145  1  0.499828  0.750000  0.000172  1
  Rh  Rh146  1  0.750000  0.249828  0.250172  1
  Rh  Rh147  1  0.499828  0.249828  0.499655  1
  Rh  Rh148  1  0.750248  0.749752  0.250000  1
  Rh  Rh149  1  0.500248  0.250000  0.999752  1
  Rh  Rh150  1  0.750000  0.750000  0.750000  1
  Rh  Rh151  1  0.500496  0.500248  0.750248  1
  Rh  Rh152  1  0.000000  0.750000  0.500000  1
  Rh  Rh153  1  0.250172  0.750000  0.249828  1
  Rh  Rh154  1  0.250000  0.999752  0.500248  1
  Rh  Rh155  1  0.750000  0.000172  0.499828  1
  Rh  Rh156  1  0.999504  0.749752  0.999752  1
  Rh  Rh157  1  0.750000  0.500000  0.000000  1
  Rh  Rh158  1  0.999752  0.500248  0.250000  1
  Rh  Rh159  1  0.249828  0.250172  0.750000  1
