# generated using pymatgen
data_Sr9LaTi10O30
_symmetry_space_group_name_H-M   'P 1'
_cell_length_a   11.16485054
_cell_length_b   27.91758899
_cell_length_c   12.49695832
_cell_angle_alpha   26.54078192
_cell_angle_beta   132.21668446
_cell_angle_gamma   120.08510036
_symmetry_Int_Tables_number   1
_chemical_formula_structural   Sr9LaTi10O30
_chemical_formula_sum   'Sr18 La2 Ti20 O60'
_cell_volume   1228.98989744
_cell_formula_units_Z   2
loop_
 _symmetry_equiv_pos_site_id
 _symmetry_equiv_pos_as_xyz
  1  'x, y, z'
loop_
 _atom_site_type_symbol
 _atom_site_label
 _atom_site_symmetry_multiplicity
 _atom_site_fract_x
 _atom_site_fract_y
 _atom_site_fract_z
 _atom_site_occupancy
  Sr  Sr0  1  0.249942  0.950216  0.749351  1
  Sr  Sr1  1  0.249842  0.750113  0.749210  1
  Sr  Sr2  1  0.250158  0.849887  0.250790  1
  Sr  Sr3  1  0.250304  0.550005  0.750014  1
  Sr  Sr4  1  0.750003  0.950086  0.750101  1
  Sr  Sr5  1  0.249825  0.350002  0.750226  1
  Sr  Sr6  1  0.250058  0.649784  0.250649  1
  Sr  Sr7  1  0.749938  0.749832  0.750646  1
  Sr  Sr8  1  0.250079  0.149742  0.750770  1
  Sr  Sr9  1  0.249921  0.450258  0.249230  1
  Sr  Sr10  1  0.750062  0.850168  0.249354  1
  Sr  Sr11  1  0.250175  0.249998  0.249774  1
  Sr  Sr12  1  0.750062  0.350314  0.749163  1
  Sr  Sr13  1  0.749997  0.649914  0.249899  1
  Sr  Sr14  1  0.249696  0.049995  0.249986  1
  Sr  Sr15  1  0.750010  0.450324  0.249523  1
  Sr  Sr16  1  0.749990  0.149676  0.750477  1
  Sr  Sr17  1  0.749938  0.249686  0.250837  1
  La  La18  1  0.749992  0.550021  0.749974  1
  La  La19  1  0.750008  0.049979  0.250026  1
  Ti  Ti20  1  0.001384  0.700792  0.499256  1
  Ti  Ti21  1  0.000044  0.798866  0.002204  1
  Ti  Ti22  1  0.498616  0.899208  0.500744  1
  Ti  Ti23  1  0.000992  0.599739  0.002077  1
  Ti  Ti24  1  0.498961  0.700230  0.499830  1
  Ti  Ti25  1  0.000337  0.399735  -0.000230  1
  Ti  Ti26  1  0.499765  0.499921  0.499027  1
  Ti  Ti27  1  0.499956  0.801134  0.997796  1
  Ti  Ti28  1  0.001039  0.899770  0.500170  1
  Ti  Ti29  1  0.001743  0.200402  0.000155  1
  Ti  Ti30  1  0.500778  0.599671  0.001094  1
  Ti  Ti31  1  0.499293  0.300846  0.497825  1
  Ti  Ti32  1  0.999222  0.000329  0.998906  1
  Ti  Ti33  1  0.500994  0.099861  0.500885  1
  Ti  Ti34  1  0.498257  0.399598  -0.000155  1
  Ti  Ti35  1  0.999006  0.500139  0.499115  1
  Ti  Ti36  1  0.499663  0.200265  0.000230  1
  Ti  Ti37  1  0.000707  0.299154  0.502175  1
  Ti  Ti38  1  0.499008  0.000261  0.997923  1
  Ti  Ti39  1  0.000235  0.100079  0.500973  1
  O  O40  1  0.995550  0.853498  0.741195  1
  O  O41  1  0.995596  0.648269  0.749938  1
  O  O42  1  0.250054  0.841536  0.764541  1
  O  O43  1  0.486578  0.952370  0.737272  1
  O  O44  1  0.013499  0.847017  0.264247  1
  O  O45  1  0.000148  0.450202  0.750065  1
  O  O46  1  0.250495  0.958279  0.236444  1
  O  O47  1  0.249505  0.641721  0.763556  1
  O  O48  1  0.500142  0.849924  0.750245  1
  O  O49  1  0.486501  0.752983  0.735753  1
  O  O50  1  0.013422  0.647630  0.262728  1
  O  O51  1  0.999222  0.250180  0.749165  1
  O  O52  1  0.249946  0.758464  0.235459  1
  O  O53  1  0.250375  0.442046  0.763332  1
  O  O54  1  0.500195  0.649928  0.749945  1
  O  O55  1  0.504404  0.951731  0.250062  1
  O  O56  1  0.750005  0.844742  0.756355  1
  O  O57  1  0.489807  0.552780  0.736272  1
  O  O58  1  0.981106  0.954841  0.725880  1
  O  O59  1  0.010350  0.448661  0.256814  1
  O  O60  1  0.514285  0.847168  0.264281  1
  O  O61  1  0.995587  0.353495  0.241185  1
  O  O62  1  -0.000082  0.049729  0.750130  1
  O  O63  1  0.250086  0.558244  0.236235  1
  O  O64  1  0.250117  0.241940  0.763181  1
  O  O65  1  0.504450  0.746502  0.258805  1
  O  O66  1  0.504318  0.451736  0.749945  1
  O  O67  1  0.749999  0.960345  0.236320  1
  O  O68  1  0.750001  0.639655  0.763680  1
  O  O69  1  0.486849  0.352645  0.736872  1
  O  O70  1  0.985715  0.752832  0.735719  1
  O  O71  1  0.013151  0.247355  0.263128  1
  O  O72  1  0.518894  0.645159  0.274120  1
  O  O73  1  0.249883  0.358060  0.236819  1
  O  O74  1  0.249914  0.041756  0.763765  1
  O  O75  1  0.504413  0.246505  0.758815  1
  O  O76  1  0.500082  0.550271  0.249870  1
  O  O77  1  0.749995  0.755258  0.243645  1
  O  O78  1  0.749988  0.443203  0.763741  1
  O  O79  1  -0.000195  0.950072  0.250055  1
  O  O80  1  0.489650  0.151339  0.743186  1
  O  O81  1  0.980956  0.552761  0.736127  1
  O  O82  1  0.010193  0.047220  0.263728  1
  O  O83  1  0.513719  0.446869  0.264605  1
  O  O84  1  0.249625  0.157954  0.236668  1
  O  O85  1  0.500778  0.349820  0.250835  1
  O  O86  1  0.500362  0.049986  0.750547  1
  O  O87  1  0.749989  0.558039  0.236585  1
  O  O88  1  0.749977  0.237471  0.774449  1
  O  O89  1  -0.000142  0.750076  0.249755  1
  O  O90  1  0.986338  0.352365  0.737220  1
  O  O91  1  0.513662  0.247635  0.262780  1
  O  O92  1  0.499852  0.149798  0.249935  1
  O  O93  1  0.750023  0.362529  0.225551  1
  O  O94  1  0.750011  0.041961  0.763415  1
  O  O95  1  0.999638  0.550014  0.249453  1
  O  O96  1  0.986281  0.153131  0.735395  1
  O  O97  1  0.519044  0.047239  0.263873  1
  O  O98  1  0.750012  0.156797  0.236259  1
  O  O99  1  0.995682  0.148264  0.250055  1
