# generated using pymatgen
data_Rb3Tm(SO4)3
_symmetry_space_group_name_H-M   'P 1'
_cell_length_a   9.55430445
_cell_length_b   9.55430402
_cell_length_c   9.54729493
_cell_angle_alpha   110.13622070
_cell_angle_beta   110.13621997
_cell_angle_gamma   108.38496455
_symmetry_Int_Tables_number   1
_chemical_formula_structural   Rb3Tm(SO4)3
_chemical_formula_sum   'Rb6 Tm2 S6 O24'
_cell_volume   668.71705868
_cell_formula_units_Z   2
loop_
 _symmetry_equiv_pos_site_id
 _symmetry_equiv_pos_as_xyz
  1  'x, y, z'
loop_
 _atom_site_type_symbol
 _atom_site_label
 _atom_site_symmetry_multiplicity
 _atom_site_fract_x
 _atom_site_fract_y
 _atom_site_fract_z
 _atom_site_occupancy
  Rb  Rb0  1  0.450437  0.963202  0.148410  1
  Rb  Rb1  1  0.305733  0.332646  0.877855  1
  Rb  Rb2  1  0.787700  0.675507  0.957969  1
  Rb  Rb3  1  0.332646  0.305733  0.377855  1
  Rb  Rb4  1  0.963202  0.450437  0.648410  1
  Rb  Rb5  1  0.675507  0.787700  0.457969  1
  Tm  Tm6  1  0.848020  0.165504  0.996877  1
  Tm  Tm7  1  0.165504  0.848020  0.496877  1
  S  S8  1  0.495614  0.789654  0.699063  1
  S  S9  1  0.789654  0.495614  0.199063  1
  S  S10  1  0.522874  0.139509  0.645996  1
  S  S11  1  0.071394  0.956873  0.854225  1
  S  S12  1  0.956873  0.071394  0.354225  1
  S  S13  1  0.139509  0.522874  0.145996  1
  O  O14  1  0.004458  0.932180  0.349099  1
  O  O15  1  0.347506  0.640710  0.893568  1
  O  O16  1  0.932180  0.004458  0.849099  1
  O  O17  1  0.236961  0.099170  0.006382  1
  O  O18  1  0.586596  0.310654  0.667052  1
  O  O19  1  0.099170  0.236961  0.506382  1
  O  O20  1  0.742445  0.306924  0.130313  1
  O  O21  1  0.634294  0.512873  0.176159  1
  O  O22  1  0.406770  0.110235  0.720127  1
  O  O23  1  0.996965  0.409802  0.959826  1
  O  O24  1  0.932749  0.072965  0.189842  1
  O  O25  1  0.110235  0.406770  0.220127  1
  O  O26  1  0.597834  0.923492  0.892854  1
  O  O27  1  0.026451  0.795500  0.856410  1
  O  O28  1  0.310654  0.586596  0.167052  1
  O  O29  1  0.795500  0.026451  0.356410  1
  O  O30  1  0.409802  0.996965  0.459826  1
  O  O31  1  0.072965  0.932749  0.689842  1
  O  O32  1  0.306924  0.742445  0.630313  1
  O  O33  1  0.117279  0.671319  0.232776  1
  O  O34  1  0.923492  0.597834  0.392854  1
  O  O35  1  0.671319  0.117279  0.732776  1
  O  O36  1  0.512873  0.634294  0.676159  1
  O  O37  1  0.640710  0.347506  0.393568  1
