# generated using pymatgen
data_PC2S2N3
_symmetry_space_group_name_H-M   'P 1'
_cell_length_a   8.14895676
_cell_length_b   8.21492152
_cell_length_c   10.05533496
_cell_angle_alpha   99.50779987
_cell_angle_beta   103.97658423
_cell_angle_gamma   95.26953103
_symmetry_Int_Tables_number   1
_chemical_formula_structural   PC2S2N3
_chemical_formula_sum   'P4 C8 S8 N12'
_cell_volume   638.10100331
_cell_formula_units_Z   4
loop_
 _symmetry_equiv_pos_site_id
 _symmetry_equiv_pos_as_xyz
  1  'x, y, z'
loop_
 _atom_site_type_symbol
 _atom_site_label
 _atom_site_symmetry_multiplicity
 _atom_site_fract_x
 _atom_site_fract_y
 _atom_site_fract_z
 _atom_site_occupancy
  P  P0  1  0.062186  0.261005  0.428278  1
  P  P1  1  0.064952  0.463775  0.702545  1
  P  P2  1  0.935048  0.536225  0.297455  1
  P  P3  1  0.937814  0.738995  0.571722  1
  C  C4  1  0.796640  0.017836  0.275292  1
  C  C5  1  0.203360  0.982164  0.724708  1
  C  C6  1  0.578377  0.438255  0.191570  1
  C  C7  1  0.061931  0.717267  0.128423  1
  C  C8  1  0.401964  0.222689  0.471820  1
  C  C9  1  0.938069  0.282733  0.871577  1
  C  C10  1  0.421623  0.561745  0.808430  1
  C  C11  1  0.598036  0.777311  0.528180  1
  S  S12  1  0.851404  0.144021  0.930688  1
  S  S13  1  0.148596  0.855979  0.069312  1
  S  S14  1  0.399199  0.750416  0.476608  1
  S  S15  1  0.600801  0.249584  0.523392  1
  S  S16  1  0.372336  0.079173  0.827622  1
  S  S17  1  0.379294  0.402570  0.147317  1
  S  S18  1  0.627664  0.920827  0.172378  1
  S  S19  1  0.620706  0.597430  0.852683  1
  N  N20  1  0.732408  0.460731  0.224597  1
  N  N21  1  0.040805  0.388941  0.326689  1
  N  N22  1  0.955178  0.692054  0.417640  1
  N  N23  1  0.247870  0.192712  0.428549  1
  N  N24  1  0.990743  0.603425  0.165925  1
  N  N25  1  0.044822  0.307946  0.582360  1
  N  N26  1  0.930031  0.085594  0.356254  1
  N  N27  1  0.069969  0.914406  0.643746  1
  N  N28  1  0.752130  0.807288  0.571451  1
  N  N29  1  0.959195  0.611059  0.673311  1
  N  N30  1  0.267592  0.539269  0.775403  1
  N  N31  1  0.009257  0.396575  0.834075  1
