# generated using pymatgen
data_Fe4Ge(CO)16
_symmetry_space_group_name_H-M   'P 1'
_cell_length_a   9.56153742
_cell_length_b   11.89549683
_cell_length_c   20.76239604
_cell_angle_alpha   90.00000000
_cell_angle_beta   98.68567176
_cell_angle_gamma   90.00000000
_symmetry_Int_Tables_number   1
_chemical_formula_structural   Fe4Ge(CO)16
_chemical_formula_sum   'Fe16 Ge4 C64 O64'
_cell_volume   2334.41668351
_cell_formula_units_Z   4
loop_
 _symmetry_equiv_pos_site_id
 _symmetry_equiv_pos_as_xyz
  1  'x, y, z'
loop_
 _atom_site_type_symbol
 _atom_site_label
 _atom_site_symmetry_multiplicity
 _atom_site_fract_x
 _atom_site_fract_y
 _atom_site_fract_z
 _atom_site_occupancy
  Fe  Fe0  1  0.777203  0.119824  0.303458  1
  Fe  Fe1  1  0.468628  0.265937  0.419881  1
  Fe  Fe2  1  0.730240  0.275743  0.004930  1
  Fe  Fe3  1  0.222797  0.619824  0.196542  1
  Fe  Fe4  1  0.269760  0.724257  0.995070  1
  Fe  Fe5  1  0.819783  0.141528  0.815440  1
  Fe  Fe6  1  0.730240  0.224257  0.504930  1
  Fe  Fe7  1  0.531372  0.765937  0.080119  1
  Fe  Fe8  1  0.531372  0.734063  0.580119  1
  Fe  Fe9  1  0.819783  0.358472  0.315440  1
  Fe  Fe10  1  0.180217  0.641528  0.684560  1
  Fe  Fe11  1  0.269760  0.775743  0.495070  1
  Fe  Fe12  1  0.468628  0.234063  0.919881  1
  Fe  Fe13  1  0.777203  0.380176  0.803458  1
  Fe  Fe14  1  0.222797  0.880176  0.696542  1
  Fe  Fe15  1  0.180217  0.858472  0.184560  1
  Ge  Ge16  1  0.298145  0.740830  0.112913  1
  Ge  Ge17  1  0.701855  0.240830  0.387087  1
  Ge  Ge18  1  0.298145  0.759170  0.612913  1
  Ge  Ge19  1  0.701855  0.259170  0.887087  1
  C  C20  1  0.340103  0.295617  0.351246  1
  C  C21  1  0.555855  0.618791  0.102073  1
  C  C22  1  0.374340  0.267815  0.489487  1
  C  C23  1  0.358479  0.874399  0.226741  1
  C  C24  1  0.625660  0.732185  0.510513  1
  C  C25  1  0.907280  0.355411  0.244616  1
  C  C26  1  0.444145  0.381209  0.897927  1
  C  C27  1  0.341490  0.767450  0.420127  1
  C  C28  1  0.594528  0.361599  0.765726  1
  C  C29  1  0.222653  0.871510  0.995778  1
  C  C30  1  0.951920  0.110120  0.351790  1
  C  C31  1  0.092720  0.855411  0.255384  1
  C  C32  1  0.258688  0.018233  0.668788  1
  C  C33  1  0.222653  0.628490  0.495778  1
  C  C34  1  0.659897  0.795617  0.148754  1
  C  C35  1  0.836467  0.100639  0.226283  1
  C  C36  1  0.029882  0.841382  0.120860  1
  C  C37  1  0.815986  0.997251  0.839246  1
  C  C38  1  0.184014  0.002749  0.160754  1
  C  C39  1  0.689069  0.077557  0.490114  1
  C  C40  1  0.358479  0.625601  0.726741  1
  C  C41  1  0.741312  0.981767  0.331212  1
  C  C42  1  0.511704  0.414270  0.422127  1
  C  C43  1  0.310931  0.577557  0.009886  1
  C  C44  1  0.374340  0.232185  0.989487  1
  C  C45  1  0.641521  0.374399  0.273259  1
  C  C46  1  0.089648  0.685606  0.972906  1
  C  C47  1  0.741312  0.518233  0.831212  1
  C  C48  1  0.910352  0.185606  0.527094  1
  C  C49  1  0.777347  0.128490  0.004222  1
  C  C50  1  0.405472  0.638401  0.234274  1
  C  C51  1  0.488296  0.914270  0.077873  1
  C  C52  1  0.511704  0.085730  0.922127  1
  C  C53  1  0.970118  0.341382  0.379140  1
  C  C54  1  0.659897  0.704383  0.648754  1
  C  C55  1  0.029882  0.658618  0.620860  1
  C  C56  1  0.658510  0.232550  0.579873  1
  C  C57  1  0.258688  0.481767  0.168788  1
  C  C58  1  0.777347  0.371510  0.504222  1
  C  C59  1  0.048080  0.889880  0.648210  1
  C  C60  1  0.184014  0.497251  0.660754  1
  C  C61  1  0.970118  0.158618  0.879140  1
  C  C62  1  0.048080  0.610120  0.148210  1
  C  C63  1  0.341490  0.732550  0.920127  1
  C  C64  1  0.836467  0.399361  0.726283  1
  C  C65  1  0.658510  0.267450  0.079873  1
  C  C66  1  0.555855  0.881209  0.602073  1
  C  C67  1  0.907280  0.144589  0.744616  1
  C  C68  1  0.641521  0.125601  0.773259  1
  C  C69  1  0.310931  0.922443  0.509886  1
  C  C70  1  0.405472  0.861599  0.734274  1
  C  C71  1  0.910352  0.314394  0.027094  1
  C  C72  1  0.444145  0.118791  0.397927  1
  C  C73  1  0.951920  0.389880  0.851790  1
  C  C74  1  0.340103  0.204383  0.851246  1
  C  C75  1  0.625660  0.767815  0.010513  1
  C  C76  1  0.488296  0.585730  0.577873  1
  C  C77  1  0.689069  0.422443  0.990114  1
  C  C78  1  0.163533  0.899361  0.773717  1
  C  C79  1  0.163533  0.600639  0.273717  1
  C  C80  1  0.815986  0.502749  0.339246  1
  C  C81  1  0.089648  0.814394  0.472906  1
  C  C82  1  0.092720  0.644589  0.755384  1
  C  C83  1  0.594528  0.138401  0.265726  1
  O  O84  1  0.419077  0.027411  0.380012  1
  O  O85  1  0.063042  0.404790  0.881857  1
  O  O86  1  0.961778  0.356564  0.198374  1
  O  O87  1  0.936958  0.595210  0.118143  1
  O  O88  1  0.472187  0.011089  0.079717  1
  O  O89  1  0.185715  0.535468  0.493768  1
  O  O90  1  0.038222  0.643436  0.801626  1
  O  O91  1  0.688650  0.771513  0.967370  1
  O  O92  1  0.688650  0.728487  0.467370  1
  O  O93  1  0.527813  0.511089  0.420283  1
  O  O94  1  0.814285  0.464532  0.506232  1
  O  O95  1  0.616585  0.237882  0.629216  1
  O  O96  1  0.383415  0.737882  0.870784  1
  O  O97  1  0.472669  0.607513  0.752434  1
  O  O98  1  0.129523  0.916187  0.824181  1
  O  O99  1  0.522100  0.856367  0.759502  1
  O  O100  1  0.129523  0.583813  0.324181  1
  O  O101  1  0.527813  0.988911  0.920283  1
  O  O102  1  0.815933  0.596498  0.354392  1
  O  O103  1  0.815933  0.903502  0.854392  1
  O  O104  1  0.472669  0.892487  0.252434  1
  O  O105  1  0.723903  0.608727  0.848754  1
  O  O106  1  0.616585  0.262118  0.129216  1
  O  O107  1  0.026298  0.156353  0.542031  1
  O  O108  1  0.477900  0.356367  0.740498  1
  O  O109  1  0.253817  0.315234  0.306985  1
  O  O110  1  0.527331  0.107513  0.747566  1
  O  O111  1  0.472187  0.488911  0.579717  1
  O  O112  1  0.870477  0.416187  0.675819  1
  O  O113  1  0.746183  0.815234  0.193015  1
  O  O114  1  0.934806  0.662100  0.578880  1
  O  O115  1  0.065194  0.337900  0.421120  1
  O  O116  1  0.934806  0.837900  0.078880  1
  O  O117  1  0.814285  0.035468  0.006232  1
  O  O118  1  0.580923  0.972589  0.619988  1
  O  O119  1  0.063042  0.095210  0.381857  1
  O  O120  1  0.522100  0.643633  0.259502  1
  O  O121  1  0.580923  0.527411  0.119988  1
  O  O122  1  0.184067  0.403502  0.645608  1
  O  O123  1  0.328321  0.481565  0.017038  1
  O  O124  1  0.477900  0.143633  0.240498  1
  O  O125  1  0.419077  0.472589  0.880012  1
  O  O126  1  0.311350  0.228487  0.032630  1
  O  O127  1  0.936958  0.904790  0.618143  1
  O  O128  1  0.527331  0.392487  0.247566  1
  O  O129  1  0.328321  0.018435  0.517038  1
  O  O130  1  0.870477  0.083813  0.175819  1
  O  O131  1  0.184067  0.096498  0.145608  1
  O  O132  1  0.973702  0.656353  0.957969  1
  O  O133  1  0.065194  0.162100  0.921120  1
  O  O134  1  0.185715  0.964532  0.993768  1
  O  O135  1  0.038222  0.856564  0.301626  1
  O  O136  1  0.671679  0.981565  0.482962  1
  O  O137  1  0.311350  0.271513  0.532630  1
  O  O138  1  0.383415  0.762118  0.370784  1
  O  O139  1  0.746183  0.684766  0.693015  1
  O  O140  1  0.276097  0.108727  0.651246  1
  O  O141  1  0.026298  0.343647  0.042031  1
  O  O142  1  0.961778  0.143436  0.698374  1
  O  O143  1  0.276097  0.391273  0.151246  1
  O  O144  1  0.671679  0.518435  0.982962  1
  O  O145  1  0.723903  0.891273  0.348754  1
  O  O146  1  0.253817  0.184766  0.806985  1
  O  O147  1  0.973702  0.843647  0.457969  1
