# generated using pymatgen
data_NaH6RuN(ClO)4
_symmetry_space_group_name_H-M   'P 1'
_cell_length_a   8.32480555
_cell_length_b   15.32111806
_cell_length_c   12.03623489
_cell_angle_alpha   90.00000000
_cell_angle_beta   81.44420778
_cell_angle_gamma   90.00000000
_symmetry_Int_Tables_number   1
_chemical_formula_structural   NaH6RuN(ClO)4
_chemical_formula_sum   'Na4 H24 Ru4 N4 Cl16 O16'
_cell_volume   1518.08138987
_cell_formula_units_Z   4
loop_
 _symmetry_equiv_pos_site_id
 _symmetry_equiv_pos_as_xyz
  1  'x, y, z'
loop_
 _atom_site_type_symbol
 _atom_site_label
 _atom_site_symmetry_multiplicity
 _atom_site_fract_x
 _atom_site_fract_y
 _atom_site_fract_z
 _atom_site_occupancy
  Na  Na0  1  0.709942  0.398271  0.384833  1
  Na  Na1  1  0.209942  0.101729  0.884833  1
  Na  Na2  1  0.290058  0.601729  0.615167  1
  Na  Na3  1  0.790058  0.898271  0.115167  1
  H  H4  1  0.011979  0.189019  0.219830  1
  H  H5  1  0.511979  0.310981  0.719830  1
  H  H6  1  0.988021  0.810981  0.780170  1
  H  H7  1  0.488021  0.689019  0.280170  1
  H  H8  1  0.368069  0.800488  0.402778  1
  H  H9  1  0.868069  0.699512  0.902778  1
  H  H10  1  0.631931  0.199512  0.597222  1
  H  H11  1  0.131931  0.300488  0.097222  1
  H  H12  1  0.458682  0.796360  0.395994  1
  H  H13  1  0.958682  0.703640  0.895994  1
  H  H14  1  0.541318  0.203640  0.604006  1
  H  H15  1  0.041318  0.296360  0.104006  1
  H  H16  1  0.170912  0.534537  0.293252  1
  H  H17  1  0.670912  0.965463  0.793252  1
  H  H18  1  0.829088  0.465463  0.706748  1
  H  H19  1  0.329088  0.034537  0.206748  1
  H  H20  1  0.933184  0.753834  0.284207  1
  H  H21  1  0.433184  0.746166  0.784207  1
  H  H22  1  0.066816  0.246166  0.715793  1
  H  H23  1  0.566816  0.253834  0.215793  1
  H  H24  1  0.542359  -0.000921  0.483890  1
  H  H25  1  0.042359  0.500921  0.983890  1
  H  H26  1  0.457641  0.000921  0.516110  1
  H  H27  1  0.957641  0.499079  0.016110  1
  Ru  Ru28  1  0.448139  0.613524  0.201032  1
  Ru  Ru29  1  0.948139  0.886476  0.701032  1
  Ru  Ru30  1  0.551861  0.386476  0.798968  1
  Ru  Ru31  1  0.051861  0.113524  0.298968  1
  N  N32  1  0.620461  0.531066  0.197052  1
  N  N33  1  0.120461  0.968934  0.697052  1
  N  N34  1  0.379539  0.468934  0.802948  1
  N  N35  1  0.879539  0.031066  0.302948  1
  Cl  Cl36  1  0.342286  0.562570  0.392021  1
  Cl  Cl37  1  0.842286  0.937430  0.892021  1
  Cl  Cl38  1  0.657714  0.437430  0.607979  1
  Cl  Cl39  1  0.157714  0.062570  0.107979  1
  Cl  Cl40  1  0.830943  0.734882  0.217196  1
  Cl  Cl41  1  0.330943  0.765118  0.717196  1
  Cl  Cl42  1  0.169057  0.265118  0.782804  1
  Cl  Cl43  1  0.669057  0.234882  0.282804  1
  Cl  Cl44  1  0.532422  0.703170  0.050846  1
  Cl  Cl45  1  0.032422  0.796830  0.550846  1
  Cl  Cl46  1  0.467578  0.296830  0.949154  1
  Cl  Cl47  1  -0.032422  0.203170  0.449154  1
  Cl  Cl48  1  0.145376  0.540752  0.187092  1
  Cl  Cl49  1  0.645376  0.959248  0.687092  1
  Cl  Cl50  1  0.854624  0.459248  0.812908  1
  Cl  Cl51  1  0.354624  0.040752  0.312908  1
  O  O52  1  0.366879  0.350417  0.415168  1
  O  O53  1  0.866879  0.149583  0.915168  1
  O  O54  1  0.633121  0.649583  0.584832  1
  O  O55  1  0.133121  0.850417  0.084832  1
  O  O56  1  0.628383  0.486821  0.108841  1
  O  O57  1  0.128383  0.013179  0.608841  1
  O  O58  1  0.371617  0.513179  0.891159  1
  O  O59  1  0.871617  0.986821  0.391159  1
  O  O60  1  0.235009  0.374308  0.468327  1
  O  O61  1  0.735009  0.125692  0.968327  1
  O  O62  1  0.764991  0.625692  0.531673  1
  O  O63  1  0.264991  0.874308  0.031673  1
  O  O64  1  0.206416  0.984939  0.772730  1
  O  O65  1  0.706416  0.515061  0.272730  1
  O  O66  1  0.793584  0.015061  0.227270  1
  O  O67  1  0.293584  0.484939  0.727270  1
