# generated using pymatgen
data_AgCNO
_symmetry_space_group_name_H-M   'P 1'
_cell_length_a   9.58151995
_cell_length_b   9.58151995
_cell_length_c   9.58151995
_cell_angle_alpha   116.03567434
_cell_angle_beta   116.03567435
_cell_angle_gamma   116.03567432
_symmetry_Int_Tables_number   1
_chemical_formula_structural   AgCNO
_chemical_formula_sum   'Ag6 C6 N6 O6'
_cell_volume   442.35366526
_cell_formula_units_Z   6
loop_
 _symmetry_equiv_pos_site_id
 _symmetry_equiv_pos_as_xyz
  1  'x, y, z'
loop_
 _atom_site_type_symbol
 _atom_site_label
 _atom_site_symmetry_multiplicity
 _atom_site_fract_x
 _atom_site_fract_y
 _atom_site_fract_z
 _atom_site_occupancy
  C  C0  1  0.962514  0.587598  0.698575  1
  C  C1  1  0.587598  0.698575  0.962514  1
  C  C2  1  0.698575  0.962514  0.587598  1
  C  C3  1  0.037486  0.412402  0.301425  1
  C  C4  1  0.412402  0.301425  0.037486  1
  C  C5  1  0.301425  0.037486  0.412402  1
  N  N6  1  0.806887  0.374294  0.504428  1
  N  N7  1  0.374294  0.504428  0.806887  1
  N  N8  1  0.495572  0.193113  0.625706  1
  N  N9  1  0.193113  0.625706  0.495572  1
  N  N10  1  0.625706  0.495572  0.193113  1
  N  N11  1  0.504428  0.806887  0.374294  1
  O  O12  1  0.697090  0.354820  0.847285  1
  O  O13  1  0.152715  0.302910  0.645180  1
  O  O14  1  0.302910  0.645180  0.152715  1
  O  O15  1  0.354820  0.847285  0.697090  1
  O  O16  1  0.847285  0.697090  0.354820  1
  O  O17  1  0.645180  0.152715  0.302910  1
  Ag  Ag18  1  0.192259  0.937014  0.850666  1
  Ag  Ag19  1  0.937014  0.850666  0.192259  1
  Ag  Ag20  1  0.850666  0.192259  0.937014  1
  Ag  Ag21  1  0.807741  0.062986  0.149334  1
  Ag  Ag22  1  0.062986  0.149334  0.807741  1
  Ag  Ag23  1  0.149334  0.807741  0.062986  1
