# generated using pymatgen
data_PbClF
_symmetry_space_group_name_H-M   'P 1'
_cell_length_a   5.05861639
_cell_length_b   5.05856094
_cell_length_c   6.27420999
_cell_angle_alpha   90.00852742
_cell_angle_beta   90.00915084
_cell_angle_gamma   90.00021412
_symmetry_Int_Tables_number   1
_chemical_formula_structural   PbClF
_chemical_formula_sum   'Pb2 Cl2 F2'
_cell_volume   160.55275911
_cell_formula_units_Z   2
loop_
 _symmetry_equiv_pos_site_id
 _symmetry_equiv_pos_as_xyz
  1  'x, y, z'
loop_
 _atom_site_type_symbol
 _atom_site_label
 _atom_site_symmetry_multiplicity
 _atom_site_fract_x
 _atom_site_fract_y
 _atom_site_fract_z
 _atom_site_occupancy
  Pb  Pb0  1  0.749955  0.749957  0.751875  1
  Pb  Pb1  1  0.250047  0.250044  0.248125  1
  Cl  Cl2  1  0.249970  0.750025  0.999997  1
  Cl  Cl3  1  0.750033  0.249976  0.000004  1
  F  F4  1  0.250130  0.250131  0.600944  1
  F  F5  1  0.749865  0.749866  0.399056  1
