# generated using pymatgen
data_K6BiH3(Cl2F)4
_symmetry_space_group_name_H-M   'P 1'
_cell_length_a   9.22720598
_cell_length_b   9.22712335
_cell_length_c   14.72524316
_cell_angle_alpha   90.00000000
_cell_angle_beta   90.00000000
_cell_angle_gamma   120.00029624
_symmetry_Int_Tables_number   1
_chemical_formula_structural   K6BiH3(Cl2F)4
_chemical_formula_sum   'K12 Bi2 H6 Cl16 F8'
_cell_volume   1085.74628539
_cell_formula_units_Z   2
loop_
 _symmetry_equiv_pos_site_id
 _symmetry_equiv_pos_as_xyz
  1  'x, y, z'
loop_
 _atom_site_type_symbol
 _atom_site_label
 _atom_site_symmetry_multiplicity
 _atom_site_fract_x
 _atom_site_fract_y
 _atom_site_fract_z
 _atom_site_occupancy
  K  K0  1  0.497563  0.995126  0.992286  1
  K  K1  1  0.004879  0.502440  0.992288  1
  K  K2  1  0.497560  0.502440  0.992288  1
  K  K3  1  0.502437  0.004874  0.492286  1
  K  K4  1  0.995121  0.497560  0.492288  1
  K  K5  1  0.502440  0.497560  0.492288  1
  K  K6  1  0.821247  0.642495  0.746386  1
  K  K7  1  0.357522  0.178767  0.746385  1
  K  K8  1  0.821245  0.178767  0.746385  1
  K  K9  1  0.178753  0.357505  0.246386  1
  K  K10  1  0.642478  0.821233  0.246385  1
  K  K11  1  0.178755  0.821233  0.246385  1
  Bi  Bi12  1  1.000000  1.000000  0.498510  1
  Bi  Bi13  1  0.000000  0.000000  0.998510  1
  H  H14  1  0.579703  0.159405  0.244980  1
  H  H15  1  0.840609  0.420312  0.244980  1
  H  H16  1  0.579704  0.420312  0.244980  1
  H  H17  1  0.420297  0.840595  0.744980  1
  H  H18  1  0.159391  0.579688  0.744981  1
  H  H19  1  0.420296  0.579688  0.744981  1
  Cl  Cl20  1  0.859378  0.718756  0.391205  1
  Cl  Cl21  1  0.281244  0.140618  0.391207  1
  Cl  Cl22  1  0.859374  0.140618  0.391207  1
  Cl  Cl23  1  0.140622  0.281244  0.891205  1
  Cl  Cl24  1  0.718756  0.859382  0.891207  1
  Cl  Cl25  1  0.140626  0.859382  0.891207  1
  Cl  Cl26  1  0.860603  0.721206  0.105449  1
  Cl  Cl27  1  0.278792  0.139393  0.105447  1
  Cl  Cl28  1  0.860601  0.139393  0.105447  1
  Cl  Cl29  1  0.139397  0.278794  0.605449  1
  Cl  Cl30  1  0.721208  0.860607  0.605447  1
  Cl  Cl31  1  0.139399  0.860607  0.605447  1
  Cl  Cl32  1  0.666675  0.333350  0.602309  1
  Cl  Cl33  1  0.333325  0.666650  0.102309  1
  Cl  Cl34  1  0.666675  0.333349  0.889806  1
  Cl  Cl35  1  0.333325  0.666651  0.389806  1
  F  F36  1  0.666677  0.333355  0.256002  1
  F  F37  1  0.333323  0.666645  0.756002  1
  F  F38  1  0.516795  0.033590  0.237819  1
  F  F39  1  0.966435  0.483216  0.237815  1
  F  F40  1  0.516781  0.483216  0.237815  1
  F  F41  1  0.483205  0.966410  0.737819  1
  F  F42  1  0.033565  0.516784  0.737815  1
  F  F43  1  0.483219  0.516784  0.737815  1
