# generated using pymatgen
data_Ce3Nd2O9
_symmetry_space_group_name_H-M   'P 1'
_cell_length_a   3.90021249
_cell_length_b   19.60847289
_cell_length_c   17.98946340
_cell_angle_alpha   10.84271727
_cell_angle_beta   57.21744000
_cell_angle_gamma   60.21514060
_symmetry_Int_Tables_number   1
_chemical_formula_structural   Ce3Nd2O9
_chemical_formula_sum   'Ce3 Nd2 O9'
_cell_volume   212.17644217
_cell_formula_units_Z   1
loop_
 _symmetry_equiv_pos_site_id
 _symmetry_equiv_pos_as_xyz
  1  'x, y, z'
loop_
 _atom_site_type_symbol
 _atom_site_label
 _atom_site_symmetry_multiplicity
 _atom_site_fract_x
 _atom_site_fract_y
 _atom_site_fract_z
 _atom_site_occupancy
  Ce  Ce0  1  0.991543  0.397901  0.006115  1
  Ce  Ce1  1  0.005493  0.599421  0.000017  1
  Ce  Ce2  1  0.017876  0.804200  0.990845  1
  Nd  Nd3  1  0.041495  0.020532  0.964358  1
  Nd  Nd4  1  0.961711  0.183205  0.030863  1
  O  O5  1  0.208329  0.031711  0.284181  1
  O  O6  1  0.263405  0.257555  0.238231  1
  O  O7  1  0.247607  0.441144  0.262026  1
  O  O8  1  0.296424  0.673060  0.210114  1
  O  O9  1  0.743183  0.141821  0.762184  1
  O  O10  1  0.748457  0.350173  0.749404  1
  O  O11  1  0.760612  0.562901  0.731998  1
  O  O12  1  0.733931  0.739635  0.768136  1
  O  O13  1  0.776838  0.958984  0.732420  1
