# generated using pymatgen
data_CSNOF5
_symmetry_space_group_name_H-M   'P 1'
_cell_length_a   5.16116028
_cell_length_b   9.65067616
_cell_length_c   10.60519724
_cell_angle_alpha   73.22758214
_cell_angle_beta   84.78922629
_cell_angle_gamma   84.90467427
_symmetry_Int_Tables_number   1
_chemical_formula_structural   CSNOF5
_chemical_formula_sum   'C4 S4 N4 O4 F20'
_cell_volume   502.58226331
_cell_formula_units_Z   4
loop_
 _symmetry_equiv_pos_site_id
 _symmetry_equiv_pos_as_xyz
  1  'x, y, z'
loop_
 _atom_site_type_symbol
 _atom_site_label
 _atom_site_symmetry_multiplicity
 _atom_site_fract_x
 _atom_site_fract_y
 _atom_site_fract_z
 _atom_site_occupancy
  C  C0  1  0.273929  0.604660  0.102189  1
  C  C1  1  0.763779  0.942249  0.893709  1
  C  C2  1  0.236220  0.057751  0.106291  1
  C  C3  1  0.726071  0.395340  0.897811  1
  S  S4  1  0.499057  0.088769  0.691406  1
  S  S5  1  0.994929  0.583252  0.714562  1
  S  S6  1  0.500943  0.911231  0.308594  1
  S  S7  1  0.005071  0.416748  0.285438  1
  N  N8  1  0.569413  0.018125  0.851213  1
  N  N9  1  0.063316  0.563753  0.156602  1
  N  N10  1  0.936684  0.436247  0.843398  1
  N  N11  1  0.430587  0.981875  0.148787  1
  O  O12  1  0.061826  0.129623  0.052031  1
  O  O13  1  0.938174  0.870377  0.947969  1
  O  O14  1  0.540228  0.343428  0.959199  1
  O  O15  1  0.459772  0.656572  0.040801  1
  F  F16  1  0.769772  0.022288  0.634857  1
  F  F17  1  0.815743  0.532175  0.621196  1
  F  F18  1  0.641859  0.054666  0.305699  1
  F  F19  1  0.577821  0.841132  0.458250  1
  F  F20  1  0.256120  0.321903  0.242672  1
  F  F21  1  0.361885  0.764514  0.318435  1
  F  F22  1  0.358141  0.945334  0.694301  1
  F  F23  1  0.938720  0.277481  0.407108  1
  F  F24  1  0.228028  0.157850  0.741702  1
  F  F25  1  0.743880  0.678097  0.757328  1
  F  F26  1  0.771972  0.842150  0.258298  1
  F  F27  1  0.422179  0.158868  0.541750  1
  F  F28  1  0.230228  0.977712  0.365143  1
  F  F29  1  0.061280  0.722519  0.592892  1
  F  F30  1  0.246097  0.496130  0.667276  1
  F  F31  1  0.638115  0.235486  0.681565  1
  F  F32  1  0.174421  0.641539  0.802884  1
  F  F33  1  0.825579  0.358461  0.197116  1
  F  F34  1  0.753903  0.503870  0.332724  1
  F  F35  1  0.184257  0.467825  0.378804  1
