# generated using pymatgen
data_Sm3Eu3S8
_symmetry_space_group_name_H-M   'P 1'
_cell_length_a   7.44791018
_cell_length_b   7.41044874
_cell_length_c   7.41044888
_cell_angle_alpha   109.21426165
_cell_angle_beta   109.46633141
_cell_angle_gamma   109.52820739
_symmetry_Int_Tables_number   1
_chemical_formula_structural   Sm3Eu3S8
_chemical_formula_sum   'Sm3 Eu3 S8'
_cell_volume   315.63996888
_cell_formula_units_Z   1
loop_
 _symmetry_equiv_pos_site_id
 _symmetry_equiv_pos_as_xyz
  1  'x, y, z'
loop_
 _atom_site_type_symbol
 _atom_site_label
 _atom_site_symmetry_multiplicity
 _atom_site_fract_x
 _atom_site_fract_y
 _atom_site_fract_z
 _atom_site_occupancy
  Eu  Eu0  1  0.750000  0.875973  0.125973  1
  Eu  Eu1  1  0.625021  0.374417  0.248220  1
  Eu  Eu2  1  0.874979  0.123199  0.749396  1
  Sm  Sm3  1  0.125292  0.751288  0.874989  1
  Sm  Sm4  1  0.250000  0.623195  0.373195  1
  Sm  Sm5  1  0.374708  0.249696  0.625996  1
  S  S6  1  0.489088  0.994401  0.843453  1
  S  S7  1  0.150621  0.149332  0.154220  1
  S  S8  1  0.349379  0.503599  0.998711  1
  S  S9  1  0.641274  0.638915  0.643139  1
  S  S10  1  0.487674  0.994583  0.352844  1
  S  S11  1  0.010912  0.854365  0.505313  1
  S  S12  1  0.858726  0.501866  0.997641  1
  S  S13  1  0.012326  0.365170  0.506909  1
