# generated using pymatgen
data_AlBiTeCl4
_symmetry_space_group_name_H-M   'P 1'
_cell_length_a   10.65814552
_cell_length_b   10.65818151
_cell_length_c   10.65827189
_cell_angle_alpha   107.62962073
_cell_angle_beta   107.62936324
_cell_angle_gamma   113.22094307
_symmetry_Int_Tables_number   1
_chemical_formula_structural   AlBiTeCl4
_chemical_formula_sum   'Al4 Bi4 Te4 Cl16'
_cell_volume   929.01553264
_cell_formula_units_Z   4
loop_
 _symmetry_equiv_pos_site_id
 _symmetry_equiv_pos_as_xyz
  1  'x, y, z'
loop_
 _atom_site_type_symbol
 _atom_site_label
 _atom_site_symmetry_multiplicity
 _atom_site_fract_x
 _atom_site_fract_y
 _atom_site_fract_z
 _atom_site_occupancy
  Al  Al0  1  0.011016  0.283786  0.873702  1
  Al  Al1  1  0.716219  0.589930  0.727235  1
  Al  Al2  1  0.862700  0.988986  0.272774  1
  Al  Al3  1  0.410074  0.137303  0.126295  1
  Bi  Bi4  1  0.536689  0.931008  0.718631  1
  Bi  Bi5  1  0.068995  0.787626  0.605680  1
  Bi  Bi6  1  0.181947  0.463318  0.394323  1
  Bi  Bi7  1  0.212376  0.818059  0.281371  1
  Te  Te8  1  0.269606  0.668647  0.709733  1
  Te  Te9  1  0.440128  0.730395  0.399043  1
  Te  Te10  1  0.958914  0.559876  0.290269  1
  Te  Te11  1  0.331353  0.041087  0.600958  1
  Cl  Cl12  1  0.184175  0.925424  0.964327  1
  Cl  Cl13  1  0.961102  0.219856  0.035673  1
  Cl  Cl14  1  0.464410  0.442756  0.613404  1
  Cl  Cl15  1  0.074560  0.038875  0.258718  1
  Cl  Cl16  1  0.911440  0.219792  0.406538  1
  Cl  Cl17  1  0.148979  0.535587  0.978332  1
  Cl  Cl18  1  0.131350  0.192670  0.789171  1
  Cl  Cl19  1  0.807345  0.596518  0.938682  1
  Cl  Cl20  1  0.557247  0.170645  0.021658  1
  Cl  Cl21  1  0.780198  0.186729  0.691641  1
  Cl  Cl22  1  0.829353  0.851015  0.386609  1
  Cl  Cl23  1  0.657828  0.868654  0.061325  1
  Cl  Cl24  1  0.495109  0.088559  0.308354  1
  Cl  Cl25  1  0.813241  0.504894  0.593453  1
  Cl  Cl26  1  0.780155  0.815834  0.741267  1
  Cl  Cl27  1  0.403492  0.342172  0.210831  1
