# generated using pymatgen
data_RbNa10Al11Si13O48
_symmetry_space_group_name_H-M   'P 1'
_cell_length_a   12.74578369
_cell_length_b   12.26570402
_cell_length_c   12.22004053
_cell_angle_alpha   90.02856619
_cell_angle_beta   89.49384555
_cell_angle_gamma   90.09085267
_symmetry_Int_Tables_number   1
_chemical_formula_structural   RbNa10Al11Si13O48
_chemical_formula_sum   'Rb1 Na10 Al11 Si13 O48'
_cell_volume   1910.35520977
_cell_formula_units_Z   1
loop_
 _symmetry_equiv_pos_site_id
 _symmetry_equiv_pos_as_xyz
  1  'x, y, z'
loop_
 _atom_site_type_symbol
 _atom_site_label
 _atom_site_symmetry_multiplicity
 _atom_site_fract_x
 _atom_site_fract_y
 _atom_site_fract_z
 _atom_site_occupancy
  Rb  Rb0  1  0.525178  0.494306  0.017150  1
  Na  Na1  1  0.202679  0.209089  0.190158  1
  Na  Na2  1  0.206888  0.196826  0.805325  1
  Na  Na3  1  0.202034  0.792145  0.189004  1
  Na  Na4  1  0.205443  0.805020  0.805123  1
  Na  Na5  1  0.804413  0.497748  0.807379  1
  Na  Na6  1  0.787630  0.816246  0.498480  1
  Na  Na7  1  0.777086  0.190424  0.195416  1
  Na  Na8  1  0.785740  0.173911  0.809729  1
  Na  Na9  1  0.781617  0.820089  0.179465  1
  Na  Na10  1  0.789878  0.831064  0.822581  1
  Al  Al11  1  0.180643  -0.000037  0.629118  1
  Al  Al12  1  0.181541  0.373829  0.995199  1
  Al  Al13  1  0.181615  0.624768  0.994631  1
  Al  Al14  1  0.613411  0.999788  0.193104  1
  Al  Al15  1  0.613322  0.192149  0.003346  1
  Al  Al16  1  0.617417  0.999110  0.812108  1
  Al  Al17  1  0.610683  0.805263  0.002226  1
  Al  Al18  1  0.828791  0.003585  0.360465  1
  Al  Al19  1  0.833652  0.002584  0.637250  1
  Al  Al20  1  0.824796  0.360952  0.004790  1
  Al  Al21  1  0.826498  0.637213  0.004293  1
  Si  Si22  1  0.004571  0.185287  0.365728  1
  Si  Si23  1  0.999661  0.370404  0.186388  1
  Si  Si24  1  0.007790  0.188336  0.628737  1
  Si  Si25  1  0.000619  0.627841  0.185908  1
  Si  Si26  1  0.999675  0.366281  0.811493  1
  Si  Si27  1  0.002121  0.813854  0.364816  1
  Si  Si28  1  0.000190  0.630428  0.810578  1
  Si  Si29  1  0.003852  0.809485  0.628555  1
  Si  Si30  1  0.176732  -0.000002  0.365490  1
  Si  Si31  1  0.371579  0.998997  0.188066  1
  Si  Si32  1  0.369412  0.182915  0.000832  1
  Si  Si33  1  0.375848  0.998695  0.812289  1
  Si  Si34  1  0.370228  0.814043  0.000721  1
  O  O35  1  0.017947  0.301446  0.301311  1
  O  O36  1  0.986715  0.499464  0.221289  1
  O  O37  1  0.008148  0.307927  0.690236  1
  O  O38  1  0.018202  0.699017  0.299972  1
  O  O39  1  0.995522  0.783381  0.495798  1
  O  O40  1  0.111488  0.112283  0.333331  1
  O  O41  1  0.105150  0.350014  0.114244  1
  O  O42  1  0.105900  0.342179  0.877930  1
  O  O43  1  0.105772  0.890110  0.334292  1
  O  O44  1  0.115703  0.123917  0.659702  1
  O  O45  1  0.106688  0.648231  0.114853  1
  O  O46  1  0.106724  0.655501  0.876391  1
  O  O47  1  0.108094  0.879186  0.658589  1
  O  O48  1  0.212185  0.997669  0.490354  1
  O  O49  1  0.240408  0.499469  0.988608  1
  O  O50  1  0.273253  0.995759  0.277685  1
  O  O51  1  0.270454  0.265401  0.000126  1
  O  O52  1  0.279683  0.995245  0.725496  1
  O  O53  1  0.268039  0.735457  0.999827  1
  O  O54  1  0.345286  0.108243  0.113198  1
  O  O55  1  0.350820  0.107252  0.890101  1
  O  O56  1  0.348617  0.889165  0.112953  1
  O  O57  1  0.353826  0.890123  0.890500  1
  O  O58  1  0.481438  0.001715  0.246785  1
  O  O59  1  0.480188  0.244389  0.003499  1
  O  O60  1  0.479022  0.748801  0.002835  1
  O  O61  1  0.488531  0.001035  0.756103  1
  O  O62  1  0.631767  0.122173  0.124347  1
  O  O63  1  0.634130  0.120860  0.883088  1
  O  O64  1  0.625859  0.877888  0.122145  1
  O  O65  1  0.629728  0.875631  0.881088  1
  O  O66  1  0.717598  0.995675  0.285449  1
  O  O67  1  0.727310  0.997982  0.723165  1
  O  O68  1  0.702802  0.301743  0.005063  1
  O  O69  1  0.708314  0.703584  0.005424  1
  O  O70  1  0.811240  0.499421  0.988679  1
  O  O71  1  0.814434  0.994298  0.499396  1
  O  O72  1  0.903418  0.120064  0.321814  1
  O  O73  1  0.906900  0.120281  0.672466  1
  O  O74  1  0.896444  0.323746  0.123992  1
  O  O75  1  0.893251  0.324169  0.875371  1
  O  O76  1  0.898183  0.675405  0.123201  1
  O  O77  1  0.893900  0.673261  0.873815  1
  O  O78  1  0.894957  0.873452  0.327944  1
  O  O79  1  0.895747  0.869827  0.665614  1
  O  O80  1  0.002785  0.211024  0.496540  1
  O  O81  1  0.984353  0.498552  0.783895  1
  O  O82  1  0.008442  0.690247  0.689856  1
