# generated using pymatgen
data_VCo3
_symmetry_space_group_name_H-M   'P 1'
_cell_length_a   7.96563982
_cell_length_b   7.96564026
_cell_length_c   9.42540005
_cell_angle_alpha   90.00000000
_cell_angle_beta   90.00000000
_cell_angle_gamma   119.99999817
_symmetry_Int_Tables_number   1
_chemical_formula_structural   VCo3
_chemical_formula_sum   'V6 Co18'
_cell_volume   517.93085754
_cell_formula_units_Z   6
loop_
 _symmetry_equiv_pos_site_id
 _symmetry_equiv_pos_as_xyz
  1  'x, y, z'
loop_
 _atom_site_type_symbol
 _atom_site_label
 _atom_site_symmetry_multiplicity
 _atom_site_fract_x
 _atom_site_fract_y
 _atom_site_fract_z
 _atom_site_occupancy
  V  V0  1  0.666667  0.333333  0.365503  1
  V  V1  1  0.333333  0.666667  0.634497  1
  V  V2  1  0.000000  0.000000  0.713798  1
  V  V3  1  0.666667  0.333333  0.634497  1
  V  V4  1  0.000000  0.000000  0.286202  1
  V  V5  1  0.333333  0.666667  0.365503  1
  Co  Co6  1  0.500000  0.500000  0.709395  1
  Co  Co7  1  0.333220  0.166610  0.378316  1
  Co  Co8  1  0.833390  0.166610  0.378316  1
  Co  Co9  1  0.500000  0.000000  0.290605  1
  Co  Co10  1  0.833390  0.166610  0.621684  1
  Co  Co11  1  0.333220  0.166610  0.621684  1
  Co  Co12  1  0.166610  0.333220  0.378316  1
  Co  Co13  1  0.833390  0.666780  0.378316  1
  Co  Co14  1  0.500000  0.500000  0.290605  1
  Co  Co15  1  0.666780  0.833390  0.621684  1
  Co  Co16  1  0.666780  0.833390  0.378316  1
  Co  Co17  1  0.500000  0.000000  0.709395  1
  Co  Co18  1  0.166610  0.833390  0.621684  1
  Co  Co19  1  0.166610  0.833390  0.378316  1
  Co  Co20  1  0.166610  0.333220  0.621684  1
  Co  Co21  1  0.833390  0.666780  0.621684  1
  Co  Co22  1  0.000000  0.500000  0.709395  1
  Co  Co23  1  0.000000  0.500000  0.290605  1
