# generated using pymatgen
data_Sr3La7Ti2Mn8O30
_symmetry_space_group_name_H-M   'P 1'
_cell_length_a   5.56606956
_cell_length_b   27.83216063
_cell_length_c   14.69319548
_cell_angle_alpha   19.23829718
_cell_angle_beta   56.02286507
_cell_angle_gamma   60.51944421
_symmetry_Int_Tables_number   1
_chemical_formula_structural   Sr3La7Ti2Mn8O30
_chemical_formula_sum   'Sr3 La7 Ti2 Mn8 O30'
_cell_volume   616.67088946
_cell_formula_units_Z   1
loop_
 _symmetry_equiv_pos_site_id
 _symmetry_equiv_pos_as_xyz
  1  'x, y, z'
loop_
 _atom_site_type_symbol
 _atom_site_label
 _atom_site_symmetry_multiplicity
 _atom_site_fract_x
 _atom_site_fract_y
 _atom_site_fract_z
 _atom_site_occupancy
  Sr  Sr0  1  0.248703  0.149766  0.251516  1
  Sr  Sr1  1  0.252826  0.549695  0.249569  1
  Sr  Sr2  1  0.251343  0.949907  0.248613  1
  La  La3  1  0.246505  0.349082  0.253435  1
  La  La4  1  0.749099  0.050446  0.749574  1
  La  La5  1  0.249584  0.750350  0.248895  1
  La  La6  1  0.749149  0.252474  0.743502  1
  La  La7  1  0.749452  0.450414  0.749620  1
  La  La8  1  0.748352  0.649218  0.751624  1
  La  La9  1  0.748087  0.846922  0.758422  1
  Ti  Ti10  1  0.998105  0.201628  0.997066  1
  Ti  Ti11  1  0.501051  0.898482  0.502470  1
  Mn  Mn12  1  0.999110  0.998681  0.002368  1
  Mn  Mn13  1  0.001597  0.399831  -0.000351  1
  Mn  Mn14  1  0.997930  0.600229  0.000226  1
  Mn  Mn15  1  0.500900  0.099597  0.500613  1
  Mn  Mn16  1  0.999975  0.800960  0.998220  1
  Mn  Mn17  1  0.498336  0.300330  0.499872  1
  Mn  Mn18  1  0.497202  0.498712  0.503013  1
  Mn  Mn19  1  0.500633  0.700207  0.499918  1
  O  O20  1  0.185336  0.024692  0.313461  1
  O  O21  1  0.184850  0.225135  0.317137  1
  O  O22  1  0.703354  0.059899  0.249212  1
  O  O23  1  0.251705  0.015392  0.807645  1
  O  O24  1  0.756893  0.189300  0.181129  1
  O  O25  1  0.191014  0.424968  0.307854  1
  O  O26  1  0.688032  0.263432  0.248517  1
  O  O27  1  0.312407  0.140676  0.740359  1
  O  O28  1  0.246341  0.219979  0.801853  1
  O  O29  1  0.745673  0.387063  0.189452  1
  O  O30  1  0.190432  0.626706  0.311904  1
  O  O31  1  0.705573  0.457027  0.252665  1
  O  O32  1  0.309120  0.330925  0.760962  1
  O  O33  1  0.813545  0.172709  0.690618  1
  O  O34  1  0.252994  0.423592  0.793162  1
  O  O35  1  0.751042  0.587140  0.188057  1
  O  O36  1  0.184142  0.822870  0.313426  1
  O  O37  1  0.693071  0.662879  0.247774  1
  O  O38  1  0.312613  0.535774  0.754121  1
  O  O39  1  0.803469  0.366240  0.706978  1
  O  O40  1  0.248962  0.613805  0.811286  1
  O  O41  1  0.750976  0.785114  0.190130  1
  O  O42  1  0.705718  0.860258  0.246492  1
  O  O43  1  0.321499  0.743210  0.738586  1
  O  O44  1  0.810748  0.573112  0.692124  1
  O  O45  1  0.253884  0.824042  0.790957  1
  O  O46  1  0.740424  0.990205  0.186930  1
  O  O47  1  0.312416  0.933295  0.761731  1
  O  O48  1  0.793888  0.773600  0.694511  1
  O  O49  1  0.791940  0.970030  0.702786  1
