# generated using pymatgen
data_Tm(BO2)3
_symmetry_space_group_name_H-M   'P 1'
_cell_length_a   7.39809707
_cell_length_b   12.21973331
_cell_length_c   15.89855827
_cell_angle_alpha   90.00000000
_cell_angle_beta   90.00000000
_cell_angle_gamma   90.00000000
_symmetry_Int_Tables_number   1
_chemical_formula_structural   Tm(BO2)3
_chemical_formula_sum   'Tm16 B48 O96'
_cell_volume   1437.27375744
_cell_formula_units_Z   16
loop_
 _symmetry_equiv_pos_site_id
 _symmetry_equiv_pos_as_xyz
  1  'x, y, z'
loop_
 _atom_site_type_symbol
 _atom_site_label
 _atom_site_symmetry_multiplicity
 _atom_site_fract_x
 _atom_site_fract_y
 _atom_site_fract_z
 _atom_site_occupancy
  Tm  Tm0  1  0.750000  0.764994  0.628675  1
  Tm  Tm1  1  0.750000  0.010191  0.120628  1
  Tm  Tm2  1  0.750000  0.435525  0.326966  1
  Tm  Tm3  1  0.750000  0.489809  0.620628  1
  Tm  Tm4  1  0.250000  0.264994  0.871325  1
  Tm  Tm5  1  0.750000  0.064475  0.826966  1
  Tm  Tm6  1  0.250000  0.564475  0.673034  1
  Tm  Tm7  1  0.250000  0.235006  0.371325  1
  Tm  Tm8  1  0.250000  0.935525  0.173034  1
  Tm  Tm9  1  0.250000  0.989809  0.879372  1
  Tm  Tm10  1  0.250000  0.510191  0.379372  1
  Tm  Tm11  1  0.750000  0.411699  0.951466  1
  Tm  Tm12  1  0.750000  0.088301  0.451466  1
  Tm  Tm13  1  0.250000  0.911699  0.548534  1
  Tm  Tm14  1  0.250000  0.588301  0.048534  1
  Tm  Tm15  1  0.750000  0.735006  0.128675  1
  B  B16  1  0.568756  0.128154  0.258662  1
  B  B17  1  0.059175  0.823463  0.033109  1
  B  B18  1  0.929725  0.685516  0.782407  1
  B  B19  1  0.568756  0.371846  0.758662  1
  B  B20  1  0.931244  0.371846  0.758662  1
  B  B21  1  0.423483  0.142226  0.109554  1
  B  B22  1  0.576517  0.642226  0.390446  1
  B  B23  1  0.426556  0.345827  0.055880  1
  B  B24  1  0.559175  0.323463  0.466891  1
  B  B25  1  0.923483  0.857774  0.890446  1
  B  B26  1  0.578349  0.482813  0.151909  1
  B  B27  1  0.921651  0.017187  0.651909  1
  B  B28  1  0.421651  0.517187  0.848091  1
  B  B29  1  0.068756  0.628154  0.241338  1
  B  B30  1  0.070275  0.185516  0.717593  1
  B  B31  1  0.940825  0.323463  0.466891  1
  B  B32  1  0.573444  0.845827  0.444120  1
  B  B33  1  0.070275  0.314484  0.217593  1
  B  B34  1  0.429725  0.185516  0.717593  1
  B  B35  1  0.078349  0.517187  0.848091  1
  B  B36  1  0.926556  0.845827  0.444120  1
  B  B37  1  0.931244  0.128154  0.258662  1
  B  B38  1  0.923483  0.642226  0.390446  1
  B  B39  1  0.440825  0.823463  0.033109  1
  B  B40  1  0.573444  0.654173  0.944120  1
  B  B41  1  0.431244  0.871846  0.741338  1
  B  B42  1  0.078349  0.982813  0.348091  1
  B  B43  1  0.076517  0.357774  0.609554  1
  B  B44  1  0.559175  0.176537  0.966891  1
  B  B45  1  0.426556  0.154173  0.555880  1
  B  B46  1  0.926556  0.654173  0.944120  1
  B  B47  1  0.423483  0.357774  0.609554  1
  B  B48  1  0.570275  0.685516  0.782407  1
  B  B49  1  0.576517  0.857774  0.890446  1
  B  B50  1  0.570275  0.814484  0.282407  1
  B  B51  1  0.059175  0.676537  0.533109  1
  B  B52  1  0.076517  0.142226  0.109554  1
  B  B53  1  0.073444  0.345827  0.055880  1
  B  B54  1  0.421651  0.982813  0.348091  1
  B  B55  1  0.578349  0.017187  0.651909  1
  B  B56  1  0.440825  0.676537  0.533109  1
  B  B57  1  0.431244  0.628154  0.241338  1
  B  B58  1  0.429725  0.314484  0.217593  1
  B  B59  1  0.929725  0.814484  0.282407  1
  B  B60  1  0.940825  0.176537  0.966891  1
  B  B61  1  0.073444  0.154173  0.555880  1
  B  B62  1  0.921651  0.482813  0.151909  1
  B  B63  1  0.068756  0.871846  0.741338  1
  O  O64  1  0.024653  0.210055  0.476534  1
  O  O65  1  0.061423  0.930848  0.431635  1
  O  O66  1  0.975347  0.710055  0.023466  1
  O  O67  1  0.561423  0.069152  0.568365  1
  O  O68  1  0.566180  0.121473  0.047930  1
  O  O69  1  0.250000  0.639398  0.276080  1
  O  O70  1  0.567543  0.063677  0.336735  1
  O  O71  1  0.750000  0.642740  0.755068  1
  O  O72  1  0.438577  0.569152  0.931635  1
  O  O73  1  0.750000  0.600210  0.952038  1
  O  O74  1  0.543946  0.879523  0.097194  1
  O  O75  1  0.475347  0.210055  0.476534  1
  O  O76  1  0.750000  0.139398  0.223920  1
  O  O77  1  0.750000  0.603396  0.422225  1
  O  O78  1  0.034418  0.076120  0.185626  1
  O  O79  1  0.433820  0.878527  0.952070  1
  O  O80  1  0.432507  0.601390  0.781898  1
  O  O81  1  0.567543  0.436323  0.836735  1
  O  O82  1  0.750000  0.303657  0.432464  1
  O  O83  1  0.567493  0.398610  0.218102  1
  O  O84  1  0.938577  0.430848  0.068365  1
  O  O85  1  0.250000  0.803657  0.067536  1
  O  O86  1  0.567493  0.101390  0.718102  1
  O  O87  1  0.925878  0.764829  0.371452  1
  O  O88  1  0.074122  0.264829  0.128548  1
  O  O89  1  0.250000  0.396604  0.577775  1
  O  O90  1  0.750000  0.542845  0.158064  1
  O  O91  1  0.522540  0.770384  0.722361  1
  O  O92  1  0.534418  0.923880  0.814374  1
  O  O93  1  0.250000  0.357260  0.244932  1
  O  O94  1  0.750000  0.896604  0.922225  1
  O  O95  1  0.543946  0.620477  0.597194  1
  O  O96  1  0.965582  0.923880  0.814374  1
  O  O97  1  0.574122  0.735171  0.871452  1
  O  O98  1  0.250000  0.042845  0.341936  1
  O  O99  1  0.066180  0.621473  0.452070  1
  O  O100  1  0.938577  0.069152  0.568365  1
  O  O101  1  0.465582  0.076120  0.185626  1
  O  O102  1  0.066180  0.878527  0.952070  1
  O  O103  1  0.425878  0.235171  0.628548  1
  O  O104  1  0.456054  0.379523  0.402806  1
  O  O105  1  0.566180  0.378527  0.547930  1
  O  O106  1  0.956054  0.879523  0.097194  1
  O  O107  1  0.061423  0.569152  0.931635  1
  O  O108  1  0.933820  0.121473  0.047930  1
  O  O109  1  0.022540  0.270384  0.777639  1
  O  O110  1  0.977460  0.729616  0.222361  1
  O  O111  1  0.750000  0.857260  0.255068  1
  O  O112  1  0.067493  0.601390  0.781898  1
  O  O113  1  0.750000  0.899790  0.452038  1
  O  O114  1  0.250000  0.100210  0.547962  1
  O  O115  1  0.250000  0.399790  0.047962  1
  O  O116  1  0.034418  0.423880  0.685626  1
  O  O117  1  0.977460  0.770384  0.722361  1
  O  O118  1  0.433820  0.621473  0.452070  1
  O  O119  1  0.432457  0.936323  0.663265  1
  O  O120  1  0.932507  0.398610  0.218102  1
  O  O121  1  0.250000  0.696343  0.567536  1
  O  O122  1  0.475347  0.289945  0.976534  1
  O  O123  1  0.022540  0.229616  0.277639  1
  O  O124  1  0.933820  0.378527  0.547930  1
  O  O125  1  0.561423  0.430848  0.068365  1
  O  O126  1  0.477460  0.229616  0.277639  1
  O  O127  1  0.250000  0.142740  0.744932  1
  O  O128  1  0.250000  0.103396  0.077775  1
  O  O129  1  0.024653  0.289945  0.976534  1
  O  O130  1  0.067543  0.563677  0.163265  1
  O  O131  1  0.438577  0.930848  0.431635  1
  O  O132  1  0.043946  0.120477  0.902806  1
  O  O133  1  0.465582  0.423880  0.685626  1
  O  O134  1  0.750000  0.196343  0.932464  1
  O  O135  1  0.524653  0.789945  0.523466  1
  O  O136  1  0.425878  0.264829  0.128548  1
  O  O137  1  0.975347  0.789945  0.523466  1
  O  O138  1  0.534418  0.576120  0.314374  1
  O  O139  1  0.574122  0.764829  0.371452  1
  O  O140  1  0.432507  0.898610  0.281898  1
  O  O141  1  0.067543  0.936323  0.663265  1
  O  O142  1  0.250000  0.860602  0.776080  1
  O  O143  1  0.456054  0.120477  0.902806  1
  O  O144  1  0.750000  0.360602  0.723920  1
  O  O145  1  0.750000  0.957155  0.658064  1
  O  O146  1  0.250000  0.457155  0.841936  1
  O  O147  1  0.043946  0.379523  0.402806  1
  O  O148  1  0.074122  0.235171  0.628548  1
  O  O149  1  0.925878  0.735171  0.871452  1
  O  O150  1  0.956054  0.620477  0.597194  1
  O  O151  1  0.432457  0.563677  0.163265  1
  O  O152  1  0.932507  0.101390  0.718102  1
  O  O153  1  0.477460  0.270384  0.777639  1
  O  O154  1  0.067493  0.898610  0.281898  1
  O  O155  1  0.965582  0.576120  0.314374  1
  O  O156  1  0.524653  0.710055  0.023466  1
  O  O157  1  0.932457  0.063677  0.336735  1
  O  O158  1  0.522540  0.729616  0.222361  1
  O  O159  1  0.932457  0.436323  0.836735  1
