# generated using pymatgen
data_Yb2Ga10Ru3
_symmetry_space_group_name_H-M   'P 1'
_cell_length_a   8.94077272
_cell_length_b   8.94129819
_cell_length_c   6.37818834
_cell_angle_alpha   90.00947158
_cell_angle_beta   89.99652444
_cell_angle_gamma   89.98970899
_symmetry_Int_Tables_number   1
_chemical_formula_structural   Yb2Ga10Ru3
_chemical_formula_sum   'Yb4 Ga20 Ru6'
_cell_volume   509.88584944
_cell_formula_units_Z   2
loop_
 _symmetry_equiv_pos_site_id
 _symmetry_equiv_pos_as_xyz
  1  'x, y, z'
loop_
 _atom_site_type_symbol
 _atom_site_label
 _atom_site_symmetry_multiplicity
 _atom_site_fract_x
 _atom_site_fract_y
 _atom_site_fract_z
 _atom_site_occupancy
  Yb  Yb0  1  0.183483  0.683567  0.000040  1
  Yb  Yb1  1  0.816500  0.316310  0.999867  1
  Yb  Yb2  1  0.316375  0.183598  0.999960  1
  Yb  Yb3  1  0.683461  0.816515  0.999995  1
  Ga  Ga4  1  0.706436  0.560749  0.708086  1
  Ga  Ga5  1  0.293507  0.439250  0.708024  1
  Ga  Ga6  1  0.793548  0.060800  0.708084  1
  Ga  Ga7  1  0.206476  0.939253  0.708043  1
  Ga  Ga8  1  0.560665  0.293613  0.708136  1
  Ga  Ga9  1  0.439339  0.706438  0.708092  1
  Ga  Ga10  1  0.060788  0.206567  0.708261  1
  Ga  Ga11  1  0.939219  0.793508  0.708192  1
  Ga  Ga12  1  0.293633  0.439325  0.291905  1
  Ga  Ga13  1  0.706472  0.560800  0.291832  1
  Ga  Ga14  1  0.206506  0.939142  0.291839  1
  Ga  Ga15  1  0.793617  0.060650  0.291996  1
  Ga  Ga16  1  0.439190  0.706473  0.291841  1
  Ga  Ga17  1  0.560767  0.293560  0.292011  1
  Ga  Ga18  1  0.939156  0.793526  0.291967  1
  Ga  Ga19  1  0.060678  0.206454  0.292044  1
  Ga  Ga20  1  0.999970  0.499856  0.715208  1
  Ga  Ga21  1  0.500071  0.999938  0.714832  1
  Ga  Ga22  1  0.000015  0.499948  0.284877  1
  Ga  Ga23  1  0.499976  0.000018  0.285128  1
  Ru  Ru24  1  0.179314  0.679253  0.499919  1
  Ru  Ru25  1  0.820627  0.320706  0.499684  1
  Ru  Ru26  1  0.320695  0.179382  0.499928  1
  Ru  Ru27  1  0.679337  0.820697  0.500007  1
  Ru  Ru28  1  0.500092  0.499939  0.000159  1
  Ru  Ru29  1  0.000085  0.000165  0.000046  1
