# generated using pymatgen
data_PRu5C16(O5F)3
_symmetry_space_group_name_H-M   'P 1'
_cell_length_a   10.19181556
_cell_length_b   11.98088207
_cell_length_c   21.49534278
_cell_angle_alpha   90.00000000
_cell_angle_beta   90.00000000
_cell_angle_gamma   92.75179221
_symmetry_Int_Tables_number   1
_chemical_formula_structural   PRu5C16(O5F)3
_chemical_formula_sum   'P4 Ru20 C64 O60 F12'
_cell_volume   2621.70392111
_cell_formula_units_Z   4
loop_
 _symmetry_equiv_pos_site_id
 _symmetry_equiv_pos_as_xyz
  1  'x, y, z'
loop_
 _atom_site_type_symbol
 _atom_site_label
 _atom_site_symmetry_multiplicity
 _atom_site_fract_x
 _atom_site_fract_y
 _atom_site_fract_z
 _atom_site_occupancy
  P  P0  1  0.888551  0.754088  0.390105  1
  P  P1  1  0.611449  0.745912  0.890105  1
  P  P2  1  0.388551  0.254088  0.109895  1
  P  P3  1  0.111449  0.245912  0.609895  1
  Ru  Ru4  1  0.239261  0.329870  0.529339  1
  Ru  Ru5  1  0.260739  0.170130  0.029339  1
  Ru  Ru6  1  0.700155  0.911071  0.840794  1
  Ru  Ru7  1  0.200155  0.411071  0.659206  1
  Ru  Ru8  1  0.260208  0.405693  0.078743  1
  Ru  Ru9  1  0.913296  0.767604  0.872401  1
  Ru  Ru10  1  0.413296  0.267604  0.627599  1
  Ru  Ru11  1  0.586704  0.732396  0.372401  1
  Ru  Ru12  1  0.239792  0.094307  0.578743  1
  Ru  Ru13  1  0.086704  0.232396  0.127599  1
  Ru  Ru14  1  0.739792  0.594307  0.921257  1
  Ru  Ru15  1  0.194527  0.179877  0.705358  1
  Ru  Ru16  1  0.760208  0.905693  0.421257  1
  Ru  Ru17  1  0.799845  0.588929  0.340794  1
  Ru  Ru18  1  0.305473  0.320123  0.205358  1
  Ru  Ru19  1  0.739261  0.829870  0.970661  1
  Ru  Ru20  1  0.805473  0.820123  0.294642  1
  Ru  Ru21  1  0.760739  0.670130  0.470661  1
  Ru  Ru22  1  0.694527  0.679877  0.794642  1
  Ru  Ru23  1  0.299845  0.088929  0.159206  1
  C  C24  1  0.463062  0.301124  0.250441  1
  C  C25  1  0.282890  0.059439  0.495503  1
  C  C26  1  0.804179  0.704270  0.722611  1
  C  C27  1  0.499751  0.410284  0.635999  1
  C  C28  1  0.902445  0.014791  0.424122  1
  C  C29  1  0.179830  0.025277  0.021367  1
  C  C30  1  0.074642  0.765554  0.405612  1
  C  C31  1  0.000249  0.089716  0.135999  1
  C  C32  1  0.092785  0.363394  0.478497  1
  C  C33  1  0.425358  0.734446  0.905612  1
  C  C34  1  0.633169  0.999793  0.385157  1
  C  C35  1  0.031899  0.450124  0.685650  1
  C  C36  1  0.820170  0.974723  0.978633  1
  C  C37  1  0.907215  0.636606  0.521503  1
  C  C38  1  0.017155  0.718943  0.939433  1
  C  C39  1  0.195821  0.295730  0.277389  1
  C  C40  1  0.782890  0.559439  0.004497  1
  C  C41  1  0.163965  0.216493  0.958727  1
  C  C42  1  0.133169  0.499793  0.114843  1
  C  C43  1  0.982845  0.281057  0.060567  1
  C  C44  1  0.980567  0.299163  0.188645  1
  C  C45  1  0.179519  0.022651  0.716102  1
  C  C46  1  0.536938  0.698876  0.749559  1
  C  C47  1  0.282297  0.436897  0.738053  1
  C  C48  1  0.217110  0.440561  0.995503  1
  C  C49  1  0.320170  0.474723  0.521367  1
  C  C50  1  0.519433  0.200837  0.688645  1
  C  C51  1  0.695821  0.795730  0.222611  1
  C  C52  1  0.968101  0.549876  0.314350  1
  C  C53  1  0.336035  0.283507  0.458727  1
  C  C54  1  0.265779  0.936926  0.133402  1
  C  C55  1  0.765779  0.436926  0.366598  1
  C  C56  1  0.592785  0.863394  0.021503  1
  C  C57  1  0.597555  0.485209  0.924122  1
  C  C58  1  0.925358  0.234446  0.594388  1
  C  C59  1  0.717703  0.563103  0.261947  1
  C  C60  1  0.517155  0.218943  0.560567  1
  C  C61  1  0.019433  0.700837  0.811355  1
  C  C62  1  0.036938  0.198876  0.750441  1
  C  C63  1  0.734221  0.063074  0.866598  1
  C  C64  1  0.531899  0.950124  0.814350  1
  C  C65  1  0.500249  0.589716  0.364001  1
  C  C66  1  0.480567  0.799163  0.311355  1
  C  C67  1  0.482845  0.781057  0.439433  1
  C  C68  1  0.320481  0.477349  0.216102  1
  C  C69  1  0.402445  0.514791  0.075878  1
  C  C70  1  0.663965  0.716493  0.541273  1
  C  C71  1  0.468101  0.049876  0.185650  1
  C  C72  1  0.574642  0.265554  0.094388  1
  C  C73  1  0.234221  0.563074  0.633402  1
  C  C74  1  0.999751  0.910284  0.864001  1
  C  C75  1  0.097555  0.985209  0.575878  1
  C  C76  1  0.366831  0.000207  0.614843  1
  C  C77  1  0.782297  0.936897  0.761947  1
  C  C78  1  0.679830  0.525277  0.478633  1
  C  C79  1  0.963062  0.801124  0.249559  1
  C  C80  1  0.407215  0.136606  0.978497  1
  C  C81  1  0.717110  0.940561  0.504497  1
  C  C82  1  0.304179  0.204270  0.777389  1
  C  C83  1  0.217703  0.063103  0.238053  1
  C  C84  1  0.836035  0.783507  0.041273  1
  C  C85  1  0.679519  0.522651  0.783898  1
  C  C86  1  0.820481  0.977349  0.283898  1
  C  C87  1  0.866831  0.500207  0.885157  1
  O  O88  1  0.487267  0.582548  0.076793  1
  O  O89  1  0.940613  0.439312  0.865015  1
  O  O90  1  0.308240  0.031255  0.445476  1
  O  O91  1  0.936412  0.006440  0.138782  1
  O  O92  1  0.808240  0.531255  0.054524  1
  O  O93  1  0.594528  0.161951  0.722084  1
  O  O94  1  0.364081  0.217194  0.822790  1
  O  O95  1  0.571094  0.028078  0.203397  1
  O  O96  1  0.992825  0.611931  0.553263  1
  O  O97  1  0.691760  0.968745  0.554524  1
  O  O98  1  0.559387  0.060688  0.365015  1
  O  O99  1  0.928906  0.471922  0.703397  1
  O  O100  1  0.058599  0.787741  0.222131  1
  O  O101  1  0.129035  0.938861  0.010466  1
  O  O102  1  0.441401  0.712259  0.722131  1
  O  O103  1  0.749243  0.157223  0.877493  1
  O  O104  1  0.249243  0.657223  0.622507  1
  O  O105  1  0.250757  0.842777  0.122507  1
  O  O106  1  0.864081  0.717194  0.677210  1
  O  O107  1  0.492825  0.111931  0.946737  1
  O  O108  1  0.405472  0.838049  0.277916  1
  O  O109  1  0.894067  0.763836  0.085893  1
  O  O110  1  0.012733  0.917452  0.576793  1
  O  O111  1  0.191760  0.468745  0.945476  1
  O  O112  1  0.370965  0.561139  0.510466  1
  O  O113  1  0.911655  0.308766  0.021869  1
  O  O114  1  0.512733  0.417452  0.923207  1
  O  O115  1  0.670102  0.538762  0.214603  1
  O  O116  1  0.335339  0.572389  0.225873  1
  O  O117  1  0.063588  0.993560  0.861218  1
  O  O118  1  0.428906  0.971922  0.796603  1
  O  O119  1  0.664661  0.427611  0.774127  1
  O  O120  1  0.987267  0.082548  0.423207  1
  O  O121  1  0.164661  0.927611  0.725873  1
  O  O122  1  0.394067  0.263836  0.414107  1
  O  O123  1  0.135919  0.282806  0.322790  1
  O  O124  1  0.440613  0.939312  0.634985  1
  O  O125  1  0.870965  0.061139  0.989534  1
  O  O126  1  0.094528  0.661951  0.777916  1
  O  O127  1  0.629035  0.438861  0.489534  1
  O  O128  1  0.059387  0.560688  0.134985  1
  O  O129  1  0.558599  0.287741  0.277869  1
  O  O130  1  0.905472  0.338049  0.222084  1
  O  O131  1  0.835339  0.072389  0.274127  1
  O  O132  1  0.635919  0.782806  0.177210  1
  O  O133  1  0.329898  0.461238  0.785397  1
  O  O134  1  0.941401  0.212259  0.777869  1
  O  O135  1  0.071094  0.528078  0.296603  1
  O  O136  1  0.750757  0.342777  0.377493  1
  O  O137  1  0.170102  0.038762  0.285397  1
  O  O138  1  0.436412  0.506440  0.361218  1
  O  O139  1  0.088345  0.691234  0.978131  1
  O  O140  1  0.829898  0.961238  0.714603  1
  O  O141  1  0.411655  0.808766  0.478131  1
  O  O142  1  0.007175  0.388069  0.446737  1
  O  O143  1  0.105933  0.236164  0.914107  1
  O  O144  1  0.507175  0.888069  0.053263  1
  O  O145  1  0.563588  0.493560  0.638782  1
  O  O146  1  0.588345  0.191234  0.521869  1
  O  O147  1  0.605933  0.736164  0.585893  1
  F  F148  1  0.602818  0.329489  0.043126  1
  F  F149  1  0.102818  0.829489  0.456874  1
  F  F150  1  0.897182  0.170511  0.543126  1
  F  F151  1  0.643057  0.312657  0.142926  1
  F  F152  1  0.856943  0.187343  0.642926  1
  F  F153  1  0.397182  0.670511  0.956874  1
  F  F154  1  0.143057  0.812657  0.357074  1
  F  F155  1  0.125089  0.663603  0.416523  1
  F  F156  1  0.874911  0.336397  0.583477  1
  F  F157  1  0.374911  0.836397  0.916523  1
  F  F158  1  0.356943  0.687343  0.857074  1
  F  F159  1  0.625089  0.163603  0.083477  1
