# generated using pymatgen
data_Sb2Pb2O7
_symmetry_space_group_name_H-M   'P 1'
_cell_length_a   7.59455742
_cell_length_b   7.59453836
_cell_length_c   7.59456787
_cell_angle_alpha   59.99972263
_cell_angle_beta   59.99985706
_cell_angle_gamma   59.99992157
_symmetry_Int_Tables_number   1
_chemical_formula_structural   Sb2Pb2O7
_chemical_formula_sum   'Sb4 Pb4 O14'
_cell_volume   309.73499954
_cell_formula_units_Z   2
loop_
 _symmetry_equiv_pos_site_id
 _symmetry_equiv_pos_as_xyz
  1  'x, y, z'
loop_
 _atom_site_type_symbol
 _atom_site_label
 _atom_site_symmetry_multiplicity
 _atom_site_fract_x
 _atom_site_fract_y
 _atom_site_fract_z
 _atom_site_occupancy
  Sb  Sb0  1  1.000000  -0.000000  0.500000  1
  Sb  Sb1  1  0.000000  -0.000000  0.000001  1
  Sb  Sb2  1  -0.000000  0.500000  1.000000  1
  Sb  Sb3  1  0.500000  0.999999  0.000001  1
  Pb  Pb4  1  0.499999  0.499999  0.500000  1
  Pb  Pb5  1  0.999999  0.500000  0.500000  1
  Pb  Pb6  1  0.500001  0.499999  0.000001  1
  Pb  Pb7  1  0.500000  0.000001  0.499999  1
  O  O8  1  0.651543  0.098458  0.651541  1
  O  O9  1  0.348457  0.348461  0.901541  1
  O  O10  1  0.098459  0.098457  0.651542  1
  O  O11  1  0.098458  0.651541  0.098460  1
  O  O12  1  0.098457  0.651544  0.651542  1
  O  O13  1  0.348457  0.901542  0.348460  1
  O  O14  1  0.125001  0.125002  0.124999  1
  O  O15  1  0.651543  0.651540  0.098458  1
  O  O16  1  0.348457  0.901542  0.901542  1
  O  O17  1  0.901543  0.901543  0.348458  1
  O  O18  1  0.874999  0.874999  0.875001  1
  O  O19  1  0.901543  0.348458  0.348458  1
  O  O20  1  0.901543  0.348457  0.901541  1
  O  O21  1  0.651543  0.098458  0.098459  1
