# generated using pymatgen
data_SiO2
_symmetry_space_group_name_H-M   'P 1'
_cell_length_a   13.93974928
_cell_length_b   13.93974928
_cell_length_c   6.48917886
_cell_angle_alpha   90.00000000
_cell_angle_beta   90.00000000
_cell_angle_gamma   90.00000000
_symmetry_Int_Tables_number   1
_chemical_formula_structural   SiO2
_chemical_formula_sum   'Si20 O40'
_cell_volume   1260.95523769
_cell_formula_units_Z   20
loop_
 _symmetry_equiv_pos_site_id
 _symmetry_equiv_pos_as_xyz
  1  'x, y, z'
loop_
 _atom_site_type_symbol
 _atom_site_label
 _atom_site_symmetry_multiplicity
 _atom_site_fract_x
 _atom_site_fract_y
 _atom_site_fract_z
 _atom_site_occupancy
  Si  Si0  1  0.000000  0.115319  0.994571  1
  Si  Si1  1  0.134681  0.750000  0.244571  1
  Si  Si2  1  0.365319  0.250000  0.744571  1
  Si  Si3  1  0.000000  0.884681  0.005429  1
  Si  Si4  1  0.000000  0.615319  0.005429  1
  Si  Si5  1  0.000000  0.384681  0.994571  1
  Si  Si6  1  0.365319  0.750000  0.255429  1
  Si  Si7  1  0.134681  0.250000  0.755429  1
  Si  Si8  1  0.865319  0.250000  0.755429  1
  Si  Si9  1  0.634681  0.750000  0.255429  1
  Si  Si10  1  0.634681  0.250000  0.744571  1
  Si  Si11  1  0.865319  0.750000  0.244571  1
  Si  Si12  1  0.500000  0.615319  0.494571  1
  Si  Si13  1  0.500000  0.384681  0.505429  1
  Si  Si14  1  0.500000  0.115319  0.505429  1
  Si  Si15  1  0.500000  0.884681  0.494571  1
  Si  Si16  1  0.000000  0.250000  0.375000  1
  Si  Si17  1  0.000000  0.750000  0.625000  1
  Si  Si18  1  0.500000  0.250000  0.125000  1
  Si  Si19  1  0.500000  0.750000  0.875000  1
  O  O20  1  0.000000  0.000000  0.000000  1
  O  O21  1  0.250000  0.750000  0.250000  1
  O  O22  1  0.250000  0.250000  0.750000  1
  O  O23  1  0.000000  0.500000  0.000000  1
  O  O24  1  0.750000  0.250000  0.750000  1
  O  O25  1  0.750000  0.750000  0.250000  1
  O  O26  1  0.500000  0.500000  0.500000  1
  O  O27  1  0.500000  0.000000  0.500000  1
  O  O28  1  0.095742  0.154258  0.875000  1
  O  O29  1  0.095742  0.845742  0.125000  1
  O  O30  1  0.404258  0.154258  0.625000  1
  O  O31  1  0.904258  0.654258  0.125000  1
  O  O32  1  0.904258  0.345742  0.875000  1
  O  O33  1  0.404258  0.845742  0.375000  1
  O  O34  1  0.904258  0.845742  0.125000  1
  O  O35  1  0.904258  0.154258  0.875000  1
  O  O36  1  0.595742  0.845742  0.375000  1
  O  O37  1  0.095742  0.345742  0.875000  1
  O  O38  1  0.095742  0.654258  0.125000  1
  O  O39  1  0.595742  0.154258  0.625000  1
  O  O40  1  0.595742  0.654258  0.375000  1
  O  O41  1  0.595742  0.345742  0.625000  1
  O  O42  1  0.404258  0.345742  0.625000  1
  O  O43  1  0.404258  0.654258  0.375000  1
  O  O44  1  0.000000  0.154400  0.231385  1
  O  O45  1  0.095600  0.750000  0.481385  1
  O  O46  1  0.404400  0.250000  0.981385  1
  O  O47  1  0.000000  0.845600  0.768615  1
  O  O48  1  0.000000  0.654400  0.768615  1
  O  O49  1  0.000000  0.345600  0.231385  1
  O  O50  1  0.404400  0.750000  0.018615  1
  O  O51  1  0.095600  0.250000  0.518615  1
  O  O52  1  0.904400  0.250000  0.518615  1
  O  O53  1  0.595600  0.750000  0.018615  1
  O  O54  1  0.595600  0.250000  0.981385  1
  O  O55  1  0.904400  0.750000  0.481385  1
  O  O56  1  0.500000  0.654400  0.731385  1
  O  O57  1  0.500000  0.345600  0.268615  1
  O  O58  1  0.500000  0.154400  0.268615  1
  O  O59  1  0.500000  0.845600  0.731385  1
