# generated using pymatgen
data_Mn3AgAs3(HO6)2
_symmetry_space_group_name_H-M   'P 1'
_cell_length_a   7.02847358
_cell_length_b   9.00381632
_cell_length_c   9.00381623
_cell_angle_alpha   91.02243518
_cell_angle_beta   106.37636343
_cell_angle_gamma   106.37636348
_symmetry_Int_Tables_number   1
_chemical_formula_structural   Mn3AgAs3(HO6)2
_chemical_formula_sum   'Mn6 Ag2 As6 H4 O24'
_cell_volume   521.55420849
_cell_formula_units_Z   2
loop_
 _symmetry_equiv_pos_site_id
 _symmetry_equiv_pos_as_xyz
  1  'x, y, z'
loop_
 _atom_site_type_symbol
 _atom_site_label
 _atom_site_symmetry_multiplicity
 _atom_site_fract_x
 _atom_site_fract_y
 _atom_site_fract_z
 _atom_site_occupancy
  Ag  Ag0  1  0.250000  0.993638  0.006362  1
  Ag  Ag1  1  0.750000  0.006362  0.993638  1
  Mn  Mn2  1  0.750000  0.712562  0.287438  1
  Mn  Mn3  1  0.250000  0.287438  0.712562  1
  Mn  Mn4  1  0.612684  0.042383  0.360377  1
  Mn  Mn5  1  0.887316  0.639623  0.957617  1
  Mn  Mn6  1  0.387316  0.957617  0.639623  1
  Mn  Mn7  1  0.112684  0.360377  0.042383  1
  As  As8  1  0.750000  0.318325  0.681675  1
  As  As9  1  0.250000  0.681675  0.318325  1
  As  As10  1  0.885961  0.895671  0.661598  1
  As  As11  1  0.614039  0.338402  0.104329  1
  As  As12  1  0.114039  0.104329  0.338402  1
  As  As13  1  0.385961  0.661598  0.895671  1
  O  O14  1  0.470877  0.788588  0.280855  1
  O  O15  1  0.029123  0.719145  0.211412  1
  O  O16  1  0.529123  0.211412  0.719145  1
  O  O17  1  0.970877  0.280855  0.788588  1
  O  O18  1  0.732594  0.285800  0.485014  1
  O  O19  1  0.767406  0.514986  0.714200  1
  O  O20  1  0.267406  0.714200  0.514986  1
  O  O21  1  0.232594  0.485014  0.285800  1
  H  H22  1  0.704139  0.371347  0.401412  1
  H  H23  1  0.795861  0.598588  0.628653  1
  H  H24  1  0.295861  0.628653  0.598588  1
  H  H25  1  0.204139  0.401412  0.371347  1
  O  O26  1  0.877093  0.974795  0.332072  1
  O  O27  1  0.622907  0.667928  0.025205  1
  O  O28  1  0.122907  0.025205  0.667928  1
  O  O29  1  0.377093  0.332072  0.974795  1
  O  O30  1  0.667675  0.454775  0.276426  1
  O  O31  1  0.832325  0.723574  0.545225  1
  O  O32  1  0.332325  0.545225  0.723574  1
  O  O33  1  0.167675  0.276426  0.454775  1
  O  O34  1  0.687946  0.977896  0.598847  1
  O  O35  1  0.812054  0.401153  0.022104  1
  O  O36  1  0.312054  0.022104  0.401153  1
  O  O37  1  0.187946  0.598847  0.977896  1
  O  O38  1  0.595572  0.149081  0.148478  1
  O  O39  1  0.904428  0.851522  0.850919  1
  O  O40  1  0.404428  0.850919  0.851522  1
  O  O41  1  0.095572  0.148478  0.149081  1
