# generated using pymatgen
data_BaCaBO3F
_symmetry_space_group_name_H-M   'P 1'
_cell_length_a   9.11970477
_cell_length_b   8.90191660
_cell_length_c   4.48923552
_cell_angle_alpha   90.74309876
_cell_angle_beta   89.85992061
_cell_angle_gamma   118.87425071
_symmetry_Int_Tables_number   1
_chemical_formula_structural   BaCaBO3F
_chemical_formula_sum   'Ba3 Ca3 B3 O9 F3'
_cell_volume   319.11136738
_cell_formula_units_Z   3
loop_
 _symmetry_equiv_pos_site_id
 _symmetry_equiv_pos_as_xyz
  1  'x, y, z'
loop_
 _atom_site_type_symbol
 _atom_site_label
 _atom_site_symmetry_multiplicity
 _atom_site_fract_x
 _atom_site_fract_y
 _atom_site_fract_z
 _atom_site_occupancy
  Ba  Ba0  1  0.994063  0.288918  0.542474  1
  Ba  Ba1  1  0.297765  0.014257  0.477410  1
  Ba  Ba2  1  0.701836  0.708027  0.485290  1
  Ca  Ca3  1  0.385515  0.389038  0.979388  1
  Ca  Ca4  1  0.609439  0.998869  0.977936  1
  Ca  Ca5  1  0.997820  0.623389  0.027642  1
  B  B6  1  0.325537  0.669581  0.996668  1
  B  B7  1  0.997766  0.998934  0.978050  1
  B  B8  1  0.670140  0.340134  0.999776  1
  O  O9  1  0.300875  0.812347  0.983414  1
  O  O10  1  0.188234  0.504397  0.005670  1
  O  O11  1  0.147679  0.134995  0.882403  1
  O  O12  1  0.487792  0.691780  0.000146  1
  O  O13  1  0.508352  0.201489  0.996742  1
  O  O14  1  0.693611  0.506738  0.989628  1
  O  O15  1  0.997201  0.879888  0.175658  1
  O  O16  1  0.808060  0.311592  0.011628  1
  O  O17  1  0.848646  0.984386  0.871148  1
  F  F18  1  0.385952  0.384883  0.477431  1
  F  F19  1  0.610146  0.002985  0.476562  1
  F  F20  1  0.986570  0.610375  0.529937  1
