# generated using pymatgen
data_LiCoH24C8(N2O3)4
_symmetry_space_group_name_H-M   'P 1'
_cell_length_a   9.06656020
_cell_length_b   9.06656022
_cell_length_c   7.18644924
_cell_angle_alpha   90.00000000
_cell_angle_beta   90.00000000
_cell_angle_gamma   119.99999993
_symmetry_Int_Tables_number   1
_chemical_formula_structural   LiCoH24C8(N2O3)4
_chemical_formula_sum   'Li1 Co1 H24 C8 N8 O12'
_cell_volume   511.59947992
_cell_formula_units_Z   1
loop_
 _symmetry_equiv_pos_site_id
 _symmetry_equiv_pos_as_xyz
  1  'x, y, z'
loop_
 _atom_site_type_symbol
 _atom_site_label
 _atom_site_symmetry_multiplicity
 _atom_site_fract_x
 _atom_site_fract_y
 _atom_site_fract_z
 _atom_site_occupancy
  Li  Li0  1  0.000000  0.000000  0.500000  1
  Co  Co1  1  0.000000  0.000000  0.000000  1
  H  H2  1  0.355741  0.910538  0.658860  1
  H  H3  1  0.267228  0.732772  0.382319  1
  H  H4  1  0.554797  0.910538  0.658860  1
  H  H5  1  0.577141  0.422859  0.137480  1
  H  H6  1  0.445203  0.089462  0.341140  1
  H  H7  1  0.910538  0.554797  0.341140  1
  H  H8  1  0.554797  0.644259  0.658860  1
  H  H9  1  0.355741  0.445203  0.658860  1
  H  H10  1  0.910538  0.355741  0.341140  1
  H  H11  1  0.732772  0.267228  0.617681  1
  H  H12  1  0.845719  0.422859  0.137480  1
  H  H13  1  0.445203  0.355741  0.341140  1
  H  H14  1  0.089462  0.644259  0.658860  1
  H  H15  1  0.644259  0.554797  0.341140  1
  H  H16  1  0.422859  0.577141  0.862520  1
  H  H17  1  0.154281  0.577141  0.862520  1
  H  H18  1  0.089462  0.445203  0.658860  1
  H  H19  1  0.267228  0.534457  0.382319  1
  H  H20  1  0.577141  0.154281  0.137480  1
  H  H21  1  0.465543  0.732772  0.382319  1
  H  H22  1  0.732772  0.465543  0.617681  1
  H  H23  1  0.534457  0.267228  0.617681  1
  H  H24  1  0.422859  0.845719  0.862520  1
  H  H25  1  0.644259  0.089462  0.341140  1
  C  C26  1  0.847018  0.423509  0.289560  1
  C  C27  1  0.576491  0.423509  0.289560  1
  C  C28  1  0.576491  0.152982  0.289560  1
  C  C29  1  0.152982  0.576491  0.710440  1
  C  C30  1  0.423509  0.576491  0.710440  1
  C  C31  1  0.423509  0.847018  0.710440  1
  C  C32  1  0.666667  0.333333  0.568367  1
  C  C33  1  0.333333  0.666667  0.431633  1
  N  N34  1  0.666667  0.333333  0.359307  1
  N  N35  1  0.893451  0.786902  0.849233  1
  N  N36  1  0.893451  0.106549  0.849233  1
  N  N37  1  0.786902  0.893451  0.150767  1
  N  N38  1  0.106549  0.213098  0.150767  1
  N  N39  1  0.333333  0.666667  0.640693  1
  N  N40  1  0.106549  0.893451  0.150767  1
  N  N41  1  0.213098  0.106549  0.849233  1
  O  O42  1  0.175923  0.351845  0.067852  1
  O  O43  1  0.894259  0.788519  0.674273  1
  O  O44  1  0.648155  0.824077  0.067852  1
  O  O45  1  0.175923  0.824077  0.067852  1
  O  O46  1  0.894259  0.105741  0.674273  1
  O  O47  1  0.105741  0.894259  0.325727  1
  O  O48  1  0.211481  0.105741  0.674273  1
  O  O49  1  0.788519  0.894259  0.325727  1
  O  O50  1  0.824077  0.175923  0.932148  1
  O  O51  1  0.824077  0.648155  0.932148  1
  O  O52  1  0.105741  0.211481  0.325727  1
  O  O53  1  0.351845  0.175923  0.932148  1
