# generated using pymatgen
data_Yb3(Sb7Te12)2
_symmetry_space_group_name_H-M   'P 1'
_cell_length_a   8.29427206
_cell_length_b   8.67997492
_cell_length_c   25.96883887
_cell_angle_alpha   109.40212007
_cell_angle_beta   110.09977180
_cell_angle_gamma   109.69484172
_symmetry_Int_Tables_number   1
_chemical_formula_structural   Yb3(Sb7Te12)2
_chemical_formula_sum   'Yb3 Sb14 Te24'
_cell_volume   1425.10233438
_cell_formula_units_Z   1
loop_
 _symmetry_equiv_pos_site_id
 _symmetry_equiv_pos_as_xyz
  1  'x, y, z'
loop_
 _atom_site_type_symbol
 _atom_site_label
 _atom_site_symmetry_multiplicity
 _atom_site_fract_x
 _atom_site_fract_y
 _atom_site_fract_z
 _atom_site_occupancy
  Yb  Yb0  1  0.106804  0.702033  0.957585  1
  Yb  Yb1  1  0.278010  0.656908  0.798193  1
  Yb  Yb2  1  0.621507  0.364457  0.072192  1
  Sb  Sb3  1  0.986592  0.738765  0.586549  1
  Sb  Sb4  1  0.330606  0.311465  0.875659  1
  Sb  Sb5  1  0.007276  0.721011  0.259304  1
  Sb  Sb6  1  0.481876  0.263307  0.732811  1
  Sb  Sb7  1  0.492352  0.266545  0.578966  1
  Sb  Sb8  1  0.744996  0.952445  0.743527  1
  Sb  Sb9  1  0.837548  0.061767  0.930114  1
  Sb  Sb10  1  0.244484  0.691973  0.137328  1
  Sb  Sb11  1  0.512264  0.264094  0.415648  1
  Sb  Sb12  1  0.513574  0.279518  0.245335  1
  Sb  Sb13  1  0.755118  0.965645  0.401622  1
  Sb  Sb14  1  0.972580  0.228381  0.576870  1
  Sb  Sb15  1  0.746246  0.930149  0.057046  1
  Sb  Sb16  1  0.005646  0.229090  0.255773  1
  Te  Te17  1  0.023252  0.923979  0.844401  1
  Te  Te18  1  0.006700  0.377014  0.822111  1
  Te  Te19  1  0.027326  0.910678  0.501913  1
  Te  Te20  1  0.506373  0.018900  0.797275  1
  Te  Te21  1  0.054316  0.087585  0.684417  1
  Te  Te22  1  0.005478  0.378063  0.491175  1
  Te  Te23  1  0.419860  0.502097  0.672295  1
  Te  Te24  1  0.480272  0.971685  0.953788  1
  Te  Te25  1  0.638813  0.614309  0.867650  1
  Te  Te26  1  0.488404  0.995062  0.628278  1
  Te  Te27  1  0.000845  0.853399  0.160803  1
  Te  Te28  1  0.509656  0.985139  0.462274  1
  Te  Te29  1  0.075897  0.076666  0.354098  1
  Te  Te30  1  0.438389  0.492602  0.339613  1
  Te  Te31  1  0.556971  0.565725  0.527800  1
  Te  Te32  1  0.927317  0.530262  0.663185  1
  Te  Te33  1  0.521523  0.992849  0.126780  1
  Te  Te34  1  0.119583  0.077283  0.035903  1
  Te  Te35  1  0.395149  0.524756  0.998048  1
  Te  Te36  1  0.582125  0.549591  0.191617  1
  Te  Te37  1  0.495452  0.991436  0.293256  1
  Te  Te38  1  0.939090  0.506861  0.333654  1
  Te  Te39  1  0.897192  0.461488  0.006665  1
  Te  Te40  1  0.002542  0.360019  0.160148  1
