# generated using pymatgen
data_CeP5O14
_symmetry_space_group_name_H-M   'P 1'
_cell_length_a   8.94657901
_cell_length_b   9.22317487
_cell_length_c   13.27491647
_cell_angle_alpha   89.99542538
_cell_angle_beta   89.99797282
_cell_angle_gamma   90.03131102
_symmetry_Int_Tables_number   1
_chemical_formula_structural   CeP5O14
_chemical_formula_sum   'Ce4 P20 O56'
_cell_volume   1095.39101687
_cell_formula_units_Z   4
loop_
 _symmetry_equiv_pos_site_id
 _symmetry_equiv_pos_as_xyz
  1  'x, y, z'
loop_
 _atom_site_type_symbol
 _atom_site_label
 _atom_site_symmetry_multiplicity
 _atom_site_fract_x
 _atom_site_fract_y
 _atom_site_fract_z
 _atom_site_occupancy
  Ce  Ce0  1  0.276930  0.188911  0.000000  1
  Ce  Ce1  1  0.276949  0.311174  0.499999  1
  Ce  Ce2  1  0.723080  0.811100  0.000002  1
  Ce  Ce3  1  0.723063  0.688712  0.500021  1
  P  P4  1  0.686955  0.252827  0.499997  1
  P  P5  1  0.313037  0.747160  0.500000  1
  P  P6  1  0.235687  0.950244  0.663215  1
  P  P7  1  0.000018  0.499997  0.676143  1
  P  P8  1  0.687040  0.247186  0.000003  1
  P  P9  1  0.764312  0.049767  0.663219  1
  P  P10  1  0.500008  -0.000016  0.793908  1
  P  P11  1  0.235683  0.549819  0.163170  1
  P  P12  1  0.000008  0.499997  0.323857  1
  P  P13  1  0.764324  0.450201  0.163163  1
  P  P14  1  0.312993  0.752802  0.999997  1
  P  P15  1  0.499986  0.499995  0.293892  1
  P  P16  1  0.764318  0.450211  0.836836  1
  P  P17  1  0.499982  0.499988  0.706107  1
  P  P18  1  -0.000016  -0.000023  0.176230  1
  P  P19  1  0.235680  0.950254  0.336781  1
  P  P20  1  -0.000012  -0.000016  0.823770  1
  P  P21  1  0.235677  0.549830  0.836832  1
  P  P22  1  0.764308  0.049778  0.336782  1
  P  P23  1  0.500017  -0.000015  0.206092  1
  O  O24  1  0.414072  0.114518  0.847556  1
  O  O25  1  0.774746  0.907869  0.612618  1
  O  O26  1  0.534686  0.186743  0.500001  1
  O  O27  1  0.786496  0.187284  0.593483  1
  O  O28  1  0.225232  0.092136  0.387396  1
  O  O29  1  0.112485  0.917945  0.254986  1
  O  O30  1  0.213539  0.687227  0.093517  1
  O  O31  1  0.609550  0.415045  0.784376  1
  O  O32  1  0.390461  0.584975  0.784369  1
  O  O33  1  0.390335  0.915029  0.715617  1
  O  O34  1  0.465279  0.686808  1.000000  1
  O  O35  1  0.887556  0.417943  0.245015  1
  O  O36  1  0.887556  0.417942  0.754986  1
  O  O37  1  0.774752  0.907862  0.387379  1
  O  O38  1  0.585994  0.614601  0.347567  1
  O  O39  1  0.080498  0.382597  0.621678  1
  O  O40  1  0.413999  0.385386  0.347554  1
  O  O41  1  0.919477  0.882576  0.878353  1
  O  O42  1  0.710950  0.087725  0.000001  1
  O  O43  1  0.288992  0.587691  0.500001  1
  O  O44  1  0.919480  0.617407  0.621687  1
  O  O45  1  0.225226  0.407889  0.887409  1
  O  O46  1  0.112481  0.917944  0.745017  1
  O  O47  1  0.609547  0.415045  0.215626  1
  O  O48  1  0.887523  0.082068  0.745007  1
  O  O49  1  0.225227  0.407896  0.112594  1
  O  O50  1  0.289025  0.912263  -0.000001  1
  O  O51  1  0.213543  0.687223  0.906481  1
  O  O52  1  0.213508  0.812718  0.406520  1
  O  O53  1  0.919476  0.617402  0.378312  1
  O  O54  1  0.414003  0.385391  0.652450  1
  O  O55  1  0.919481  0.882582  0.121652  1
  O  O56  1  0.080498  0.382593  0.378324  1
  O  O57  1  0.786443  0.312802  0.093521  1
  O  O58  1  0.112434  0.582066  0.754986  1
  O  O59  1  0.774793  0.592108  0.112591  1
  O  O60  1  0.465322  0.813270  0.500001  1
  O  O61  1  0.786494  0.187280  0.406512  1
  O  O62  1  0.534745  0.313196  -0.000000  1
  O  O63  1  0.786446  0.312800  0.906478  1
  O  O64  1  0.774791  0.592102  0.887405  1
  O  O65  1  0.213511  0.812723  0.593484  1
  O  O66  1  0.390333  0.915026  0.284385  1
  O  O67  1  0.711014  0.412324  0.499997  1
  O  O68  1  0.585942  0.885468  0.847561  1
  O  O69  1  0.225232  0.092142  0.612601  1
  O  O70  1  0.390455  0.584975  0.215627  1
  O  O71  1  0.609659  0.084985  0.284387  1
  O  O72  1  0.080523  0.117404  0.121657  1
  O  O73  1  0.112435  0.582068  0.245012  1
  O  O74  1  0.887529  0.082071  0.254987  1
  O  O75  1  0.585942  0.885471  0.152440  1
  O  O76  1  0.414072  0.114520  0.152441  1
  O  O77  1  0.609661  0.084987  0.715610  1
  O  O78  1  0.585997  0.614603  0.652430  1
  O  O79  1  0.080520  0.117398  0.878337  1
