# generated using pymatgen
data_CsRe6Se8I3
_symmetry_space_group_name_H-M   'P 1'
_cell_length_a   6.67504528
_cell_length_b   16.08258567
_cell_length_c   20.04158002
_cell_angle_alpha   89.99962079
_cell_angle_beta   89.99979231
_cell_angle_gamma   96.85763640
_symmetry_Int_Tables_number   1
_chemical_formula_structural   CsRe6Se8I3
_chemical_formula_sum   'Cs4 Re24 Se32 I12'
_cell_volume   2136.11137310
_cell_formula_units_Z   4
loop_
 _symmetry_equiv_pos_site_id
 _symmetry_equiv_pos_as_xyz
  1  'x, y, z'
loop_
 _atom_site_type_symbol
 _atom_site_label
 _atom_site_symmetry_multiplicity
 _atom_site_fract_x
 _atom_site_fract_y
 _atom_site_fract_z
 _atom_site_occupancy
  Cs  Cs0  1  0.218298  0.752073  0.980732  1
  Cs  Cs1  1  0.718299  0.252071  0.519269  1
  Cs  Cs2  1  0.781704  0.247928  0.019266  1
  Cs  Cs3  1  0.281696  0.747929  0.480734  1
  Re  Re4  1  0.282360  0.958260  0.262036  1
  Re  Re5  1  0.449515  0.453369  0.164205  1
  Re  Re6  1  0.050482  0.046632  0.664203  1
  Re  Re7  1  0.550484  0.546635  0.835792  1
  Re  Re8  1  0.717637  0.041737  0.737962  1
  Re  Re9  1  0.784747  0.039199  0.241985  1
  Re  Re10  1  0.217647  0.541742  0.762032  1
  Re  Re11  1  0.069962  0.101658  0.791374  1
  Re  Re12  1  0.882524  0.956025  0.831908  1
  Re  Re13  1  0.117473  0.043972  0.168095  1
  Re  Re14  1  0.863036  0.900846  0.704907  1
  Re  Re15  1  0.636959  0.599151  0.204909  1
  Re  Re16  1  0.430032  0.398338  0.291377  1
  Re  Re17  1  0.569963  0.601660  0.708626  1
  Re  Re18  1  0.382531  0.456029  0.668091  1
  Re  Re19  1  0.782362  0.458259  0.237965  1
  Re  Re20  1  0.284757  0.539199  0.258018  1
  Re  Re21  1  0.136963  0.099153  0.295094  1
  Re  Re22  1  0.715245  0.460803  0.741984  1
  Re  Re23  1  0.930036  0.898343  0.208624  1
  Re  Re24  1  0.215247  0.960802  0.758016  1
  Re  Re25  1  0.617462  0.543974  0.331912  1
  Re  Re26  1  0.363046  0.400851  0.795088  1
  Re  Re27  1  0.949519  0.953369  0.335795  1
  Se  Se28  1  0.447944  0.107756  0.221471  1
  Se  Se29  1  0.592707  0.320068  0.199363  1
  Se  Se30  1  0.254703  0.906518  0.141908  1
  Se  Se31  1  0.119338  0.389679  0.217538  1
  Se  Se32  1  0.813024  0.090886  0.362133  1
  Se  Se33  1  0.292048  0.010483  0.381743  1
  Se  Se34  1  0.774623  0.987194  0.122347  1
  Se  Se35  1  0.313028  0.590885  0.137867  1
  Se  Se36  1  0.947947  0.607759  0.278531  1
  Se  Se37  1  0.619331  0.889678  0.282462  1
  Se  Se38  1  0.052057  0.392243  0.721470  1
  Se  Se39  1  0.245291  0.593485  0.641907  1
  Se  Se40  1  0.974138  0.177186  0.203013  1
  Se  Se41  1  0.707951  0.989516  0.618256  1
  Se  Se42  1  0.907285  0.179927  0.699361  1
  Se  Se43  1  0.686985  0.409116  0.862132  1
  Se  Se44  1  0.880664  0.610321  0.782460  1
  Se  Se45  1  0.025856  0.822812  0.796988  1
  Se  Se46  1  0.725371  0.512809  0.622346  1
  Se  Se47  1  0.274632  0.487194  0.377656  1
  Se  Se48  1  0.474147  0.677184  0.296991  1
  Se  Se49  1  0.525851  0.322816  0.703012  1
  Se  Se50  1  0.552057  0.892244  0.778528  1
  Se  Se51  1  0.092715  0.820069  0.300637  1
  Se  Se52  1  0.186981  0.909113  0.637867  1
  Se  Se53  1  0.407292  0.679932  0.800637  1
  Se  Se54  1  0.754709  0.406515  0.358095  1
  Se  Se55  1  0.380665  0.110317  0.717539  1
  Se  Se56  1  0.745285  0.093482  0.858091  1
  Se  Se57  1  0.207952  0.489518  0.881744  1
  Se  Se58  1  0.225372  0.012807  0.877653  1
  Se  Se59  1  0.792052  0.510483  0.118256  1
  I  I60  1  0.280520  0.250342  0.365116  1
  I  I61  1  0.259658  0.388857  0.544279  1
  I  I62  1  0.759658  0.888855  0.955723  1
  I  I63  1  0.240345  0.111145  0.044278  1
  I  I64  1  0.719484  0.749660  0.634885  1
  I  I65  1  0.740341  0.611141  0.455722  1
  I  I66  1  0.675370  0.615075  0.959252  1
  I  I67  1  0.175376  0.115073  0.540745  1
  I  I68  1  0.324624  0.384925  0.040745  1
  I  I69  1  0.219495  0.249663  0.865114  1
  I  I70  1  0.824630  0.884923  0.459256  1
  I  I71  1  0.780514  0.750336  0.134883  1
