# generated using pymatgen
data_Ba2CaTl2(CuO4)2
_symmetry_space_group_name_H-M   'P 1'
_cell_length_a   3.88583288
_cell_length_b   3.88583288
_cell_length_c   15.47596925
_cell_angle_alpha   97.21217722
_cell_angle_beta   97.21217723
_cell_angle_gamma   89.99999994
_symmetry_Int_Tables_number   1
_chemical_formula_structural   Ba2CaTl2(CuO4)2
_chemical_formula_sum   'Ba2 Ca1 Tl2 Cu2 O8'
_cell_volume   229.96981385
_cell_formula_units_Z   1
loop_
 _symmetry_equiv_pos_site_id
 _symmetry_equiv_pos_as_xyz
  1  'x, y, z'
loop_
 _atom_site_type_symbol
 _atom_site_label
 _atom_site_symmetry_multiplicity
 _atom_site_fract_x
 _atom_site_fract_y
 _atom_site_fract_z
 _atom_site_occupancy
  O  O0  1  0.219356  0.219356  0.438712  1
  O  O1  1  0.780644  0.780644  0.561288  1
  O  O2  1  0.354510  0.354510  0.709020  1
  O  O3  1  0.645490  0.645490  0.290980  1
  O  O4  1  0.948178  0.448178  0.896355  1
  O  O5  1  0.448178  0.948178  0.896355  1
  O  O6  1  0.051822  0.551822  0.103645  1
  O  O7  1  0.551822  0.051822  0.103645  1
  Ca  Ca8  1  0.000000  0.000000  0.000000  1
  Cu  Cu9  1  0.450076  0.450076  0.900152  1
  Cu  Cu10  1  0.549924  0.549924  0.099848  1
  Ba  Ba11  1  0.882997  0.882997  0.765995  1
  Ba  Ba12  1  0.117003  0.117003  0.234005  1
  Tl  Tl13  1  0.287752  0.287752  0.575504  1
  Tl  Tl14  1  0.712248  0.712248  0.424496  1
