# generated using pymatgen
data_In(HO)3
_symmetry_space_group_name_H-M   'P 1'
_cell_length_a   6.99805383
_cell_length_b   6.96446981
_cell_length_c   7.04525448
_cell_angle_alpha   108.75818934
_cell_angle_beta   112.78780340
_cell_angle_gamma   106.86943678
_symmetry_Int_Tables_number   1
_chemical_formula_structural   In(HO)3
_chemical_formula_sum   'In4 H12 O12'
_cell_volume   263.76386666
_cell_formula_units_Z   4
loop_
 _symmetry_equiv_pos_site_id
 _symmetry_equiv_pos_as_xyz
  1  'x, y, z'
loop_
 _atom_site_type_symbol
 _atom_site_label
 _atom_site_symmetry_multiplicity
 _atom_site_fract_x
 _atom_site_fract_y
 _atom_site_fract_z
 _atom_site_occupancy
  In  In0  1  0.017654  0.001744  0.502128  1
  In  In1  1  0.495179  0.509899  0.497829  1
  In  In2  1  0.480813  0.981734  0.989757  1
  In  In3  1  0.037229  0.538496  0.025148  1
  H  H4  1  0.159843  0.463775  0.625950  1
  H  H5  1  0.307493  0.282888  0.980959  1
  H  H6  1  0.371213  0.843280  0.545591  1
  H  H7  1  0.362738  0.052580  0.329474  1
  H  H8  1  0.553255  0.724513  0.182974  1
  H  H9  1  0.697830  0.648573  0.954794  1
  H  H10  1  0.704076  0.181765  0.542075  1
  H  H11  1  0.723747  0.048259  0.694036  1
  H  H12  1  0.031041  0.675448  0.714849  1
  H  H13  1  0.794235  0.581606  0.377077  1
  H  H14  1  0.771233  0.399041  0.168309  1
  H  H15  1  0.005632  0.317212  0.329346  1
  O  O16  1  0.162338  0.655555  0.821608  1
  O  O17  1  0.165553  0.847680  0.335675  1
  O  O18  1  0.144088  0.335112  0.485991  1
  O  O19  1  0.300675  0.149282  0.852743  1
  O  O20  1  0.506258  0.843570  0.676508  1
  O  O21  1  0.330261  0.490378  0.167725  1
  O  O22  1  0.706709  0.536359  0.832615  1
  O  O23  1  0.496827  0.170162  0.336013  1
  O  O24  1  0.671368  0.835513  0.170238  1
  O  O25  1  0.834514  0.696201  0.527444  1
  O  O26  1  0.827467  0.165053  0.670366  1
  O  O27  1  0.827631  0.290221  0.126778  1
