# generated using pymatgen
data_PWC5Br3O5
_symmetry_space_group_name_H-M   'P 1'
_cell_length_a   6.96598030
_cell_length_b   13.51270276
_cell_length_c   13.76977489
_cell_angle_alpha   90.00000000
_cell_angle_beta   90.00000000
_cell_angle_gamma   92.55594054
_symmetry_Int_Tables_number   1
_chemical_formula_structural   PWC5Br3O5
_chemical_formula_sum   'P4 W4 C20 Br12 O20'
_cell_volume   1294.84873398
_cell_formula_units_Z   4
loop_
 _symmetry_equiv_pos_site_id
 _symmetry_equiv_pos_as_xyz
  1  'x, y, z'
loop_
 _atom_site_type_symbol
 _atom_site_label
 _atom_site_symmetry_multiplicity
 _atom_site_fract_x
 _atom_site_fract_y
 _atom_site_fract_z
 _atom_site_occupancy
  P  P0  1  0.312414  0.334994  0.366938  1
  P  P1  1  0.687586  0.165006  0.866938  1
  P  P2  1  0.687586  0.665006  0.633062  1
  P  P3  1  0.312414  0.834994  0.133062  1
  W  W4  1  0.711943  0.605422  0.804628  1
  W  W5  1  0.288057  0.394578  0.195372  1
  W  W6  1  0.288057  0.894578  0.304628  1
  W  W7  1  0.711943  0.105422  0.695372  1
  C  C8  1  0.738326  0.055048  0.554987  1
  C  C9  1  0.261674  0.944952  0.445013  1
  C  C10  1  0.426469  0.527843  0.238766  1
  C  C11  1  0.573531  0.972157  0.738766  1
  C  C12  1  0.155184  0.758156  0.342476  1
  C  C13  1  0.844816  0.241844  0.657524  1
  C  C14  1  0.155184  0.258156  0.157524  1
  C  C15  1  0.261674  0.444952  0.054987  1
  C  C16  1  0.552089  0.835142  0.338398  1
  C  C17  1  0.573531  0.472157  0.761234  1
  C  C18  1  0.025935  0.452456  0.234479  1
  C  C19  1  0.426469  0.027843  0.261234  1
  C  C20  1  0.447911  0.664858  0.838398  1
  C  C21  1  0.025935  0.952456  0.265521  1
  C  C22  1  0.738326  0.555048  0.945013  1
  C  C23  1  0.974065  0.047544  0.734479  1
  C  C24  1  0.447911  0.164858  0.661602  1
  C  C25  1  0.844816  0.741844  0.842476  1
  C  C26  1  0.974065  0.547544  0.765521  1
  C  C27  1  0.552089  0.335142  0.161602  1
  Br  Br28  1  0.236985  0.942209  0.017935  1
  Br  Br29  1  0.763015  0.057791  0.982065  1
  Br  Br30  1  0.399677  0.711784  0.581754  1
  Br  Br31  1  0.763015  0.557791  0.517935  1
  Br  Br32  1  0.399677  0.211784  0.918246  1
  Br  Br33  1  0.600323  0.288216  0.418246  1
  Br  Br34  1  0.879151  0.297035  0.906826  1
  Br  Br35  1  0.879151  0.797035  0.593174  1
  Br  Br36  1  0.120849  0.202965  0.406826  1
  Br  Br37  1  0.600323  0.788216  0.081754  1
  Br  Br38  1  0.236985  0.442209  0.482065  1
  Br  Br39  1  0.120849  0.702965  0.093174  1
  O  O40  1  0.245827  0.472595  0.975241  1
  O  O41  1  0.245827  0.972595  0.524759  1
  O  O42  1  0.087125  0.680666  0.361793  1
  O  O43  1  0.912875  0.819334  0.861793  1
  O  O44  1  0.881867  0.485197  0.258324  1
  O  O45  1  0.302081  0.199026  0.643782  1
  O  O46  1  0.499321  0.897847  0.763884  1
  O  O47  1  0.500679  0.602153  0.263884  1
  O  O48  1  0.754173  0.527405  0.024758  1
  O  O49  1  0.087125  0.180666  0.138207  1
  O  O50  1  0.499321  0.397847  0.736116  1
  O  O51  1  0.118133  0.514803  0.741676  1
  O  O52  1  0.697919  0.300974  0.143782  1
  O  O53  1  0.754173  0.027405  0.475241  1
  O  O54  1  0.302081  0.699026  0.856218  1
  O  O55  1  0.118133  0.014803  0.758324  1
  O  O56  1  0.697919  0.800974  0.356218  1
  O  O57  1  0.500679  0.102153  0.236116  1
  O  O58  1  0.912875  0.319334  0.638207  1
  O  O59  1  0.881867  0.985197  0.241676  1
