# generated using pymatgen
data_K2IrCBr5O
_symmetry_space_group_name_H-M   'P 1'
_cell_length_a   7.37251919
_cell_length_b   10.56572371
_cell_length_c   15.66689218
_cell_angle_alpha   90.00000000
_cell_angle_beta   90.00000000
_cell_angle_gamma   90.00000000
_symmetry_Int_Tables_number   1
_chemical_formula_structural   K2IrCBr5O
_chemical_formula_sum   'K8 Ir4 C4 Br20 O4'
_cell_volume   1220.38824592
_cell_formula_units_Z   4
loop_
 _symmetry_equiv_pos_site_id
 _symmetry_equiv_pos_as_xyz
  1  'x, y, z'
loop_
 _atom_site_type_symbol
 _atom_site_label
 _atom_site_symmetry_multiplicity
 _atom_site_fract_x
 _atom_site_fract_y
 _atom_site_fract_z
 _atom_site_occupancy
  K  K0  1  0.846315  0.499119  0.650206  1
  K  K1  1  0.346315  0.999119  0.849794  1
  K  K2  1  0.153685  0.999119  0.349794  1
  K  K3  1  0.653685  0.499119  0.150206  1
  K  K4  1  0.346315  0.500881  0.849794  1
  K  K5  1  0.653685  0.000882  0.150206  1
  K  K6  1  0.153685  0.500881  0.349794  1
  K  K7  1  0.846315  0.000882  0.650206  1
  Ir  Ir8  1  0.200110  0.250000  0.125080  1
  Ir  Ir9  1  0.799890  0.750000  0.874920  1
  Ir  Ir10  1  0.700110  0.750000  0.374920  1
  Ir  Ir11  1  0.299890  0.250000  0.625080  1
  C  C12  1  0.969616  0.250000  0.951654  1
  C  C13  1  0.469616  0.750000  0.548346  1
  C  C14  1  0.030384  0.750000  0.048346  1
  C  C15  1  0.530384  0.250000  0.451654  1
  Br  Br16  1  0.691913  0.988768  0.376619  1
  Br  Br17  1  0.808087  0.511232  0.876619  1
  Br  Br18  1  0.575466  0.250000  0.720178  1
  Br  Br19  1  0.191913  0.011232  0.123381  1
  Br  Br20  1  0.308087  0.011232  0.623381  1
  Br  Br21  1  0.191913  0.488768  0.123381  1
  Br  Br22  1  0.964008  0.750000  0.479362  1
  Br  Br23  1  0.599135  0.750000  0.750216  1
  Br  Br24  1  0.464008  0.250000  0.020638  1
  Br  Br25  1  0.400865  0.250000  0.249784  1
  Br  Br26  1  0.691913  0.511232  0.376619  1
  Br  Br27  1  0.308087  0.488768  0.623381  1
  Br  Br28  1  0.099135  0.250000  0.749784  1
  Br  Br29  1  0.424534  0.750000  0.279822  1
  Br  Br30  1  0.808087  0.988768  0.876619  1
  Br  Br31  1  0.924534  0.250000  0.220178  1
  Br  Br32  1  0.535992  0.750000  0.979362  1
  Br  Br33  1  0.900865  0.750000  0.250216  1
  Br  Br34  1  0.075466  0.750000  0.779822  1
  Br  Br35  1  0.035992  0.250000  0.520638  1
  O  O36  1  0.961719  0.750000  0.981839  1
  O  O37  1  0.461719  0.250000  0.518161  1
  O  O38  1  0.538281  0.750000  0.481839  1
  O  O39  1  0.038281  0.250000  0.018161  1
