# generated using pymatgen
data_CaAlH5
_symmetry_space_group_name_H-M   'P 1'
_cell_length_a   6.47146918
_cell_length_b   10.90728747
_cell_length_c   10.80950260
_cell_angle_alpha   103.02726882
_cell_angle_beta   90.00000000
_cell_angle_gamma   90.00000000
_symmetry_Int_Tables_number   1
_chemical_formula_structural   CaAlH5
_chemical_formula_sum   'Ca8 Al8 H40'
_cell_volume   743.36398923
_cell_formula_units_Z   8
loop_
 _symmetry_equiv_pos_site_id
 _symmetry_equiv_pos_as_xyz
  1  'x, y, z'
loop_
 _atom_site_type_symbol
 _atom_site_label
 _atom_site_symmetry_multiplicity
 _atom_site_fract_x
 _atom_site_fract_y
 _atom_site_fract_z
 _atom_site_occupancy
  Ca  Ca0  1  0.305706  0.852865  0.020308  1
  Ca  Ca1  1  0.194781  0.303784  0.820551  1
  Ca  Ca2  1  0.694781  0.196216  0.679449  1
  Ca  Ca3  1  0.194294  0.352865  0.520308  1
  Ca  Ca4  1  0.805219  0.696216  0.179449  1
  Ca  Ca5  1  0.305219  0.803784  0.320551  1
  Ca  Ca6  1  0.694294  0.147135  0.979692  1
  Ca  Ca7  1  0.805706  0.647135  0.479692  1
  Al  Al8  1  0.302948  0.590461  0.840103  1
  Al  Al9  1  0.293556  0.498970  0.308948  1
  Al  Al10  1  0.706444  0.501030  0.691052  1
  Al  Al11  1  0.793556  0.001030  0.191052  1
  Al  Al12  1  0.697052  0.409539  0.159897  1
  Al  Al13  1  0.206444  -0.001030  0.808948  1
  Al  Al14  1  0.802948  0.909539  0.659897  1
  Al  Al15  1  0.197052  0.090461  0.340103  1
  H  H16  1  0.850918  0.622407  0.689235  1
  H  H17  1  0.772126  0.917112  0.293312  1
  H  H18  1  0.883365  0.304453  0.108463  1
  H  H19  1  0.659181  0.012130  0.772109  1
  H  H20  1  0.909991  0.200587  0.846860  1
  H  H21  1  0.227874  0.082888  0.706688  1
  H  H22  1  0.278849  0.570748  0.463204  1
  H  H23  1  0.528150  0.434778  0.301546  1
  H  H24  1  0.409991  0.299413  0.653140  1
  H  H25  1  0.149082  0.377593  0.310765  1
  H  H26  1  0.991987  0.285404  0.649736  1
  H  H27  1  0.508013  0.785404  0.149736  1
  H  H28  1  0.182673  0.988792  0.431312  1
  H  H29  1  0.028150  0.065222  0.198454  1
  H  H30  1  0.317327  0.488792  0.931312  1
  H  H31  1  0.272126  0.582888  0.206688  1
  H  H32  1  0.840819  0.512130  0.272109  1
  H  H33  1  0.008013  0.714596  0.350264  1
  H  H34  1  0.590009  0.700587  0.346860  1
  H  H35  1  0.471850  0.565222  0.698454  1
  H  H36  1  0.489205  0.692438  0.905168  1
  H  H37  1  0.340819  0.987870  0.227891  1
  H  H38  1  0.116635  0.695547  0.891537  1
  H  H39  1  0.616635  0.804453  0.608463  1
  H  H40  1  0.721151  0.429252  0.536796  1
  H  H41  1  0.159181  0.487870  0.727891  1
  H  H42  1  0.510795  0.307562  0.094832  1
  H  H43  1  0.221151  0.070748  0.963204  1
  H  H44  1  0.383365  0.195547  0.391537  1
  H  H45  1  0.682673  0.511208  0.068688  1
  H  H46  1  0.817327  0.011208  0.568688  1
  H  H47  1  0.491987  0.214596  0.850264  1
  H  H48  1  0.971850  0.934778  0.801546  1
  H  H49  1  0.989205  0.807562  0.594832  1
  H  H50  1  0.010795  0.192438  0.405168  1
  H  H51  1  0.778849  0.929252  0.036796  1
  H  H52  1  0.649082  0.122407  0.189235  1
  H  H53  1  0.350918  0.877593  0.810765  1
  H  H54  1  0.727874  0.417112  0.793312  1
  H  H55  1  0.090009  0.799413  0.153140  1
