# generated using pymatgen
data_Ba4Sm7Si12BN27
_symmetry_space_group_name_H-M   'P 1'
_cell_length_a   12.26139519
_cell_length_b   12.26139511
_cell_length_c   5.45814436
_cell_angle_alpha   90.00000000
_cell_angle_beta   90.00000000
_cell_angle_gamma   120.00000022
_symmetry_Int_Tables_number   1
_chemical_formula_structural   Ba4Sm7Si12BN27
_chemical_formula_sum   'Ba4 Sm7 Si12 B1 N27'
_cell_volume   710.64945327
_cell_formula_units_Z   1
loop_
 _symmetry_equiv_pos_site_id
 _symmetry_equiv_pos_as_xyz
  1  'x, y, z'
loop_
 _atom_site_type_symbol
 _atom_site_label
 _atom_site_symmetry_multiplicity
 _atom_site_fract_x
 _atom_site_fract_y
 _atom_site_fract_z
 _atom_site_occupancy
  Ba  Ba0  1  0.923039  0.488483  0.500000  1
  Ba  Ba1  1  0.511517  0.434556  0.500000  1
  Ba  Ba2  1  0.333333  0.666667  0.500000  1
  Ba  Ba3  1  0.565444  0.076961  0.500000  1
  Sm  Sm4  1  0.781566  0.023923  0.000000  1
  Sm  Sm5  1  0.678751  0.706275  0.000000  1
  Sm  Sm6  1  0.027524  0.321249  0.000000  1
  Sm  Sm7  1  0.000000  0.000000  0.500000  1
  Sm  Sm8  1  0.976077  0.757643  0.000000  1
  Sm  Sm9  1  0.242357  0.218434  0.000000  1
  Sm  Sm10  1  0.293725  0.972476  0.000000  1
  Si  Si11  1  0.493967  0.798780  0.000000  1
  Si  Si12  1  0.757519  0.262542  0.000000  1
  Si  Si13  1  0.679246  0.872671  0.500000  1
  Si  Si14  1  0.876983  0.186299  0.500000  1
  Si  Si15  1  0.813701  0.690684  0.500000  1
  Si  Si16  1  0.737458  0.494976  0.000000  1
  Si  Si17  1  0.193425  0.320754  0.500000  1
  Si  Si18  1  0.304814  0.506033  0.000000  1
  Si  Si19  1  0.127329  0.806575  0.500000  1
  Si  Si20  1  0.309316  0.123017  0.500000  1
  Si  Si21  1  0.201220  0.695186  0.000000  1
  Si  Si22  1  0.505024  0.242481  0.000000  1
  B  B23  1  0.000000  0.000000  0.000000  1
  N  N24  1  0.129616  0.724787  0.245097  1
  N  N25  1  0.129616  0.724787  0.754903  1
  N  N26  1  0.250218  0.961301  0.500000  1
  N  N27  1  0.038699  0.288917  0.500000  1
  N  N28  1  0.186419  0.548072  0.000000  1
  N  N29  1  0.872616  0.888376  0.000000  1
  N  N30  1  0.015761  0.127384  0.000000  1
  N  N31  1  0.361653  0.813581  0.000000  1
  N  N32  1  0.275213  0.404829  0.754903  1
  N  N33  1  0.275213  0.404829  0.245097  1
  N  N34  1  0.202835  0.180446  0.500000  1
  N  N35  1  0.111624  0.984239  0.000000  1
  N  N36  1  0.451928  0.638347  0.000000  1
  N  N37  1  0.595171  0.870384  0.754903  1
  N  N38  1  0.595171  0.870384  0.245097  1
  N  N39  1  0.397969  0.178719  0.239713  1
  N  N40  1  0.397969  0.178719  0.760287  1
  N  N41  1  0.711083  0.749782  0.500000  1
  N  N42  1  0.576365  0.403003  0.000000  1
  N  N43  1  0.780750  0.602031  0.239713  1
  N  N44  1  0.780750  0.602031  0.760287  1
  N  N45  1  0.596997  0.173362  0.000000  1
  N  N46  1  0.977610  0.797165  0.500000  1
  N  N47  1  0.826638  0.423635  0.000000  1
  N  N48  1  0.821281  0.219250  0.760287  1
  N  N49  1  0.821281  0.219250  0.239713  1
  N  N50  1  0.819554  0.022390  0.500000  1
