# generated using pymatgen
data_H2Os3(CO)10
_symmetry_space_group_name_H-M   'P 1'
_cell_length_a   8.67996519
_cell_length_b   9.20605912
_cell_length_c   11.96733234
_cell_angle_alpha   91.53441908
_cell_angle_beta   98.86325081
_cell_angle_gamma   117.32578567
_symmetry_Int_Tables_number   1
_chemical_formula_structural   H2Os3(CO)10
_chemical_formula_sum   'H4 Os6 C20 O20'
_cell_volume   834.23753118
_cell_formula_units_Z   2
loop_
 _symmetry_equiv_pos_site_id
 _symmetry_equiv_pos_as_xyz
  1  'x, y, z'
loop_
 _atom_site_type_symbol
 _atom_site_label
 _atom_site_symmetry_multiplicity
 _atom_site_fract_x
 _atom_site_fract_y
 _atom_site_fract_z
 _atom_site_occupancy
  H  H0  1  0.975762  0.440070  0.880330  1
  H  H1  1  0.994281  0.369775  0.691052  1
  H  H2  1  0.005719  0.630225  0.308948  1
  H  H3  1  0.024238  0.559930  0.119670  1
  Os  Os4  1  0.976474  0.548949  0.751289  1
  Os  Os5  1  0.885540  0.234783  0.797444  1
  Os  Os6  1  0.608126  0.313756  0.711315  1
  Os  Os7  1  0.391874  0.686244  0.288685  1
  Os  Os8  1  0.114460  0.765217  0.202556  1
  Os  Os9  1  0.023526  0.451051  0.248711  1
  C  C10  1  0.353854  0.748626  0.435260  1
  C  C11  1  0.390095  0.115935  0.703818  1
  C  C12  1  0.769279  0.332440  0.215566  1
  C  C13  1  0.936851  0.713384  0.820805  1
  C  C14  1  0.208359  0.960970  0.303944  1
  C  C15  1  0.370892  0.619761  0.128408  1
  C  C16  1  0.646146  0.251374  0.564740  1
  C  C17  1  0.629108  0.380239  0.871592  1
  C  C18  1  0.791641  0.039030  0.696056  1
  C  C19  1  0.947420  0.631745  0.610041  1
  C  C20  1  0.898070  0.768359  0.142576  1
  C  C21  1  0.101930  0.231641  0.857424  1
  C  C22  1  0.241719  0.888131  0.091990  1
  C  C23  1  0.052580  0.368255  0.389959  1
  C  C24  1  0.514708  0.455775  0.655238  1
  C  C25  1  0.485292  0.544225  0.344762  1
  C  C26  1  0.758281  0.111869  0.908010  1
  C  C27  1  0.609905  0.884065  0.296182  1
  C  C28  1  0.063149  0.286616  0.179195  1
  C  C29  1  0.230721  0.667560  0.784434  1
  O  O30  1  0.910647  0.811778  0.865010  1
  O  O31  1  0.616609  0.256601  0.198314  1
  O  O32  1  0.684459  0.042396  0.978359  1
  O  O33  1  0.642966  0.420829  0.966874  1
  O  O34  1  0.252877  0.001102  0.698165  1
  O  O35  1  0.315541  0.957604  0.021641  1
  O  O36  1  0.456313  0.540868  0.621497  1
  O  O37  1  0.089353  0.188222  0.134990  1
  O  O38  1  0.259875  0.076771  0.368772  1
  O  O39  1  0.332314  0.788191  0.522024  1
  O  O40  1  0.228873  0.223733  0.895412  1
  O  O41  1  0.383391  0.743399  0.801686  1
  O  O42  1  0.072637  0.320192  0.476905  1
  O  O43  1  0.357034  0.579171  0.033126  1
  O  O44  1  0.747123  0.998898  0.301835  1
  O  O45  1  0.740125  0.923229  0.631228  1
  O  O46  1  0.543687  0.459132  0.378503  1
  O  O47  1  0.771127  0.776267  0.104588  1
  O  O48  1  0.927363  0.679808  0.523095  1
  O  O49  1  0.667686  0.211809  0.477976  1
