# generated using pymatgen
data_Tb2Se3
_symmetry_space_group_name_H-M   'P 1'
_cell_length_a   22.66975334
_cell_length_b   8.72817894
_cell_length_c   8.72817843
_cell_angle_alpha   90.00000000
_cell_angle_beta   54.72360082
_cell_angle_gamma   54.72360073
_symmetry_Int_Tables_number   1
_chemical_formula_structural   Tb2Se3
_chemical_formula_sum   'Tb16 Se24'
_cell_volume   996.49650298
_cell_formula_units_Z   8
loop_
 _symmetry_equiv_pos_site_id
 _symmetry_equiv_pos_as_xyz
  1  'x, y, z'
loop_
 _atom_site_type_symbol
 _atom_site_label
 _atom_site_symmetry_multiplicity
 _atom_site_fract_x
 _atom_site_fract_y
 _atom_site_fract_z
 _atom_site_occupancy
  Tb  Tb0  1  0.996253  0.122109  0.763675  1
  Tb  Tb1  1  0.081903  0.627145  0.377145  1
  Tb  Tb2  1  0.166667  0.250000  0.631365  1
  Tb  Tb3  1  0.251430  0.872855  0.122855  1
  Tb  Tb4  1  0.337080  0.377891  0.252434  1
  Tb  Tb5  1  0.166667  0.750000  0.868635  1
  Tb  Tb6  1  0.337080  0.110868  0.736325  1
  Tb  Tb7  1  0.496253  0.263675  0.622109  1
  Tb  Tb8  1  0.581903  0.877145  0.127145  1
  Tb  Tb9  1  0.666667  0.368635  0.250000  1
  Tb  Tb10  1  0.496253  0.747566  0.889132  1
  Tb  Tb11  1  0.666667  0.131365  0.750000  1
  Tb  Tb12  1  0.751430  0.622855  0.372855  1
  Tb  Tb13  1  0.837080  0.236325  0.610868  1
  Tb  Tb14  1  0.996253  0.389132  0.247566  1
  Tb  Tb15  1  0.837080  0.752434  0.877891  1
  Se  Se16  1  0.125199  0.491031  0.994301  1
  Se  Se17  1  0.048649  0.354753  0.495291  1
  Se  Se18  1  0.048649  0.999299  0.358761  1
  Se  Se19  1  0.284684  0.145247  0.141239  1
  Se  Se20  1  0.284684  0.500701  0.004709  1
  Se  Se21  1  0.125199  0.633372  0.630102  1
  Se  Se22  1  0.208134  0.866628  0.505699  1
  Se  Se23  1  0.450936  0.494135  0.998612  1
  Se  Se24  1  0.382398  0.351419  0.505865  1
  Se  Se25  1  0.208134  0.008969  0.869898  1
  Se  Se26  1  0.625199  0.130102  0.133372  1
  Se  Se27  1  0.382398  0.001388  0.346942  1
  Se  Se28  1  0.625199  0.494301  0.991031  1
  Se  Se29  1  0.450936  0.653058  0.648581  1
  Se  Se30  1  0.548649  0.858761  0.499299  1
  Se  Se31  1  0.784684  0.504709  0.000701  1
  Se  Se32  1  0.708134  0.369898  0.508969  1
  Se  Se33  1  0.548649  0.995291  0.854753  1
  Se  Se34  1  0.708134  0.005699  0.366628  1
  Se  Se35  1  0.950936  0.148581  0.153058  1
  Se  Se36  1  0.950936  0.498612  0.994135  1
  Se  Se37  1  0.784684  0.641239  0.645247  1
  Se  Se38  1  0.882398  0.846942  0.501388  1
  Se  Se39  1  0.882398  0.005865  0.851419  1
