# generated using pymatgen
data_SiO2
_symmetry_space_group_name_H-M   'P 1'
_cell_length_a   5.13336511
_cell_length_b   5.10505751
_cell_length_c   59.21718430
_cell_angle_alpha   91.22429818
_cell_angle_beta   91.97001969
_cell_angle_gamma   121.70352024
_symmetry_Int_Tables_number   1
_chemical_formula_structural   SiO2
_chemical_formula_sum   'Si30 O60'
_cell_volume   1318.08352422
_cell_formula_units_Z   30
loop_
 _symmetry_equiv_pos_site_id
 _symmetry_equiv_pos_as_xyz
  1  'x, y, z'
loop_
 _atom_site_type_symbol
 _atom_site_label
 _atom_site_symmetry_multiplicity
 _atom_site_fract_x
 _atom_site_fract_y
 _atom_site_fract_z
 _atom_site_occupancy
  Si  Si0  1  0.978502  0.477526  0.331854  1
  Si  Si1  1  0.001645  0.503750  0.425434  1
  Si  Si2  1  0.053354  0.550361  0.520160  1
  Si  Si3  1  0.038143  0.534892  0.608601  1
  Si  Si4  1  0.030191  0.524398  0.697959  1
  Si  Si5  1  0.981438  0.471440  0.784980  1
  Si  Si6  1  0.992445  0.485986  0.878038  1
  Si  Si7  1  0.004580  0.497482  0.970346  1
  Si  Si8  1  0.540296  0.525908  0.033365  1
  Si  Si9  1  0.499158  0.494181  0.121607  1
  Si  Si10  1  0.502946  0.504853  0.211879  1
  Si  Si11  1  0.490367  0.505128  0.394533  1
  Si  Si12  1  0.450199  0.452654  0.300901  1
  Si  Si13  1  0.545161  0.541840  0.488936  1
  Si  Si14  1  0.509579  0.495095  0.576548  1
  Si  Si15  1  0.455471  0.451503  0.753637  1
  Si  Si16  1  0.502606  0.488328  0.666094  1
  Si  Si17  1  0.499314  0.511074  0.939917  1
  Si  Si18  1  0.484564  0.498104  0.847630  1
  Si  Si19  1  0.535819  0.010119  0.001895  1
  Si  Si20  1  0.557178  0.039799  0.181628  1
  Si  Si21  1  0.568088  0.035989  0.091552  1
  Si  Si22  1  0.542667  0.018849  0.272270  1
  Si  Si23  1  0.526480  0.021398  0.457333  1
  Si  Si24  1  0.475660  0.971975  0.544498  1
  Si  Si25  1  0.497322  0.002769  0.363637  1
  Si  Si26  1  0.465499  0.964485  0.633850  1
  Si  Si27  1  0.449740  0.948885  0.722292  1
  Si  Si28  1  0.496948  0.998789  0.816769  1
  Si  Si29  1  0.515190  0.010782  0.909499  1
  O  O30  1  0.205717  0.790428  0.346529  1
  O  O31  1  0.218747  0.805318  0.441703  1
  O  O32  1  0.202762  0.785394  0.799718  1
  O  O33  1  0.216822  0.789747  0.893335  1
  O  O34  1  0.223270  0.796843  0.986568  1
  O  O35  1  0.281457  0.468779  0.051010  1
  O  O36  1  0.256296  0.450645  0.139861  1
  O  O37  1  0.275691  0.458780  0.231667  1
  O  O38  1  0.165749  0.373114  0.316379  1
  O  O39  1  0.196252  0.418286  0.409136  1
  O  O40  1  0.251694  0.456613  0.504073  1
  O  O41  1  0.240038  0.435644  0.593474  1
  O  O42  1  0.231657  0.423627  0.682953  1
  O  O43  1  0.180164  0.378574  0.769799  1
  O  O44  1  0.182920  0.398236  0.861470  1
  O  O45  1  0.195508  0.415442  0.953317  1
  O  O46  1  0.626116  0.800466  0.016147  1
  O  O47  1  0.563969  0.754178  0.102904  1
  O  O48  1  0.539379  0.750982  0.192826  1
  O  O49  1  0.525527  0.742493  0.285870  1
  O  O50  1  0.579123  0.802701  0.379944  1
  O  O51  1  0.615582  0.818273  0.472568  1
  O  O52  1  0.574928  0.768521  0.559582  1
  O  O53  1  0.562820  0.760113  0.649039  1
  O  O54  1  0.541932  0.749075  0.738549  1
  O  O55  1  0.576190  0.802015  0.833594  1
  O  O56  1  0.600227  0.818674  0.926192  1
  O  O57  1  0.476248  0.231590  0.017796  1
  O  O58  1  0.415179  0.182086  0.106373  1
  O  O59  1  0.409833  0.188990  0.196726  1
  O  O60  1  0.352986  0.141285  0.285721  1
  O  O61  1  0.404803  0.212983  0.377898  1
  O  O62  1  0.462213  0.239997  0.473414  1
  O  O63  1  0.391444  0.173631  0.561588  1
  O  O64  1  0.385629  0.166474  0.651212  1
  O  O65  1  0.338094  0.140687  0.737504  1
  O  O66  1  0.406295  0.212659  0.830496  1
  O  O67  1  0.423056  0.226604  0.922747  1
  O  O68  1  0.801238  0.636560  0.054657  1
  O  O69  1  0.783027  0.617349  0.140926  1
  O  O70  1  0.804706  0.643812  0.229301  1
  O  O71  1  0.756217  0.546456  0.316435  1
  O  O72  1  0.785841  0.586506  0.410683  1
  O  O73  1  0.859860  0.659536  0.504526  1
  O  O74  1  0.833708  0.612261  0.590997  1
  O  O75  1  0.826319  0.606812  0.680639  1
  O  O76  1  0.759467  0.532510  0.768722  1
  O  O77  1  0.773232  0.572572  0.864104  1
  O  O78  1  0.785430  0.584664  0.956565  1
  O  O79  1  0.733784  0.173209  0.069415  1
  O  O80  1  0.728084  0.173240  0.159629  1
  O  O81  1  0.760276  0.189483  0.253529  1
  O  O82  1  0.803670  0.211367  0.440774  1
  O  O83  1  0.791576  0.202841  0.348823  1
  O  O84  1  0.777937  0.222991  0.621265  1
  O  O85  1  0.771655  0.215418  0.711008  1
  O  O86  1  0.785250  0.228594  0.531494  1
  O  O87  1  0.793577  0.197689  0.801955  1
  O  O88  1  0.805164  0.200242  0.893954  1
  O  O89  1  0.811113  0.199602  0.985097  1
