# generated using pymatgen
data_FeCl3
_symmetry_space_group_name_H-M   'P 1'
_cell_length_a   10.62325134
_cell_length_b   3.86554136
_cell_length_c   8.13436270
_cell_angle_alpha   112.92798597
_cell_angle_beta   134.05902572
_cell_angle_gamma   63.67429601
_symmetry_Int_Tables_number   1
_chemical_formula_structural   FeCl3
_chemical_formula_sum   'Fe2 Cl6'
_cell_volume   213.43362718
_cell_formula_units_Z   2
loop_
 _symmetry_equiv_pos_site_id
 _symmetry_equiv_pos_as_xyz
  1  'x, y, z'
loop_
 _atom_site_type_symbol
 _atom_site_label
 _atom_site_symmetry_multiplicity
 _atom_site_fract_x
 _atom_site_fract_y
 _atom_site_fract_z
 _atom_site_occupancy
  Fe  Fe0  1  0.222014  0.849643  -0.075897  1
  Fe  Fe1  1  0.529753  0.552060  0.856228  1
  Cl  Cl2  1  0.797732  0.575451  0.057554  1
  Cl  Cl3  1  0.531729  0.604966  0.137772  1
  Cl  Cl4  1  0.933685  -0.022977  0.684476  1
  Cl  Cl5  1  0.507126  0.099111  0.593729  1
  Cl  Cl6  1  0.239165  0.867856  0.663133  1
  Cl  Cl7  1  0.240690  0.463922  0.097185  1
