# generated using pymatgen
data_SbH12C4NF4
_symmetry_space_group_name_H-M   'P 1'
_cell_length_a   5.47046133
_cell_length_b   10.02364831
_cell_length_c   18.47447355
_cell_angle_alpha   90.00000000
_cell_angle_beta   92.04233796
_cell_angle_gamma   90.00000000
_symmetry_Int_Tables_number   1
_chemical_formula_structural   SbH12C4NF4
_chemical_formula_sum   'Sb4 H48 C16 N4 F16'
_cell_volume   1012.38541153
_cell_formula_units_Z   4
loop_
 _symmetry_equiv_pos_site_id
 _symmetry_equiv_pos_as_xyz
  1  'x, y, z'
loop_
 _atom_site_type_symbol
 _atom_site_label
 _atom_site_symmetry_multiplicity
 _atom_site_fract_x
 _atom_site_fract_y
 _atom_site_fract_z
 _atom_site_occupancy
  Sb  Sb0  1  0.518119  0.648735  0.922675  1
  Sb  Sb1  1  0.518119  0.851265  0.422675  1
  Sb  Sb2  1  0.481881  0.148735  0.577325  1
  Sb  Sb3  1  0.481881  0.351265  0.077325  1
  H  H4  1  0.279566  0.423737  0.410829  1
  H  H5  1  0.724173  0.743605  0.209106  1
  H  H6  1  0.953048  0.862280  0.673142  1
  H  H7  1  0.812943  0.977995  0.925322  1
  H  H8  1  0.953048  0.637720  0.173142  1
  H  H9  1  0.079269  0.608189  0.455591  1
  H  H10  1  0.734957  0.715818  0.112843  1
  H  H11  1  0.045552  0.606519  0.765128  1
  H  H12  1  0.079269  0.891811  0.955591  1
  H  H13  1  0.725640  0.039963  0.792109  1
  H  H14  1  0.063496  0.148736  0.129785  1
  H  H15  1  0.638273  0.342264  0.852825  1
  H  H16  1  0.920731  0.391811  0.544409  1
  H  H17  1  0.277249  0.787895  0.231305  1
  H  H18  1  0.265043  0.284182  0.887157  1
  H  H19  1  0.762996  0.002424  0.174514  1
  H  H20  1  0.762996  0.497576  0.674514  1
  H  H21  1  0.046952  0.362280  0.826858  1
  H  H22  1  0.187057  0.022005  0.074678  1
  H  H23  1  0.187057  0.477995  0.574678  1
  H  H24  1  0.812943  0.522005  0.425322  1
  H  H25  1  0.954448  0.106519  0.734872  1
  H  H26  1  0.046952  0.137720  0.326858  1
  H  H27  1  0.237004  0.997576  0.825486  1
  H  H28  1  0.954448  0.393481  0.234872  1
  H  H29  1  0.725640  0.460037  0.292109  1
  H  H30  1  0.361727  0.657736  0.147175  1
  H  H31  1  0.720434  0.923737  0.089171  1
  H  H32  1  0.279566  0.076263  0.910829  1
  H  H33  1  0.275827  0.243605  0.290894  1
  H  H34  1  0.274360  0.960037  0.207891  1
  H  H35  1  0.722751  0.287895  0.268695  1
  H  H36  1  0.936504  0.648736  0.370215  1
  H  H37  1  0.734957  0.784182  0.612843  1
  H  H38  1  0.045552  0.893481  0.265128  1
  H  H39  1  0.936504  0.851264  0.870215  1
  H  H40  1  0.724173  0.756395  0.709106  1
  H  H41  1  0.722751  0.212105  0.768695  1
  H  H42  1  0.361727  0.842264  0.647175  1
  H  H43  1  0.265043  0.215818  0.387157  1
  H  H44  1  0.277249  0.712105  0.731305  1
  H  H45  1  0.063496  0.351264  0.629785  1
  H  H46  1  0.237004  0.502424  0.325486  1
  H  H47  1  0.920731  0.108189  0.044409  1
  H  H48  1  0.720434  0.576263  0.589171  1
  H  H49  1  0.275827  0.256395  0.790894  1
  H  H50  1  0.638273  0.157736  0.352825  1
  H  H51  1  0.274360  0.539963  0.707891  1
  C  C52  1  0.861196  0.540390  0.628088  1
  C  C53  1  0.016657  0.433126  0.592805  1
  C  C54  1  0.157642  0.872920  0.217025  1
  C  C55  1  0.983343  0.933126  0.907195  1
  C  C56  1  0.157642  0.627080  0.717025  1
  C  C57  1  0.846232  0.729469  0.162894  1
  C  C58  1  0.842358  0.127080  0.782975  1
  C  C59  1  0.153768  0.229469  0.337106  1
  C  C60  1  0.138804  0.040390  0.871912  1
  C  C61  1  0.153768  0.270531  0.837106  1
  C  C62  1  0.842358  0.372920  0.282975  1
  C  C63  1  0.138804  0.459610  0.371912  1
  C  C64  1  0.016657  0.066874  0.092805  1
  C  C65  1  0.983343  0.566874  0.407195  1
  C  C66  1  0.861196  0.959610  0.128088  1
  C  C67  1  0.846232  0.770531  0.662894  1
  N  N68  1  0.992742  0.156896  0.847835  1
  N  N69  1  0.007258  0.656896  0.652165  1
  N  N70  1  0.992742  0.343104  0.347835  1
  N  N71  1  0.007258  0.843104  0.152165  1
  F  F72  1  0.376905  0.567923  0.162632  1
  F  F73  1  0.540944  0.758631  0.837625  1
  F  F74  1  0.376905  0.932077  0.662632  1
  F  F75  1  0.523710  0.795213  0.990938  1
  F  F76  1  0.869133  0.877236  0.434136  1
  F  F77  1  0.459056  0.258631  0.662375  1
  F  F78  1  0.523710  0.704787  0.490938  1
  F  F79  1  0.476290  0.204787  0.009062  1
  F  F80  1  0.130867  0.122764  0.565864  1
  F  F81  1  0.476290  0.295213  0.509062  1
  F  F82  1  0.869133  0.622764  0.934136  1
  F  F83  1  0.540944  0.741369  0.337625  1
  F  F84  1  0.623095  0.432077  0.837368  1
  F  F85  1  0.459056  0.241369  0.162375  1
  F  F86  1  0.130867  0.377236  0.065864  1
  F  F87  1  0.623095  0.067923  0.337368  1
