# generated using pymatgen
data_Cu9Se4(Cl3O7)2
_symmetry_space_group_name_H-M   'P 1'
_cell_length_a   6.35966790
_cell_length_b   13.09122033
_cell_length_c   14.29102671
_cell_angle_alpha   112.75710503
_cell_angle_beta   90.00000000
_cell_angle_gamma   90.00000000
_symmetry_Int_Tables_number   1
_chemical_formula_structural   Cu9Se4(Cl3O7)2
_chemical_formula_sum   'Cu18 Se8 Cl12 O28'
_cell_volume   1097.18784829
_cell_formula_units_Z   2
loop_
 _symmetry_equiv_pos_site_id
 _symmetry_equiv_pos_as_xyz
  1  'x, y, z'
loop_
 _atom_site_type_symbol
 _atom_site_label
 _atom_site_symmetry_multiplicity
 _atom_site_fract_x
 _atom_site_fract_y
 _atom_site_fract_z
 _atom_site_occupancy
  Cu  Cu0  1  0.526734  0.027857  0.619636  1
  Cu  Cu1  1  0.983094  0.945372  0.715385  1
  Cu  Cu2  1  0.973266  0.527857  0.119636  1
  Cu  Cu3  1  0.988785  0.669532  0.383776  1
  Cu  Cu4  1  0.016906  0.054628  0.284615  1
  Cu  Cu5  1  0.026734  0.472143  0.880364  1
  Cu  Cu6  1  0.511215  0.169532  0.883776  1
  Cu  Cu7  1  0.473266  0.972143  0.380364  1
  Cu  Cu8  1  0.242990  0.750156  0.250430  1
  Cu  Cu9  1  0.000000  0.500000  0.500000  1
  Cu  Cu10  1  0.757010  0.249844  0.749570  1
  Cu  Cu11  1  0.742990  0.749844  0.249570  1
  Cu  Cu12  1  0.483094  0.554628  0.784615  1
  Cu  Cu13  1  0.516906  0.445372  0.215385  1
  Cu  Cu14  1  0.488785  0.830468  0.116224  1
  Cu  Cu15  1  0.500000  0.000000  0.000000  1
  Cu  Cu16  1  0.011215  0.330468  0.616224  1
  Cu  Cu17  1  0.257010  0.250156  0.750430  1
  Se  Se18  1  0.995961  0.738716  0.039422  1
  Se  Se19  1  0.017195  0.387423  0.254415  1
  Se  Se20  1  0.482805  0.887423  0.754415  1
  Se  Se21  1  0.495961  0.761284  0.460578  1
  Se  Se22  1  0.504039  0.238716  0.539422  1
  Se  Se23  1  0.982805  0.612577  0.745585  1
  Se  Se24  1  0.004039  0.261284  0.960578  1
  Se  Se25  1  0.517195  0.112577  0.245585  1
  Cl  Cl26  1  0.972639  0.692117  0.551391  1
  Cl  Cl27  1  0.005395  0.938178  0.366544  1
  Cl  Cl28  1  0.537201  0.400834  0.349473  1
  Cl  Cl29  1  0.027361  0.307883  0.448609  1
  Cl  Cl30  1  0.462799  0.599166  0.650527  1
  Cl  Cl31  1  0.472639  0.807883  0.948609  1
  Cl  Cl32  1  0.527361  0.192117  0.051391  1
  Cl  Cl33  1  0.494605  0.438178  0.866544  1
  Cl  Cl34  1  0.037201  0.099166  0.150527  1
  Cl  Cl35  1  0.505395  0.561822  0.133456  1
  Cl  Cl36  1  0.962799  0.900834  0.849473  1
  Cl  Cl37  1  0.994605  0.061822  0.633456  1
  O  O38  1  0.325263  0.063287  0.310106  1
  O  O39  1  0.305798  0.289981  0.630049  1
  O  O40  1  0.506100  0.161889  0.741519  1
  O  O41  1  0.536452  0.997073  0.131634  1
  O  O42  1  0.986217  0.402080  0.983068  1
  O  O43  1  0.215596  0.417918  0.185585  1
  O  O44  1  0.036452  0.502927  0.368366  1
  O  O45  1  0.993900  0.661889  0.241519  1
  O  O46  1  0.694202  0.710019  0.369951  1
  O  O47  1  0.825263  0.436713  0.189894  1
  O  O48  1  0.785087  0.778879  0.122810  1
  O  O49  1  0.284404  0.917918  0.685585  1
  O  O50  1  0.285087  0.721121  0.377190  1
  O  O51  1  0.194202  0.789981  0.130049  1
  O  O52  1  0.006100  0.338111  0.758481  1
  O  O53  1  0.784404  0.582082  0.814415  1
  O  O54  1  0.486217  0.097920  0.516932  1
  O  O55  1  0.674737  0.936713  0.689894  1
  O  O56  1  0.805798  0.210019  0.869951  1
  O  O57  1  0.013783  0.597920  0.016932  1
  O  O58  1  0.715596  0.082082  0.314415  1
  O  O59  1  0.963548  0.497073  0.631634  1
  O  O60  1  0.174737  0.563287  0.810106  1
  O  O61  1  0.714913  0.278879  0.622810  1
  O  O62  1  0.214913  0.221121  0.877190  1
  O  O63  1  0.513783  0.902080  0.483068  1
  O  O64  1  0.463548  0.002927  0.868366  1
  O  O65  1  0.493900  0.838111  0.258481  1
