# generated using pymatgen
data_ReSbH4O7
_symmetry_space_group_name_H-M   'P 1'
_cell_length_a   5.77673962
_cell_length_b   18.51661038
_cell_length_c   11.96335782
_cell_angle_alpha   90.00000000
_cell_angle_beta   90.00000000
_cell_angle_gamma   90.00000000
_symmetry_Int_Tables_number   1
_chemical_formula_structural   ReSbH4O7
_chemical_formula_sum   'Re8 Sb8 H32 O56'
_cell_volume   1279.66818761
_cell_formula_units_Z   8
loop_
 _symmetry_equiv_pos_site_id
 _symmetry_equiv_pos_as_xyz
  1  'x, y, z'
loop_
 _atom_site_type_symbol
 _atom_site_label
 _atom_site_symmetry_multiplicity
 _atom_site_fract_x
 _atom_site_fract_y
 _atom_site_fract_z
 _atom_site_occupancy
  Re  Re0  1  0.006308  0.079969  0.373821  1
  Re  Re1  1  0.506308  0.420031  0.626179  1
  Re  Re2  1  0.993692  0.579969  0.126179  1
  Re  Re3  1  0.493692  0.920031  0.873821  1
  Re  Re4  1  0.993692  0.920031  0.626179  1
  Re  Re5  1  0.493692  0.579969  0.373821  1
  Re  Re6  1  0.006308  0.420031  0.873821  1
  Re  Re7  1  0.506308  0.079969  0.126179  1
  Sb  Sb8  1  0.025120  0.910847  0.157508  1
  Sb  Sb9  1  0.525120  0.589153  0.842491  1
  Sb  Sb10  1  0.974880  0.410847  0.342492  1
  Sb  Sb11  1  0.474880  0.089153  0.657509  1
  Sb  Sb12  1  0.974880  0.089153  0.842491  1
  Sb  Sb13  1  0.474880  0.410847  0.157508  1
  Sb  Sb14  1  0.025120  0.589153  0.657509  1
  Sb  Sb15  1  0.525120  0.910847  0.342492  1
  H  H16  1  0.990599  0.786872  0.010667  1
  H  H17  1  0.490599  0.713128  0.989333  1
  H  H18  1  0.009401  0.286872  0.489333  1
  H  H19  1  0.509401  0.213128  0.510667  1
  H  H20  1  0.009401  0.213128  0.989333  1
  H  H21  1  0.509401  0.286872  0.010667  1
  H  H22  1  0.990599  0.713128  0.510667  1
  H  H23  1  0.490599  0.786872  0.489333  1
  H  H24  1  0.798409  0.782314  0.109004  1
  H  H25  1  0.298409  0.717686  0.890996  1
  H  H26  1  0.201591  0.282314  0.390996  1
  H  H27  1  0.701591  0.217686  0.609004  1
  H  H28  1  0.201591  0.217686  0.890996  1
  H  H29  1  0.701591  0.282314  0.109004  1
  H  H30  1  0.798409  0.717686  0.609004  1
  H  H31  1  0.298409  0.782314  0.390996  1
  H  H32  1  0.430074  0.791986  0.153994  1
  H  H33  1  0.930074  0.708014  0.846006  1
  H  H34  1  0.569926  0.291986  0.346006  1
  H  H35  1  0.069926  0.208014  0.653994  1
  H  H36  1  0.569926  0.208014  0.846006  1
  H  H37  1  0.069926  0.291986  0.153994  1
  H  H38  1  0.430074  0.708014  0.653994  1
  H  H39  1  0.930074  0.791986  0.346006  1
  H  H40  1  0.525723  0.712505  0.178905  1
  H  H41  1  0.025723  0.787495  0.821095  1
  H  H42  1  0.474277  0.212505  0.321095  1
  H  H43  1  0.974277  0.287495  0.678905  1
  H  H44  1  0.474277  0.287495  0.821095  1
  H  H45  1  0.974277  0.212505  0.178905  1
  H  H46  1  0.525723  0.787495  0.678905  1
  H  H47  1  0.025723  0.712505  0.321095  1
  O  O48  1  0.126366  0.008086  0.293718  1
  O  O49  1  0.626366  0.491914  0.706282  1
  O  O50  1  0.873634  0.508086  0.206282  1
  O  O51  1  0.373634  0.991914  0.793718  1
  O  O52  1  0.873634  0.991914  0.706282  1
  O  O53  1  0.373634  0.508086  0.293718  1
  O  O54  1  0.126366  0.491914  0.793718  1
  O  O55  1  0.626366  0.008086  0.206282  1
  O  O56  1  0.217291  0.119484  0.458818  1
  O  O57  1  0.717291  0.380516  0.541182  1
  O  O58  1  0.782709  0.619484  0.041182  1
  O  O59  1  0.282709  0.880516  0.958818  1
  O  O60  1  0.782709  0.880516  0.541182  1
  O  O61  1  0.282709  0.619484  0.458818  1
  O  O62  1  0.217291  0.380516  0.958818  1
  O  O63  1  0.717291  0.119484  0.041182  1
  O  O64  1  0.885631  0.146140  0.287308  1
  O  O65  1  0.385631  0.353860  0.712692  1
  O  O66  1  0.114369  0.646140  0.212692  1
  O  O67  1  0.614369  0.853860  0.787308  1
  O  O68  1  0.114369  0.853860  0.712692  1
  O  O69  1  0.614369  0.646140  0.287308  1
  O  O70  1  0.885631  0.353860  0.787308  1
  O  O71  1  0.385631  0.146140  0.212692  1
  O  O72  1  0.785612  0.046168  0.459414  1
  O  O73  1  0.285612  0.453832  0.540586  1
  O  O74  1  0.214388  0.546168  0.040586  1
  O  O75  1  0.714388  0.953832  0.959414  1
  O  O76  1  0.214388  0.953832  0.540586  1
  O  O77  1  0.714388  0.546168  0.459414  1
  O  O78  1  0.785612  0.453832  0.959414  1
  O  O79  1  0.285612  0.046168  0.040586  1
  O  O80  1  0.818585  0.870657  0.279314  1
  O  O81  1  0.318585  0.629343  0.720686  1
  O  O82  1  0.181415  0.370657  0.220686  1
  O  O83  1  0.681415  0.129343  0.779314  1
  O  O84  1  0.181415  0.129343  0.720686  1
  O  O85  1  0.681415  0.370657  0.279314  1
  O  O86  1  0.818585  0.629343  0.779314  1
  O  O87  1  0.318585  0.870657  0.220686  1
  O  O88  1  0.959451  0.800346  0.090529  1
  O  O89  1  0.459451  0.699654  0.909471  1
  O  O90  1  0.040549  0.300346  0.409471  1
  O  O91  1  0.540549  0.199654  0.590529  1
  O  O92  1  0.040549  0.199654  0.909471  1
  O  O93  1  0.540549  0.300346  0.090529  1
  O  O94  1  0.959451  0.699654  0.590529  1
  O  O95  1  0.459451  0.800346  0.409471  1
  O  O96  1  0.525740  0.751728  0.122802  1
  O  O97  1  0.025740  0.748272  0.877198  1
  O  O98  1  0.474260  0.251728  0.377198  1
  O  O99  1  0.974260  0.248272  0.622802  1
  O  O100  1  0.474260  0.248272  0.877198  1
  O  O101  1  0.974260  0.251728  0.122802  1
  O  O102  1  0.525740  0.748272  0.622802  1
  O  O103  1  0.025740  0.751728  0.377198  1
