# generated using pymatgen
data_Bi2O3
_symmetry_space_group_name_H-M   'P 1'
_cell_length_a   9.04747655
_cell_length_b   8.99506877
_cell_length_c   45.08186733
_cell_angle_alpha   109.31991521
_cell_angle_beta   109.48818424
_cell_angle_gamma   109.44262787
_symmetry_Int_Tables_number   1
_chemical_formula_structural   Bi2O3
_chemical_formula_sum   'Bi64 O96'
_cell_volume   2829.96743375
_cell_formula_units_Z   32
loop_
 _symmetry_equiv_pos_site_id
 _symmetry_equiv_pos_as_xyz
  1  'x, y, z'
loop_
 _atom_site_type_symbol
 _atom_site_label
 _atom_site_symmetry_multiplicity
 _atom_site_fract_x
 _atom_site_fract_y
 _atom_site_fract_z
 _atom_site_occupancy
  Bi  Bi0  1  0.164454  0.869195  0.939354  1
  Bi  Bi1  1  0.150456  0.328564  0.960146  1
  Bi  Bi2  1  0.196966  0.524819  0.871795  1
  Bi  Bi3  1  0.307233  0.804218  0.828606  1
  Bi  Bi4  1  0.156474  0.851075  0.733468  1
  Bi  Bi5  1  0.536988  0.710863  0.968304  1
  Bi  Bi6  1  0.003269  0.028994  0.800341  1
  Bi  Bi7  1  0.327973  0.185773  0.896641  1
  Bi  Bi8  1  0.150305  0.313355  0.759939  1
  Bi  Bi9  1  0.190927  0.500277  0.666169  1
  Bi  Bi10  1  0.707646  0.837515  0.904347  1
  Bi  Bi11  1  0.499832  0.341534  0.839521  1
  Bi  Bi12  1  0.307340  0.811668  0.627641  1
  Bi  Bi13  1  0.169265  0.867690  0.536068  1
  Bi  Bi14  1  0.646975  0.157230  0.968029  1
  Bi  Bi15  1  0.512653  0.706394  0.768578  1
  Bi  Bi16  1  0.324548  0.183505  0.696731  1
  Bi  Bi17  1  0.827686  0.520534  0.940672  1
  Bi  Bi18  1  0.139788  0.311438  0.562446  1
  Bi  Bi19  1  0.869485  0.671542  0.833659  1
  Bi  Bi20  1  0.692498  0.835345  0.699701  1
  Bi  Bi21  1  0.198336  0.513927  0.470512  1
  Bi  Bi22  1  0.499147  0.329914  0.637567  1
  Bi  Bi23  1  0.300696  0.805061  0.427885  1
  Bi  Bi24  1  0.155865  0.850652  0.333219  1
  Bi  Bi25  1  0.800507  0.143331  0.863433  1
  Bi  Bi26  1  0.646293  0.164082  0.769891  1
  Bi  Bi27  1  0.508247  0.688282  0.567332  1
  Bi  Bi28  1  0.001894  0.027177  0.400286  1
  Bi  Bi29  1  0.836288  0.505379  0.740488  1
  Bi  Bi30  1  0.334690  0.190397  0.499876  1
  Bi  Bi31  1  0.150375  0.313722  0.359993  1
  Bi  Bi32  1  0.860403  0.673982  0.633988  1
  Bi  Bi33  1  0.191410  0.500638  0.266218  1
  Bi  Bi34  1  0.693698  0.833733  0.500934  1
  Bi  Bi35  1  0.306019  0.811230  0.227421  1
  Bi  Bi36  1  0.499794  0.338154  0.438943  1
  Bi  Bi37  1  0.166158  0.868197  0.135187  1
  Bi  Bi38  1  0.809302  0.142498  0.661081  1
  Bi  Bi39  1  0.511437  0.705443  0.368445  1
  Bi  Bi40  1  0.674576  0.170053  0.572240  1
  Bi  Bi41  1  0.998235  0.000316  0.199808  1
  Bi  Bi42  1  0.324382  0.183165  0.296720  1
  Bi  Bi43  1  0.135454  0.308929  0.161751  1
  Bi  Bi44  1  0.833985  0.510026  0.539117  1
  Bi  Bi45  1  0.865569  0.669341  0.432767  1
  Bi  Bi46  1  0.204601  0.513742  0.069828  1
  Bi  Bi47  1  0.691886  0.834713  0.299710  1
  Bi  Bi48  1  0.497809  0.328338  0.237347  1
  Bi  Bi49  1  0.293515  0.809370  0.024770  1
  Bi  Bi50  1  0.806201  0.144032  0.462658  1
  Bi  Bi51  1  0.646011  0.162695  0.369524  1
  Bi  Bi52  1  0.505947  0.688345  0.167148  1
  Bi  Bi53  1  0.998657  0.001583  0.599821  1
  Bi  Bi54  1  0.345868  0.194613  0.102424  1
  Bi  Bi55  1  0.834201  0.504388  0.339779  1
  Bi  Bi56  1  0.859268  0.673676  0.234001  1
  Bi  Bi57  1  0.686371  0.824485  0.097607  1
  Bi  Bi58  1  0.464176  0.305249  0.034754  1
  Bi  Bi59  1  0.810295  0.142954  0.261555  1
  Bi  Bi60  1  0.679993  0.167790  0.172795  1
  Bi  Bi61  1  0.835428  0.516431  0.138889  1
  Bi  Bi62  1  0.849052  0.647088  0.033701  1
  Bi  Bi63  1  0.799253  0.152809  0.062242  1
  O  O64  1  0.006234  0.004124  0.926848  1
  O  O65  1  0.259670  0.632090  0.975409  1
  O  O66  1  0.118907  0.749394  0.876758  1
  O  O67  1  0.999933  0.607704  0.800145  1
  O  O68  1  0.002044  0.001128  0.726284  1
  O  O69  1  0.386227  0.747863  0.926169  1
  O  O70  1  0.011554  0.990017  0.844764  1
  O  O71  1  0.003398  0.002089  0.650435  1
  O  O72  1  0.247044  0.357767  0.923746  1
  O  O73  1  0.379506  0.115386  0.951977  1
  O  O74  1  0.267173  0.636801  0.777256  1
  O  O75  1  0.351741  0.616395  0.849107  1
  O  O76  1  0.111703  0.750237  0.675948  1
  O  O77  1  0.364285  0.366831  0.873305  1
  O  O78  1  0.999774  0.636178  0.600082  1
  O  O79  1  0.997991  0.998834  0.526356  1
  O  O80  1  0.217887  0.986018  0.799046  1
  O  O81  1  0.631517  0.884469  0.853060  1
  O  O82  1  0.376941  0.738811  0.724966  1
  O  O83  1  0.727757  0.730221  0.946380  1
  O  O84  1  0.000096  0.254022  0.599873  1
  O  O85  1  0.615940  0.370514  0.947589  1
  O  O86  1  0.248347  0.358202  0.724771  1
  O  O87  1  0.619269  0.246354  0.872322  1
  O  O88  1  0.371791  0.109467  0.750848  1
  O  O89  1  0.265841  0.635175  0.577373  1
  O  O90  1  0.738024  0.619630  0.876002  1
  O  O91  1  0.365518  0.630928  0.650428  1
  O  O92  1  0.116533  0.749022  0.475765  1
  O  O93  1  0.366872  0.366597  0.673437  1
  O  O94  1  0.999580  0.607716  0.399547  1
  O  O95  1  0.002215  0.001619  0.326291  1
  O  O96  1  0.249353  0.000309  0.599215  1
  O  O97  1  0.638721  0.887364  0.652965  1
  O  O98  1  0.752369  0.377422  0.822076  1
  O  O99  1  0.377875  0.734959  0.525125  1
  O  O100  1  0.781148  0.769584  0.756931  1
  O  O101  1  0.001117  0.984283  0.443621  1
  O  O102  1  0.886163  0.266294  0.927628  1
  O  O103  1  0.617078  0.368806  0.746631  1
  O  O104  1  0.248978  0.362175  0.524537  1
  O  O105  1  0.627743  0.004672  0.800475  1
  O  O106  1  0.624497  0.246054  0.672099  1
  O  O107  1  0.266869  0.637521  0.377183  1
  O  O108  1  0.379032  0.114665  0.549915  1
  O  O109  1  0.738496  0.624533  0.675202  1
  O  O110  1  0.353712  0.618278  0.448856  1
  O  O111  1  0.111237  0.749937  0.275735  1
  O  O112  1  0.369157  0.369767  0.473545  1
  O  O113  1  0.997272  0.635523  0.199535  1
  O  O114  1  0.999349  0.001267  0.125538  1
  O  O115  1  0.215305  0.981570  0.398697  1
  O  O116  1  0.637043  0.885637  0.452739  1
  O  O117  1  0.376762  0.738731  0.324851  1
  O  O118  1  0.747878  0.376893  0.622640  1
  O  O119  1  0.747606  0.747506  0.549738  1
  O  O120  1  0.998453  0.253811  0.199850  1
  O  O121  1  0.003656  0.001663  0.250504  1
  O  O122  1  0.622320  0.373321  0.546827  1
  O  O123  1  0.889910  0.264176  0.728385  1
  O  O124  1  0.248110  0.357924  0.324744  1
  O  O125  1  0.635192  0.996622  0.599650  1
  O  O126  1  0.624237  0.246847  0.471900  1
  O  O127  1  0.371846  0.109459  0.350898  1
  O  O128  1  0.264726  0.636965  0.177125  1
  O  O129  1  0.732597  0.619483  0.474300  1
  O  O130  1  0.365762  0.630844  0.250450  1
  O  O131  1  0.111352  0.749628  0.075957  1
  O  O132  1  0.367188  0.366778  0.273516  1
  O  O133  1  0.996825  0.622845  0.000127  1
  O  O134  1  0.250796  0.002669  0.199974  1
  O  O135  1  0.754441  0.375224  0.421894  1
  O  O136  1  0.637969  0.887886  0.253027  1
  O  O137  1  0.376651  0.733719  0.124809  1
  O  O138  1  0.779714  0.768752  0.356434  1
  O  O139  1  0.617403  0.368812  0.346633  1
  O  O140  1  0.886501  0.265242  0.526907  1
  O  O141  1  0.247882  0.358751  0.124417  1
  O  O142  1  0.626632  0.003630  0.400048  1
  O  O143  1  0.625245  0.246754  0.272230  1
  O  O144  1  0.381257  0.115059  0.149589  1
  O  O145  1  0.738651  0.624604  0.275132  1
  O  O146  1  0.365499  0.625832  0.050213  1
  O  O147  1  0.367982  0.365590  0.074072  1
  O  O148  1  0.269295  0.000116  0.000605  1
  O  O149  1  0.747175  0.376388  0.222343  1
  O  O150  1  0.648739  0.889617  0.052433  1
  O  O151  1  0.748266  0.743434  0.150413  1
  O  O152  1  0.621690  0.372047  0.146066  1
  O  O153  1  0.889995  0.264088  0.328199  1
  O  O154  1  0.636289  0.996632  0.199773  1
  O  O155  1  0.620030  0.245663  0.071712  1
  O  O156  1  0.735651  0.616364  0.072699  1
  O  O157  1  0.760318  0.370806  0.021629  1
  O  O158  1  0.885824  0.269202  0.126447  1
  O  O159  1  0.637807  0.006936  0.999891  1
