# generated using pymatgen
data_NaH9O5
_symmetry_space_group_name_H-M   'P 1'
_cell_length_a   7.99310806
_cell_length_b   8.10441963
_cell_length_c   9.54019805
_cell_angle_alpha   63.81371098
_cell_angle_beta   116.65756845
_cell_angle_gamma   149.73164453
_symmetry_Int_Tables_number   1
_chemical_formula_structural   NaH9O5
_chemical_formula_sum   'Na2 H18 O10'
_cell_volume   276.40351132
_cell_formula_units_Z   2
loop_
 _symmetry_equiv_pos_site_id
 _symmetry_equiv_pos_as_xyz
  1  'x, y, z'
loop_
 _atom_site_type_symbol
 _atom_site_label
 _atom_site_symmetry_multiplicity
 _atom_site_fract_x
 _atom_site_fract_y
 _atom_site_fract_z
 _atom_site_occupancy
  Na  Na0  1  0.577270  0.464015  0.874653  1
  Na  Na1  1  0.458012  0.547453  0.188405  1
  H  H2  1  0.790282  0.189323  0.589835  1
  H  H3  1  0.504612  0.062586  0.623441  1
  H  H4  1  0.122806  0.568389  0.368995  1
  H  H5  1  0.756667  0.288485  0.828843  1
  H  H6  1  0.961577  0.469092  0.982938  1
  H  H7  1  0.452419  0.931102  0.023429  1
  H  H8  1  0.264561  0.737158  0.177206  1
  H  H9  1  0.173256  0.427142  0.836125  1
  H  H10  1  0.525313  0.801653  0.811901  1
  H  H11  1  0.468806  0.162994  0.217707  1
  H  H12  1  0.840528  0.536440  0.208619  1
  H  H13  1  0.102809  0.951856  0.688675  1
  H  H14  1  0.954932  0.026190  0.628167  1
  H  H15  1  0.061976  0.966983  0.257625  1
  H  H16  1  0.903042  0.089256  0.375034  1
  H  H17  1  0.103457  0.944408  0.453498  1
  H  H18  1  0.017394  0.658861  0.599894  1
  H  H19  1  0.608108  0.973103  0.376110  1
  O  O20  1  0.737938  0.179901  0.670239  1
  O  O21  1  0.241250  0.771667  0.298106  1
  O  O22  1  0.728780  0.299338  0.912530  1
  O  O23  1  0.291448  0.712638  0.089957  1
  O  O24  1  0.408814  0.596562  0.882918  1
  O  O25  1  0.602603  0.382990  0.161212  1
  O  O26  1  0.045170  0.993670  0.728238  1
  O  O27  1  0.022486  0.000002  0.318235  1
  O  O28  1  0.183169  0.892308  0.586347  1
  O  O29  1  0.839995  0.106108  0.430521  1
