# generated using pymatgen
data_SiO2
_symmetry_space_group_name_H-M   'P 1'
_cell_length_a   21.42290617
_cell_length_b   13.44907985
_cell_length_c   12.76841221
_cell_angle_alpha   90.00000000
_cell_angle_beta   90.00000000
_cell_angle_gamma   90.00000000
_symmetry_Int_Tables_number   1
_chemical_formula_structural   SiO2
_chemical_formula_sum   'Si56 O112'
_cell_volume   3678.81418621
_cell_formula_units_Z   56
loop_
 _symmetry_equiv_pos_site_id
 _symmetry_equiv_pos_as_xyz
  1  'x, y, z'
loop_
 _atom_site_type_symbol
 _atom_site_label
 _atom_site_symmetry_multiplicity
 _atom_site_fract_x
 _atom_site_fract_y
 _atom_site_fract_z
 _atom_site_occupancy
  Si  Si0  1  0.072314  0.116071  0.377518  1
  Si  Si1  1  0.072314  0.883929  0.622482  1
  Si  Si2  1  0.927686  0.116071  0.622482  1
  Si  Si3  1  0.927686  0.883929  0.377518  1
  Si  Si4  1  0.927686  0.883929  0.622482  1
  Si  Si5  1  0.927686  0.116071  0.377518  1
  Si  Si6  1  0.072314  0.883929  0.377518  1
  Si  Si7  1  0.072314  0.116071  0.622482  1
  Si  Si8  1  0.572314  0.616071  0.377518  1
  Si  Si9  1  0.572314  0.383929  0.622482  1
  Si  Si10  1  0.427686  0.616071  0.622482  1
  Si  Si11  1  0.427686  0.383929  0.377518  1
  Si  Si12  1  0.427686  0.383929  0.622482  1
  Si  Si13  1  0.427686  0.616071  0.377518  1
  Si  Si14  1  0.572314  0.383929  0.377518  1
  Si  Si15  1  0.572314  0.616071  0.622482  1
  Si  Si16  1  0.149722  0.199382  0.192996  1
  Si  Si17  1  0.149722  0.800618  0.807004  1
  Si  Si18  1  0.850278  0.199382  0.807004  1
  Si  Si19  1  0.850278  0.800618  0.192996  1
  Si  Si20  1  0.850278  0.800618  0.807004  1
  Si  Si21  1  0.850278  0.199382  0.192996  1
  Si  Si22  1  0.149722  0.800618  0.192996  1
  Si  Si23  1  0.149722  0.199382  0.807004  1
  Si  Si24  1  0.649722  0.699382  0.192996  1
  Si  Si25  1  0.649722  0.300618  0.807004  1
  Si  Si26  1  0.350278  0.699382  0.807004  1
  Si  Si27  1  0.350278  0.300618  0.192996  1
  Si  Si28  1  0.350278  0.300618  0.807004  1
  Si  Si29  1  0.350278  0.699382  0.192996  1
  Si  Si30  1  0.649722  0.300618  0.192996  1
  Si  Si31  1  0.649722  0.699382  0.807004  1
  Si  Si32  1  0.276819  0.114884  0.122160  1
  Si  Si33  1  0.276819  0.885116  0.877840  1
  Si  Si34  1  0.723181  0.114884  0.877840  1
  Si  Si35  1  0.723181  0.885116  0.122160  1
  Si  Si36  1  0.723181  0.885116  0.877840  1
  Si  Si37  1  0.723181  0.114884  0.122160  1
  Si  Si38  1  0.276819  0.885116  0.122160  1
  Si  Si39  1  0.276819  0.114884  0.877840  1
  Si  Si40  1  0.776819  0.614884  0.122160  1
  Si  Si41  1  0.776819  0.385116  0.877840  1
  Si  Si42  1  0.223181  0.614884  0.877840  1
  Si  Si43  1  0.223181  0.385116  0.122160  1
  Si  Si44  1  0.223181  0.385116  0.877840  1
  Si  Si45  1  0.223181  0.614884  0.122160  1
  Si  Si46  1  0.776819  0.385116  0.122160  1
  Si  Si47  1  0.776819  0.614884  0.877840  1
  Si  Si48  1  0.075248  0.113841  0.000000  1
  Si  Si49  1  0.075248  0.886159  0.000000  1
  Si  Si50  1  0.924752  0.113841  0.000000  1
  Si  Si51  1  0.924752  0.886159  0.000000  1
  Si  Si52  1  0.575248  0.613841  0.000000  1
  Si  Si53  1  0.575248  0.386159  0.000000  1
  Si  Si54  1  0.424752  0.613841  0.000000  1
  Si  Si55  1  0.424752  0.386159  0.000000  1
  O  O56  1  0.098624  0.172399  0.103721  1
  O  O57  1  0.098624  0.827601  0.896279  1
  O  O58  1  0.901376  0.172399  0.896279  1
  O  O59  1  0.901376  0.827601  0.103721  1
  O  O60  1  0.901376  0.827601  0.896279  1
  O  O61  1  0.901376  0.172399  0.103721  1
  O  O62  1  0.098624  0.827601  0.103721  1
  O  O63  1  0.098624  0.172399  0.896279  1
  O  O64  1  0.598624  0.672399  0.103721  1
  O  O65  1  0.598624  0.327601  0.896279  1
  O  O66  1  0.401376  0.672399  0.896279  1
  O  O67  1  0.401376  0.327601  0.103721  1
  O  O68  1  0.401376  0.327601  0.896279  1
  O  O69  1  0.401376  0.672399  0.103721  1
  O  O70  1  0.598624  0.327601  0.103721  1
  O  O71  1  0.598624  0.672399  0.896279  1
  O  O72  1  0.000000  0.110728  0.000000  1
  O  O73  1  0.000000  0.889272  0.000000  1
  O  O74  1  0.500000  0.610728  0.000000  1
  O  O75  1  0.500000  0.389272  0.000000  1
  O  O76  1  0.102559  0.000000  0.000000  1
  O  O77  1  0.897441  0.000000  0.000000  1
  O  O78  1  0.602559  0.500000  0.000000  1
  O  O79  1  0.397441  0.500000  0.000000  1
  O  O80  1  0.091807  0.127515  0.500000  1
  O  O81  1  0.091807  0.872485  0.500000  1
  O  O82  1  0.908193  0.127515  0.500000  1
  O  O83  1  0.908193  0.872485  0.500000  1
  O  O84  1  0.591807  0.627515  0.500000  1
  O  O85  1  0.591807  0.372485  0.500000  1
  O  O86  1  0.408193  0.627515  0.500000  1
  O  O87  1  0.408193  0.372485  0.500000  1
  O  O88  1  0.079720  0.000000  0.341400  1
  O  O89  1  0.079720  0.000000  0.658600  1
  O  O90  1  0.920280  0.000000  0.658600  1
  O  O91  1  0.920280  0.000000  0.341400  1
  O  O92  1  0.579720  0.500000  0.341400  1
  O  O93  1  0.579720  0.500000  0.658600  1
  O  O94  1  0.420280  0.500000  0.658600  1
  O  O95  1  0.420280  0.500000  0.341400  1
  O  O96  1  0.118237  0.185245  0.307768  1
  O  O97  1  0.118237  0.814755  0.692232  1
  O  O98  1  0.881763  0.185245  0.692232  1
  O  O99  1  0.881763  0.814755  0.307768  1
  O  O100  1  0.881763  0.814755  0.692232  1
  O  O101  1  0.881763  0.185245  0.307768  1
  O  O102  1  0.118237  0.814755  0.307768  1
  O  O103  1  0.118237  0.185245  0.692232  1
  O  O104  1  0.618237  0.685245  0.307768  1
  O  O105  1  0.618237  0.314755  0.692232  1
  O  O106  1  0.381763  0.685245  0.692232  1
  O  O107  1  0.381763  0.314755  0.307768  1
  O  O108  1  0.381763  0.314755  0.692232  1
  O  O109  1  0.381763  0.685245  0.307768  1
  O  O110  1  0.618237  0.314755  0.307768  1
  O  O111  1  0.618237  0.685245  0.692232  1
  O  O112  1  0.000000  0.151164  0.361221  1
  O  O113  1  0.000000  0.848836  0.638779  1
  O  O114  1  0.000000  0.151164  0.638779  1
  O  O115  1  0.000000  0.848836  0.361221  1
  O  O116  1  0.500000  0.651164  0.361221  1
  O  O117  1  0.500000  0.348836  0.638779  1
  O  O118  1  0.500000  0.651164  0.638779  1
  O  O119  1  0.500000  0.348836  0.361221  1
  O  O120  1  0.210042  0.125731  0.181722  1
  O  O121  1  0.210042  0.874269  0.818278  1
  O  O122  1  0.789958  0.125731  0.818278  1
  O  O123  1  0.789958  0.874269  0.181722  1
  O  O124  1  0.789958  0.874269  0.818278  1
  O  O125  1  0.789958  0.125731  0.181722  1
  O  O126  1  0.210042  0.874269  0.181722  1
  O  O127  1  0.210042  0.125731  0.818278  1
  O  O128  1  0.710042  0.625731  0.181722  1
  O  O129  1  0.710042  0.374269  0.818278  1
  O  O130  1  0.289958  0.625731  0.818278  1
  O  O131  1  0.289958  0.374269  0.181722  1
  O  O132  1  0.289958  0.374269  0.818278  1
  O  O133  1  0.289958  0.625731  0.181722  1
  O  O134  1  0.710042  0.374269  0.181722  1
  O  O135  1  0.710042  0.625731  0.818278  1
  O  O136  1  0.171708  0.314951  0.179329  1
  O  O137  1  0.171708  0.685049  0.820671  1
  O  O138  1  0.828292  0.314951  0.820671  1
  O  O139  1  0.828292  0.685049  0.179329  1
  O  O140  1  0.828292  0.685049  0.820671  1
  O  O141  1  0.828292  0.314951  0.179329  1
  O  O142  1  0.171708  0.685049  0.179329  1
  O  O143  1  0.171708  0.314951  0.820671  1
  O  O144  1  0.671708  0.814951  0.179329  1
  O  O145  1  0.671708  0.185049  0.820671  1
  O  O146  1  0.328292  0.814951  0.820671  1
  O  O147  1  0.328292  0.185049  0.179329  1
  O  O148  1  0.328292  0.185049  0.820671  1
  O  O149  1  0.328292  0.814951  0.179329  1
  O  O150  1  0.671708  0.185049  0.179329  1
  O  O151  1  0.671708  0.814951  0.820671  1
  O  O152  1  0.299908  0.000000  0.127314  1
  O  O153  1  0.299908  0.000000  0.872686  1
  O  O154  1  0.700092  0.000000  0.872686  1
  O  O155  1  0.700092  0.000000  0.127314  1
  O  O156  1  0.799908  0.500000  0.127314  1
  O  O157  1  0.799908  0.500000  0.872686  1
  O  O158  1  0.200092  0.500000  0.872686  1
  O  O159  1  0.200092  0.500000  0.127314  1
  O  O160  1  0.268953  0.148711  0.000000  1
  O  O161  1  0.268953  0.851289  0.000000  1
  O  O162  1  0.731047  0.148711  0.000000  1
  O  O163  1  0.731047  0.851289  0.000000  1
  O  O164  1  0.768953  0.648711  0.000000  1
  O  O165  1  0.768953  0.351289  0.000000  1
  O  O166  1  0.231047  0.648711  0.000000  1
  O  O167  1  0.231047  0.351289  0.000000  1
