# generated using pymatgen
data_Yb3(Bi7Te12)2
_symmetry_space_group_name_H-M   'P 1'
_cell_length_a   8.33818082
_cell_length_b   8.29500937
_cell_length_c   25.48300292
_cell_angle_alpha   108.94888528
_cell_angle_beta   109.74088562
_cell_angle_gamma   108.79345200
_symmetry_Int_Tables_number   1
_chemical_formula_structural   Yb3(Bi7Te12)2
_chemical_formula_sum   'Yb3 Bi14 Te24'
_cell_volume   1372.08074326
_cell_formula_units_Z   1
loop_
 _symmetry_equiv_pos_site_id
 _symmetry_equiv_pos_as_xyz
  1  'x, y, z'
loop_
 _atom_site_type_symbol
 _atom_site_label
 _atom_site_symmetry_multiplicity
 _atom_site_fract_x
 _atom_site_fract_y
 _atom_site_fract_z
 _atom_site_occupancy
  Yb  Yb0  1  0.115931  0.738637  0.955300  1
  Yb  Yb1  1  0.257862  0.625421  0.798466  1
  Yb  Yb2  1  0.625565  0.378522  0.076145  1
  Bi  Bi3  1  0.048681  0.739571  0.611108  1
  Bi  Bi4  1  0.361083  0.250860  0.881297  1
  Bi  Bi5  1  0.099189  0.726441  0.286768  1
  Bi  Bi6  1  0.438875  0.269314  0.565075  1
  Bi  Bi7  1  0.762068  0.902791  0.719714  1
  Bi  Bi8  1  0.568289  0.316721  0.745971  1
  Bi  Bi9  1  0.835747  0.094864  0.913490  1
  Bi  Bi10  1  0.247415  0.596809  0.113218  1
  Bi  Bi11  1  0.436028  0.279876  0.225704  1
  Bi  Bi12  1  0.752257  0.844496  0.366121  1
  Bi  Bi13  1  0.613510  0.323864  0.424797  1
  Bi  Bi14  1  0.885520  0.146806  0.568304  1
  Bi  Bi15  1  0.780145  0.908656  0.050383  1
  Bi  Bi16  1  0.922549  0.149934  0.248254  1
  Te  Te17  1  0.007010  0.881391  0.836265  1
  Te  Te18  1  0.997527  0.357462  0.832630  1
  Te  Te19  1  0.017096  0.894532  0.498480  1
  Te  Te20  1  0.486331  0.999602  0.948810  1
  Te  Te21  1  0.128003  0.150368  0.706506  1
  Te  Te22  1  0.013251  0.381777  0.505694  1
  Te  Te23  1  0.394672  0.520107  0.675176  1
  Te  Te24  1  0.655773  0.646940  0.879495  1
  Te  Te25  1  0.003507  0.867625  0.163716  1
  Te  Te26  1  0.486079  0.992493  0.787267  1
  Te  Te27  1  0.107430  0.107538  0.367790  1
  Te  Te28  1  0.990844  0.361937  0.159044  1
  Te  Te29  1  0.350540  0.489219  0.332943  1
  Te  Te30  1  0.625942  0.633625  0.540521  1
  Te  Te31  1  0.487429  0.994975  0.623293  1
  Te  Te32  1  0.885644  0.515251  0.670331  1
  Te  Te33  1  0.484637  0.999409  0.456130  1
  Te  Te34  1  0.139561  0.142112  0.039021  1
  Te  Te35  1  0.386182  0.538071  0.002377  1
  Te  Te36  1  0.639824  0.620667  0.207616  1
  Te  Te37  1  0.480995  0.983348  0.291820  1
  Te  Te38  1  0.850553  0.490385  0.335865  1
  Te  Te39  1  0.503174  0.001401  0.126391  1
  Te  Te40  1  0.877280  0.511182  0.004367  1
