# generated using pymatgen
data_Li2FeBr4
_symmetry_space_group_name_H-M   'P 1'
_cell_length_a   7.88115903
_cell_length_b   7.88115830
_cell_length_c   7.98383218
_cell_angle_alpha   59.56810472
_cell_angle_beta   59.56810261
_cell_angle_gamma   60.59617740
_symmetry_Int_Tables_number   1
_chemical_formula_structural   Li2FeBr4
_chemical_formula_sum   'Li4 Fe2 Br8'
_cell_volume   349.86674670
_cell_formula_units_Z   2
loop_
 _symmetry_equiv_pos_site_id
 _symmetry_equiv_pos_as_xyz
  1  'x, y, z'
loop_
 _atom_site_type_symbol
 _atom_site_label
 _atom_site_symmetry_multiplicity
 _atom_site_fract_x
 _atom_site_fract_y
 _atom_site_fract_z
 _atom_site_occupancy
  Br  Br0  1  0.262210  0.262210  0.250650  1
  Br  Br1  1  0.264863  0.730865  0.252136  1
  Br  Br2  1  0.262210  0.262210  0.724930  1
  Br  Br3  1  0.730865  0.264863  0.252136  1
  Br  Br4  1  0.269135  0.735137  0.747864  1
  Br  Br5  1  0.737790  0.737790  0.275070  1
  Br  Br6  1  0.735137  0.269135  0.747864  1
  Br  Br7  1  0.737790  0.737790  0.749350  1
  Fe  Fe8  1  0.500000  0.500000  0.000000  1
  Fe  Fe9  1  0.500000  0.500000  0.500000  1
  Li  Li10  1  0.132707  0.132707  0.117293  1
  Li  Li11  1  0.000000  0.500000  0.500000  1
  Li  Li12  1  0.500000  0.000000  0.500000  1
  Li  Li13  1  0.867293  0.867293  0.882707  1
