# generated using pymatgen
data_B3H60C16(NO)12
_symmetry_space_group_name_H-M   'P 1'
_cell_length_a   10.81447492
_cell_length_b   10.81447492
_cell_length_c   10.81447492
_cell_angle_alpha   90.00000000
_cell_angle_beta   90.00000000
_cell_angle_gamma   90.00000000
_symmetry_Int_Tables_number   1
_chemical_formula_structural   B3H60C16(NO)12
_chemical_formula_sum   'B3 H60 C16 N12 O12'
_cell_volume   1264.78385559
_cell_formula_units_Z   1
loop_
 _symmetry_equiv_pos_site_id
 _symmetry_equiv_pos_as_xyz
  1  'x, y, z'
loop_
 _atom_site_type_symbol
 _atom_site_label
 _atom_site_symmetry_multiplicity
 _atom_site_fract_x
 _atom_site_fract_y
 _atom_site_fract_z
 _atom_site_occupancy
  B  B0  1  0.500000  0.000000  0.000000  1
  B  B1  1  0.000000  0.500000  0.000000  1
  B  B2  1  0.000000  0.000000  0.500000  1
  H  H3  1  0.209968  0.611034  0.209968  1
  H  H4  1  0.209968  0.209968  0.611034  1
  H  H5  1  0.209968  0.388966  0.790032  1
  H  H6  1  0.231347  0.479218  0.114449  1
  H  H7  1  0.231347  0.885551  0.520782  1
  H  H8  1  0.231347  0.114449  0.479218  1
  H  H9  1  0.231347  0.520782  0.885551  1
  H  H10  1  0.479218  0.231347  0.114449  1
  H  H11  1  0.479218  0.114449  0.231347  1
  H  H12  1  0.479218  0.885551  0.768653  1
  H  H13  1  0.479218  0.768653  0.885551  1
  H  H14  1  0.611034  0.209968  0.209968  1
  H  H15  1  0.611034  0.790032  0.790032  1
  H  H16  1  0.724365  0.840785  0.007945  1
  H  H17  1  0.724365  0.992055  0.159215  1
  H  H18  1  0.724365  0.007945  0.840785  1
  H  H19  1  0.724365  0.159215  0.992055  1
  H  H20  1  0.790032  0.611034  0.790032  1
  H  H21  1  0.790032  0.209968  0.388966  1
  H  H22  1  0.790032  0.388966  0.209968  1
  H  H23  1  0.840785  0.724365  0.007945  1
  H  H24  1  0.840785  0.007945  0.724365  1
  H  H25  1  0.840785  0.992055  0.275635  1
  H  H26  1  0.840785  0.275635  0.992055  1
  H  H27  1  0.885551  0.479218  0.768653  1
  H  H28  1  0.885551  0.768653  0.479218  1
  H  H29  1  0.885551  0.231347  0.520782  1
  H  H30  1  0.885551  0.520782  0.231347  1
  H  H31  1  0.992055  0.724365  0.159215  1
  H  H32  1  0.992055  0.159215  0.724365  1
  H  H33  1  0.992055  0.840785  0.275635  1
  H  H34  1  0.992055  0.275635  0.840785  1
  H  H35  1  0.007945  0.724365  0.840785  1
  H  H36  1  0.007945  0.840785  0.724365  1
  H  H37  1  0.007945  0.159215  0.275635  1
  H  H38  1  0.007945  0.275635  0.159215  1
  H  H39  1  0.114449  0.231347  0.479218  1
  H  H40  1  0.114449  0.479218  0.231347  1
  H  H41  1  0.114449  0.520782  0.768653  1
  H  H42  1  0.114449  0.768653  0.520782  1
  H  H43  1  0.159215  0.724365  0.992055  1
  H  H44  1  0.159215  0.992055  0.724365  1
  H  H45  1  0.159215  0.007945  0.275635  1
  H  H46  1  0.159215  0.275635  0.007945  1
  H  H47  1  0.209968  0.790032  0.388966  1
  H  H48  1  0.275635  0.840785  0.992055  1
  H  H49  1  0.275635  0.992055  0.840785  1
  H  H50  1  0.275635  0.007945  0.159215  1
  H  H51  1  0.275635  0.159215  0.007945  1
  H  H52  1  0.388966  0.209968  0.790032  1
  H  H53  1  0.388966  0.790032  0.209968  1
  H  H54  1  0.520782  0.231347  0.885551  1
  H  H55  1  0.520782  0.885551  0.231347  1
  H  H56  1  0.520782  0.114449  0.768653  1
  H  H57  1  0.520782  0.768653  0.114449  1
  H  H58  1  0.768653  0.479218  0.885551  1
  H  H59  1  0.768653  0.885551  0.479218  1
  H  H60  1  0.768653  0.114449  0.520782  1
  H  H61  1  0.768653  0.520782  0.114449  1
  H  H62  1  0.790032  0.790032  0.611034  1
  C  C63  1  0.161180  0.536203  0.161180  1
  C  C64  1  0.161180  0.161180  0.536203  1
  C  C65  1  0.161180  0.463797  0.838820  1
  C  C66  1  0.536203  0.161180  0.161180  1
  C  C67  1  0.536203  0.838820  0.838820  1
  C  C68  1  0.838820  0.161180  0.463797  1
  C  C69  1  0.838820  0.463797  0.161180  1
  C  C70  1  0.838820  0.536203  0.838820  1
  C  C71  1  0.852092  0.852092  0.147908  1
  C  C72  1  0.852092  0.147908  0.852092  1
  C  C73  1  0.147908  0.852092  0.852092  1
  C  C74  1  0.147908  0.147908  0.147908  1
  C  C75  1  0.161180  0.838820  0.463797  1
  C  C76  1  0.463797  0.161180  0.838820  1
  C  C77  1  0.463797  0.838820  0.161180  1
  C  C78  1  0.838820  0.838820  0.536203  1
  N  N79  1  0.801140  0.801140  0.047458  1
  N  N80  1  0.801140  0.952542  0.198860  1
  N  N81  1  0.801140  0.047458  0.801140  1
  N  N82  1  0.801140  0.198860  0.952542  1
  N  N83  1  0.952542  0.801140  0.198860  1
  N  N84  1  0.952542  0.198860  0.801140  1
  N  N85  1  0.047458  0.801140  0.801140  1
  N  N86  1  0.047458  0.198860  0.198860  1
  N  N87  1  0.198860  0.801140  0.952542  1
  N  N88  1  0.198860  0.952542  0.801140  1
  N  N89  1  0.198860  0.047458  0.198860  1
  N  N90  1  0.198860  0.198860  0.047458  1
  O  O91  1  0.075148  0.587872  0.075148  1
  O  O92  1  0.075148  0.075148  0.587872  1
  O  O93  1  0.075148  0.412128  0.924852  1
  O  O94  1  0.587872  0.075148  0.075148  1
  O  O95  1  0.587872  0.924852  0.924852  1
  O  O96  1  0.924852  0.075148  0.412128  1
  O  O97  1  0.924852  0.412128  0.075148  1
  O  O98  1  0.924852  0.587872  0.924852  1
  O  O99  1  0.075148  0.924852  0.412128  1
  O  O100  1  0.412128  0.075148  0.924852  1
  O  O101  1  0.412128  0.924852  0.075148  1
  O  O102  1  0.924852  0.924852  0.587872  1
