# generated using pymatgen
data_Na2CaPb3(CO3)5
_symmetry_space_group_name_H-M   'P 1'
_cell_length_a   10.69937702
_cell_length_b   10.72723661
_cell_length_c   13.51791328
_cell_angle_alpha   89.99999998
_cell_angle_beta   89.15259591
_cell_angle_gamma   120.08617065
_symmetry_Int_Tables_number   1
_chemical_formula_structural   Na2CaPb3(CO3)5
_chemical_formula_sum   'Na8 Ca4 Pb12 C20 O60'
_cell_volume   1342.28714986
_cell_formula_units_Z   4
loop_
 _symmetry_equiv_pos_site_id
 _symmetry_equiv_pos_as_xyz
  1  'x, y, z'
loop_
 _atom_site_type_symbol
 _atom_site_label
 _atom_site_symmetry_multiplicity
 _atom_site_fract_x
 _atom_site_fract_y
 _atom_site_fract_z
 _atom_site_occupancy
  Na  Na0  1  0.049390  0.526424  0.404637  1
  Na  Na1  1  0.049390  0.522966  0.904637  1
  Na  Na2  1  0.476063  0.949713  0.904811  1
  Na  Na3  1  0.476063  0.526350  0.404811  1
  Na  Na4  1  0.525235  0.473394  0.156762  1
  Na  Na5  1  0.526332  0.478780  0.652293  1
  Na  Na6  1  0.526332  0.047552  0.152293  1
  Na  Na7  1  0.525235  0.051841  0.656762  1
  Ca  Ca8  1  0.476013  0.953583  0.410529  1
  Ca  Ca9  1  0.476013  0.522430  0.910529  1
  Ca  Ca10  1  0.953599  0.473434  0.161338  1
  Ca  Ca11  1  0.953599  0.480165  0.661338  1
  Pb  Pb12  1  0.159828  0.850208  0.247049  1
  Pb  Pb13  1  0.168304  0.854170  0.749001  1
  Pb  Pb14  1  0.168304  0.314134  0.249001  1
  Pb  Pb15  1  0.159828  0.309620  0.747049  1
  Pb  Pb16  1  0.315101  0.167838  0.499408  1
  Pb  Pb17  1  0.315101  0.147263  0.999408  1
  Pb  Pb18  1  0.684352  0.836094  0.241048  1
  Pb  Pb19  1  0.684352  0.848258  0.741048  1
  Pb  Pb20  1  0.849763  0.688362  0.995869  1
  Pb  Pb21  1  0.837605  0.686511  0.491599  1
  Pb  Pb22  1  0.849763  0.161401  0.495869  1
  Pb  Pb23  1  0.837605  0.151094  0.991599  1
  C  C24  1  0.000246  0.000884  0.925222  1
  C  C25  1  0.201909  0.792560  0.027726  1
  C  C26  1  0.204155  0.795048  0.526986  1
  C  C27  1  0.999215  0.998379  0.675162  1
  C  C28  1  0.330172  0.666081  0.249709  1
  C  C29  1  0.204155  0.409106  0.026986  1
  C  C30  1  0.330172  0.664092  0.749709  1
  C  C31  1  0.201909  0.409349  0.527726  1
  C  C32  1  0.591384  0.798246  0.525145  1
  C  C33  1  0.591384  0.793137  0.025145  1
  C  C34  1  0.409285  0.202054  0.277973  1
  C  C35  1  0.409285  0.207231  0.777973  1
  C  C36  1  0.797310  0.591480  0.274974  1
  C  C37  1  0.794357  0.590573  0.777101  1
  C  C38  1  0.000246  0.999362  0.425222  1
  C  C39  1  0.666444  0.335856  0.999601  1
  C  C40  1  0.666444  0.330587  0.499601  1
  C  C41  1  0.794357  0.203784  0.277101  1
  C  C42  1  0.797310  0.205831  0.774974  1
  C  C43  1  0.999215  0.000836  0.175162  1
  O  O44  1  0.070085  0.929443  0.425872  1
  O  O45  1  0.070715  0.930772  0.927890  1
  O  O46  1  0.081657  0.699762  0.075554  1
  O  O47  1  0.084608  0.703445  0.573571  1
  O  O48  1  0.291377  0.911413  0.074245  1
  O  O49  1  0.297101  0.914036  0.571070  1
  O  O50  1  0.231829  0.770279  0.438913  1
  O  O51  1  0.228255  0.768252  0.940221  1
  O  O52  1  0.084608  0.381164  0.073571  1
  O  O53  1  0.081657  0.381895  0.575554  1
  O  O54  1  0.189510  0.593033  0.743584  1
  O  O55  1  0.189510  0.596477  0.243584  1
  O  O56  1  0.228255  0.460004  0.440221  1
  O  O57  1  0.400274  0.806974  0.256693  1
  O  O58  1  0.070715  0.139943  0.427890  1
  O  O59  1  0.231829  0.461551  0.938913  1
  O  O60  1  0.400279  0.803808  0.748437  1
  O  O61  1  0.070085  0.140642  0.925872  1
  O  O62  1  0.140182  0.071072  0.178431  1
  O  O63  1  0.140182  0.069110  0.678431  1
  O  O64  1  0.400274  0.593300  0.756693  1
  O  O65  1  0.400279  0.596471  0.248437  1
  O  O66  1  0.297101  0.383065  0.071070  1
  O  O67  1  0.291377  0.379964  0.574245  1
  O  O68  1  0.536783  0.765113  0.938617  1
  O  O69  1  0.536783  0.771670  0.438617  1
  O  O70  1  0.621175  0.912044  0.070410  1
  O  O71  1  0.617688  0.917924  0.569717  1
  O  O72  1  0.378599  0.291014  0.325208  1
  O  O73  1  0.382827  0.299869  0.825091  1
  O  O74  1  0.617688  0.699764  0.069717  1
  O  O75  1  0.621175  0.709131  0.570410  1
  O  O76  1  0.378599  0.087585  0.825208  1
  O  O77  1  0.382827  0.082958  0.325091  1
  O  O78  1  0.460363  0.228203  0.190182  1
  O  O79  1  0.460363  0.232160  0.690182  1
  O  O80  1  0.708882  0.623004  0.321365  1
  O  O81  1  0.703307  0.619030  0.823271  1
  O  O82  1  0.596943  0.406878  0.993802  1
  O  O83  1  0.596462  0.400292  0.497394  1
  O  O84  1  0.859793  0.929893  0.426241  1
  O  O85  1  0.859793  0.929900  0.926241  1
  O  O86  1  0.930086  0.860345  0.175316  1
  O  O87  1  0.596462  0.196170  0.997394  1
  O  O88  1  0.770533  0.537687  0.187756  1
  O  O89  1  0.929125  0.859075  0.676129  1
  O  O90  1  0.596943  0.190065  0.493802  1
  O  O91  1  0.769017  0.537845  0.689494  1
  O  O92  1  0.807412  0.406689  0.007206  1
  O  O93  1  0.807412  0.400723  0.507206  1
  O  O94  1  0.915842  0.615103  0.318690  1
  O  O95  1  0.913229  0.616125  0.820886  1
  O  O96  1  0.769017  0.231172  0.189494  1
  O  O97  1  0.770533  0.232846  0.687756  1
  O  O98  1  0.708882  0.085878  0.821365  1
  O  O99  1  0.703307  0.084276  0.323271  1
  O  O100  1  0.913229  0.297104  0.320886  1
  O  O101  1  0.915842  0.300739  0.818690  1
  O  O102  1  0.929125  0.070050  0.176129  1
  O  O103  1  0.930086  0.069740  0.675316  1
