# generated using pymatgen
data_IF7
_symmetry_space_group_name_H-M   'P 1'
_cell_length_a   6.36173021
_cell_length_b   6.21826034
_cell_length_c   6.62233326
_cell_angle_alpha   88.66891069
_cell_angle_beta   89.23247427
_cell_angle_gamma   110.32701669
_symmetry_Int_Tables_number   1
_chemical_formula_structural   IF7
_chemical_formula_sum   'I2 F14'
_cell_volume   245.52725327
_cell_formula_units_Z   2
loop_
 _symmetry_equiv_pos_site_id
 _symmetry_equiv_pos_as_xyz
  1  'x, y, z'
loop_
 _atom_site_type_symbol
 _atom_site_label
 _atom_site_symmetry_multiplicity
 _atom_site_fract_x
 _atom_site_fract_y
 _atom_site_fract_z
 _atom_site_occupancy
  I  I0  1  0.225323  -0.003880  0.005171  1
  I  I1  1  0.568120  0.447762  0.452866  1
  F  F2  1  0.189698  0.683428  0.673115  1
  F  F3  1  0.262259  0.984035  0.289594  1
  F  F4  1  0.034201  0.486627  0.778760  1
  F  F5  1  0.260093  0.312665  0.531714  1
  F  F6  1  0.366903  0.763645  0.016250  1
  F  F7  1  0.187573  0.275362  0.093792  1
  F  F8  1  0.525777  0.732906  0.404518  1
  F  F9  1  0.773103  0.167309  0.976312  1
  F  F10  1  0.659397  0.281072  0.126318  1
  F  F11  1  0.961033  0.757564  0.077712  1
  F  F12  1  0.879497  0.607191  0.442802  1
  F  F13  1  0.595059  0.542150  0.720131  1
  F  F14  1  0.008277  0.019057  0.801659  1
  F  F15  1  0.619788  0.187205  0.573385  1
