# generated using pymatgen
data_Li2VPO6
_symmetry_space_group_name_H-M   'P 1'
_cell_length_a   4.69550411
_cell_length_b   8.65935290
_cell_length_c   10.44654439
_cell_angle_alpha   90.00038950
_cell_angle_beta   89.99809469
_cell_angle_gamma   90.00061281
_symmetry_Int_Tables_number   1
_chemical_formula_structural   Li2VPO6
_chemical_formula_sum   'Li8 V4 P4 O24'
_cell_volume   424.75677820
_cell_formula_units_Z   4
loop_
 _symmetry_equiv_pos_site_id
 _symmetry_equiv_pos_as_xyz
  1  'x, y, z'
loop_
 _atom_site_type_symbol
 _atom_site_label
 _atom_site_symmetry_multiplicity
 _atom_site_fract_x
 _atom_site_fract_y
 _atom_site_fract_z
 _atom_site_occupancy
  Li  Li0  1  0.534462  0.621430  0.134642  1
  Li  Li1  1  0.478556  0.320726  0.588403  1
  Li  Li2  1  0.965539  0.621424  0.634634  1
  Li  Li3  1  0.521445  0.820729  0.411597  1
  Li  Li4  1  0.978555  0.820729  0.911600  1
  Li  Li5  1  0.034463  0.121423  0.365366  1
  Li  Li6  1  0.021444  0.320729  0.088400  1
  Li  Li7  1  0.465539  0.121429  0.865358  1
  V  V8  1  0.017159  0.001763  0.609952  1
  V  V9  1  0.482871  0.001750  0.109938  1
  V  V10  1  0.982831  0.501771  0.390045  1
  V  V11  1  0.517135  0.501760  0.890067  1
  P  P12  1  0.084484  0.804475  0.218102  1
  P  P13  1  0.915509  0.304474  0.781898  1
  P  P14  1  0.584512  0.304475  0.281879  1
  P  P15  1  0.415497  0.804477  0.718119  1
  O  O16  1  0.238026  0.941313  0.286195  1
  O  O17  1  0.739212  0.813268  0.715785  1
  O  O18  1  0.766829  0.311699  0.917278  1
  O  O19  1  0.239199  0.313270  0.784220  1
  O  O20  1  0.743819  0.628926  0.952346  1
  O  O21  1  0.295730  0.472221  0.012478  1
  O  O22  1  0.256169  0.128930  0.047653  1
  O  O23  1  0.204283  0.472204  0.512465  1
  O  O24  1  0.738020  0.441303  0.213806  1
  O  O25  1  0.261978  0.941303  0.786193  1
  O  O26  1  0.266831  0.811684  0.582722  1
  O  O27  1  0.189713  0.649512  0.280088  1
  O  O28  1  0.310300  0.649514  0.780097  1
  O  O29  1  0.810291  0.149515  0.719913  1
  O  O30  1  0.689699  0.149516  0.219905  1
  O  O31  1  0.243803  0.128905  0.547678  1
  O  O32  1  0.733170  0.311686  0.417279  1
  O  O33  1  0.761976  0.441315  0.713802  1
  O  O34  1  0.795725  0.972203  0.487536  1
  O  O35  1  0.756198  0.628902  0.452322  1
  O  O36  1  0.260783  0.313267  0.284214  1
  O  O37  1  0.760803  0.813267  0.215781  1
  O  O38  1  0.704268  0.972220  0.987522  1
  O  O39  1  0.233173  0.811698  0.082721  1
