# generated using pymatgen
data_Dy5Cl11
_symmetry_space_group_name_H-M   'P 1'
_cell_length_a   6.66827570
_cell_length_b   6.82073001
_cell_length_c   33.41589885
_cell_angle_alpha   90.00000000
_cell_angle_beta   90.00000000
_cell_angle_gamma   90.85350251
_symmetry_Int_Tables_number   1
_chemical_formula_structural   Dy5Cl11
_chemical_formula_sum   'Dy20 Cl44'
_cell_volume   1519.67026862
_cell_formula_units_Z   4
loop_
 _symmetry_equiv_pos_site_id
 _symmetry_equiv_pos_as_xyz
  1  'x, y, z'
loop_
 _atom_site_type_symbol
 _atom_site_label
 _atom_site_symmetry_multiplicity
 _atom_site_fract_x
 _atom_site_fract_y
 _atom_site_fract_z
 _atom_site_occupancy
  Dy  Dy0  1  0.555062  0.124794  0.939826  1
  Dy  Dy1  1  0.952414  0.299033  0.856350  1
  Dy  Dy2  1  0.990386  0.318132  0.250000  1
  Dy  Dy3  1  0.542290  0.804916  0.646042  1
  Dy  Dy4  1  0.954365  0.620810  0.941365  1
  Dy  Dy5  1  0.009614  0.681868  0.750000  1
  Dy  Dy6  1  0.489380  0.177507  0.750000  1
  Dy  Dy7  1  0.954365  0.620810  0.558635  1
  Dy  Dy8  1  0.457710  0.195084  0.146042  1
  Dy  Dy9  1  0.542290  0.804916  0.853958  1
  Dy  Dy10  1  0.045635  0.379190  0.058635  1
  Dy  Dy11  1  0.047586  0.700967  0.356350  1
  Dy  Dy12  1  0.047586  0.700967  0.143650  1
  Dy  Dy13  1  0.952414  0.299033  0.643650  1
  Dy  Dy14  1  0.457710  0.195084  0.353958  1
  Dy  Dy15  1  0.045635  0.379190  0.441365  1
  Dy  Dy16  1  0.555062  0.124794  0.560174  1
  Dy  Dy17  1  0.444938  0.875206  0.439826  1
  Dy  Dy18  1  0.444938  0.875206  0.060174  1
  Dy  Dy19  1  0.510620  0.822493  0.250000  1
  Cl  Cl20  1  0.686726  0.175250  0.418242  1
  Cl  Cl21  1  0.720958  0.869735  0.508387  1
  Cl  Cl22  1  0.135140  0.043821  0.102754  1
  Cl  Cl23  1  0.194226  0.019706  0.298693  1
  Cl  Cl24  1  0.325181  0.115002  0.825704  1
  Cl  Cl25  1  0.603512  0.200176  0.250000  1
  Cl  Cl26  1  0.170362  0.617919  0.673119  1
  Cl  Cl27  1  0.396488  0.799824  0.750000  1
  Cl  Cl28  1  0.805774  0.980294  0.701307  1
  Cl  Cl29  1  0.638666  0.469641  0.602831  1
  Cl  Cl30  1  0.313274  0.824750  0.581758  1
  Cl  Cl31  1  0.313274  0.824750  0.918242  1
  Cl  Cl32  1  0.864860  0.956179  0.602754  1
  Cl  Cl33  1  0.698041  0.476906  0.701247  1
  Cl  Cl34  1  0.674819  0.884998  0.174296  1
  Cl  Cl35  1  0.829638  0.382081  0.326881  1
  Cl  Cl36  1  0.170362  0.617919  0.826881  1
  Cl  Cl37  1  0.829638  0.382081  0.173119  1
  Cl  Cl38  1  0.135140  0.043821  0.397246  1
  Cl  Cl39  1  0.775483  0.369532  0.507904  1
  Cl  Cl40  1  0.864860  0.956179  0.897246  1
  Cl  Cl41  1  0.193113  0.323385  0.919184  1
  Cl  Cl42  1  0.301959  0.523094  0.298753  1
  Cl  Cl43  1  0.111946  0.311253  0.750000  1
  Cl  Cl44  1  0.301959  0.523094  0.201247  1
  Cl  Cl45  1  0.279042  0.130265  0.491613  1
  Cl  Cl46  1  0.193113  0.323385  0.580816  1
  Cl  Cl47  1  0.686726  0.175250  0.081758  1
  Cl  Cl48  1  0.888054  0.688747  0.250000  1
  Cl  Cl49  1  0.775483  0.369532  0.992096  1
  Cl  Cl50  1  0.224517  0.630468  0.007904  1
  Cl  Cl51  1  0.361334  0.530359  0.397169  1
  Cl  Cl52  1  0.698041  0.476906  0.798753  1
  Cl  Cl53  1  0.224517  0.630468  0.492096  1
  Cl  Cl54  1  0.279042  0.130265  0.008387  1
  Cl  Cl55  1  0.806887  0.676615  0.080816  1
  Cl  Cl56  1  0.361334  0.530359  0.102831  1
  Cl  Cl57  1  0.806887  0.676615  0.419184  1
  Cl  Cl58  1  0.638666  0.469641  0.897169  1
  Cl  Cl59  1  0.805774  0.980294  0.798693  1
  Cl  Cl60  1  0.674819  0.884998  0.325704  1
  Cl  Cl61  1  0.325181  0.115002  0.674296  1
  Cl  Cl62  1  0.720958  0.869735  0.991613  1
  Cl  Cl63  1  0.194226  0.019706  0.201307  1
