# generated using pymatgen
data_U4Be2C5
_symmetry_space_group_name_H-M   'P 1'
_cell_length_a   7.23595448
_cell_length_b   11.88507012
_cell_length_c   8.02060726
_cell_angle_alpha   19.05304039
_cell_angle_beta   47.41600597
_cell_angle_gamma   40.46847311
_symmetry_Int_Tables_number   1
_chemical_formula_structural   U4Be2C5
_chemical_formula_sum   'U4 Be2 C5'
_cell_volume   143.18413944
_cell_formula_units_Z   1
loop_
 _symmetry_equiv_pos_site_id
 _symmetry_equiv_pos_as_xyz
  1  'x, y, z'
loop_
 _atom_site_type_symbol
 _atom_site_label
 _atom_site_symmetry_multiplicity
 _atom_site_fract_x
 _atom_site_fract_y
 _atom_site_fract_z
 _atom_site_occupancy
  U  U0  1  0.949648  0.011590  0.047955  1
  U  U1  1  0.443213  0.025650  0.033273  1
  U  U2  1  0.168490  0.750910  0.857527  1
  U  U3  1  0.675778  0.737500  0.870024  1
  Be  Be4  1  0.300762  0.384179  0.949376  1
  Be  Be5  1  0.816895  0.381168  0.952452  1
  C  C6  1  0.163497  0.221839  0.435791  1
  C  C7  1  0.631009  0.217031  0.439622  1
  C  C8  1  0.487540  0.546039  0.463222  1
  C  C9  1  0.954171  0.540310  0.469947  1
  C  C10  1  0.060416  0.379793  0.953741  1
