# generated using pymatgen
data_Na4PtO4
_symmetry_space_group_name_H-M   'P 1'
_cell_length_a   16.16945575
_cell_length_b   8.67194458
_cell_length_c   5.83022884
_cell_angle_alpha   28.83671395
_cell_angle_beta   53.25074455
_cell_angle_gamma   39.54785389
_symmetry_Int_Tables_number   1
_chemical_formula_structural   Na4PtO4
_chemical_formula_sum   'Na8 Pt2 O8'
_cell_volume   243.00657390
_cell_formula_units_Z   2
loop_
 _symmetry_equiv_pos_site_id
 _symmetry_equiv_pos_as_xyz
  1  'x, y, z'
loop_
 _atom_site_type_symbol
 _atom_site_label
 _atom_site_symmetry_multiplicity
 _atom_site_fract_x
 _atom_site_fract_y
 _atom_site_fract_z
 _atom_site_occupancy
  Na  Na0  1  0.005894  0.970230  0.064857  1
  Na  Na1  1  0.093945  0.531802  0.934113  1
  Na  Na2  1  0.323332  0.449449  0.039218  1
  Na  Na3  1  0.227309  0.972957  0.951038  1
  Na  Na4  1  0.502647  0.493725  0.006820  1
  Na  Na5  1  0.597197  0.007899  0.989741  1
  Na  Na6  1  0.872759  0.527775  0.048136  1
  Na  Na7  1  0.776718  0.051584  0.958872  1
  Pt  Pt8  1  0.395083  0.015483  0.981968  1
  Pt  Pt9  1  0.704944  0.485449  0.016244  1
  O  O10  1  0.213751  0.471482  0.524056  1
  O  O11  1  0.391875  0.513932  0.502110  1
  O  O12  1  0.294737  0.046537  0.391671  1
  O  O13  1  0.585653  0.562146  0.384976  1
  O  O14  1  0.514288  0.939016  0.612600  1
  O  O15  1  0.805280  0.454341  0.607066  1
  O  O16  1  0.708228  0.987303  0.495521  1
  O  O17  1  0.885907  0.029868  0.475060  1
