# generated using pymatgen
data_Na3Sr7Ti7Nb3O30
_symmetry_space_group_name_H-M   'P 1'
_cell_length_a   6.87397168
_cell_length_b   6.86301263
_cell_length_c   34.37886200
_cell_angle_alpha   109.38971680
_cell_angle_beta   109.52117052
_cell_angle_gamma   109.46387550
_symmetry_Int_Tables_number   1
_chemical_formula_structural   Na3Sr7Ti7Nb3O30
_chemical_formula_sum   'Na6 Sr14 Ti14 Nb6 O60'
_cell_volume   1249.10810726
_cell_formula_units_Z   2
loop_
 _symmetry_equiv_pos_site_id
 _symmetry_equiv_pos_as_xyz
  1  'x, y, z'
loop_
 _atom_site_type_symbol
 _atom_site_label
 _atom_site_symmetry_multiplicity
 _atom_site_fract_x
 _atom_site_fract_y
 _atom_site_fract_z
 _atom_site_occupancy
  Na  Na0  1  0.498191  0.497807  0.798772  1
  Na  Na1  1  0.996585  0.996222  0.798983  1
  Na  Na2  1  0.500607  0.500579  0.600178  1
  Na  Na3  1  0.500386  0.500384  0.400160  1
  Na  Na4  1  0.500561  0.500570  0.200278  1
  Na  Na5  1  0.002220  0.002586  0.000549  1
  Sr  Sr6  1  0.499533  0.998761  0.899280  1
  Sr  Sr7  1  0.500395  0.999400  0.700058  1
  Sr  Sr8  1  0.997394  0.498015  0.899255  1
  Sr  Sr9  1  0.500430  0.000391  0.500195  1
  Sr  Sr10  1  0.999815  0.500890  0.700058  1
  Sr  Sr11  1  0.000888  0.000841  0.600457  1
  Sr  Sr12  1  0.500323  0.000302  0.300166  1
  Sr  Sr13  1  0.000530  0.500584  0.500193  1
  Sr  Sr14  1  0.000378  0.000381  0.400153  1
  Sr  Sr15  1  0.000498  0.500507  0.300168  1
  Sr  Sr16  1  0.000087  0.000157  0.199941  1
  Sr  Sr17  1  0.499571  0.001619  0.100339  1
  Sr  Sr18  1  0.501314  0.502083  0.001168  1
  Sr  Sr19  1  0.002104  0.499986  0.100333  1
  Ti  Ti20  1  0.500738  0.501180  0.699656  1
  Ti  Ti21  1  0.001684  0.001942  0.701390  1
  Ti  Ti22  1  0.995846  0.992133  0.897617  1
  Ti  Ti23  1  0.989369  0.496555  0.797258  1
  Ti  Ti24  1  0.502058  0.500515  0.500503  1
  Ti  Ti25  1  0.000600  0.002143  0.500573  1
  Ti  Ti26  1  0.001284  0.502705  0.600810  1
  Ti  Ti27  1  0.501988  0.500544  0.300534  1
  Ti  Ti28  1  0.002050  0.502093  0.400820  1
  Ti  Ti29  1  0.000458  0.001983  0.300474  1
  Ti  Ti30  1  0.500706  0.499498  0.101498  1
  Ti  Ti31  1  0.002922  0.003076  0.099854  1
  Ti  Ti32  1  0.002648  0.501349  0.200789  1
  Ti  Ti33  1  0.006323  0.496024  0.000703  1
  Nb  Nb34  1  0.498711  0.499620  0.898752  1
  Nb  Nb35  1  0.499986  0.992315  0.798524  1
  Nb  Nb36  1  0.501054  -0.000118  0.600206  1
  Nb  Nb37  1  0.500302  0.000325  0.400119  1
  Nb  Nb38  1  0.500052  0.001156  0.200231  1
  Nb  Nb39  1  0.497838  0.005040  0.000765  1
  O  O40  1  0.000681  0.254326  0.950050  1
  O  O41  1  0.496240  0.748638  0.949880  1
  O  O42  1  0.248117  0.506309  0.851031  1
  O  O43  1  0.250998  0.251749  0.901421  1
  O  O44  1  0.251075  0.000413  0.949275  1
  O  O45  1  0.249988  0.748825  0.800351  1
  O  O46  1  0.748608  0.254148  0.000140  1
  O  O47  1  0.751794  0.006446  0.851647  1
  O  O48  1  0.496588  0.747183  0.748514  1
  O  O49  1  0.748027  0.494508  0.949639  1
  O  O50  1  0.753046  0.752628  0.900226  1
  O  O51  1  0.247687  0.248152  0.699048  1
  O  O52  1  0.246388  0.499731  0.650497  1
  O  O53  1  0.504687  0.247301  0.850698  1
  O  O54  1  0.248496  0.994131  0.748619  1
  O  O55  1  0.245689  0.749835  0.599706  1
  O  O56  1  0.754298  0.005818  0.650883  1
  O  O57  1  0.752115  0.253309  0.800583  1
  O  O58  1  0.501086  0.752027  0.549297  1
  O  O59  1  0.750416  0.494745  0.748938  1
  O  O60  1  0.749710  0.749022  0.699880  1
  O  O61  1  0.006025  0.753355  0.851647  1
  O  O62  1  0.246825  0.247428  0.498819  1
  O  O63  1  0.245882  0.499456  0.450358  1
  O  O64  1  0.498705  0.248073  0.650682  1
  O  O65  1  0.246012  0.994026  0.549127  1
  O  O66  1  0.245769  0.749938  0.399691  1
  O  O67  1  0.753502  0.249334  0.599945  1
  O  O68  1  0.754136  0.005243  0.450756  1
  O  O69  1  0.500986  0.751936  0.349264  1
  O  O70  1  0.752421  0.499773  0.549166  1
  O  O71  1  0.752282  0.751686  0.500824  1
  O  O72  1  0.005762  0.752637  0.650207  1
  O  O73  1  0.994137  0.250038  0.749164  1
  O  O74  1  0.000202  0.748246  0.050564  1
  O  O75  1  0.245857  0.499458  0.250364  1
  O  O76  1  0.246824  0.247414  0.298816  1
  O  O77  1  0.498088  0.247972  0.450535  1
  O  O78  1  0.245802  0.993806  0.349043  1
  O  O79  1  0.245789  0.749926  0.199682  1
  O  O80  1  0.753300  0.249115  0.399933  1
  O  O81  1  0.754067  0.005182  0.250714  1
  O  O82  1  0.501086  0.752175  0.149320  1
  O  O83  1  0.752169  0.499651  0.349100  1
  O  O84  1  0.752322  0.751724  0.300834  1
  O  O85  1  0.005384  0.752710  0.450146  1
  O  O86  1  0.994091  0.245639  0.549389  1
  O  O87  1  0.252806  0.505988  0.050673  1
  O  O88  1  0.250394  0.251120  0.100079  1
  O  O89  1  0.498081  0.247958  0.250548  1
  O  O90  1  0.246095  0.993962  0.149151  1
  O  O91  1  0.251285  0.746220  0.999898  1
  O  O92  1  0.753158  0.249042  0.199921  1
  O  O93  1  0.748424  0.000684  0.050803  1
  O  O94  1  0.749332  0.748877  0.099862  1
  O  O95  1  0.752110  0.499759  0.149121  1
  O  O96  1  0.993871  0.245405  0.349302  1
  O  O97  1  0.005311  0.752718  0.250122  1
  O  O98  1  0.503650  0.254960  0.050921  1
  O  O99  1  0.993895  0.245980  0.149425  1
