# generated using pymatgen
data_H5IO6
_symmetry_space_group_name_H-M   'P 1'
_cell_length_a   5.46381511
_cell_length_b   18.32211109
_cell_length_c   4.94318067
_cell_angle_alpha   90.00000000
_cell_angle_beta   111.94805459
_cell_angle_gamma   90.00000000
_symmetry_Int_Tables_number   1
_chemical_formula_structural   H5IO6
_chemical_formula_sum   'H20 I4 O24'
_cell_volume   458.98947230
_cell_formula_units_Z   4
loop_
 _symmetry_equiv_pos_site_id
 _symmetry_equiv_pos_as_xyz
  1  'x, y, z'
loop_
 _atom_site_type_symbol
 _atom_site_label
 _atom_site_symmetry_multiplicity
 _atom_site_fract_x
 _atom_site_fract_y
 _atom_site_fract_z
 _atom_site_occupancy
  H  H0  1  0.142490  0.491745  0.840444  1
  H  H1  1  0.765310  0.943365  0.120029  1
  H  H2  1  0.734690  0.443365  0.379971  1
  H  H3  1  0.357510  0.991745  0.659556  1
  H  H4  1  0.875551  0.527723  0.169395  1
  H  H5  1  0.624449  0.027723  0.330605  1
  H  H6  1  0.397547  0.523837  0.426398  1
  H  H7  1  0.102453  0.023837  0.073602  1
  H  H8  1  0.281686  0.739084  0.289394  1
  H  H9  1  0.774948  0.760158  0.791820  1
  H  H10  1  0.725052  0.260158  0.708180  1
  H  H11  1  0.218314  0.239084  0.210606  1
  H  H12  1  0.628205  0.634568  0.031362  1
  H  H13  1  0.124712  0.868970  0.534134  1
  H  H14  1  0.375288  0.368970  0.965866  1
  H  H15  1  0.871795  0.134568  0.468638  1
  H  H16  1  0.039069  0.686572  0.582744  1
  H  H17  1  0.547609  0.810701  0.095271  1
  H  H18  1  0.952391  0.310701  0.404729  1
  H  H19  1  0.460931  0.186572  0.917256  1
  I  I20  1  0.188885  0.618928  0.041669  1
  I  I21  1  0.680260  0.881350  0.559196  1
  I  I22  1  0.819740  0.381350  0.940804  1
  I  I23  1  0.311115  0.118928  0.458331  1
  O  O24  1  0.187005  0.544897  0.776654  1
  O  O25  1  0.677341  0.956357  0.267441  1
  O  O26  1  0.822659  0.456357  0.232559  1
  O  O27  1  0.312995  0.044897  0.723346  1
  O  O28  1  0.885918  0.583415  0.100590  1
  O  O29  1  0.365914  0.919497  0.560539  1
  O  O30  1  0.134086  0.419497  0.939461  1
  O  O31  1  0.614082  0.083415  0.399410  1
  O  O32  1  0.452067  0.570195  0.363642  1
  O  O33  1  0.885808  0.935453  0.871427  1
  O  O34  1  0.614192  0.435453  0.628573  1
  O  O35  1  0.047933  0.070195  0.136358  1
  O  O36  1  0.172111  0.696092  0.302292  1
  O  O37  1  0.657680  0.800482  0.805366  1
  O  O38  1  0.842320  0.300482  0.694634  1
  O  O39  1  0.327889  0.196092  0.197708  1
  O  O40  1  0.472009  0.668644  0.989590  1
  O  O41  1  0.969141  0.833748  0.498873  1
  O  O42  1  0.530859  0.333748  0.001127  1
  O  O43  1  0.027991  0.168644  0.510410  1
  O  O44  1  0.954429  0.678318  0.728822  1
  O  O45  1  0.457625  0.819087  0.235609  1
  O  O46  1  0.042375  0.319087  0.264391  1
  O  O47  1  0.545571  0.178317  0.771178  1
