# generated using pymatgen
data_Na20Zr11Si10(PO9)8
_symmetry_space_group_name_H-M   'P 1'
_cell_length_a   9.18860816
_cell_length_b   9.17132644
_cell_length_c   28.12722993
_cell_angle_alpha   60.86960308
_cell_angle_beta   60.79928703
_cell_angle_gamma   60.14963901
_symmetry_Int_Tables_number   1
_chemical_formula_structural   Na20Zr11Si10(PO9)8
_chemical_formula_sum   'Na20 Zr11 Si10 P8 O72'
_cell_volume   1698.86256947
_cell_formula_units_Z   1
loop_
 _symmetry_equiv_pos_site_id
 _symmetry_equiv_pos_as_xyz
  1  'x, y, z'
loop_
 _atom_site_type_symbol
 _atom_site_label
 _atom_site_symmetry_multiplicity
 _atom_site_fract_x
 _atom_site_fract_y
 _atom_site_fract_z
 _atom_site_occupancy
  Na  Na0  1  0.208264  0.059933  0.108554  1
  Na  Na1  1  0.141586  0.329837  0.221158  1
  Na  Na2  1  0.015743  0.485225  0.317522  1
  Na  Na3  1  0.591983  0.394517  0.095503  1
  Na  Na4  1  0.243962  0.097081  0.431940  1
  Na  Na5  1  0.323818  0.625495  0.231477  1
  Na  Na6  1  0.514837  0.013058  0.167658  1
  Na  Na7  1  0.923175  0.753220  0.059014  1
  Na  Na8  1  0.600757  0.400936  0.417760  1
  Na  Na9  1  0.246148  0.102001  0.762370  1
  Na  Na10  1  0.840288  0.840722  0.231286  1
  Na  Na11  1  0.385298  0.609259  0.584898  1
  Na  Na12  1  0.051340  0.285302  0.959675  1
  Na  Na13  1  0.526272  0.015084  0.506318  1
  Na  Na14  1  0.943308  0.742269  0.376820  1
  Na  Na15  1  0.600069  0.389554  0.750346  1
  Na  Na16  1  0.342356  0.575447  0.938875  1
  Na  Na17  1  0.496918  0.006485  0.839452  1
  Na  Na18  1  0.003014  0.516345  0.666325  1
  Na  Na19  1  0.763563  0.889728  0.913644  1
  Zr  Zr20  1  0.644862  0.160059  0.013301  1
  Zr  Zr21  1  0.142344  0.639370  0.524557  1
  Zr  Zr22  1  0.351507  0.853190  0.311434  1
  Zr  Zr23  1  0.641339  0.153190  0.355737  1
  Zr  Zr24  1  0.847577  0.344212  0.150708  1
  Zr  Zr25  1  0.155814  0.645956  0.848847  1
  Zr  Zr26  1  0.342425  0.858016  0.644623  1
  Zr  Zr27  1  0.654130  0.144876  0.683899  1
  Zr  Zr28  1  0.850327  0.343474  0.484823  1
  Zr  Zr29  1  0.335830  0.852021  0.986239  1
  Zr  Zr30  1  0.855506  0.355057  0.812616  1
  Si  Si31  1  0.256865  0.436870  0.084411  1
  Si  Si32  1  0.037280  0.971973  0.257506  1
  Si  Si33  1  0.473324  0.224210  0.252280  1
  Si  Si34  1  0.244774  0.459435  0.419013  1
  Si  Si35  1  0.932896  0.052897  0.085647  1
  Si  Si36  1  0.046720  0.953567  0.583183  1
  Si  Si37  1  0.461070  0.249233  0.581014  1
  Si  Si38  1  0.251711  0.463148  0.742807  1
  Si  Si39  1  0.058365  0.961905  0.912328  1
  Si  Si40  1  0.476502  0.251028  0.905532  1
  P  P41  1  0.544492  0.757660  0.084351  1
  P  P42  1  0.722496  0.528918  0.260313  1
  P  P43  1  0.536468  0.745137  0.421793  1
  P  P44  1  0.961796  0.040059  0.419139  1
  P  P45  1  0.744419  0.536512  0.588500  1
  P  P46  1  0.540836  0.750016  0.748373  1
  P  P47  1  0.953979  0.044219  0.750659  1
  P  P48  1  0.747355  0.550908  0.912882  1
  O  O49  1  0.108896  0.011924  0.025891  1
  O  O50  1  0.997334  0.111252  0.196645  1
  O  O51  1  0.049833  0.454410  0.103255  1
  O  O52  1  0.279178  0.621730  0.026248  1
  O  O53  1  0.118909  0.003185  0.365016  1
  O  O54  1  0.389782  0.257669  0.063060  1
  O  O55  1  0.318068  0.411294  0.132540  1
  O  O56  1  0.030738  0.777693  0.277148  1
  O  O57  1  0.009871  0.114917  0.524371  1
  O  O58  1  0.277595  0.366157  0.262902  1
  O  O59  1  0.483269  0.032356  0.257596  1
  O  O60  1  0.062437  0.437708  0.429516  1
  O  O61  1  0.483337  0.766199  0.039319  1
  O  O62  1  0.747977  0.117403  0.072290  1
  O  O63  1  0.394789  0.784697  0.139086  1
  O  O64  1  0.619682  0.284869  0.189575  1
  O  O65  1  0.231968  0.964081  0.250126  1
  O  O66  1  0.542184  0.182812  0.303592  1
  O  O67  1  0.271152  0.629676  0.360523  1
  O  O68  1  0.619875  0.911929  0.053877  1
  O  O69  1  0.112549  0.987954  0.699374  1
  O  O70  1  0.702412  0.583980  0.093770  1
  O  O71  1  0.406061  0.266345  0.418705  1
  O  O72  1  0.935726  0.230446  0.087106  1
  O  O73  1  0.231345  0.506182  0.470814  1
  O  O74  1  0.749273  0.459485  0.215576  1
  O  O75  1  0.068665  0.764407  0.583759  1
  O  O76  1  0.569099  0.712982  0.254271  1
  O  O77  1  0.017907  0.132679  0.854380  1
  O  O78  1  0.278471  0.424622  0.580576  1
  O  O79  1  0.429287  0.072469  0.593716  1
  O  O80  1  0.654257  0.404980  0.323076  1
  O  O81  1  0.075273  0.431935  0.752941  1
  O  O82  1  0.489726  0.762669  0.373150  1
  O  O83  1  0.781117  0.059609  0.421249  1
  O  O84  1  0.381279  0.718591  0.479740  1
  O  O85  1  0.618521  0.287728  0.518897  1
  O  O86  1  0.236797  0.929032  0.583420  1
  O  O87  1  0.518138  0.227683  0.632219  1
  O  O88  1  0.887891  0.541721  0.255056  1
  O  O89  1  0.297087  0.616567  0.681203  1
  O  O90  1  0.568071  0.910693  0.411835  1
  O  O91  1  0.712414  0.583676  0.424835  1
  O  O92  1  0.950452  0.881706  0.139736  1
  O  O93  1  0.416747  0.268776  0.746432  1
  O  O94  1  0.941471  0.220280  0.419672  1
  O  O95  1  0.227347  0.528744  0.792152  1
  O  O96  1  0.764664  0.477782  0.541524  1
  O  O97  1  0.075415  0.783297  0.905908  1
  O  O98  1  0.585785  0.713996  0.587567  1
  O  O99  1  0.284957  0.414355  0.902170  1
  O  O100  1  0.893843  0.049107  0.311535  1
  O  O101  1  0.453898  0.061083  0.925714  1
  O  O102  1  0.706694  0.390378  0.647774  1
  O  O103  1  0.490866  0.771819  0.699856  1
  O  O104  1  0.773176  0.077957  0.748880  1
  O  O105  1  0.383809  0.724168  0.805684  1
  O  O106  1  0.638261  0.274188  0.843030  1
  O  O107  1  0.245764  0.925862  0.916880  1
  O  O108  1  0.536036  0.262205  0.948955  1
  O  O109  1  0.913457  0.563381  0.576509  1
  O  O110  1  0.562207  0.920220  0.739548  1
  O  O111  1  0.712318  0.586003  0.751918  1
  O  O112  1  0.007593  0.886451  0.472965  1
  O  O113  1  0.952674  0.219874  0.747889  1
  O  O114  1  0.760456  0.511757  0.862581  1
  O  O115  1  0.591642  0.723864  0.919759  1
  O  O116  1  0.883512  0.006563  0.639166  1
  O  O117  1  0.729585  0.392644  0.968607  1
  O  O118  1  0.921796  0.574922  0.899133  1
  O  O119  1  0.983143  0.897570  0.807373  1
  O  O120  1  0.893386  0.005341  0.968425  1
