# generated using pymatgen
data_LiAl(H2N)4
_symmetry_space_group_name_H-M   'P 1'
_cell_length_a   10.15646199
_cell_length_b   7.83626044
_cell_length_c   8.26515190
_cell_angle_alpha   90.00000000
_cell_angle_beta   93.62302071
_cell_angle_gamma   90.00000000
_symmetry_Int_Tables_number   1
_chemical_formula_structural   LiAl(H2N)4
_chemical_formula_sum   'Li4 Al4 H32 N16'
_cell_volume   656.49784872
_cell_formula_units_Z   4
loop_
 _symmetry_equiv_pos_site_id
 _symmetry_equiv_pos_as_xyz
  1  'x, y, z'
loop_
 _atom_site_type_symbol
 _atom_site_label
 _atom_site_symmetry_multiplicity
 _atom_site_fract_x
 _atom_site_fract_y
 _atom_site_fract_z
 _atom_site_occupancy
  Li  Li0  1  0.378264  0.906841  0.245264  1
  Li  Li1  1  0.878264  0.593159  0.745264  1
  Li  Li2  1  0.621736  0.093159  0.754736  1
  Li  Li3  1  0.121736  0.406841  0.254736  1
  Al  Al4  1  0.635350  0.729400  0.472824  1
  Al  Al5  1  0.135350  0.770600  0.972824  1
  Al  Al6  1  0.364650  0.270600  0.527176  1
  Al  Al7  1  0.864650  0.229400  0.027176  1
  H  H8  1  0.929558  0.214348  0.313335  1
  H  H9  1  0.429558  0.285652  0.813335  1
  H  H10  1  0.070442  0.785651  0.686665  1
  H  H11  1  0.570442  0.714349  0.186665  1
  H  H12  1  0.031982  0.104206  0.215761  1
  H  H13  1  0.531982  0.395794  0.715761  1
  H  H14  1  0.968018  0.895794  0.784239  1
  H  H15  1  0.468018  0.604206  0.284239  1
  H  H16  1  0.055143  0.871380  0.439879  1
  H  H17  1  0.555143  0.628620  0.939879  1
  H  H18  1  0.944857  0.128620  0.560121  1
  H  H19  1  0.444857  0.371380  0.060121  1
  H  H20  1  0.708350  0.142991  0.317814  1
  H  H21  1  0.208350  0.357009  0.817814  1
  H  H22  1  0.291650  0.857009  0.682186  1
  H  H23  1  0.791650  0.642991  0.182186  1
  H  H24  1  0.803794  0.734133  0.209452  1
  H  H25  1  0.303794  0.765867  0.709452  1
  H  H26  1  0.196206  0.265867  0.790548  1
  H  H27  1  0.696206  0.234133  0.290548  1
  H  H28  1  0.097851  0.941508  0.411727  1
  H  H29  1  0.597851  0.558492  0.911727  1
  H  H30  1  0.902149  0.058492  0.588273  1
  H  H31  1  0.402149  0.441508  0.088273  1
  H  H32  1  0.231599  0.055336  0.034128  1
  H  H33  1  0.731599  0.444664  0.534128  1
  H  H34  1  0.768401  0.944664  0.965872  1
  H  H35  1  0.268401  0.555336  0.465872  1
  H  H36  1  0.333484  0.937870  0.940413  1
  H  H37  1  0.833484  0.562130  0.440413  1
  H  H38  1  0.666516  0.062130  0.059587  1
  H  H39  1  0.166516  0.437870  0.559587  1
  N  N40  1  0.980754  0.217056  0.210269  1
  N  N41  1  0.480754  0.282944  0.710269  1
  N  N42  1  0.019246  0.782944  0.789731  1
  N  N43  1  0.519246  0.717056  0.289731  1
  N  N44  1  0.585754  0.865261  0.647877  1
  N  N45  1  0.085754  0.634739  0.147877  1
  N  N46  1  0.414246  0.134739  0.352123  1
  N  N47  1  0.914246  0.365261  0.852123  1
  N  N48  1  0.168332  0.553416  0.067039  1
  N  N49  1  0.668332  0.946584  0.567039  1
  N  N50  1  0.831668  0.446584  0.932961  1
  N  N51  1  0.331668  0.053416  0.432961  1
  N  N52  1  0.264992  0.932657  0.025997  1
  N  N53  1  0.764992  0.567343  0.525997  1
  N  N54  1  0.735008  0.067343  0.974003  1
  N  N55  1  0.235008  0.432657  0.474003  1
