# generated using pymatgen
data_Si2H25C10N
_symmetry_space_group_name_H-M   'P 1'
_cell_length_a   9.08485180
_cell_length_b   13.12877799
_cell_length_c   13.44101080
_cell_angle_alpha   90.00000000
_cell_angle_beta   109.75375393
_cell_angle_gamma   90.00000000
_symmetry_Int_Tables_number   1
_chemical_formula_structural   Si2H25C10N
_chemical_formula_sum   'Si8 H100 C40 N4'
_cell_volume   1508.81056221
_cell_formula_units_Z   4
loop_
 _symmetry_equiv_pos_site_id
 _symmetry_equiv_pos_as_xyz
  1  'x, y, z'
loop_
 _atom_site_type_symbol
 _atom_site_label
 _atom_site_symmetry_multiplicity
 _atom_site_fract_x
 _atom_site_fract_y
 _atom_site_fract_z
 _atom_site_occupancy
  Si  Si0  1  0.053925  0.918307  0.218196  1
  Si  Si1  1  0.411945  0.429143  0.507529  1
  Si  Si2  1  0.911945  0.070857  0.007529  1
  Si  Si3  1  0.588055  0.570857  0.492471  1
  Si  Si4  1  0.088055  0.929143  0.992471  1
  Si  Si5  1  0.553925  0.581693  0.718196  1
  Si  Si6  1  0.946075  0.081693  0.781804  1
  Si  Si7  1  0.446075  0.418307  0.281804  1
  H  H8  1  0.249852  0.156292  0.934560  1
  H  H9  1  0.800460  0.609673  0.940295  1
  H  H10  1  0.199540  0.390327  0.059705  1
  H  H11  1  0.147403  0.509978  0.440939  1
  H  H12  1  0.852597  0.490022  0.559061  1
  H  H13  1  0.578952  0.759103  0.510650  1
  H  H14  1  0.712735  0.918304  0.771666  1
  H  H15  1  0.988344  0.811480  0.404010  1
  H  H16  1  0.750148  0.843708  0.065440  1
  H  H17  1  0.898213  0.787292  0.921917  1
  H  H18  1  0.820105  0.738477  0.337453  1
  H  H19  1  0.316501  0.244664  0.858702  1
  H  H20  1  0.563679  0.725996  0.380133  1
  H  H21  1  0.352597  0.009978  0.059061  1
  H  H22  1  0.212939  0.517301  0.690063  1
  H  H23  1  0.749852  0.343708  0.434560  1
  H  H24  1  0.709097  0.990206  0.500055  1
  H  H25  1  0.320105  0.761523  0.837453  1
  H  H26  1  0.346419  0.912888  0.965325  1
  H  H27  1  0.712939  0.982699  0.190063  1
  H  H28  1  0.436321  0.274004  0.619867  1
  H  H29  1  0.688439  0.472440  0.171047  1
  H  H30  1  0.287265  0.081696  0.228334  1
  H  H31  1  0.151842  0.155425  0.401322  1
  H  H32  1  0.153581  0.412888  0.534675  1
  H  H33  1  0.679895  0.238477  0.162547  1
  H  H34  1  0.124034  0.930000  0.459051  1
  H  H35  1  0.890736  0.405360  0.865839  1
  H  H36  1  0.136227  0.266540  0.880120  1
  H  H37  1  0.816501  0.255336  0.358702  1
  H  H38  1  0.290903  0.009794  0.499945  1
  H  H39  1  0.664629  0.669503  0.728012  1
  H  H40  1  0.548103  0.349770  0.763490  1
  H  H41  1  0.699540  0.109673  0.559705  1
  H  H42  1  0.375966  0.430000  0.040949  1
  H  H43  1  0.361192  0.879385  0.095732  1
  H  H44  1  0.183499  0.744664  0.641298  1
  H  H45  1  0.607094  0.023825  0.697774  1
  H  H46  1  0.936321  0.225996  0.119867  1
  H  H47  1  0.609264  0.905360  0.634161  1
  H  H48  1  0.951897  0.849770  0.736510  1
  H  H49  1  0.811561  0.972440  0.328953  1
  H  H50  1  0.164629  0.830497  0.228012  1
  H  H51  1  0.636227  0.233460  0.380120  1
  H  H52  1  0.848158  0.844575  0.598678  1
  H  H53  1  0.790903  0.490206  0.999945  1
  H  H54  1  0.335371  0.330497  0.271988  1
  H  H55  1  0.250148  0.656292  0.565440  1
  H  H56  1  0.078952  0.740897  0.010650  1
  H  H57  1  0.655820  0.888114  0.264106  1
  H  H58  1  0.472768  0.412785  0.853554  1
  H  H59  1  0.300460  0.890327  0.440295  1
  H  H60  1  0.846419  0.587112  0.465325  1
  H  H61  1  0.787265  0.418304  0.728334  1
  H  H62  1  0.344180  0.111886  0.735894  1
  H  H63  1  0.348158  0.655425  0.098678  1
  H  H64  1  0.451897  0.650230  0.236510  1
  H  H65  1  0.997951  0.714507  0.314091  1
  H  H66  1  0.624034  0.570000  0.959051  1
  H  H67  1  0.653581  0.087112  0.034675  1
  H  H68  1  0.212735  0.581696  0.271666  1
  H  H69  1  0.497951  0.785493  0.814091  1
  H  H70  1  0.601787  0.287292  0.578083  1
  H  H71  1  0.063679  0.774004  0.880133  1
  H  H72  1  0.002049  0.285493  0.685909  1
  H  H73  1  0.311561  0.527560  0.828953  1
  H  H74  1  0.972768  0.087215  0.353554  1
  H  H75  1  0.287061  0.017301  0.809937  1
  H  H76  1  0.835371  0.169503  0.771988  1
  H  H77  1  0.511656  0.311480  0.095990  1
  H  H78  1  0.921048  0.259103  0.989350  1
  H  H79  1  0.421048  0.240897  0.489350  1
  H  H80  1  0.863773  0.733460  0.119880  1
  H  H81  1  0.392906  0.976175  0.302226  1
  H  H82  1  0.647403  0.990022  0.940939  1
  H  H83  1  0.844180  0.388114  0.235894  1
  H  H84  1  0.027232  0.912785  0.646446  1
  H  H85  1  0.048103  0.150230  0.263490  1
  H  H86  1  0.488344  0.688520  0.904010  1
  H  H87  1  0.390736  0.094640  0.365839  1
  H  H88  1  0.138808  0.379385  0.404268  1
  H  H89  1  0.892906  0.523825  0.802226  1
  H  H90  1  0.011656  0.188520  0.595990  1
  H  H91  1  0.209097  0.509794  0.000055  1
  H  H92  1  0.683499  0.755336  0.141298  1
  H  H93  1  0.398213  0.712708  0.421917  1
  H  H94  1  0.109264  0.594640  0.134161  1
  H  H95  1  0.101787  0.212708  0.078083  1
  H  H96  1  0.155820  0.611886  0.764106  1
  H  H97  1  0.107094  0.476175  0.197774  1
  H  H98  1  0.527232  0.587215  0.146446  1
  H  H99  1  0.787061  0.482699  0.309937  1
  H  H100  1  0.861192  0.620615  0.595732  1
  H  H101  1  0.651842  0.344575  0.901322  1
  H  H102  1  0.188439  0.027560  0.671047  1
  H  H103  1  0.502049  0.214507  0.185909  1
  H  H104  1  0.179895  0.261523  0.662547  1
  H  H105  1  0.875966  0.070000  0.540949  1
  H  H106  1  0.638808  0.120615  0.904268  1
  H  H107  1  0.363773  0.766540  0.619880  1
  C  C108  1  0.419831  0.605811  0.162955  1
  C  C109  1  0.775632  0.043811  0.562177  1
  C  C110  1  0.319038  0.041953  0.304756  1
  C  C111  1  0.923840  0.775261  0.328117  1
  C  C112  1  0.180962  0.541953  0.195244  1
  C  C113  1  0.423840  0.724739  0.828117  1
  C  C114  1  0.806904  0.566050  0.531497  1
  C  C115  1  0.306904  0.933950  0.031497  1
  C  C116  1  0.672216  0.490173  0.829674  1
  C  C117  1  0.974446  0.204156  0.053319  1
  C  C118  1  0.275632  0.456189  0.062177  1
  C  C119  1  0.372845  0.647518  0.736255  1
  C  C120  1  0.919831  0.894189  0.662955  1
  C  C121  1  0.627155  0.352482  0.263744  1
  C  C122  1  0.872845  0.852482  0.236256  1
  C  C123  1  0.680962  0.958047  0.695244  1
  C  C124  1  0.819038  0.458047  0.804756  1
  C  C125  1  0.080169  0.105811  0.337045  1
  C  C126  1  0.327784  0.509827  0.170326  1
  C  C127  1  0.757477  0.928560  0.255958  1
  C  C128  1  0.257477  0.571440  0.755958  1
  C  C129  1  0.224368  0.956189  0.437823  1
  C  C130  1  0.742523  0.428560  0.244042  1
  C  C131  1  0.211838  0.207153  0.865428  1
  C  C132  1  0.076160  0.224739  0.671883  1
  C  C133  1  0.193096  0.433950  0.468503  1
  C  C134  1  0.827784  0.990173  0.670326  1
  C  C135  1  0.127155  0.147518  0.763745  1
  C  C136  1  0.474446  0.295844  0.553319  1
  C  C137  1  0.025554  0.795844  0.946681  1
  C  C138  1  0.525554  0.704156  0.446681  1
  C  C139  1  0.724368  0.543811  0.937823  1
  C  C140  1  0.288162  0.707153  0.634572  1
  C  C141  1  0.580169  0.394189  0.837045  1
  C  C142  1  0.693096  0.066050  0.968503  1
  C  C143  1  0.242523  0.071440  0.744042  1
  C  C144  1  0.576160  0.275261  0.171883  1
  C  C145  1  0.172216  0.009827  0.329674  1
  C  C146  1  0.788162  0.792847  0.134572  1
  C  C147  1  0.711838  0.292847  0.365428  1
  N  N148  1  0.984695  0.027999  0.907765  1
  N  N149  1  0.515305  0.527999  0.592235  1
  N  N150  1  0.484696  0.472001  0.407765  1
  N  N151  1  0.015305  0.972001  0.092235  1
