# generated using pymatgen
data_VH6(OF)3
_symmetry_space_group_name_H-M   'P 1'
_cell_length_a   5.77876655
_cell_length_b   6.10623899
_cell_length_c   6.57371608
_cell_angle_alpha   111.02450335
_cell_angle_beta   108.12082008
_cell_angle_gamma   102.43637240
_symmetry_Int_Tables_number   1
_chemical_formula_structural   VH6(OF)3
_chemical_formula_sum   'V1 H6 O3 F3'
_cell_volume   191.29800806
_cell_formula_units_Z   1
loop_
 _symmetry_equiv_pos_site_id
 _symmetry_equiv_pos_as_xyz
  1  'x, y, z'
loop_
 _atom_site_type_symbol
 _atom_site_label
 _atom_site_symmetry_multiplicity
 _atom_site_fract_x
 _atom_site_fract_y
 _atom_site_fract_z
 _atom_site_occupancy
  V  V0  1  0.785275  0.740825  0.914878  1
  H  H1  1  0.865147  0.362525  0.824631  1
  H  H2  1  0.277195  0.912897  0.771443  1
  H  H3  1  0.828965  0.822877  0.318051  1
  H  H4  1  0.883817  0.719729  0.305482  1
  H  H5  1  0.847967  0.359906  0.933658  1
  H  H6  1  0.251614  0.884515  0.644547  1
  O  O7  1  0.698711  0.790013  0.651909  1
  O  O8  1  0.746325  0.561938  0.601986  1
  O  O9  1  0.461792  0.573738  0.892090  1
  F  F10  1  0.460913  0.399006  0.990754  1
  F  F11  1  0.125868  0.835021  0.086896  1
  F  F12  1  0.780611  0.051209  0.077874  1
