# generated using pymatgen
data_Cu9S5
_symmetry_space_group_name_H-M   'P 1'
_cell_length_a   7.76895135
_cell_length_b   21.65282533
_cell_length_c   10.29614589
_cell_angle_alpha   18.09458132
_cell_angle_beta   55.49811750
_cell_angle_gamma   51.10135786
_symmetry_Int_Tables_number   1
_chemical_formula_structural   Cu9S5
_chemical_formula_sum   'Cu18 S10'
_cell_volume   415.31994293
_cell_formula_units_Z   2
loop_
 _symmetry_equiv_pos_site_id
 _symmetry_equiv_pos_as_xyz
  1  'x, y, z'
loop_
 _atom_site_type_symbol
 _atom_site_label
 _atom_site_symmetry_multiplicity
 _atom_site_fract_x
 _atom_site_fract_y
 _atom_site_fract_z
 _atom_site_occupancy
  Cu  Cu0  1  0.054498  0.146363  0.257184  1
  Cu  Cu1  1  0.351935  0.053830  0.742451  1
  Cu  Cu2  1  0.548065  0.146170  0.257549  1
  Cu  Cu3  1  0.252854  0.251489  0.743524  1
  Cu  Cu4  1  0.845502  0.053637  0.742816  1
  Cu  Cu5  1  0.352420  0.545747  0.260927  1
  Cu  Cu6  1  0.145557  0.447699  0.760995  1
  Cu  Cu7  1  0.944041  0.356292  0.242758  1
  Cu  Cu8  1  0.747734  0.250859  0.749488  1
  Cu  Cu9  1  0.253083  0.750478  0.244851  1
  Cu  Cu10  1  0.054260  0.646001  0.757197  1
  Cu  Cu11  1  0.845740  0.553999  0.242803  1
  Cu  Cu12  1  0.152266  0.949141  0.250512  1
  Cu  Cu13  1  0.646917  0.449522  0.755149  1
  Cu  Cu14  1  0.754443  0.752301  0.239005  1
  Cu  Cu15  1  0.547580  0.654253  0.739073  1
  Cu  Cu16  1  0.647146  0.948511  0.256476  1
  Cu  Cu17  1  0.955959  0.843708  0.757242  1
  S  S18  1  0.000621  0.998743  0.001884  1
  S  S19  1  0.499226  0.002567  0.995320  1
  S  S20  1  0.400774  0.197433  0.004680  1
  S  S21  1  0.302613  0.399456  0.001497  1
  S  S22  1  0.899379  0.201257  0.998116  1
  S  S23  1  0.201816  0.597646  0.003020  1
  S  S24  1  0.797120  0.398651  0.003678  1
  S  S25  1  0.102880  0.801349  0.996322  1
  S  S26  1  0.698184  0.602354  0.996980  1
  S  S27  1  0.597387  0.800544  0.998503  1
