# generated using pymatgen
data_Zn(InS2)2
_symmetry_space_group_name_H-M   'P 1'
_cell_length_a   25.31258379
_cell_length_b   25.31258373
_cell_length_c   25.31258448
_cell_angle_alpha   8.90736274
_cell_angle_beta   8.90736354
_cell_angle_gamma   8.90736345
_symmetry_Int_Tables_number   1
_chemical_formula_structural   Zn(InS2)2
_chemical_formula_sum   'Zn2 In4 S8'
_cell_volume   337.41574537
_cell_formula_units_Z   2
loop_
 _symmetry_equiv_pos_site_id
 _symmetry_equiv_pos_as_xyz
  1  'x, y, z'
loop_
 _atom_site_type_symbol
 _atom_site_label
 _atom_site_symmetry_multiplicity
 _atom_site_fract_x
 _atom_site_fract_y
 _atom_site_fract_z
 _atom_site_occupancy
  Zn  Zn0  1  0.507476  0.507476  0.507476  1
  Zn  Zn1  1  0.675220  0.675220  0.675220  1
  In  In2  1  0.112457  0.112457  0.112457  1
  In  In3  1  0.946155  0.946155  0.946155  1
  In  In4  1  0.393133  0.393133  0.393133  1
  In  In5  1  0.226417  0.226417  0.226417  1
  S  S6  1  0.627118  0.627118  0.627118  1
  S  S7  1  0.913590  0.913590  0.913590  1
  S  S8  1  0.167422  0.167422  0.167422  1
  S  S9  1  0.460006  0.460006  0.460006  1
  S  S10  1  0.709877  0.709877  0.709877  1
  S  S11  1  0.543150  0.543150  0.543150  1
  S  S12  1  0.001755  0.001755  0.001755  1
  S  S13  1  0.080058  0.080058  0.080058  1
