# generated using pymatgen
data_Na2ZnSi3O8
_symmetry_space_group_name_H-M   'P 1'
_cell_length_a   6.48052783
_cell_length_b   6.76923561
_cell_length_c   8.74969689
_cell_angle_alpha   90.00000000
_cell_angle_beta   90.00000000
_cell_angle_gamma   103.57538209
_symmetry_Int_Tables_number   1
_chemical_formula_structural   Na2ZnSi3O8
_chemical_formula_sum   'Na4 Zn2 Si6 O16'
_cell_volume   373.11005980
_cell_formula_units_Z   2
loop_
 _symmetry_equiv_pos_site_id
 _symmetry_equiv_pos_as_xyz
  1  'x, y, z'
loop_
 _atom_site_type_symbol
 _atom_site_label
 _atom_site_symmetry_multiplicity
 _atom_site_fract_x
 _atom_site_fract_y
 _atom_site_fract_z
 _atom_site_occupancy
  O  O0  1  0.420534  0.109053  0.171156  1
  O  O1  1  0.579466  0.890947  0.671156  1
  O  O2  1  0.217457  0.326337  0.337571  1
  O  O3  1  0.782543  0.673663  0.837571  1
  O  O4  1  0.975597  0.057368  0.769002  1
  O  O5  1  0.024403  0.942632  0.269002  1
  O  O6  1  0.059082  0.355368  0.985417  1
  O  O7  1  0.940918  0.644632  0.485417  1
  O  O8  1  0.208113  0.425547  0.690797  1
  O  O9  1  0.791887  0.574453  0.190797  1
  O  O10  1  0.750577  0.208132  0.480134  1
  O  O11  1  0.249423  0.791868  0.980134  1
  O  O12  1  0.638330  0.813863  0.377500  1
  O  O13  1  0.361670  0.186137  0.877500  1
  O  O14  1  0.346943  0.004837  0.464583  1
  O  O15  1  0.653057  0.995163  0.964583  1
  Na  Na16  1  0.591802  0.470853  0.633464  1
  Na  Na17  1  0.408198  0.529147  0.133464  1
  Na  Na18  1  0.831147  0.220613  0.190590  1
  Na  Na19  1  0.168853  0.779387  0.690590  1
  Si  Si20  1  0.249766  0.099986  0.314141  1
  Si  Si21  1  0.750234  0.900014  0.814141  1
  Si  Si22  1  0.405728  0.011430  0.996528  1
  Si  Si23  1  0.594272  0.988570  0.496528  1
  Si  Si24  1  0.144384  0.267680  0.832296  1
  Si  Si25  1  0.855616  0.732320  0.332296  1
  Zn  Zn26  1  0.036886  0.388997  0.502111  1
  Zn  Zn27  1  0.963114  0.611003  0.002111  1
