# generated using pymatgen
data_K5YNi2(NO2)12
_symmetry_space_group_name_H-M   'P 1'
_cell_length_a   10.61392762
_cell_length_b   10.61392762
_cell_length_c   10.61392762
_cell_angle_alpha   90.00000000
_cell_angle_beta   90.00000000
_cell_angle_gamma   90.00000000
_symmetry_Int_Tables_number   1
_chemical_formula_structural   K5YNi2(NO2)12
_chemical_formula_sum   'K10 Y2 Ni4 N24 O48'
_cell_volume   1195.71689337
_cell_formula_units_Z   2
loop_
 _symmetry_equiv_pos_site_id
 _symmetry_equiv_pos_as_xyz
  1  'x, y, z'
loop_
 _atom_site_type_symbol
 _atom_site_label
 _atom_site_symmetry_multiplicity
 _atom_site_fract_x
 _atom_site_fract_y
 _atom_site_fract_z
 _atom_site_occupancy
  K  K0  1  0.500000  0.500000  0.000000  1
  K  K1  1  0.500000  0.000000  0.500000  1
  K  K2  1  0.250000  0.750000  0.750000  1
  K  K3  1  0.750000  0.250000  0.250000  1
  K  K4  1  0.750000  0.250000  0.750000  1
  K  K5  1  0.000000  0.000000  0.000000  1
  K  K6  1  0.750000  0.750000  0.250000  1
  K  K7  1  0.250000  0.750000  0.250000  1
  K  K8  1  0.000000  0.500000  0.500000  1
  K  K9  1  0.250000  0.250000  0.750000  1
  Y  Y10  1  0.250000  0.250000  0.250000  1
  Y  Y11  1  0.750000  0.750000  0.750000  1
  Ni  Ni12  1  0.000000  0.000000  0.500000  1
  Ni  Ni13  1  0.500000  0.000000  0.000000  1
  Ni  Ni14  1  0.000000  0.500000  0.000000  1
  Ni  Ni15  1  0.500000  0.500000  0.500000  1
  N  N16  1  0.506278  0.506828  0.694782  1
  N  N17  1  0.805218  0.993722  0.506828  1
  N  N18  1  0.694782  0.993722  0.993172  1
  N  N19  1  0.506828  0.805218  0.993722  1
  N  N20  1  0.993722  0.993172  0.694782  1
  N  N21  1  0.006828  0.305218  0.006278  1
  N  N22  1  0.305218  0.006278  0.006828  1
  N  N23  1  0.805218  0.506278  0.993172  1
  N  N24  1  0.506828  0.694782  0.506278  1
  N  N25  1  0.006278  0.493172  0.194782  1
  N  N26  1  0.993172  0.805218  0.506278  1
  N  N27  1  0.493722  0.493172  0.305218  1
  N  N28  1  0.506278  0.993172  0.805218  1
  N  N29  1  0.006828  0.194782  0.493722  1
  N  N30  1  0.694782  0.506278  0.506828  1
  N  N31  1  0.493172  0.194782  0.006278  1
  N  N32  1  0.493172  0.305218  0.493722  1
  N  N33  1  0.194782  0.006278  0.493172  1
  N  N34  1  0.993172  0.694782  0.993722  1
  N  N35  1  0.993722  0.506828  0.805218  1
  N  N36  1  0.493722  0.006828  0.194782  1
  N  N37  1  0.006278  0.006828  0.305218  1
  N  N38  1  0.194782  0.493722  0.006828  1
  N  N39  1  0.305218  0.493722  0.493172  1
  O  O40  1  0.505439  0.256903  0.906549  1
  O  O41  1  0.005439  0.756903  0.093451  1
  O  O42  1  0.406549  0.005439  0.743097  1
  O  O43  1  0.243097  0.593451  0.505439  1
  O  O44  1  0.906549  0.505439  0.256903  1
  O  O45  1  0.255482  0.107130  0.468202  1
  O  O46  1  0.392870  0.468202  0.244518  1
  O  O47  1  0.968202  0.744518  0.607130  1
  O  O48  1  0.593451  0.994561  0.256903  1
  O  O49  1  0.031798  0.255482  0.392870  1
  O  O50  1  0.093451  0.005439  0.756903  1
  O  O51  1  0.392870  0.031798  0.255482  1
  O  O52  1  0.743097  0.406549  0.005439  1
  O  O53  1  0.892870  0.968202  0.755482  1
  O  O54  1  0.031798  0.244518  0.107130  1
  O  O55  1  0.906549  0.994561  0.243097  1
  O  O56  1  0.892870  0.531798  0.744518  1
  O  O57  1  0.256903  0.906549  0.505439  1
  O  O58  1  0.093451  0.494561  0.743097  1
  O  O59  1  0.107130  0.031798  0.244518  1
  O  O60  1  0.531798  0.744518  0.892870  1
  O  O61  1  0.256903  0.593451  0.994561  1
  O  O62  1  0.255482  0.392870  0.031798  1
  O  O63  1  0.743097  0.093451  0.494561  1
  O  O64  1  0.005439  0.743097  0.406549  1
  O  O65  1  0.244518  0.392870  0.468202  1
  O  O66  1  0.406549  0.494561  0.756903  1
  O  O67  1  0.994561  0.256903  0.593451  1
  O  O68  1  0.593451  0.505439  0.243097  1
  O  O69  1  0.531798  0.755482  0.607130  1
  O  O70  1  0.744518  0.607130  0.968202  1
  O  O71  1  0.607130  0.968202  0.744518  1
  O  O72  1  0.243097  0.906549  0.994561  1
  O  O73  1  0.755482  0.892870  0.968202  1
  O  O74  1  0.756903  0.093451  0.005439  1
  O  O75  1  0.505439  0.243097  0.593451  1
  O  O76  1  0.744518  0.892870  0.531798  1
  O  O77  1  0.756903  0.406549  0.494561  1
  O  O78  1  0.994561  0.243097  0.906549  1
  O  O79  1  0.494561  0.743097  0.093451  1
  O  O80  1  0.107130  0.468202  0.255482  1
  O  O81  1  0.244518  0.107130  0.031798  1
  O  O82  1  0.468202  0.244518  0.392870  1
  O  O83  1  0.607130  0.531798  0.755482  1
  O  O84  1  0.494561  0.756903  0.406549  1
  O  O85  1  0.968202  0.755482  0.892870  1
  O  O86  1  0.755482  0.607130  0.531798  1
  O  O87  1  0.468202  0.255482  0.107130  1
