# generated using pymatgen
data_Na2Ca4ZrNbSi4O17F
_symmetry_space_group_name_H-M   'P 1'
_cell_length_a   7.38096720
_cell_length_b   10.39777241
_cell_length_c   10.97133541
_cell_angle_alpha   90.00000000
_cell_angle_beta   108.93617105
_cell_angle_gamma   90.00000000
_symmetry_Int_Tables_number   1
_chemical_formula_structural   Na2Ca4ZrNbSi4O17F
_chemical_formula_sum   'Na4 Ca8 Zr2 Nb2 Si8 O34 F2'
_cell_volume   796.43333564
_cell_formula_units_Z   2
loop_
 _symmetry_equiv_pos_site_id
 _symmetry_equiv_pos_as_xyz
  1  'x, y, z'
loop_
 _atom_site_type_symbol
 _atom_site_label
 _atom_site_symmetry_multiplicity
 _atom_site_fract_x
 _atom_site_fract_y
 _atom_site_fract_z
 _atom_site_occupancy
  O  O0  1  0.638202  0.376494  0.523177  1
  O  O1  1  0.361797  0.876493  0.476823  1
  O  O2  1  0.421375  0.100285  0.084708  1
  O  O3  1  0.578625  0.600286  0.915292  1
  O  O4  1  0.225487  0.607391  0.214670  1
  O  O5  1  0.774513  0.107390  0.785330  1
  O  O6  1  0.437511  0.379617  0.222202  1
  O  O7  1  0.562488  0.879617  0.777798  1
  O  O8  1  0.043682  0.382907  0.244437  1
  O  O9  1  0.956318  0.882908  0.755563  1
  O  O10  1  0.023323  0.829269  0.289859  1
  O  O11  1  0.976678  0.329269  0.710141  1
  O  O12  1  0.208908  0.125195  0.232427  1
  O  O13  1  0.482151  0.360553  0.713507  1
  O  O14  1  0.909413  0.281534  0.463948  1
  O  O15  1  0.090586  0.781535  0.536052  1
  O  O16  1  0.318039  0.265237  0.474327  1
  O  O17  1  0.681960  0.765236  0.525673  1
  O  O18  1  0.072048  0.034193  0.458805  1
  O  O19  1  0.927951  0.534194  0.541195  1
  O  O20  1  0.650363  0.029731  0.487856  1
  O  O21  1  0.349636  0.529730  0.512144  1
  O  O22  1  0.770973  0.164325  0.221896  1
  O  O23  1  0.229028  0.664324  0.778104  1
  O  O24  1  0.878822  0.763757  0.990623  1
  O  O25  1  0.121179  0.263757  0.009378  1
  O  O26  1  0.386912  0.759302  0.019420  1
  O  O27  1  0.613087  0.259301  0.980580  1
  O  O28  1  0.916923  0.499268  0.993822  1
  O  O29  1  0.083078  0.999268  0.006178  1
  O  O30  1  0.297738  0.502019  0.979723  1
  O  O31  1  0.702261  0.002018  0.020277  1
  O  O32  1  0.791092  0.625194  0.767573  1
  O  O33  1  0.517848  0.860554  0.286493  1
  F  F34  1  0.253376  0.111575  0.758935  1
  F  F35  1  0.746623  0.611574  0.241065  1
  Na  Na36  1  0.687663  0.431816  0.122168  1
  Na  Na37  1  0.312338  0.931816  0.877832  1
  Na  Na38  1  0.447528  0.082824  0.632471  1
  Na  Na39  1  0.552471  0.582824  0.367528  1
  Si  Si40  1  0.802279  0.625742  0.920092  1
  Si  Si41  1  0.197720  0.125743  0.079908  1
  Si  Si42  1  0.365428  0.635498  0.927141  1
  Si  Si43  1  0.634573  0.135498  0.072859  1
  Si  Si44  1  0.436119  0.387758  0.561377  1
  Si  Si45  1  0.563881  0.887759  0.438623  1
  Si  Si46  1  0.875166  0.386552  0.566914  1
  Si  Si47  1  0.124835  0.886551  0.433085  1
  Ca  Ca48  1  0.300469  0.316605  0.844669  1
  Ca  Ca49  1  0.943550  0.088749  0.632688  1
  Ca  Ca50  1  0.201608  0.817690  0.145762  1
  Ca  Ca51  1  0.798391  0.317689  0.854238  1
  Ca  Ca52  1  0.056451  0.588748  0.367312  1
  Ca  Ca53  1  0.699531  0.816605  0.155331  1
  Ca  Ca54  1  0.552498  0.203065  0.347701  1
  Ca  Ca55  1  0.447503  0.703064  0.652299  1
  Zr  Zr56  1  0.053315  0.208854  0.342380  1
  Zr  Zr57  1  0.946684  0.708855  0.657620  1
  Nb  Nb58  1  0.804750  0.946488  0.867124  1
  Nb  Nb59  1  0.195249  0.446488  0.132876  1
