# generated using pymatgen
data_Mn2SnC9ClO9
_symmetry_space_group_name_H-M   'P 1'
_cell_length_a   8.81915061
_cell_length_b   12.45428143
_cell_length_c   14.16965629
_cell_angle_alpha   90.00000000
_cell_angle_beta   98.08107572
_cell_angle_gamma   90.00000000
_symmetry_Int_Tables_number   1
_chemical_formula_structural   Mn2SnC9ClO9
_chemical_formula_sum   'Mn8 Sn4 C36 Cl4 O36'
_cell_volume   1540.88672705
_cell_formula_units_Z   4
loop_
 _symmetry_equiv_pos_site_id
 _symmetry_equiv_pos_as_xyz
  1  'x, y, z'
loop_
 _atom_site_type_symbol
 _atom_site_label
 _atom_site_symmetry_multiplicity
 _atom_site_fract_x
 _atom_site_fract_y
 _atom_site_fract_z
 _atom_site_occupancy
  Mn  Mn0  1  0.257216  0.189642  0.570475  1
  Mn  Mn1  1  0.242784  0.689642  0.929525  1
  Mn  Mn2  1  0.940438  0.014263  0.890875  1
  Mn  Mn3  1  0.742784  0.810358  0.429525  1
  Mn  Mn4  1  0.059562  0.985737  0.109125  1
  Mn  Mn5  1  0.757216  0.310358  0.070475  1
  Mn  Mn6  1  0.559562  0.514263  0.609125  1
  Mn  Mn7  1  0.440438  0.485737  0.390875  1
  Sn  Sn8  1  0.959863  0.168140  0.022366  1
  Sn  Sn9  1  0.040137  0.831860  0.977634  1
  Sn  Sn10  1  0.459863  0.331860  0.522366  1
  Sn  Sn11  1  0.540137  0.668140  0.477634  1
  C  C12  1  0.791184  0.716688  0.334666  1
  C  C13  1  0.379241  0.587903  0.902589  1
  C  C14  1  0.920191  0.917913  0.794529  1
  C  C15  1  0.708816  0.216688  0.165334  1
  C  C16  1  0.620759  0.412097  0.097411  1
  C  C17  1  0.208816  0.283312  0.665334  1
  C  C18  1  0.323975  0.105991  0.474401  1
  C  C19  1  0.613431  0.243666  0.979374  1
  C  C20  1  0.119624  0.871042  0.183693  1
  C  C21  1  0.359374  0.544411  0.627742  1
  C  C22  1  0.418148  0.135538  0.658466  1
  C  C23  1  0.176025  0.605991  0.025599  1
  C  C24  1  0.581852  0.864462  0.341534  1
  C  C25  1  0.140626  0.044411  0.872258  1
  C  C26  1  0.258546  0.017715  0.086255  1
  C  C27  1  0.579809  0.417913  0.705471  1
  C  C28  1  0.079809  0.082087  0.205471  1
  C  C29  1  0.741454  0.982285  0.913745  1
  C  C30  1  0.241454  0.517715  0.413745  1
  C  C31  1  0.386569  0.756334  0.020626  1
  C  C32  1  0.291184  0.783312  0.834666  1
  C  C33  1  0.758546  0.482285  0.586255  1
  C  C34  1  0.081852  0.635538  0.841534  1
  C  C35  1  0.420191  0.582087  0.294529  1
  C  C36  1  0.918148  0.364462  0.158466  1
  C  C37  1  0.676025  0.894009  0.525599  1
  C  C38  1  0.880376  0.128958  0.816307  1
  C  C39  1  0.823975  0.394009  0.974401  1
  C  C40  1  0.619624  0.628958  0.683693  1
  C  C41  1  0.120759  0.087903  0.597411  1
  C  C42  1  0.113431  0.256334  0.479374  1
  C  C43  1  0.886569  0.743666  0.520626  1
  C  C44  1  0.640626  0.455589  0.372258  1
  C  C45  1  0.859374  0.955589  0.127742  1
  C  C46  1  0.380376  0.371042  0.316307  1
  C  C47  1  0.879241  0.912097  0.402589  1
  Cl  Cl48  1  0.680693  0.220437  0.505327  1
  Cl  Cl49  1  0.319307  0.779563  0.494673  1
  Cl  Cl50  1  0.819307  0.720437  0.994673  1
  Cl  Cl51  1  0.180693  0.279563  0.005327  1
  O  O52  1  0.864204  0.447117  0.916032  1
  O  O53  1  0.513410  0.101010  0.714174  1
  O  O54  1  0.635796  0.947117  0.583968  1
  O  O55  1  0.594578  0.359997  0.771069  1
  O  O56  1  0.738551  0.936355  0.146773  1
  O  O57  1  0.966370  0.976839  0.386720  1
  O  O58  1  0.651503  0.699703  0.736952  1
  O  O59  1  0.678410  0.161817  0.225597  1
  O  O60  1  0.533630  0.476839  0.113280  1
  O  O61  1  0.364204  0.052883  0.416032  1
  O  O62  1  0.475718  0.795625  0.077441  1
  O  O63  1  0.883844  0.461316  0.577529  1
  O  O64  1  0.151503  0.800297  0.236952  1
  O  O65  1  0.616156  0.961316  0.922471  1
  O  O66  1  0.466370  0.523161  0.886720  1
  O  O67  1  0.094578  0.140003  0.271069  1
  O  O68  1  0.116156  0.538684  0.422471  1
  O  O69  1  0.135796  0.552883  0.083968  1
  O  O70  1  0.013410  0.398990  0.214174  1
  O  O71  1  0.486590  0.898990  0.285826  1
  O  O72  1  0.178410  0.338183  0.725596  1
  O  O73  1  0.975718  0.704375  0.577441  1
  O  O74  1  0.524282  0.204375  0.922559  1
  O  O75  1  0.405422  0.640003  0.228931  1
  O  O76  1  0.383844  0.038684  0.077529  1
  O  O77  1  0.033630  0.023161  0.613280  1
  O  O78  1  0.238551  0.563645  0.646773  1
  O  O79  1  0.348497  0.300297  0.263048  1
  O  O80  1  0.321590  0.838183  0.774404  1
  O  O81  1  0.261449  0.063645  0.853227  1
  O  O82  1  0.761449  0.436355  0.353227  1
  O  O83  1  0.024282  0.295625  0.422559  1
  O  O84  1  0.848497  0.199703  0.763048  1
  O  O85  1  0.986590  0.601010  0.785826  1
  O  O86  1  0.905422  0.859997  0.728931  1
  O  O87  1  0.821590  0.661817  0.274404  1
