# generated using pymatgen
data_BaNdFe2O5
_symmetry_space_group_name_H-M   'P 1'
_cell_length_a   4.03121813
_cell_length_b   7.76431335
_cell_length_c   8.05774665
_cell_angle_alpha   90.00000000
_cell_angle_beta   90.00000000
_cell_angle_gamma   90.00000000
_symmetry_Int_Tables_number   1
_chemical_formula_structural   BaNdFe2O5
_chemical_formula_sum   'Ba2 Nd2 Fe4 O10'
_cell_volume   252.20457535
_cell_formula_units_Z   2
loop_
 _symmetry_equiv_pos_site_id
 _symmetry_equiv_pos_as_xyz
  1  'x, y, z'
loop_
 _atom_site_type_symbol
 _atom_site_label
 _atom_site_symmetry_multiplicity
 _atom_site_fract_x
 _atom_site_fract_y
 _atom_site_fract_z
 _atom_site_occupancy
  Ba  Ba0  1  0.000000  0.999532  0.003050  1
  Ba  Ba1  1  0.000000  0.000468  0.503050  1
  Nd  Nd2  1  0.000000  0.499501  0.003624  1
  Nd  Nd3  1  0.000000  0.500499  0.503624  1
  Fe  Fe4  1  0.500000  0.263326  0.253438  1
  Fe  Fe5  1  0.500000  0.261003  0.753317  1
  Fe  Fe6  1  0.500000  0.738997  0.253317  1
  Fe  Fe7  1  0.500000  0.736674  0.753438  1
  O  O8  1  0.000000  0.693982  0.753761  1
  O  O9  1  0.500000  0.305440  0.002109  1
  O  O10  1  0.000000  0.693289  0.253367  1
  O  O11  1  0.000000  0.306711  0.753367  1
  O  O12  1  0.500000  0.997428  0.253335  1
  O  O13  1  0.000000  0.306018  0.253761  1
  O  O14  1  0.500000  0.693240  0.004799  1
  O  O15  1  0.500000  0.694560  0.502109  1
  O  O16  1  0.500000  0.002572  0.753335  1
  O  O17  1  0.500000  0.306760  0.504799  1
