# generated using pymatgen
data_KCa2P4H11O18
_symmetry_space_group_name_H-M   'P 1'
_cell_length_a   5.70083158
_cell_length_b   12.28593741
_cell_length_c   6.35358879
_cell_angle_alpha   103.51624761
_cell_angle_beta   115.00170090
_cell_angle_gamma   84.38692234
_symmetry_Int_Tables_number   1
_chemical_formula_structural   KCa2P4H11O18
_chemical_formula_sum   'K1 Ca2 P4 H11 O18'
_cell_volume   392.13623856
_cell_formula_units_Z   1
loop_
 _symmetry_equiv_pos_site_id
 _symmetry_equiv_pos_as_xyz
  1  'x, y, z'
loop_
 _atom_site_type_symbol
 _atom_site_label
 _atom_site_symmetry_multiplicity
 _atom_site_fract_x
 _atom_site_fract_y
 _atom_site_fract_z
 _atom_site_occupancy
  K  K0  1  0.489116  0.534316  0.985576  1
  Ca  Ca1  1  0.003360  0.905392  0.706165  1
  Ca  Ca2  1  0.996774  0.105486  0.300952  1
  P  P3  1  0.141728  0.638176  0.372818  1
  P  P4  1  0.500613  0.099808  0.791372  1
  P  P5  1  0.495388  0.910152  0.211956  1
  P  P6  1  0.834298  0.366498  0.616714  1
  H  H7  1  0.989362  0.501639  0.498955  1
  H  H8  1  0.031322  0.300147  0.063737  1
  H  H9  1  0.265503  0.307506  0.311767  1
  H  H10  1  0.476770  0.512089  0.498107  1
  H  H11  1  0.366010  0.812482  0.407966  1
  H  H12  1  0.623708  0.807923  0.929565  1
  H  H13  1  0.376372  0.208308  0.066817  1
  H  H14  1  0.632020  0.192621  0.589990  1
  H  H15  1  0.737801  0.698655  0.688919  1
  H  H16  1  0.976490  0.484110  0.980565  1
  H  H17  1  0.956684  0.702560  0.942945  1
  O  O18  1  0.050670  0.423032  0.591921  1
  O  O19  1  0.247805  0.036180  0.682692  1
  O  O20  1  0.141165  0.765906  0.442478  1
  O  O21  1  0.149699  0.252937  0.172480  1
  O  O22  1  0.096955  0.598360  0.107323  1
  O  O23  1  0.465539  0.829064  0.964750  1
  O  O24  1  0.466396  0.169153  0.598048  1
  O  O25  1  0.419219  0.598219  0.539497  1
  O  O26  1  0.754458  0.036264  0.861911  1
  O  O27  1  0.238449  0.970755  0.144065  1
  O  O28  1  0.561294  0.403746  0.463275  1
  O  O29  1  0.529747  0.833905  0.394986  1
  O  O30  1  0.883241  0.406887  0.894346  1
  O  O31  1  0.535089  0.186626  0.033469  1
  O  O32  1  0.847335  0.752057  0.832729  1
  O  O33  1  0.858989  0.239231  0.572382  1
  O  O34  1  0.745227  0.976327  0.327445  1
  O  O35  1  0.931105  0.583952  0.411115  1
