# generated using pymatgen
data_Al(HO)3
_symmetry_space_group_name_H-M   'P 1'
_cell_length_a   5.03914918
_cell_length_b   5.20549489
_cell_length_c   4.99653007
_cell_angle_alpha   86.64857737
_cell_angle_beta   91.30030271
_cell_angle_gamma   120.94196232
_symmetry_Int_Tables_number   1
_chemical_formula_structural   Al(HO)3
_chemical_formula_sum   'Al2 H6 O6'
_cell_volume   112.21680738
_cell_formula_units_Z   2
loop_
 _symmetry_equiv_pos_site_id
 _symmetry_equiv_pos_as_xyz
  1  'x, y, z'
loop_
 _atom_site_type_symbol
 _atom_site_label
 _atom_site_symmetry_multiplicity
 _atom_site_fract_x
 _atom_site_fract_y
 _atom_site_fract_z
 _atom_site_occupancy
  Al  Al0  1  0.309196  0.651902  0.991560  1
  Al  Al1  1  0.630552  0.313295  0.992311  1
  H  H2  1  0.562946  0.001921  0.598787  1
  H  H3  1  0.126970  0.220813  0.750778  1
  H  H4  1  0.942883  0.796107  0.751220  1
  H  H5  1  0.134120  0.904513  0.250853  1
  H  H6  1  0.536369  0.536329  0.386253  1
  H  H7  1  0.945332  0.149524  0.240820  1
  O  O8  1  0.622272  0.997467  0.786032  1
  O  O9  1  0.343394  0.374038  0.775887  1
  O  O10  1  0.967017  0.624105  0.790112  1
  O  O11  1  0.344609  0.963177  0.204574  1
  O  O12  1  0.606186  0.605593  0.201438  1
  O  O13  1  0.964671  0.341436  0.193056  1
