# generated using pymatgen
data_HC2
_symmetry_space_group_name_H-M   'P 1'
_cell_length_a   4.76227133
_cell_length_b   10.22836559
_cell_length_c   15.86737048
_cell_angle_alpha   105.87107538
_cell_angle_beta   90.00000000
_cell_angle_gamma   90.00000000
_symmetry_Int_Tables_number   1
_chemical_formula_structural   HC2
_chemical_formula_sum   'H24 C48'
_cell_volume   743.44013775
_cell_formula_units_Z   24
loop_
 _symmetry_equiv_pos_site_id
 _symmetry_equiv_pos_as_xyz
  1  'x, y, z'
loop_
 _atom_site_type_symbol
 _atom_site_label
 _atom_site_symmetry_multiplicity
 _atom_site_fract_x
 _atom_site_fract_y
 _atom_site_fract_z
 _atom_site_occupancy
  H  H0  1  0.177620  0.339578  0.271707  1
  H  H1  1  0.466312  0.066454  0.758430  1
  H  H2  1  0.869299  0.847571  0.657146  1
  H  H3  1  0.966312  0.433546  0.741570  1
  H  H4  1  0.590360  0.086333  0.584384  1
  H  H5  1  0.822380  0.660422  0.728293  1
  H  H6  1  0.751708  0.777978  0.312575  1
  H  H7  1  0.748292  0.277978  0.812575  1
  H  H8  1  0.086836  0.941926  0.545920  1
  H  H9  1  0.369299  0.652429  0.842854  1
  H  H10  1  0.913164  0.058074  0.454080  1
  H  H11  1  0.533688  0.933546  0.241570  1
  H  H12  1  0.033688  0.566454  0.258430  1
  H  H13  1  0.090360  0.413667  0.915616  1
  H  H14  1  0.248292  0.222022  0.687425  1
  H  H15  1  0.130701  0.152429  0.342854  1
  H  H16  1  0.409640  0.913667  0.415616  1
  H  H17  1  0.322380  0.839578  0.771707  1
  H  H18  1  0.251708  0.722022  0.187425  1
  H  H19  1  0.413164  0.441926  0.045920  1
  H  H20  1  0.586836  0.558074  0.954080  1
  H  H21  1  0.677620  0.160422  0.228293  1
  H  H22  1  0.909640  0.586333  0.084384  1
  H  H23  1  0.630701  0.347571  0.157146  1
  C  C24  1  0.701249  0.422001  0.440685  1
  C  C25  1  0.579108  0.368273  0.506314  1
  C  C26  1  0.143510  0.839804  0.548881  1
  C  C27  1  0.298751  0.577999  0.559315  1
  C  C28  1  0.079108  0.131727  0.993686  1
  C  C29  1  0.743683  0.606022  0.368016  1
  C  C30  1  0.920892  0.868273  0.006314  1
  C  C31  1  0.643510  0.660196  0.951119  1
  C  C32  1  0.055480  0.473889  0.690349  1
  C  C33  1  0.856490  0.160196  0.451119  1
  C  C34  1  0.342241  0.763344  0.487723  1
  C  C35  1  0.596335  0.844324  0.881530  1
  C  C36  1  0.555480  0.026111  0.809651  1
  C  C37  1  0.798751  0.922001  0.940685  1
  C  C38  1  0.965939  0.687182  0.079278  1
  C  C39  1  0.403665  0.155676  0.118470  1
  C  C40  1  0.944520  0.526111  0.309651  1
  C  C41  1  0.523271  0.100052  0.183325  1
  C  C42  1  0.034061  0.312818  0.920722  1
  C  C43  1  0.444520  0.973889  0.190349  1
  C  C44  1  0.201249  0.077999  0.059315  1
  C  C45  1  0.158815  0.763095  0.137098  1
  C  C46  1  0.096335  0.655676  0.618470  1
  C  C47  1  0.534061  0.187182  0.579278  1
  C  C48  1  0.465939  0.812818  0.420722  1
  C  C49  1  0.657759  0.236656  0.512277  1
  C  C50  1  0.243683  0.893978  0.131984  1
  C  C51  1  0.523214  0.712538  0.888428  1
  C  C52  1  0.476729  0.899948  0.816675  1
  C  C53  1  0.420892  0.631727  0.493686  1
  C  C54  1  0.841185  0.236905  0.862902  1
  C  C55  1  0.377731  0.446537  0.565873  1
  C  C56  1  0.756317  0.106022  0.868016  1
  C  C57  1  0.122269  0.946537  0.065873  1
  C  C58  1  0.903665  0.344324  0.381530  1
  C  C59  1  0.842241  0.736656  0.012277  1
  C  C60  1  0.476786  0.287462  0.111572  1
  C  C61  1  0.622269  0.553463  0.434127  1
  C  C62  1  0.341185  0.263095  0.637098  1
  C  C63  1  0.157759  0.263344  0.987723  1
  C  C64  1  0.023271  0.399948  0.316675  1
  C  C65  1  0.256317  0.393978  0.631984  1
  C  C66  1  0.877731  0.053463  0.934127  1
  C  C67  1  0.356490  0.339804  0.048881  1
  C  C68  1  0.658815  0.736905  0.362902  1
  C  C69  1  0.023214  0.787462  0.611572  1
  C  C70  1  0.976729  0.600052  0.683325  1
  C  C71  1  0.976786  0.212538  0.388428  1
