# generated using pymatgen
data_HI
_symmetry_space_group_name_H-M   'P 1'
_cell_length_a   8.74254725
_cell_length_b   9.87313622
_cell_length_c   8.74254725
_cell_angle_alpha   116.30661805
_cell_angle_beta   90.39308530
_cell_angle_gamma   115.86413818
_symmetry_Int_Tables_number   1
_chemical_formula_structural   HI
_chemical_formula_sum   'H8 I8'
_cell_volume   589.66687509
_cell_formula_units_Z   8
loop_
 _symmetry_equiv_pos_site_id
 _symmetry_equiv_pos_as_xyz
  1  'x, y, z'
loop_
 _atom_site_type_symbol
 _atom_site_label
 _atom_site_symmetry_multiplicity
 _atom_site_fract_x
 _atom_site_fract_y
 _atom_site_fract_z
 _atom_site_occupancy
  H  H0  1  0.242605  0.020092  0.580806  1
  H  H1  1  0.560714  0.479908  0.722513  1
  H  H2  1  0.757395  0.979908  0.419194  1
  H  H3  1  0.439286  0.520092  0.277487  1
  H  H4  1  0.569995  0.998859  0.765373  1
  H  H5  1  0.766514  0.501141  0.071136  1
  H  H6  1  0.430005  0.001141  0.234627  1
  H  H7  1  0.233486  0.498859  0.928864  1
  I  I8  1  0.251120  0.023590  0.769538  1
  I  I9  1  0.745948  0.476410  0.727530  1
  I  I10  1  0.748880  0.976410  0.230462  1
  I  I11  1  0.254052  0.523590  0.272470  1
  I  I12  1  0.755763  0.996425  0.761693  1
  I  I13  1  0.765268  0.503575  0.259338  1
  I  I14  1  0.244237  0.003575  0.238307  1
  I  I15  1  0.234732  0.496425  0.740662  1
