# generated using pymatgen
data_Na2Pr4Br9NO
_symmetry_space_group_name_H-M   'P 1'
_cell_length_a   8.80105696
_cell_length_b   9.84724247
_cell_length_c   11.82613238
_cell_angle_alpha   90.00000000
_cell_angle_beta   90.00000000
_cell_angle_gamma   106.48449360
_symmetry_Int_Tables_number   1
_chemical_formula_structural   Na2Pr4Br9NO
_chemical_formula_sum   'Na4 Pr8 Br18 N2 O2'
_cell_volume   982.79731790
_cell_formula_units_Z   2
loop_
 _symmetry_equiv_pos_site_id
 _symmetry_equiv_pos_as_xyz
  1  'x, y, z'
loop_
 _atom_site_type_symbol
 _atom_site_label
 _atom_site_symmetry_multiplicity
 _atom_site_fract_x
 _atom_site_fract_y
 _atom_site_fract_z
 _atom_site_occupancy
  Na  Na0  1  0.280102  0.572780  0.989564  1
  Na  Na1  1  0.278846  0.572370  0.512890  1
  Na  Na2  1  0.719898  0.427220  0.489564  1
  Na  Na3  1  0.721154  0.427630  0.012890  1
  Pr  Pr4  1  0.093368  0.835762  0.752159  1
  Pr  Pr5  1  0.106422  0.211148  0.751964  1
  Pr  Pr6  1  0.205400  0.046932  0.038277  1
  Pr  Pr7  1  0.200035  0.045733  0.451920  1
  Pr  Pr8  1  0.794600  0.953068  0.538277  1
  Pr  Pr9  1  0.799965  0.954267  0.951920  1
  Pr  Pr10  1  0.893578  0.788852  0.251964  1
  Pr  Pr11  1  0.906632  0.164238  0.252159  1
  Br  Br12  1  0.007945  0.304588  0.004789  1
  Br  Br13  1  0.007108  0.304439  0.498797  1
  Br  Br14  1  0.146853  0.534162  0.752410  1
  Br  Br15  1  0.247362  0.854716  0.249613  1
  Br  Br16  1  0.382979  0.880663  0.596383  1
  Br  Br17  1  0.385725  0.877698  0.903663  1
  Br  Br18  1  0.266787  0.261159  0.249730  1
  Br  Br19  1  0.396677  0.309773  0.589893  1
  Br  Br20  1  0.399501  0.313576  0.911465  1
  Br  Br21  1  0.603323  0.690227  0.089893  1
  Br  Br22  1  0.600499  0.686424  0.411465  1
  Br  Br23  1  0.733213  0.738841  0.749730  1
  Br  Br24  1  0.614275  0.122302  0.403663  1
  Br  Br25  1  0.617021  0.119337  0.096383  1
  Br  Br26  1  0.752638  0.145284  0.749613  1
  Br  Br27  1  0.853147  0.465838  0.252410  1
  Br  Br28  1  0.992055  0.695412  0.504789  1
  Br  Br29  1  0.992892  0.695561  0.998797  1
  N  N30  1  0.057491  0.014691  0.873703  1
  N  N31  1  0.942509  0.985309  0.373703  1
  O  O32  1  0.056332  0.014548  0.622780  1
  O  O33  1  0.943668  0.985452  0.122779  1
