# generated using pymatgen
data_Ho4Si2S3O7
_symmetry_space_group_name_H-M   'P 1'
_cell_length_a   10.71719864
_cell_length_b   10.71719864
_cell_length_c   10.71719864
_cell_angle_alpha   101.05087686
_cell_angle_beta   113.83848112
_cell_angle_gamma   113.83848116
_symmetry_Int_Tables_number   1
_chemical_formula_structural   Ho4Si2S3O7
_chemical_formula_sum   'Ho16 Si8 S12 O28'
_cell_volume   932.56735956
_cell_formula_units_Z   4
loop_
 _symmetry_equiv_pos_site_id
 _symmetry_equiv_pos_as_xyz
  1  'x, y, z'
loop_
 _atom_site_type_symbol
 _atom_site_label
 _atom_site_symmetry_multiplicity
 _atom_site_fract_x
 _atom_site_fract_y
 _atom_site_fract_z
 _atom_site_occupancy
  O  O0  1  0.516860  0.174008  0.190868  1
  O  O1  1  0.983140  0.174008  0.657147  1
  O  O2  1  0.983140  0.809132  0.825992  1
  O  O3  1  0.483140  0.657147  0.174008  1
  O  O4  1  0.016860  0.190868  0.174008  1
  O  O5  1  0.016860  0.825992  0.342853  1
  O  O6  1  0.483140  0.825992  0.809132  1
  O  O7  1  0.516860  0.342853  0.825992  1
  O  O8  1  0.750000  0.149567  0.399567  1
  O  O9  1  0.250000  0.399567  0.149567  1
  O  O10  1  0.250000  0.850433  0.600433  1
  O  O11  1  0.750000  0.600433  0.850433  1
  O  O12  1  0.267422  0.834765  0.849986  1
  O  O13  1  0.232578  0.082564  0.567343  1
  O  O14  1  0.232578  0.150014  0.165235  1
  O  O15  1  0.484779  0.567343  0.834765  1
  O  O16  1  0.015221  0.849986  0.082564  1
  O  O17  1  0.015221  0.165235  0.432657  1
  O  O18  1  0.484779  0.917436  0.150014  1
  O  O19  1  0.267422  0.432657  0.917436  1
  O  O20  1  0.732578  0.165235  0.150014  1
  O  O21  1  0.767422  0.917436  0.432657  1
  O  O22  1  0.767422  0.849986  0.834765  1
  O  O23  1  0.515221  0.432657  0.165235  1
  O  O24  1  0.984779  0.150014  0.917436  1
  O  O25  1  0.984779  0.834765  0.567343  1
  O  O26  1  0.515221  0.082564  0.849986  1
  O  O27  1  0.732578  0.567343  0.082564  1
  Si  Si28  1  0.624891  0.095730  0.220621  1
  Si  Si29  1  0.875109  0.095730  0.470839  1
  Si  Si30  1  0.875109  0.779378  0.904270  1
  Si  Si31  1  0.375109  0.470839  0.095730  1
  Si  Si32  1  0.124891  0.220621  0.095730  1
  Si  Si33  1  0.124891  0.904270  0.529161  1
  Si  Si34  1  0.375109  0.904270  0.779378  1
  Si  Si35  1  0.624891  0.529161  0.904270  1
  S  S36  1  0.354083  0.000000  0.354083  1
  S  S37  1  0.354083  0.354083  0.500000  1
  S  S38  1  0.145917  0.645917  0.000000  1
  S  S39  1  0.145917  0.500000  0.645917  1
  S  S40  1  0.645917  0.000000  0.645917  1
  S  S41  1  0.645917  0.645917  0.500000  1
  S  S42  1  0.854083  0.354083  0.000000  1
  S  S43  1  0.854083  0.500000  0.354083  1
  S  S44  1  0.250000  0.625000  0.375000  1
  S  S45  1  0.750000  0.375000  0.625000  1
  S  S46  1  0.750000  0.875000  0.125000  1
  S  S47  1  0.250000  0.125000  0.875000  1
  Ho  Ho48  1  0.094630  0.047315  0.297315  1
  Ho  Ho49  1  0.250000  0.297315  0.702685  1
  Ho  Ho50  1  0.250000  0.952685  0.047315  1
  Ho  Ho51  1  0.405370  0.702685  0.952685  1
  Ho  Ho52  1  0.905370  0.952685  0.702685  1
  Ho  Ho53  1  0.750000  0.702685  0.297315  1
  Ho  Ho54  1  0.750000  0.047315  0.952685  1
  Ho  Ho55  1  0.594630  0.297315  0.047315  1
  Ho  Ho56  1  0.514449  0.341317  0.355766  1
  Ho  Ho57  1  0.985551  0.341317  0.826867  1
  Ho  Ho58  1  0.985551  0.644234  0.658683  1
  Ho  Ho59  1  0.485551  0.826867  0.341317  1
  Ho  Ho60  1  0.014449  0.355766  0.341317  1
  Ho  Ho61  1  0.014449  0.658683  0.173133  1
  Ho  Ho62  1  0.485551  0.658683  0.644234  1
  Ho  Ho63  1  0.514449  0.173133  0.658683  1
