# generated using pymatgen
data_Zr12Si2Bi2P16PbO72
_symmetry_space_group_name_H-M   'P 1'
_cell_length_a   9.31131256
_cell_length_b   9.31616354
_cell_length_c   27.80908299
_cell_angle_alpha   57.78590379
_cell_angle_beta   57.80450945
_cell_angle_gamma   57.72849050
_symmetry_Int_Tables_number   1
_chemical_formula_structural   Zr12Si2Bi2P16PbO72
_chemical_formula_sum   'Zr12 Si2 Bi2 P16 Pb1 O72'
_cell_volume   1618.51948207
_cell_formula_units_Z   1
loop_
 _symmetry_equiv_pos_site_id
 _symmetry_equiv_pos_as_xyz
  1  'x, y, z'
loop_
 _atom_site_type_symbol
 _atom_site_label
 _atom_site_symmetry_multiplicity
 _atom_site_fract_x
 _atom_site_fract_y
 _atom_site_fract_z
 _atom_site_occupancy
  Zr  Zr0  1  0.137699  0.139083  0.046499  1
  Zr  Zr1  1  0.347622  0.345493  0.116665  1
  Zr  Zr2  1  0.138134  0.135755  0.379904  1
  Zr  Zr3  1  0.347159  0.347495  0.449269  1
  Zr  Zr4  1  0.650723  0.653769  0.215393  1
  Zr  Zr5  1  0.140165  0.137917  0.713741  1
  Zr  Zr6  1  0.857523  0.868164  0.286324  1
  Zr  Zr7  1  0.350347  0.352719  0.781899  1
  Zr  Zr8  1  0.650513  0.654941  0.547782  1
  Zr  Zr9  1  0.856569  0.866120  0.619333  1
  Zr  Zr10  1  0.650547  0.647916  0.883865  1
  Zr  Zr11  1  0.862314  0.861032  0.952589  1
  Si  Si12  1  0.743004  0.047089  0.156868  1
  Si  Si13  1  0.742374  0.047119  0.489700  1
  Bi  Bi14  1  0.495778  0.486512  0.166376  1
  Bi  Bi15  1  0.496805  0.486312  0.499695  1
  P  P16  1  0.044109  0.475788  0.247664  1
  P  P17  1  0.473315  0.743580  0.015461  1
  P  P18  1  0.257328  0.952223  0.177337  1
  P  P19  1  0.529622  0.257122  0.317440  1
  P  P20  1  0.043195  0.472769  0.581727  1
  P  P21  1  0.952915  0.530272  0.085464  1
  P  P22  1  0.474877  0.741309  0.348601  1
  P  P23  1  0.256832  0.951960  0.510478  1
  P  P24  1  0.528897  0.255900  0.650836  1
  P  P25  1  0.045404  0.471439  0.913874  1
  P  P26  1  0.952601  0.528512  0.418999  1
  P  P27  1  0.470310  0.744366  0.680738  1
  P  P28  1  0.744195  0.043101  0.823120  1
  P  P29  1  0.256098  0.957022  0.843742  1
  P  P30  1  0.532881  0.254351  0.985223  1
  P  P31  1  0.955638  0.530413  0.751887  1
  Pb  Pb32  1  0.500922  0.500974  0.831961  1
  O  O33  1  0.105930  0.497044  0.102173  1
  O  O34  1  0.303222  0.108408  0.166214  1
  O  O35  1  0.499152  0.294559  0.038932  1
  O  O36  1  0.069673  0.298809  0.301437  1
  O  O37  1  0.229379  0.450255  0.191601  1
  O  O38  1  0.010822  0.637295  0.258030  1
  O  O39  1  0.302473  0.911162  0.020894  1
  O  O40  1  0.440763  0.580205  0.077608  1
  O  O41  1  0.566953  0.242818  0.147398  1
  O  O42  1  0.091145  0.936228  0.234903  1
  O  O43  1  0.232778  0.986973  0.121288  1
  O  O44  1  0.367821  0.226007  0.328646  1
  O  O45  1  0.639158  0.768132  0.004809  1
  O  O46  1  0.102617  0.494352  0.437506  1
  O  O47  1  0.770756  0.014181  0.215153  1
  O  O48  1  0.917455  0.069081  0.095741  1
  O  O49  1  0.420892  0.770563  0.187336  1
  O  O50  1  0.306514  0.107389  0.497988  1
  O  O51  1  0.561858  0.417050  0.255450  1
  O  O52  1  0.489040  0.315125  0.368003  1
  O  O53  1  0.701945  0.088998  0.315840  1
  O  O54  1  0.065457  0.298267  0.636799  1
  O  O55  1  0.989931  0.365902  0.075330  1
  O  O56  1  0.229075  0.444552  0.526368  1
  O  O57  1  0.769703  0.556201  0.140290  1
  O  O58  1  0.011213  0.635585  0.591240  1
  O  O59  1  0.936000  0.702764  0.029596  1
  O  O60  1  0.303239  0.909428  0.352955  1
  O  O61  1  0.510851  0.685075  0.298811  1
  O  O62  1  0.437414  0.580179  0.411085  1
  O  O63  1  0.684801  0.888513  0.170028  1
  O  O64  1  0.566945  0.242684  0.480184  1
  O  O65  1  0.090660  0.936446  0.568250  1
  O  O66  1  0.230623  0.985463  0.454927  1
  O  O67  1  0.896962  0.507112  0.229261  1
  O  O68  1  0.365054  0.223814  0.663148  1
  O  O69  1  0.638299  0.765032  0.339716  1
  O  O70  1  0.114414  0.497989  0.765124  1
  O  O71  1  0.769827  0.013028  0.548164  1
  O  O72  1  0.916750  0.069358  0.428547  1
  O  O73  1  0.420284  0.769498  0.520327  1
  O  O74  1  0.294625  0.117162  0.831915  1
  O  O75  1  0.558047  0.415615  0.588465  1
  O  O76  1  0.492880  0.312343  0.700560  1
  O  O77  1  0.700382  0.087291  0.648362  1
  O  O78  1  0.069802  0.299093  0.969211  1
  O  O79  1  0.992174  0.364203  0.408111  1
  O  O80  1  0.221082  0.441949  0.857850  1
  O  O81  1  0.768352  0.551152  0.474223  1
  O  O82  1  0.014751  0.637431  0.922142  1
  O  O83  1  0.935808  0.702173  0.364187  1
  O  O84  1  0.298411  0.912500  0.687325  1
  O  O85  1  0.504524  0.701260  0.628097  1
  O  O86  1  0.436247  0.579131  0.740273  1
  O  O87  1  0.687655  0.887795  0.501558  1
  O  O88  1  0.578578  0.220124  0.811981  1
  O  O89  1  0.087753  0.936900  0.900888  1
  O  O90  1  0.232207  0.983726  0.788532  1
  O  O91  1  0.894344  0.504375  0.564045  1
  O  O92  1  0.366872  0.233223  0.994937  1
  O  O93  1  0.634886  0.765713  0.672521  1
  O  O94  1  0.767215  0.015401  0.878669  1
  O  O95  1  0.912755  0.063278  0.766151  1
  O  O96  1  0.421278  0.780168  0.855039  1
  O  O97  1  0.565903  0.420485  0.926791  1
  O  O98  1  0.704175  0.086178  0.979140  1
  O  O99  1  0.985871  0.362703  0.744490  1
  O  O100  1  0.779365  0.560312  0.808072  1
  O  O101  1  0.934073  0.701587  0.696461  1
  O  O102  1  0.504490  0.691087  0.965822  1
  O  O103  1  0.705203  0.883426  0.834951  1
  O  O104  1  0.886030  0.502155  0.901672  1
