# generated using pymatgen
data_Si4H2O9
_symmetry_space_group_name_H-M   'P 1'
_cell_length_a   15.73698214
_cell_length_b   15.73698214
_cell_length_c   15.74222410
_cell_angle_alpha   151.98753711
_cell_angle_beta   151.98753711
_cell_angle_gamma   40.03776014
_symmetry_Int_Tables_number   1
_chemical_formula_structural   Si4H2O9
_chemical_formula_sum   'Si16 H8 O36'
_cell_volume   858.28558551
_cell_formula_units_Z   4
loop_
 _symmetry_equiv_pos_site_id
 _symmetry_equiv_pos_as_xyz
  1  'x, y, z'
loop_
 _atom_site_type_symbol
 _atom_site_label
 _atom_site_symmetry_multiplicity
 _atom_site_fract_x
 _atom_site_fract_y
 _atom_site_fract_z
 _atom_site_occupancy
  Si  Si0  1  0.955616  0.044384  0.500000  1
  Si  Si1  1  0.544161  0.455839  0.500000  1
  Si  Si2  1  0.205839  0.794161  0.000000  1
  Si  Si3  1  0.794384  0.205616  0.000000  1
  Si  Si4  1  0.954864  0.455674  0.911504  1
  Si  Si5  1  0.544326  0.045136  0.088496  1
  Si  Si6  1  0.205674  0.204864  0.411504  1
  Si  Si7  1  0.795136  0.794326  0.588496  1
  Si  Si8  1  0.177128  0.478296  0.301050  1
  Si  Si9  1  0.176493  0.882123  0.705650  1
  Si  Si10  1  0.573507  0.367877  0.794350  1
  Si  Si11  1  0.572872  0.771704  0.198950  1
  Si  Si12  1  0.521704  0.822872  0.698950  1
  Si  Si13  1  0.117877  0.823507  0.294350  1
  Si  Si14  1  0.632123  0.426493  0.205650  1
  Si  Si15  1  0.228296  0.427128  0.801050  1
  H  H16  1  0.102986  0.318869  0.216381  1
  H  H17  1  0.134622  0.088372  0.953980  1
  H  H18  1  0.615378  0.161628  0.546020  1
  H  H19  1  0.647014  0.931131  0.283619  1
  H  H20  1  0.681131  0.897014  0.783619  1
  H  H21  1  0.911628  0.865378  0.046020  1
  H  H22  1  0.838372  0.384622  0.453980  1
  H  H23  1  0.068869  0.352986  0.716381  1
  O  O24  1  0.133512  0.302167  0.169446  1
  O  O25  1  0.132186  0.955683  0.824688  1
  O  O26  1  0.617814  0.294317  0.675312  1
  O  O27  1  0.616488  0.947833  0.330554  1
  O  O28  1  0.697833  0.866488  0.830554  1
  O  O29  1  0.044317  0.867814  0.175312  1
  O  O30  1  0.705683  0.382186  0.324688  1
  O  O31  1  0.052167  0.383512  0.669446  1
  O  O32  1  0.217359  0.630971  0.934270  1
  O  O33  1  0.697066  0.279903  0.063495  1
  O  O34  1  0.052934  0.970097  0.436505  1
  O  O35  1  0.532641  0.619029  0.565730  1
  O  O36  1  0.213179  0.280809  0.581571  1
  O  O37  1  0.694568  0.632717  0.412089  1
  O  O38  1  0.055432  0.617283  0.087911  1
  O  O39  1  0.536821  0.969191  0.918429  1
  O  O40  1  0.369029  0.782641  0.065730  1
  O  O41  1  0.720097  0.302934  0.936505  1
  O  O42  1  0.029903  0.947066  0.563495  1
  O  O43  1  0.380971  0.467359  0.434270  1
  O  O44  1  0.367283  0.305432  0.587911  1
  O  O45  1  0.719191  0.786821  0.418429  1
  O  O46  1  0.030809  0.463179  0.081571  1
  O  O47  1  0.382717  0.944568  0.912089  1
  O  O48  1  0.338914  0.841448  0.499540  1
  O  O49  1  0.411086  0.408552  0.000460  1
  O  O50  1  0.158552  0.661086  0.500460  1
  O  O51  1  0.591448  0.588914  -0.000460  1
  O  O52  1  0.014478  0.249967  0.236554  1
  O  O53  1  0.013353  0.775150  0.762780  1
  O  O54  1  0.736647  0.474850  0.737220  1
  O  O55  1  0.735522  0.000033  0.263446  1
  O  O56  1  0.750033  0.985522  0.763446  1
  O  O57  1  0.224850  0.986647  0.237220  1
  O  O58  1  0.525150  0.263353  0.262780  1
  O  O59  1  -0.000033  0.264478  0.736554  1
