# generated using pymatgen
data_BiPtPb3
_symmetry_space_group_name_H-M   'P 1'
_cell_length_a   4.17759220
_cell_length_b   11.69622490
_cell_length_c   11.69622782
_cell_angle_alpha   90.00263249
_cell_angle_beta   89.99999389
_cell_angle_gamma   90.00003703
_symmetry_Int_Tables_number   1
_chemical_formula_structural   BiPtPb3
_chemical_formula_sum   'Bi4 Pt4 Pb12'
_cell_volume   571.50176079
_cell_formula_units_Z   4
loop_
 _symmetry_equiv_pos_site_id
 _symmetry_equiv_pos_as_xyz
  1  'x, y, z'
loop_
 _atom_site_type_symbol
 _atom_site_label
 _atom_site_symmetry_multiplicity
 _atom_site_fract_x
 _atom_site_fract_y
 _atom_site_fract_z
 _atom_site_occupancy
  Bi  Bi0  1  0.500000  0.793934  0.793934  1
  Bi  Bi1  1  1.000000  0.293935  0.706065  1
  Bi  Bi2  1  0.500000  0.206066  0.206066  1
  Bi  Bi3  1  0.000000  0.706065  0.293935  1
  Pt  Pt4  1  0.500000  0.413155  0.586845  1
  Pt  Pt5  1  0.000000  0.086845  0.086845  1
  Pt  Pt6  1  0.500000  0.586845  0.413155  1
  Pt  Pt7  1  0.000000  0.913156  0.913156  1
  Pb  Pb8  1  0.500001  0.170331  0.502728  1
  Pb  Pb9  1  -0.000000  0.670325  0.997274  1
  Pb  Pb10  1  0.000000  0.329674  0.002726  1
  Pb  Pb11  1  0.000000  0.397366  0.397366  1
  Pb  Pb12  1  0.000000  0.997274  0.670326  1
  Pb  Pb13  1  0.500000  0.102639  0.897362  1
  Pb  Pb14  1  0.000000  0.602634  0.602634  1
  Pb  Pb15  1  0.499999  0.829669  0.497272  1
  Pb  Pb16  1  0.500000  0.502728  0.170331  1
  Pb  Pb17  1  1.000000  0.002726  0.329674  1
  Pb  Pb18  1  0.500000  0.497272  0.829669  1
  Pb  Pb19  1  0.499999  0.897362  0.102638  1
