# generated using pymatgen
data_Gd3S3N
_symmetry_space_group_name_H-M   'P 1'
_cell_length_a   3.89129971
_cell_length_b   12.01583835
_cell_length_c   12.90900007
_cell_angle_alpha   89.99908232
_cell_angle_beta   89.99998551
_cell_angle_gamma   89.99982416
_symmetry_Int_Tables_number   1
_chemical_formula_structural   Gd3S3N
_chemical_formula_sum   'Gd12 S12 N4'
_cell_volume   603.58906319
_cell_formula_units_Z   4
loop_
 _symmetry_equiv_pos_site_id
 _symmetry_equiv_pos_as_xyz
  1  'x, y, z'
loop_
 _atom_site_type_symbol
 _atom_site_label
 _atom_site_symmetry_multiplicity
 _atom_site_fract_x
 _atom_site_fract_y
 _atom_site_fract_z
 _atom_site_occupancy
  Gd  Gd0  1  0.250002  0.716879  0.637866  1
  Gd  Gd1  1  0.750004  0.454918  0.644508  1
  Gd  Gd2  1  0.749996  0.954912  0.855500  1
  Gd  Gd3  1  0.250001  0.073167  0.629673  1
  Gd  Gd4  1  0.750006  0.283101  0.362149  1
  Gd  Gd5  1  0.749998  0.783088  0.137845  1
  Gd  Gd6  1  0.249997  0.545094  0.355500  1
  Gd  Gd7  1  0.250000  0.216901  0.862151  1
  Gd  Gd8  1  0.250000  0.045070  0.144492  1
  Gd  Gd9  1  0.749999  0.426829  0.129635  1
  Gd  Gd10  1  0.249996  0.573183  0.870348  1
  Gd  Gd11  1  0.750002  0.926811  0.370335  1
  S  S12  1  0.750000  0.135330  0.993449  1
  S  S13  1  0.750000  0.227084  0.694015  1
  S  S14  1  0.249999  0.364687  0.493513  1
  S  S15  1  0.750001  0.727071  0.805937  1
  S  S16  1  0.750000  0.410477  0.898609  1
  S  S17  1  0.249999  0.272887  0.194012  1
  S  S18  1  0.749999  0.635383  0.506607  1
  S  S19  1  0.249999  0.772902  0.305992  1
  S  S20  1  0.250000  0.864649  0.006511  1
  S  S21  1  0.250001  0.089523  0.398662  1
  S  S22  1  0.250000  0.589564  0.101331  1
  S  S23  1  0.750001  0.910403  0.601375  1
  N  N24  1  0.749998  0.959931  0.202215  1
  N  N25  1  0.749999  0.459962  0.297814  1
  N  N26  1  0.250001  0.040045  0.797769  1
  N  N27  1  0.250001  0.540149  0.702189  1
