# generated using pymatgen
data_NaAlSiO4
_symmetry_space_group_name_H-M   'P 1'
_cell_length_a   10.10035861
_cell_length_b   10.10035869
_cell_length_c   25.07005455
_cell_angle_alpha   90.00000000
_cell_angle_beta   90.00000000
_cell_angle_gamma   119.99999972
_symmetry_Int_Tables_number   1
_chemical_formula_structural   NaAlSiO4
_chemical_formula_sum   'Na24 Al24 Si24 O96'
_cell_volume   2214.92743366
_cell_formula_units_Z   24
loop_
 _symmetry_equiv_pos_site_id
 _symmetry_equiv_pos_as_xyz
  1  'x, y, z'
loop_
 _atom_site_type_symbol
 _atom_site_label
 _atom_site_symmetry_multiplicity
 _atom_site_fract_x
 _atom_site_fract_y
 _atom_site_fract_z
 _atom_site_occupancy
  Na  Na0  1  0.020736  0.564693  0.035735  1
  Na  Na1  1  0.526513  0.557991  0.530270  1
  Na  Na2  1  0.442471  0.960463  0.519644  1
  Na  Na3  1  0.004444  0.014984  0.028018  1
  Na  Na4  1  0.435307  0.456043  0.369068  1
  Na  Na5  1  0.517992  0.557529  0.186311  1
  Na  Na6  1  0.442009  0.968522  0.863603  1
  Na  Na7  1  0.979264  0.435307  0.535735  1
  Na  Na8  1  0.031478  0.473487  0.196937  1
  Na  Na9  1  0.039537  0.482008  0.852978  1
  Na  Na10  1  0.557991  0.031478  0.363603  1
  Na  Na11  1  0.968522  0.526513  0.696937  1
  Na  Na12  1  0.543957  0.979264  0.702402  1
  Na  Na13  1  0.456043  0.020736  0.202402  1
  Na  Na14  1  0.995556  0.985016  0.528018  1
  Na  Na15  1  0.557529  0.039537  0.019644  1
  Na  Na16  1  0.482008  0.442471  0.686311  1
  Na  Na17  1  0.960463  0.517992  0.352978  1
  Na  Na18  1  0.989460  0.004444  0.194685  1
  Na  Na19  1  0.010540  0.995556  0.694685  1
  Na  Na20  1  0.014984  0.010540  0.861351  1
  Na  Na21  1  0.564693  0.543957  0.869068  1
  Na  Na22  1  0.985016  0.989460  0.361351  1
  Na  Na23  1  0.473487  0.442009  0.030270  1
  Al  Al24  1  0.635301  0.880849  0.258504  1
  Al  Al25  1  0.707936  0.896851  0.928756  1
  Al  Al26  1  0.771308  0.673228  0.753237  1
  Al  Al27  1  0.901920  0.228692  0.419903  1
  Al  Al28  1  0.880849  0.245548  0.091837  1
  Al  Al29  1  0.644748  0.314266  0.923918  1
  Al  Al30  1  0.673228  0.901920  0.586570  1
  Al  Al31  1  0.669517  0.355252  0.590585  1
  Al  Al32  1  0.098080  0.771308  0.919903  1
  Al  Al33  1  0.355252  0.685734  0.423918  1
  Al  Al34  1  0.188915  0.292064  0.595423  1
  Al  Al35  1  0.292064  0.103149  0.428756  1
  Al  Al36  1  0.119151  0.754452  0.591837  1
  Al  Al37  1  0.103149  0.811085  0.262090  1
  Al  Al38  1  0.685734  0.330483  0.257252  1
  Al  Al39  1  0.896851  0.188915  0.762090  1
  Al  Al40  1  0.811085  0.707936  0.095423  1
  Al  Al41  1  0.228692  0.326772  0.253237  1
  Al  Al42  1  0.330483  0.644748  0.090585  1
  Al  Al43  1  0.326772  0.098080  0.086570  1
  Al  Al44  1  0.245548  0.364699  0.925170  1
  Al  Al45  1  0.314266  0.669517  0.757252  1
  Al  Al46  1  0.754452  0.635301  0.425170  1
  Al  Al47  1  0.364699  0.119151  0.758504  1
  Si  Si48  1  0.778220  0.644532  0.969192  1
  Si  Si49  1  0.338442  0.636296  0.629390  1
  Si  Si50  1  0.297854  0.661558  0.296056  1
  Si  Si51  1  0.676100  0.912549  0.131809  1
  Si  Si52  1  0.912549  0.236449  0.965142  1
  Si  Si53  1  0.696431  0.898467  0.461296  1
  Si  Si54  1  0.101533  0.797964  0.794630  1
  Si  Si55  1  0.323900  0.087451  0.631809  1
  Si  Si56  1  0.303569  0.101533  0.961296  1
  Si  Si57  1  0.236449  0.323900  0.798475  1
  Si  Si58  1  0.355468  0.133687  0.302526  1
  Si  Si59  1  0.363704  0.702146  0.962723  1
  Si  Si60  1  0.636296  0.297854  0.462723  1
  Si  Si61  1  0.898467  0.202036  0.294630  1
  Si  Si62  1  0.661558  0.363704  0.129390  1
  Si  Si63  1  0.221780  0.355468  0.469192  1
  Si  Si64  1  0.763551  0.676100  0.298475  1
  Si  Si65  1  0.133687  0.778220  0.135859  1
  Si  Si66  1  0.202036  0.303569  0.127963  1
  Si  Si67  1  0.797964  0.696431  0.627963  1
  Si  Si68  1  0.644532  0.866313  0.802526  1
  Si  Si69  1  0.866313  0.221780  0.635859  1
  Si  Si70  1  0.702146  0.338442  0.796056  1
  Si  Si71  1  0.087451  0.763551  0.465142  1
  O  O72  1  0.245081  0.972301  0.803208  1
  O  O73  1  0.375994  0.698636  0.690745  1
  O  O74  1  0.178129  0.622502  0.608428  1
  O  O75  1  0.312757  0.035476  0.020129  1
  O  O76  1  0.246321  0.303531  0.528417  1
  O  O77  1  0.053160  0.341637  0.463746  1
  O  O78  1  0.624006  0.301364  0.190745  1
  O  O79  1  0.658363  0.711523  0.797080  1
  O  O80  1  0.809318  0.842581  0.595297  1
  O  O81  1  0.355066  0.534539  0.459676  1
  O  O82  1  0.677358  0.375994  0.857411  1
  O  O83  1  0.444373  0.821871  0.275095  1
  O  O84  1  0.464910  0.145645  0.459870  1
  O  O85  1  0.945751  0.808493  0.294079  1
  O  O86  1  0.277281  0.312757  0.186796  1
  O  O87  1  0.854355  0.319265  0.793204  1
  O  O88  1  0.288477  0.946840  0.130413  1
  O  O89  1  0.535090  0.854355  0.959870  1
  O  O90  1  0.851477  0.314354  0.263073  1
  O  O91  1  0.966736  0.809318  0.761964  1
  O  O92  1  0.004820  0.756375  0.091576  1
  O  O93  1  0.622502  0.444373  0.441761  1
  O  O94  1  0.669814  0.960966  0.193851  1
  O  O95  1  0.820527  0.355066  0.626343  1
  O  O96  1  0.319265  0.464910  0.626537  1
  O  O97  1  0.942790  0.246321  0.695084  1
  O  O98  1  0.808493  0.862742  0.127413  1
  O  O99  1  0.722719  0.687243  0.686796  1
  O  O100  1  0.516888  0.248799  0.091377  1
  O  O101  1  0.230981  0.741692  0.449367  1
  O  O102  1  0.248799  0.731911  0.924710  1
  O  O103  1  0.483112  0.751201  0.591377  1
  O  O104  1  0.698636  0.322642  0.524078  1
  O  O105  1  0.731911  0.483112  0.758044  1
  O  O106  1  0.555627  0.178129  0.775095  1
  O  O107  1  0.721607  0.058358  0.092157  1
  O  O108  1  0.537124  0.851477  0.429739  1
  O  O109  1  0.687243  0.964524  0.520129  1
  O  O110  1  0.862742  0.054249  0.960746  1
  O  O111  1  0.685646  0.537124  0.596406  1
  O  O112  1  0.291152  0.330186  0.860517  1
  O  O113  1  0.268089  0.516888  0.258044  1
  O  O114  1  0.972301  0.727221  0.636541  1
  O  O115  1  0.644934  0.465461  0.959676  1
  O  O116  1  0.322642  0.624006  0.357411  1
  O  O117  1  0.148523  0.685646  0.763073  1
  O  O118  1  0.754919  0.027699  0.303208  1
  O  O119  1  0.054249  0.191507  0.794079  1
  O  O120  1  0.314354  0.462876  0.096406  1
  O  O121  1  0.663249  0.721607  0.258823  1
  O  O122  1  0.756375  0.751555  0.924909  1
  O  O123  1  0.696469  0.942790  0.861751  1
  O  O124  1  0.708848  0.669814  0.360517  1
  O  O125  1  0.995180  0.243625  0.591576  1
  O  O126  1  0.821871  0.377498  0.108428  1
  O  O127  1  0.941642  0.663249  0.425490  1
  O  O128  1  0.534539  0.179473  0.293010  1
  O  O129  1  0.510711  0.769019  0.116034  1
  O  O130  1  0.145645  0.680735  0.293204  1
  O  O131  1  0.027699  0.272779  0.136541  1
  O  O132  1  0.842581  0.033264  0.428630  1
  O  O133  1  0.330186  0.039034  0.693851  1
  O  O134  1  0.741692  0.510711  0.282700  1
  O  O135  1  0.465461  0.820527  0.793010  1
  O  O136  1  0.341637  0.288477  0.297080  1
  O  O137  1  0.190682  0.157419  0.095297  1
  O  O138  1  0.462876  0.148523  0.929739  1
  O  O139  1  0.680735  0.535090  0.126537  1
  O  O140  1  0.058358  0.336751  0.925490  1
  O  O141  1  0.489289  0.230981  0.616034  1
  O  O142  1  0.769019  0.258308  0.949367  1
  O  O143  1  0.033264  0.190682  0.261964  1
  O  O144  1  0.057210  0.753679  0.195084  1
  O  O145  1  0.964524  0.277281  0.353463  1
  O  O146  1  0.336751  0.278393  0.758823  1
  O  O147  1  0.751555  0.995180  0.758243  1
  O  O148  1  0.303531  0.057210  0.361751  1
  O  O149  1  0.157419  0.966736  0.928630  1
  O  O150  1  0.272779  0.245081  0.969874  1
  O  O151  1  0.258308  0.489289  0.782700  1
  O  O152  1  0.137258  0.945751  0.460746  1
  O  O153  1  0.179473  0.644934  0.126343  1
  O  O154  1  0.248445  0.004820  0.258243  1
  O  O155  1  0.711523  0.053160  0.630413  1
  O  O156  1  0.377498  0.555627  0.941761  1
  O  O157  1  0.035476  0.722719  0.853463  1
  O  O158  1  0.039034  0.708848  0.527184  1
  O  O159  1  0.301364  0.677358  0.024078  1
  O  O160  1  0.243625  0.248445  0.424909  1
  O  O161  1  0.960966  0.291152  0.027184  1
  O  O162  1  0.727221  0.754919  0.469874  1
  O  O163  1  0.191507  0.137258  0.627413  1
  O  O164  1  0.946840  0.658363  0.963746  1
  O  O165  1  0.278393  0.941642  0.592157  1
  O  O166  1  0.753679  0.696469  0.028417  1
  O  O167  1  0.751201  0.268089  0.424710  1
