# generated using pymatgen
data_H8PtO6
_symmetry_space_group_name_H-M   'P 1'
_cell_length_a   5.65018582
_cell_length_b   5.74859884
_cell_length_c   7.52519631
_cell_angle_alpha   88.27092461
_cell_angle_beta   95.61748039
_cell_angle_gamma   101.46614493
_symmetry_Int_Tables_number   1
_chemical_formula_structural   H8PtO6
_chemical_formula_sum   'H16 Pt2 O12'
_cell_volume   238.38038058
_cell_formula_units_Z   2
loop_
 _symmetry_equiv_pos_site_id
 _symmetry_equiv_pos_as_xyz
  1  'x, y, z'
loop_
 _atom_site_type_symbol
 _atom_site_label
 _atom_site_symmetry_multiplicity
 _atom_site_fract_x
 _atom_site_fract_y
 _atom_site_fract_z
 _atom_site_occupancy
  H  H0  1  0.911377  0.716815  0.758745  1
  H  H1  1  0.739551  0.013182  0.728785  1
  H  H2  1  0.861858  0.389578  0.152232  1
  H  H3  1  0.150588  0.512342  0.175661  1
  H  H4  1  0.276657  0.075930  0.247134  1
  H  H5  1  0.468053  0.535616  0.996042  1
  H  H6  1  0.209999  0.606561  0.891834  1
  H  H7  1  0.578269  0.185071  0.367566  1
  H  H8  1  0.555174  0.307934  0.560611  1
  H  H9  1  0.756105  0.392819  0.905262  1
  H  H10  1  0.381360  0.783730  0.410833  1
  H  H11  1  0.423529  0.791066  0.624473  1
  H  H12  1  0.177851  0.153863  0.801505  1
  H  H13  1  0.034658  0.065981  0.516522  1
  H  H14  1  0.954798  0.975707  0.022177  1
  H  H15  1  0.856787  0.823659  0.297766  1
  Pt  Pt16  1  0.998360  0.503384  0.498809  1
  Pt  Pt17  1  0.508060  0.000754  0.000246  1
  O  O18  1  0.967053  0.566257  0.758281  1
  O  O19  1  0.565479  0.990570  0.741590  1
  O  O20  1  0.024049  0.408188  0.240720  1
  O  O21  1  0.427548  0.013604  0.260403  1
  O  O22  1  0.342931  0.642682  0.997213  1
  O  O23  1  0.645957  0.337907  0.453731  1
  O  O24  1  0.664134  0.348251  0.011470  1
  O  O25  1  0.353031  0.675423  0.519068  1
  O  O26  1  0.195044  0.117121  0.933533  1
  O  O27  1  0.122157  0.209157  0.587587  1
  O  O28  1  0.811938  0.873849  0.076024  1
  O  O29  1  0.889827  0.811976  0.431408  1
