# generated using pymatgen
data_CdPd(CN)6
_symmetry_space_group_name_H-M   'P 1'
_cell_length_a   7.81661397
_cell_length_b   7.81663153
_cell_length_c   7.81661984
_cell_angle_alpha   59.99994389
_cell_angle_beta   60.00006878
_cell_angle_gamma   59.99987803
_symmetry_Int_Tables_number   1
_chemical_formula_structural   CdPd(CN)6
_chemical_formula_sum   'Cd1 Pd1 C6 N6'
_cell_volume   337.70845905
_cell_formula_units_Z   1
loop_
 _symmetry_equiv_pos_site_id
 _symmetry_equiv_pos_as_xyz
  1  'x, y, z'
loop_
 _atom_site_type_symbol
 _atom_site_label
 _atom_site_symmetry_multiplicity
 _atom_site_fract_x
 _atom_site_fract_y
 _atom_site_fract_z
 _atom_site_occupancy
  Cd  Cd0  1  0.000000  0.000000  -0.000000  1
  Pd  Pd1  1  0.499998  0.500000  0.499999  1
  C  C2  1  0.317334  0.682667  0.317333  1
  C  C3  1  0.317333  0.682667  0.682667  1
  C  C4  1  0.682668  0.317332  0.317333  1
  C  C5  1  0.317333  0.317334  0.682667  1
  C  C6  1  0.682668  0.682667  0.317333  1
  C  C7  1  0.682669  0.317332  0.682668  1
  N  N8  1  0.788056  0.788055  0.211944  1
  N  N9  1  0.788055  0.211946  0.788054  1
  N  N10  1  0.211944  0.788056  0.788056  1
  N  N11  1  0.788054  0.211946  0.211946  1
  N  N12  1  0.211944  0.788054  0.211945  1
  N  N13  1  0.211945  0.211944  0.788055  1
