# generated using pymatgen
data_Mg5(Si8Pd5)2
_symmetry_space_group_name_H-M   'P 1'
_cell_length_a   8.95331504
_cell_length_b   8.95331666
_cell_length_c   8.95331845
_cell_angle_alpha   59.99979830
_cell_angle_beta   59.99985287
_cell_angle_gamma   59.99970821
_symmetry_Int_Tables_number   1
_chemical_formula_structural   Mg5(Si8Pd5)2
_chemical_formula_sum   'Mg5 Si16 Pd10'
_cell_volume   507.49847556
_cell_formula_units_Z   1
loop_
 _symmetry_equiv_pos_site_id
 _symmetry_equiv_pos_as_xyz
  1  'x, y, z'
loop_
 _atom_site_type_symbol
 _atom_site_label
 _atom_site_symmetry_multiplicity
 _atom_site_fract_x
 _atom_site_fract_y
 _atom_site_fract_z
 _atom_site_occupancy
  Mg  Mg0  1  0.349055  0.349048  0.952850  1
  Mg  Mg1  1  0.349051  0.952851  0.349048  1
  Mg  Mg2  1  0.349048  0.349047  0.349050  1
  Mg  Mg3  1  0.952845  0.349054  0.349050  1
  Mg  Mg4  1  0.999997  0.000001  0.999998  1
  Si  Si5  1  0.413148  0.954660  0.954659  1
  Si  Si6  1  0.413148  0.954659  0.677534  1
  Si  Si7  1  0.954659  0.413147  0.954661  1
  Si  Si8  1  0.954659  0.954659  0.413148  1
  Si  Si9  1  0.954660  0.413147  0.677534  1
  Si  Si10  1  0.413147  0.677533  0.954660  1
  Si  Si11  1  0.954660  0.954658  0.677535  1
  Si  Si12  1  0.677534  0.954659  0.413147  1
  Si  Si13  1  0.677535  0.954659  0.954661  1
  Si  Si14  1  0.677534  0.413146  0.954661  1
  Si  Si15  1  0.572516  0.572515  0.282453  1
  Si  Si16  1  0.572516  0.572515  0.572516  1
  Si  Si17  1  0.954659  0.677534  0.413148  1
  Si  Si18  1  0.572517  0.282453  0.572516  1
  Si  Si19  1  0.282455  0.572516  0.572515  1
  Si  Si20  1  0.954660  0.677534  0.954661  1
  Pd  Pd21  1  0.736982  0.263018  0.736983  1
  Pd  Pd22  1  0.736976  0.263027  0.263014  1
  Pd  Pd23  1  0.263020  0.736984  0.736978  1
  Pd  Pd24  1  0.128621  0.614149  0.128614  1
  Pd  Pd25  1  0.128621  0.128614  0.128617  1
  Pd  Pd26  1  0.128619  0.128618  0.614152  1
  Pd  Pd27  1  0.263015  0.263019  0.736985  1
  Pd  Pd28  1  0.263017  0.736980  0.263016  1
  Pd  Pd29  1  0.614147  0.128619  0.128619  1
  Pd  Pd30  1  0.736981  0.736978  0.263016  1
