# generated using pymatgen
data_Sb3WC6O6F17
_symmetry_space_group_name_H-M   'P 1'
_cell_length_a   8.33028902
_cell_length_b   8.39199112
_cell_length_c   16.91103575
_cell_angle_alpha   90.00000000
_cell_angle_beta   90.00000000
_cell_angle_gamma   111.46481132
_symmetry_Int_Tables_number   1
_chemical_formula_structural   Sb3WC6O6F17
_chemical_formula_sum   'Sb6 W2 C12 O12 F34'
_cell_volume   1100.21653187
_cell_formula_units_Z   2
loop_
 _symmetry_equiv_pos_site_id
 _symmetry_equiv_pos_as_xyz
  1  'x, y, z'
loop_
 _atom_site_type_symbol
 _atom_site_label
 _atom_site_symmetry_multiplicity
 _atom_site_fract_x
 _atom_site_fract_y
 _atom_site_fract_z
 _atom_site_occupancy
  Sb  Sb0  1  0.133263  0.119135  0.685793  1
  Sb  Sb1  1  0.492771  0.430010  0.236173  1
  Sb  Sb2  1  0.866737  0.880865  0.185793  1
  Sb  Sb3  1  0.507229  0.569990  0.736173  1
  Sb  Sb4  1  0.652133  0.099973  0.493993  1
  Sb  Sb5  1  0.347867  0.900027  0.993993  1
  W  W6  1  0.179883  0.736401  0.448242  1
  W  W7  1  0.820117  0.263599  0.948242  1
  C  C8  1  0.072021  0.537561  0.366817  1
  C  C9  1  0.101088  0.677076  0.570421  1
  C  C10  1  0.716721  0.457190  0.978546  1
  C  C11  1  0.898912  0.322924  0.070421  1
  C  C12  1  0.090164  0.341358  0.948368  1
  C  C13  1  0.695577  0.173430  0.835223  1
  C  C14  1  0.871782  0.031289  0.928132  1
  C  C15  1  0.909836  0.658642  0.448368  1
  C  C16  1  0.304423  0.826570  0.335223  1
  C  C17  1  0.283279  0.542810  0.478546  1
  C  C18  1  0.927979  0.462439  0.866817  1
  C  C19  1  0.128218  0.968711  0.428132  1
  O  O20  1  0.059922  0.642158  0.634344  1
  O  O21  1  0.763143  0.619808  0.452178  1
  O  O22  1  0.359832  0.869316  0.273798  1
  O  O23  1  0.940078  0.357842  0.134344  1
  O  O24  1  0.023178  0.428460  0.321605  1
  O  O25  1  0.099900  0.089110  0.414730  1
  O  O26  1  0.640168  0.130684  0.773798  1
  O  O27  1  0.661693  0.558255  0.996320  1
  O  O28  1  0.236857  0.380192  0.952178  1
  O  O29  1  0.900100  0.910890  0.914730  1
  O  O30  1  0.338307  0.441745  0.496320  1
  O  O31  1  0.976822  0.571540  0.821605  1
  F  F32  1  0.299364  0.555308  0.787179  1
  F  F33  1  0.957660  0.722300  0.142295  1
  F  F34  1  0.362017  0.215041  0.281794  1
  F  F35  1  0.659316  0.016530  0.389794  1
  F  F36  1  0.513681  0.219828  0.454613  1
  F  F37  1  0.443642  0.553819  0.322428  1
  F  F38  1  0.439336  0.661039  0.644267  1
  F  F39  1  0.418418  0.892866  0.502328  1
  F  F40  1  0.924119  0.926973  0.679796  1
  F  F41  1  0.386744  0.848006  0.099405  1
  F  F42  1  0.239487  0.050828  0.029805  1
  F  F43  1  0.364260  0.327980  0.689416  1
  F  F44  1  0.556358  0.446181  0.822428  1
  F  F45  1  0.700636  0.444692  0.287179  1
  F  F46  1  0.613256  0.151994  0.599405  1
  F  F47  1  0.916066  0.819229  0.289592  1
  F  F48  1  0.560664  0.338961  0.144267  1
  F  F49  1  0.635740  0.672020  0.189416  1
  F  F50  1  0.760513  0.949172  0.529805  1
  F  F51  1  0.581582  0.107134  0.002328  1
  F  F52  1  0.075881  0.073027  0.179796  1
  F  F53  1  0.340684  0.983470  0.889794  1
  F  F54  1  0.637983  0.784959  0.781794  1
  F  F55  1  0.042340  0.277700  0.642295  1
  F  F56  1  0.260134  0.993661  0.729335  1
  F  F57  1  0.691927  0.543269  0.679064  1
  F  F58  1  0.798436  0.923479  0.082088  1
  F  F59  1  0.308073  0.456731  0.179064  1
  F  F60  1  0.083934  0.180771  0.789592  1
  F  F61  1  0.863348  0.292888  0.482798  1
  F  F62  1  0.136652  0.707112  0.982798  1
  F  F63  1  0.201564  0.076521  0.582088  1
  F  F64  1  0.486319  0.780173  0.954613  1
  F  F65  1  0.739866  0.006339  0.229335  1
