# generated using pymatgen
data_Nb(PO3)4
_symmetry_space_group_name_H-M   'P 1'
_cell_length_a   7.46663856
_cell_length_b   7.46678155
_cell_length_c   10.10530966
_cell_angle_alpha   79.45219123
_cell_angle_beta   72.59677334
_cell_angle_gamma   110.34099764
_symmetry_Int_Tables_number   1
_chemical_formula_structural   Nb(PO3)4
_chemical_formula_sum   'Nb2 P8 O24'
_cell_volume   477.43301276
_cell_formula_units_Z   2
loop_
 _symmetry_equiv_pos_site_id
 _symmetry_equiv_pos_as_xyz
  1  'x, y, z'
loop_
 _atom_site_type_symbol
 _atom_site_label
 _atom_site_symmetry_multiplicity
 _atom_site_fract_x
 _atom_site_fract_y
 _atom_site_fract_z
 _atom_site_occupancy
  O  O0  1  0.536555  0.738976  0.963919  1
  O  O1  1  0.990004  0.370250  0.819166  1
  O  O2  1  0.009996  0.629750  0.180834  1
  O  O3  1  0.102450  0.247843  0.099098  1
  O  O4  1  0.177434  0.750484  0.351072  1
  O  O5  1  0.153008  0.798287  0.599203  1
  O  O6  1  0.202922  0.500417  0.536135  1
  O  O7  1  0.100562  0.148816  0.674685  1
  O  O8  1  0.310411  0.190681  0.319143  1
  O  O9  1  0.494845  0.843755  0.405117  1
  O  O10  1  0.463445  0.261025  0.036080  1
  O  O11  1  0.323640  0.775387  0.825331  1
  O  O12  1  0.601519  0.528379  0.148988  1
  O  O13  1  0.748753  0.899838  0.095000  1
  O  O14  1  0.251247  0.100162  0.905000  1
  O  O15  1  0.822567  0.249518  0.648927  1
  O  O16  1  0.676360  0.224612  0.174669  1
  O  O17  1  0.897550  0.752157  0.900902  1
  O  O18  1  0.505155  0.156246  0.594883  1
  O  O19  1  0.689588  0.809319  0.680857  1
  O  O20  1  0.899438  0.851185  0.325315  1
  O  O21  1  0.797078  0.499584  0.463865  1
  O  O22  1  0.846992  0.201712  0.400797  1
  O  O23  1  0.398481  0.471621  0.851012  1
  P  P24  1  0.286536  0.260705  0.976798  1
  P  P25  1  0.737520  0.263409  0.523127  1
  P  P26  1  0.029015  0.318033  0.683881  1
  P  P27  1  0.262480  0.736591  0.476873  1
  P  P28  1  0.713464  0.739295  0.023203  1
  P  P29  1  0.497990  0.287027  0.183844  1
  P  P30  1  0.502009  0.712972  0.816156  1
  P  P31  1  0.970985  0.681966  0.316119  1
  Nb  Nb32  1  0.798265  0.048291  0.250000  1
  Nb  Nb33  1  0.201735  0.951709  0.750000  1
