# generated using pymatgen
data_Na3(W2O3)2
_symmetry_space_group_name_H-M   'P 1'
_cell_length_a   6.47914062
_cell_length_b   6.47914012
_cell_length_c   6.47914007
_cell_angle_alpha   106.66321033
_cell_angle_beta   118.97950266
_cell_angle_gamma   103.22395283
_symmetry_Int_Tables_number   1
_chemical_formula_structural   Na3(W2O3)2
_chemical_formula_sum   'Na3 W4 O6'
_cell_volume   204.83328199
_cell_formula_units_Z   1
loop_
 _symmetry_equiv_pos_site_id
 _symmetry_equiv_pos_as_xyz
  1  'x, y, z'
loop_
 _atom_site_type_symbol
 _atom_site_label
 _atom_site_symmetry_multiplicity
 _atom_site_fract_x
 _atom_site_fract_y
 _atom_site_fract_z
 _atom_site_occupancy
  Na  Na0  1  0.994077  0.500000  0.494077  1
  Na  Na1  1  0.483127  1.000000  0.483127  1
  Na  Na2  1  0.530353  0.500000  0.030353  1
  W  W3  1  0.509826  0.511177  0.520487  1
  W  W4  1  0.509826  0.989339  0.998648  1
  W  W5  1  0.009310  0.488823  0.998648  1
  W  W6  1  0.009310  0.010661  0.520487  1
  O  O7  1  0.267447  0.292453  0.559900  1
  O  O8  1  0.267447  0.707547  0.974994  1
  O  O9  1  0.749945  0.781295  0.531240  1
  O  O10  1  0.516593  0.257900  0.258694  1
  O  O11  1  0.000794  0.742100  0.258694  1
  O  O12  1  0.749945  0.218705  0.968650  1
