# generated using pymatgen
data_Cu25Se26
_symmetry_space_group_name_H-M   'P 1'
_cell_length_a   14.42558681
_cell_length_b   14.42071233
_cell_length_c   17.34173474
_cell_angle_alpha   90.00000000
_cell_angle_beta   90.00000000
_cell_angle_gamma   120.06861507
_symmetry_Int_Tables_number   1
_chemical_formula_structural   Cu25Se26
_chemical_formula_sum   'Cu75 Se78'
_cell_volume   3122.07032422
_cell_formula_units_Z   3
loop_
 _symmetry_equiv_pos_site_id
 _symmetry_equiv_pos_as_xyz
  1  'x, y, z'
loop_
 _atom_site_type_symbol
 _atom_site_label
 _atom_site_symmetry_multiplicity
 _atom_site_fract_x
 _atom_site_fract_y
 _atom_site_fract_z
 _atom_site_occupancy
  Cu  Cu0  1  0.128467  0.948900  0.390449  1
  Cu  Cu1  1  0.128467  0.948900  0.109551  1
  Cu  Cu2  1  0.025413  0.589743  0.606551  1
  Cu  Cu3  1  0.025413  0.589743  0.893449  1
  Cu  Cu4  1  0.255883  0.896172  0.890636  1
  Cu  Cu5  1  0.255883  0.896172  0.609364  1
  Cu  Cu6  1  0.206543  0.722002  0.750000  1
  Cu  Cu7  1  0.204124  0.718173  0.387306  1
  Cu  Cu8  1  0.204124  0.718173  0.112694  1
  Cu  Cu9  1  0.103803  0.359986  0.606491  1
  Cu  Cu10  1  0.103803  0.359986  0.893509  1
  Cu  Cu11  1  0.100286  0.360043  0.250000  1
  Cu  Cu12  1  0.050514  0.178901  0.106652  1
  Cu  Cu13  1  0.053541  0.178341  0.750000  1
  Cu  Cu14  1  0.050514  0.178901  0.393348  1
  Cu  Cu15  1  0.329386  0.668597  0.250000  1
  Cu  Cu16  1  0.333292  0.666983  0.893526  1
  Cu  Cu17  1  0.333292  0.666983  0.606474  1
  Cu  Cu18  1  0.281392  0.486380  0.393119  1
  Cu  Cu19  1  0.282213  0.487293  0.750000  1
  Cu  Cu20  1  0.281392  0.486380  0.106881  1
  Cu  Cu21  1  0.563730  0.974443  0.606393  1
  Cu  Cu22  1  0.563730  0.974443  0.893607  1
  Cu  Cu23  1  0.561983  0.975333  0.250000  1
  Cu  Cu24  1  0.512849  0.794767  0.750000  1
  Cu  Cu25  1  0.513236  0.795815  0.106843  1
  Cu  Cu26  1  0.513236  0.795815  0.393157  1
  Cu  Cu27  1  0.177588  0.124443  0.250000  1
  Cu  Cu28  1  0.179392  0.128175  0.609469  1
  Cu  Cu29  1  0.179392  0.128175  0.890531  1
  Cu  Cu30  1  0.410515  0.435903  0.250000  1
  Cu  Cu31  1  0.410545  0.435774  0.606562  1
  Cu  Cu32  1  0.410545  0.435774  0.893438  1
  Cu  Cu33  1  0.359529  0.255741  0.106740  1
  Cu  Cu34  1  0.355214  0.253780  0.750000  1
  Cu  Cu35  1  0.359529  0.255741  0.393260  1
  Cu  Cu36  1  0.640475  0.743693  0.606572  1
  Cu  Cu37  1  0.640475  0.743693  0.893428  1
  Cu  Cu38  1  0.641745  0.743709  0.250000  1
  Cu  Cu39  1  0.589379  0.564365  0.393273  1
  Cu  Cu40  1  0.589542  0.564087  0.750000  1
  Cu  Cu41  1  0.589379  0.564365  0.106727  1
  Cu  Cu42  1  0.820751  0.871636  0.106570  1
  Cu  Cu43  1  0.820751  0.871636  0.393430  1
  Cu  Cu44  1  0.823160  0.870466  0.750000  1
  Cu  Cu45  1  0.485706  0.200637  0.250000  1
  Cu  Cu46  1  0.485917  0.204011  0.893289  1
  Cu  Cu47  1  0.485917  0.204011  0.606711  1
  Cu  Cu48  1  0.435644  0.025136  0.390575  1
  Cu  Cu49  1  0.435644  0.025136  0.109425  1
  Cu  Cu50  1  0.432648  0.023381  0.750000  1
  Cu  Cu51  1  0.718315  0.513739  0.893478  1
  Cu  Cu52  1  0.721338  0.514725  0.250000  1
  Cu  Cu53  1  0.718315  0.513739  0.606522  1
  Cu  Cu54  1  0.667064  0.333593  0.393156  1
  Cu  Cu55  1  0.667064  0.333593  0.106844  1
  Cu  Cu56  1  0.666839  0.333853  0.750000  1
  Cu  Cu57  1  0.950657  0.819625  0.250000  1
  Cu  Cu58  1  0.949509  0.820634  0.609398  1
  Cu  Cu59  1  0.949509  0.820634  0.890602  1
  Cu  Cu60  1  0.898524  0.644389  0.750000  1
  Cu  Cu61  1  0.897109  0.640682  0.390578  1
  Cu  Cu62  1  0.897109  0.640682  0.109422  1
  Cu  Cu63  1  0.795615  0.282029  0.606589  1
  Cu  Cu64  1  0.795615  0.282029  0.893411  1
  Cu  Cu65  1  0.798837  0.284766  0.250000  1
  Cu  Cu66  1  0.743804  0.103753  0.393384  1
  Cu  Cu67  1  0.743804  0.103753  0.106616  1
  Cu  Cu68  1  0.743283  0.102357  0.750000  1
  Cu  Cu69  1  0.974716  0.410198  0.750000  1
  Cu  Cu70  1  0.974954  0.410819  0.109486  1
  Cu  Cu71  1  0.974954  0.410819  0.390514  1
  Cu  Cu72  1  0.872000  0.050933  0.606734  1
  Cu  Cu73  1  0.872000  0.050933  0.893266  1
  Cu  Cu74  1  0.871664  0.051266  0.250000  1
  Se  Se75  1  0.131630  0.946565  0.250000  1
  Se  Se76  1  0.076232  0.769145  0.070788  1
  Se  Se77  1  0.076232  0.769145  0.429212  1
  Se  Se78  1  0.076845  0.769255  0.568936  1
  Se  Se79  1  0.076845  0.769255  0.931064  1
  Se  Se80  1  0.025878  0.589732  0.750000  1
  Se  Se81  1  0.251406  0.899731  0.750000  1
  Se  Se82  1  0.203048  0.718963  0.250000  1
  Se  Se83  1  0.154097  0.539785  0.428886  1
  Se  Se84  1  0.154097  0.539785  0.071114  1
  Se  Se85  1  0.153709  0.538771  0.568558  1
  Se  Se86  1  0.153709  0.538771  0.931442  1
  Se  Se87  1  0.102443  0.358149  0.750000  1
  Se  Se88  1  0.384124  0.846386  0.931284  1
  Se  Se89  1  0.051863  0.180262  0.250000  1
  Se  Se90  1  0.384124  0.846386  0.568716  1
  Se  Se91  1  0.383307  0.845378  0.429096  1
  Se  Se92  1  0.383307  0.845378  0.070904  1
  Se  Se93  1  0.000643  0.999781  0.069298  1
  Se  Se94  1  0.000312  0.999718  0.570280  1
  Se  Se95  1  0.332661  0.666802  0.750000  1
  Se  Se96  1  0.282920  0.488020  0.250000  1
  Se  Se97  1  0.563254  0.974469  0.750000  1
  Se  Se98  1  0.230900  0.307006  0.569947  1
  Se  Se99  1  0.230900  0.307006  0.930053  1
  Se  Se100  1  0.230954  0.307029  0.069769  1
  Se  Se101  1  0.230954  0.307029  0.430231  1
  Se  Se102  1  0.513135  0.794580  0.250000  1
  Se  Se103  1  0.177205  0.120894  0.750000  1
  Se  Se104  1  0.461189  0.615173  0.569748  1
  Se  Se105  1  0.461189  0.615173  0.930252  1
  Se  Se106  1  0.461317  0.615589  0.069909  1
  Se  Se107  1  0.461317  0.615589  0.430091  1
  Se  Se108  1  0.410004  0.435087  0.750000  1
  Se  Se109  1  0.692262  0.923595  0.569712  1
  Se  Se110  1  0.692262  0.923595  0.930288  1
  Se  Se111  1  0.358704  0.256091  0.250000  1
  Se  Se112  1  0.693303  0.923986  0.429918  1
  Se  Se113  1  0.693303  0.923986  0.070082  1
  Se  Se114  1  0.306149  0.075393  0.930066  1
  Se  Se115  1  0.306149  0.075393  0.569934  1
  Se  Se116  1  0.641635  0.743871  0.750000  1
  Se  Se117  1  0.307511  0.076033  0.430325  1
  Se  Se118  1  0.307511  0.076033  0.069675  1
  Se  Se119  1  0.590726  0.563895  0.250000  1
  Se  Se120  1  0.538862  0.384369  0.930044  1
  Se  Se121  1  0.538862  0.384369  0.569956  1
  Se  Se122  1  0.538764  0.384625  0.069641  1
  Se  Se123  1  0.538764  0.384625  0.430359  1
  Se  Se124  1  0.821725  0.871704  0.250000  1
  Se  Se125  1  0.487347  0.205538  0.750000  1
  Se  Se126  1  0.769828  0.693649  0.569886  1
  Se  Se127  1  0.769828  0.693649  0.930114  1
  Se  Se128  1  0.769357  0.691785  0.430306  1
  Se  Se129  1  0.769357  0.691785  0.069694  1
  Se  Se130  1  0.428144  0.019327  0.250000  1
  Se  Se131  1  0.718788  0.513578  0.750000  1
  Se  Se132  1  0.665586  0.332196  0.250000  1
  Se  Se133  1  0.615341  0.154467  0.569773  1
  Se  Se134  1  0.615341  0.154467  0.930227  1
  Se  Se135  1  0.614364  0.153678  0.430192  1
  Se  Se136  1  0.956070  0.825503  0.750000  1
  Se  Se137  1  0.614364  0.153678  0.069808  1
  Se  Se138  1  0.901381  0.639881  0.250000  1
  Se  Se139  1  0.846560  0.461676  0.070403  1
  Se  Se140  1  0.846560  0.461676  0.429597  1
  Se  Se141  1  0.845966  0.461444  0.930799  1
  Se  Se142  1  0.845966  0.461444  0.569201  1
  Se  Se143  1  0.794821  0.282239  0.750000  1
  Se  Se144  1  0.743204  0.102982  0.250000  1
  Se  Se145  1  0.977183  0.418036  0.250000  1
  Se  Se146  1  0.923611  0.231924  0.069989  1
  Se  Se147  1  0.923611  0.231924  0.430011  1
  Se  Se148  1  0.924024  0.230721  0.569677  1
  Se  Se149  1  0.924024  0.230721  0.930323  1
  Se  Se150  1  0.871484  0.051006  0.750000  1
  Se  Se151  1  0.000643  0.999781  0.430702  1
  Se  Se152  1  0.000312  0.999718  0.929720  1
