# generated using pymatgen
data_Cr6PbO18
_symmetry_space_group_name_H-M   'P 1'
_cell_length_a   7.40198737
_cell_length_b   11.11614876
_cell_length_c   6.42765885
_cell_angle_alpha   54.61495752
_cell_angle_beta   54.84489708
_cell_angle_gamma   90.00000022
_symmetry_Int_Tables_number   1
_chemical_formula_structural   Cr6PbO18
_chemical_formula_sum   'Cr6 Pb1 O18'
_cell_volume   305.26095141
_cell_formula_units_Z   1
loop_
 _symmetry_equiv_pos_site_id
 _symmetry_equiv_pos_as_xyz
  1  'x, y, z'
loop_
 _atom_site_type_symbol
 _atom_site_label
 _atom_site_symmetry_multiplicity
 _atom_site_fract_x
 _atom_site_fract_y
 _atom_site_fract_z
 _atom_site_occupancy
  Cr  Cr0  1  0.497964  0.322691  0.516006  1
  Cr  Cr1  1  0.500000  0.666667  0.500000  1
  Cr  Cr2  1  0.502036  0.010642  0.483994  1
  Cr  Cr3  1  0.986029  0.322691  0.516006  1
  Cr  Cr4  1  0.000000  0.666667  0.500000  1
  Cr  Cr5  1  0.013971  0.010642  0.483994  1
  Pb  Pb6  1  0.500000  0.666667  0.000000  1
  O  O7  1  0.250615  0.166667  1.000000  1
  O  O8  1  0.255823  0.503490  -0.001732  1
  O  O9  1  0.254091  0.829843  0.001732  1
  O  O10  1  0.000000  0.166667  0.500000  1
  O  O11  1  0.008145  0.503357  0.492494  1
  O  O12  1  0.991855  0.829976  0.507506  1
  O  O13  1  0.254084  0.338813  0.491831  1
  O  O14  1  0.254227  0.666758  0.491546  1
  O  O15  1  0.249873  -0.000073  0.500253  1
  O  O16  1  0.749385  0.166667  0.000000  1
  O  O17  1  0.745909  0.503490  -0.001732  1
  O  O18  1  0.500000  0.166667  0.500000  1
  O  O19  1  0.499361  0.503357  0.492494  1
  O  O20  1  0.744177  0.829843  0.001732  1
  O  O21  1  0.500639  0.829976  0.507506  1
  O  O22  1  0.750127  0.333406  0.499747  1
  O  O23  1  0.745773  0.666576  0.508454  1
  O  O24  1  0.745916  0.994520  0.508169  1
