# generated using pymatgen
data_KNi4(PO4)3
_symmetry_space_group_name_H-M   'P 1'
_cell_length_a   6.20237724
_cell_length_b   9.59376788
_cell_length_c   16.38161642
_cell_angle_alpha   90.00000000
_cell_angle_beta   90.00000000
_cell_angle_gamma   90.00000000
_symmetry_Int_Tables_number   1
_chemical_formula_structural   KNi4(PO4)3
_chemical_formula_sum   'K4 Ni16 P12 O48'
_cell_volume   974.77444811
_cell_formula_units_Z   4
loop_
 _symmetry_equiv_pos_site_id
 _symmetry_equiv_pos_as_xyz
  1  'x, y, z'
loop_
 _atom_site_type_symbol
 _atom_site_label
 _atom_site_symmetry_multiplicity
 _atom_site_fract_x
 _atom_site_fract_y
 _atom_site_fract_z
 _atom_site_occupancy
  O  O0  1  0.500000  0.135058  0.519831  1
  O  O1  1  0.500000  0.864942  0.480169  1
  O  O2  1  0.000000  0.635058  0.980169  1
  O  O3  1  0.000000  0.364942  0.019831  1
  O  O4  1  0.208435  0.393615  0.317448  1
  O  O5  1  0.208435  0.606385  0.682552  1
  O  O6  1  0.291565  0.893615  0.182552  1
  O  O7  1  0.291565  0.106385  0.817448  1
  O  O8  1  0.791565  0.606385  0.682552  1
  O  O9  1  0.791565  0.393615  0.317448  1
  O  O10  1  0.708435  0.106385  0.817448  1
  O  O11  1  0.708435  0.893615  0.182552  1
  O  O12  1  0.698538  0.659368  0.409879  1
  O  O13  1  0.698538  0.340632  0.590121  1
  O  O14  1  0.801462  0.159368  0.090121  1
  O  O15  1  0.801462  0.840632  0.909879  1
  O  O16  1  0.301462  0.340632  0.590121  1
  O  O17  1  0.301462  0.659368  0.409879  1
  O  O18  1  0.198538  0.840632  0.909879  1
  O  O19  1  0.799101  0.087342  0.383242  1
  O  O20  1  0.198538  0.159368  0.090121  1
  O  O21  1  0.500000  0.365577  0.453929  1
  O  O22  1  0.000000  0.134423  0.953929  1
  O  O23  1  0.000000  0.865577  0.046071  1
  O  O24  1  0.000000  0.888005  0.751802  1
  O  O25  1  0.000000  0.111995  0.248198  1
  O  O26  1  0.500000  0.388005  0.748198  1
  O  O27  1  0.500000  0.611995  0.251802  1
  O  O28  1  0.500000  0.109164  0.689231  1
  O  O29  1  0.500000  0.890836  0.310769  1
  O  O30  1  0.000000  0.609164  0.810769  1
  O  O31  1  0.000000  0.390836  0.189231  1
  O  O32  1  0.500000  0.377624  0.174335  1
  O  O33  1  0.500000  0.622376  0.825665  1
  O  O34  1  0.000000  0.877624  0.325665  1
  O  O35  1  0.000000  0.122376  0.674335  1
  O  O36  1  0.500000  0.114732  0.225886  1
  O  O37  1  0.500000  0.885268  0.774114  1
  O  O38  1  0.000000  0.614732  0.274114  1
  O  O39  1  0.000000  0.385268  0.725886  1
  O  O40  1  0.299101  0.587342  0.116758  1
  O  O41  1  0.299101  0.412658  0.883242  1
  O  O42  1  0.200899  0.087342  0.383242  1
  O  O43  1  0.200899  0.912658  0.616758  1
  O  O44  1  0.700899  0.412658  0.883242  1
  O  O45  1  0.700899  0.587342  0.116758  1
  O  O46  1  0.799101  0.912658  0.616758  1
  O  O47  1  0.500000  0.634423  0.546071  1
  P  P48  1  0.500000  0.294620  0.536233  1
  P  P49  1  0.500000  0.705380  0.463767  1
  P  P50  1  0.000000  0.794620  0.963767  1
  P  P51  1  0.000000  0.205380  0.036233  1
  P  P52  1  0.000000  0.546526  0.720378  1
  P  P53  1  0.000000  0.453474  0.279622  1
  P  P54  1  0.500000  0.046526  0.779622  1
  P  P55  1  0.500000  0.539385  0.162256  1
  P  P56  1  0.500000  0.953474  0.220378  1
  P  P57  1  0.000000  0.039385  0.337744  1
  P  P58  1  0.500000  0.460615  0.837744  1
  P  P59  1  0.000000  0.960615  0.662256  1
  K  K60  1  0.500000  0.201825  0.967607  1
  K  K61  1  0.000000  0.298175  0.467607  1
  K  K62  1  0.000000  0.701825  0.532393  1
  K  K63  1  0.500000  0.798175  0.032393  1
  Ni  Ni64  1  0.749498  0.751734  0.796122  1
  Ni  Ni65  1  0.249498  0.748266  0.296122  1
  Ni  Ni66  1  0.250502  0.751734  0.796122  1
  Ni  Ni67  1  0.250502  0.248266  0.203878  1
  Ni  Ni68  1  0.500000  0.511071  0.642412  1
  Ni  Ni69  1  0.500000  0.488929  0.357588  1
  Ni  Ni70  1  0.000000  0.011071  0.857588  1
  Ni  Ni71  1  0.000000  0.988929  0.142412  1
  Ni  Ni72  1  0.500000  0.966938  0.592122  1
  Ni  Ni73  1  0.500000  0.033062  0.407878  1
  Ni  Ni74  1  0.000000  0.466938  0.907878  1
  Ni  Ni75  1  0.000000  0.533062  0.092122  1
  Ni  Ni76  1  0.749498  0.248266  0.203878  1
  Ni  Ni77  1  0.750502  0.251734  0.703878  1
  Ni  Ni78  1  0.750502  0.748266  0.296122  1
  Ni  Ni79  1  0.249498  0.251734  0.703878  1
