# generated using pymatgen
data_HgB(CN)4
_symmetry_space_group_name_H-M   'P 1'
_cell_length_a   5.76624036
_cell_length_b   7.55094156
_cell_length_c   33.25757142
_cell_angle_alpha   90.00000000
_cell_angle_beta   90.00000000
_cell_angle_gamma   90.00000000
_symmetry_Int_Tables_number   1
_chemical_formula_structural   HgB(CN)4
_chemical_formula_sum   'Hg8 B8 C32 N32'
_cell_volume   1448.05275106
_cell_formula_units_Z   8
loop_
 _symmetry_equiv_pos_site_id
 _symmetry_equiv_pos_as_xyz
  1  'x, y, z'
loop_
 _atom_site_type_symbol
 _atom_site_label
 _atom_site_symmetry_multiplicity
 _atom_site_fract_x
 _atom_site_fract_y
 _atom_site_fract_z
 _atom_site_occupancy
  Hg  Hg0  1  0.892764  0.750000  0.603796  1
  Hg  Hg1  1  0.107236  0.750000  0.103796  1
  Hg  Hg2  1  0.592639  0.750000  0.662519  1
  Hg  Hg3  1  0.107236  0.250000  0.396204  1
  Hg  Hg4  1  0.592639  0.250000  0.837481  1
  Hg  Hg5  1  0.407361  0.750000  0.162519  1
  Hg  Hg6  1  0.892764  0.250000  0.896204  1
  Hg  Hg7  1  0.407361  0.250000  0.337481  1
  B  B8  1  0.355842  0.250000  0.544967  1
  B  B9  1  0.644158  0.250000  0.044967  1
  B  B10  1  0.025930  0.750000  0.804207  1
  B  B11  1  0.974070  0.250000  0.195793  1
  B  B12  1  0.644158  0.750000  0.455033  1
  B  B13  1  0.025930  0.250000  0.695793  1
  B  B14  1  0.355842  0.750000  0.955033  1
  B  B15  1  0.974070  0.750000  0.304207  1
  C  C16  1  0.189852  0.080989  0.692296  1
  C  C17  1  0.189852  0.580989  0.807704  1
  C  C18  1  0.730848  0.750000  0.500707  1
  C  C19  1  0.108992  0.250000  0.237560  1
  C  C20  1  0.260260  0.579437  0.931969  1
  C  C21  1  0.739740  0.420563  0.068031  1
  C  C22  1  0.260260  0.920563  0.931969  1
  C  C23  1  0.891008  0.250000  0.737560  1
  C  C24  1  0.810148  0.580989  0.307704  1
  C  C25  1  0.630133  0.750000  0.956731  1
  C  C26  1  0.269152  0.250000  0.499293  1
  C  C27  1  0.260260  0.079437  0.568031  1
  C  C28  1  0.189852  0.919011  0.807704  1
  C  C29  1  0.739740  0.920563  0.431969  1
  C  C30  1  0.369867  0.750000  0.456731  1
  C  C31  1  0.369867  0.250000  0.043269  1
  C  C32  1  0.739740  0.579437  0.431969  1
  C  C33  1  0.739740  0.079437  0.068031  1
  C  C34  1  0.108992  0.750000  0.262440  1
  C  C35  1  0.810148  0.080989  0.192296  1
  C  C36  1  0.630133  0.250000  0.543269  1
  C  C37  1  0.260260  0.420563  0.568031  1
  C  C38  1  0.834454  0.250000  0.661611  1
  C  C39  1  0.165546  0.250000  0.161611  1
  C  C40  1  0.810148  0.419011  0.192296  1
  C  C41  1  0.269152  0.750000  0.000707  1
  C  C42  1  0.891008  0.750000  0.762440  1
  C  C43  1  0.165546  0.750000  0.338389  1
  C  C44  1  0.810148  0.919011  0.307704  1
  C  C45  1  0.189852  0.419011  0.692296  1
  C  C46  1  0.730848  0.250000  0.999293  1
  C  C47  1  0.834454  0.750000  0.838389  1
  N  N48  1  0.169099  0.250000  0.039632  1
  N  N49  1  0.224221  0.250000  0.465267  1
  N  N50  1  0.809670  0.042725  0.414364  1
  N  N51  1  0.779212  0.250000  0.766752  1
  N  N52  1  0.685456  0.960509  0.189289  1
  N  N53  1  0.681929  0.750000  0.861455  1
  N  N54  1  0.809670  0.457275  0.414364  1
  N  N55  1  0.224221  0.750000  0.034733  1
  N  N56  1  0.314544  0.460509  0.810711  1
  N  N57  1  0.190330  0.542725  0.585636  1
  N  N58  1  0.685456  0.460509  0.310711  1
  N  N59  1  0.809670  0.542725  0.085636  1
  N  N60  1  0.685456  0.539491  0.189289  1
  N  N61  1  0.830901  0.750000  0.960368  1
  N  N62  1  0.775779  0.750000  0.534733  1
  N  N63  1  0.809670  0.957275  0.085636  1
  N  N64  1  0.830901  0.250000  0.539632  1
  N  N65  1  0.220788  0.250000  0.266752  1
  N  N66  1  0.318071  0.750000  0.361455  1
  N  N67  1  0.190330  0.957275  0.585636  1
  N  N68  1  0.314544  0.539491  0.689289  1
  N  N69  1  0.220788  0.750000  0.233248  1
  N  N70  1  0.314544  0.960509  0.689289  1
  N  N71  1  0.169099  0.750000  0.460368  1
  N  N72  1  0.190330  0.457275  0.914364  1
  N  N73  1  0.190330  0.042725  0.914364  1
  N  N74  1  0.681929  0.250000  0.638545  1
  N  N75  1  0.779212  0.750000  0.733248  1
  N  N76  1  0.318071  0.250000  0.138545  1
  N  N77  1  0.314544  0.039491  0.810711  1
  N  N78  1  0.775779  0.250000  0.965267  1
  N  N79  1  0.685456  0.039491  0.310711  1
