# generated using pymatgen
data_Na3YH12(CO5)3
_symmetry_space_group_name_H-M   'P 1'
_cell_length_a   11.68575045
_cell_length_b   11.68575021
_cell_length_c   5.85712209
_cell_angle_alpha   90.00000000
_cell_angle_beta   90.00000000
_cell_angle_gamma   120.00000065
_symmetry_Int_Tables_number   1
_chemical_formula_structural   Na3YH12(CO5)3
_chemical_formula_sum   'Na6 Y2 H24 C6 O30'
_cell_volume   692.67276495
_cell_formula_units_Z   2
loop_
 _symmetry_equiv_pos_site_id
 _symmetry_equiv_pos_as_xyz
  1  'x, y, z'
loop_
 _atom_site_type_symbol
 _atom_site_label
 _atom_site_symmetry_multiplicity
 _atom_site_fract_x
 _atom_site_fract_y
 _atom_site_fract_z
 _atom_site_occupancy
  Na  Na0  1  0.637665  0.633608  0.172946  1
  Na  Na1  1  0.995943  0.362335  0.172946  1
  Na  Na2  1  0.366392  0.004057  0.172946  1
  Na  Na3  1  0.362335  0.366392  0.672946  1
  Na  Na4  1  0.633608  0.995943  0.672946  1
  Na  Na5  1  0.004057  0.637665  0.672946  1
  Y  Y6  1  0.333333  0.666667  0.912319  1
  Y  Y7  1  0.666667  0.333333  0.412319  1
  H  H8  1  0.111635  0.680160  0.150056  1
  H  H9  1  0.131845  0.001259  0.939620  1
  H  H10  1  0.094945  0.235609  0.542540  1
  H  H11  1  0.319840  0.431475  0.150056  1
  H  H12  1  0.680160  0.568525  0.650056  1
  H  H13  1  0.568525  0.888365  0.150056  1
  H  H14  1  0.431475  0.111635  0.650056  1
  H  H15  1  0.218550  0.718050  0.354118  1
  H  H16  1  0.281950  0.500501  0.354118  1
  H  H17  1  0.130586  0.131845  0.439620  1
  H  H18  1  0.905055  0.764391  0.042540  1
  H  H19  1  0.888365  0.319840  0.650056  1
  H  H20  1  0.869414  0.868155  0.939620  1
  H  H21  1  0.781450  0.281950  0.854118  1
  H  H22  1  0.001259  0.869414  0.439620  1
  H  H23  1  0.998741  0.130586  0.939620  1
  H  H24  1  0.764391  0.859337  0.542540  1
  H  H25  1  0.499499  0.781450  0.354118  1
  H  H26  1  0.500501  0.218550  0.854118  1
  H  H27  1  0.235609  0.140663  0.042540  1
  H  H28  1  0.868155  0.998741  0.439620  1
  H  H29  1  0.718050  0.499499  0.854118  1
  H  H30  1  0.140663  0.905055  0.542540  1
  H  H31  1  0.859337  0.094945  0.042540  1
  C  C32  1  0.124951  0.443837  0.679005  1
  C  C33  1  0.556163  0.681114  0.679005  1
  C  C34  1  0.875049  0.556163  0.179005  1
  C  C35  1  0.318886  0.875049  0.679005  1
  C  C36  1  0.681114  0.124951  0.179005  1
  C  C37  1  0.443837  0.318886  0.179005  1
  O  O38  1  0.653061  0.687937  0.563421  1
  O  O39  1  0.298720  0.503259  0.186282  1
  O  O40  1  0.902832  0.502472  0.347365  1
  O  O41  1  0.497528  0.400360  0.347365  1
  O  O42  1  0.496741  0.795461  0.186282  1
  O  O43  1  0.507910  0.758551  0.631442  1
  O  O44  1  0.599640  0.097168  0.347365  1
  O  O45  1  0.503259  0.204539  0.686282  1
  O  O46  1  0.956341  0.144509  0.071666  1
  O  O47  1  0.965124  0.653061  0.063421  1
  O  O48  1  0.758551  0.250641  0.131442  1
  O  O49  1  0.701280  0.496741  0.686282  1
  O  O50  1  0.687937  0.034876  0.063421  1
  O  O51  1  0.034876  0.346939  0.563421  1
  O  O52  1  0.250641  0.492090  0.631442  1
  O  O53  1  0.400360  0.902832  0.847365  1
  O  O54  1  0.855491  0.811832  0.071666  1
  O  O55  1  0.811832  0.956341  0.571666  1
  O  O56  1  0.241449  0.749359  0.631442  1
  O  O57  1  0.749359  0.507910  0.131442  1
  O  O58  1  0.312063  0.965124  0.563421  1
  O  O59  1  0.204539  0.701280  0.186282  1
  O  O60  1  0.492090  0.241449  0.131442  1
  O  O61  1  0.502472  0.599640  0.847365  1
  O  O62  1  0.097168  0.497528  0.847365  1
  O  O63  1  0.795461  0.298720  0.686282  1
  O  O64  1  0.144509  0.188168  0.571666  1
  O  O65  1  0.043659  0.855491  0.571666  1
  O  O66  1  0.188168  0.043659  0.071666  1
  O  O67  1  0.346939  0.312063  0.063421  1
