# generated using pymatgen
data_Y2Te4O11
_symmetry_space_group_name_H-M   'P 1'
_cell_length_a   5.18439056
_cell_length_b   6.77860283
_cell_length_c   16.03634637
_cell_angle_alpha   79.98221574
_cell_angle_beta   80.64441373
_cell_angle_gamma   67.49920123
_symmetry_Int_Tables_number   1
_chemical_formula_structural   Y2Te4O11
_chemical_formula_sum   'Y4 Te8 O22'
_cell_volume   509.86244672
_cell_formula_units_Z   2
loop_
 _symmetry_equiv_pos_site_id
 _symmetry_equiv_pos_as_xyz
  1  'x, y, z'
loop_
 _atom_site_type_symbol
 _atom_site_label
 _atom_site_symmetry_multiplicity
 _atom_site_fract_x
 _atom_site_fract_y
 _atom_site_fract_z
 _atom_site_occupancy
  Y  Y0  1  0.369983  0.798943  0.962436  1
  Y  Y1  1  0.131449  0.699628  0.536566  1
  Y  Y2  1  0.868470  0.297037  0.462447  1
  Y  Y3  1  0.629910  0.200691  0.036980  1
  Te  Te4  1  0.590763  0.880132  0.373746  1
  Te  Te5  1  0.399060  0.453716  0.301160  1
  Te  Te6  1  0.154119  0.044237  0.198348  1
  Te  Te7  1  0.845955  0.617677  0.125651  1
  Te  Te8  1  0.152197  0.382408  0.874274  1
  Te  Te9  1  0.844775  0.956470  0.800608  1
  Te  Te10  1  0.409366  0.117471  0.625208  1
  Te  Te11  1  0.600329  0.545101  0.698582  1
  O  O12  1  0.148541  0.748438  0.250168  1
  O  O13  1  0.821178  0.682203  0.454964  1
  O  O14  1  0.790379  0.126447  0.168636  1
  O  O15  1  0.809352  0.632756  0.871604  1
  O  O16  1  0.177827  0.314909  0.544216  1
  O  O17  1  0.908429  0.630278  0.667768  1
  O  O18  1  0.854800  0.250375  0.749394  1
  O  O19  1  0.207146  0.871544  0.831503  1
  O  O20  1  0.187727  0.366230  0.127862  1
  O  O21  1  0.038314  0.183968  0.955322  1
  O  O22  1  0.660358  0.531340  0.053668  1
  O  O23  1  0.312712  0.867497  0.628570  1
  O  O24  1  0.554237  0.452718  0.596397  1
  O  O25  1  0.337267  0.467960  0.946662  1
  O  O26  1  0.684353  0.129937  0.372421  1
  O  O27  1  0.247321  0.966054  0.446236  1
  O  O28  1  0.752050  0.031244  0.552527  1
  O  O29  1  0.090600  0.368357  0.330993  1
  O  O30  1  0.394653  0.952509  0.095821  1
  O  O31  1  0.445211  0.544607  0.403765  1
  O  O32  1  0.959983  0.815400  0.044172  1
  O  O33  1  0.602661  0.048161  0.902851  1
