# generated using pymatgen
data_Li5GeP3
_symmetry_space_group_name_H-M   'P 1'
_cell_length_a   8.54754914
_cell_length_b   12.59399114
_cell_length_c   10.40015754
_cell_angle_alpha   34.63251701
_cell_angle_beta   34.74255877
_cell_angle_gamma   59.22212062
_symmetry_Int_Tables_number   1
_chemical_formula_structural   Li5GeP3
_chemical_formula_sum   'Li10 Ge2 P6'
_cell_volume   312.40041683
_cell_formula_units_Z   2
loop_
 _symmetry_equiv_pos_site_id
 _symmetry_equiv_pos_as_xyz
  1  'x, y, z'
loop_
 _atom_site_type_symbol
 _atom_site_label
 _atom_site_symmetry_multiplicity
 _atom_site_fract_x
 _atom_site_fract_y
 _atom_site_fract_z
 _atom_site_occupancy
  Li  Li0  1  0.994929  0.322799  0.257428  1
  Li  Li1  1  0.515656  0.345703  0.233935  1
  Li  Li2  1  0.000400  0.996413  0.256278  1
  Li  Li3  1  0.495218  0.999715  0.244611  1
  Li  Li4  1  0.517597  0.346008  0.731843  1
  Li  Li5  1  0.018015  0.664480  0.245044  1
  Li  Li6  1  0.975040  0.322507  0.777425  1
  Li  Li7  1  0.481549  0.000247  0.757695  1
  Li  Li8  1  0.998695  0.664931  0.763878  1
  Li  Li9  1  0.999200  0.995750  0.758087  1
  Ge  Ge10  1  0.419470  0.665719  0.292610  1
  Ge  Ge11  1  0.499042  0.665442  0.713783  1
  P  P12  1  0.963492  0.983941  0.045775  1
  P  P13  1  0.037632  0.347052  0.958787  1
  P  P14  1  0.504308  0.984190  0.004662  1
  P  P15  1  0.035584  0.665901  0.988135  1
  P  P16  1  0.493254  0.346743  0.003514  1
  P  P17  1  0.506868  0.666147  0.016416  1
