# generated using pymatgen
data_KDyH2C2SO9
_symmetry_space_group_name_H-M   'P 1'
_cell_length_a   6.57236128
_cell_length_b   8.61105003
_cell_length_c   13.91170172
_cell_angle_alpha   90.00000000
_cell_angle_beta   94.17407970
_cell_angle_gamma   90.00000000
_symmetry_Int_Tables_number   1
_chemical_formula_structural   KDyH2C2SO9
_chemical_formula_sum   'K4 Dy4 H8 C8 S4 O36'
_cell_volume   785.24341923
_cell_formula_units_Z   4
loop_
 _symmetry_equiv_pos_site_id
 _symmetry_equiv_pos_as_xyz
  1  'x, y, z'
loop_
 _atom_site_type_symbol
 _atom_site_label
 _atom_site_symmetry_multiplicity
 _atom_site_fract_x
 _atom_site_fract_y
 _atom_site_fract_z
 _atom_site_occupancy
  K  K0  1  0.267249  0.655062  0.301333  1
  K  K1  1  0.767249  0.844938  0.801333  1
  K  K2  1  0.232751  0.155062  0.198667  1
  K  K3  1  0.732751  0.344938  0.698667  1
  Dy  Dy4  1  0.253804  0.738525  0.591265  1
  Dy  Dy5  1  0.246196  0.238525  0.908735  1
  Dy  Dy6  1  0.753804  0.761475  0.091265  1
  Dy  Dy7  1  0.746196  0.261475  0.408735  1
  H  H8  1  0.917467  0.560900  0.931920  1
  H  H9  1  0.582533  0.060900  0.568080  1
  H  H10  1  0.301104  0.502983  0.059315  1
  H  H11  1  0.082533  0.439100  0.068080  1
  H  H12  1  0.198896  0.002983  0.440685  1
  H  H13  1  0.417467  0.939100  0.431920  1
  H  H14  1  0.698896  0.497017  0.940685  1
  H  H15  1  0.801104  0.997017  0.559315  1
  C  C16  1  0.633824  0.970923  0.268221  1
  C  C17  1  0.366176  0.029077  0.731779  1
  C  C18  1  0.867385  0.970012  0.277985  1
  C  C19  1  0.132615  0.029988  0.722015  1
  C  C20  1  0.632615  0.470012  0.222015  1
  C  C21  1  0.133824  0.529077  0.768221  1
  C  C22  1  0.367385  0.529988  0.777985  1
  C  C23  1  0.866176  0.470923  0.231779  1
  S  S24  1  0.765935  0.162929  0.020437  1
  S  S25  1  0.734065  0.662929  0.479563  1
  S  S26  1  0.265935  0.337071  0.520437  1
  S  S27  1  0.234065  0.837071  0.979563  1
  O  O28  1  0.090438  0.772175  0.047331  1
  O  O29  1  0.045976  0.445872  0.828209  1
  O  O30  1  0.437835  0.764091  0.002998  1
  O  O31  1  0.937835  0.735909  0.502998  1
  O  O32  1  0.545587  0.894356  0.199395  1
  O  O33  1  0.545976  0.054128  0.328209  1
  O  O34  1  0.452296  0.434721  0.838089  1
  O  O35  1  0.286355  0.913313  0.457787  1
  O  O36  1  0.454024  0.945872  0.671791  1
  O  O37  1  0.454413  0.105644  0.800605  1
  O  O38  1  0.662941  0.697634  0.378922  1
  O  O39  1  0.042271  0.121180  0.776232  1
  O  O40  1  0.954413  0.394356  0.300605  1
  O  O41  1  0.750847  0.990616  0.005419  1
  O  O42  1  0.786355  0.586687  0.957787  1
  O  O43  1  0.542271  0.378820  0.276232  1
  O  O44  1  0.457729  0.621180  0.723768  1
  O  O45  1  0.162941  0.802366  0.878922  1
  O  O46  1  0.713645  0.086687  0.542213  1
  O  O47  1  0.337059  0.302366  0.621078  1
  O  O48  1  0.047704  0.934721  0.661911  1
  O  O49  1  0.045587  0.605644  0.699395  1
  O  O50  1  0.062165  0.264091  0.497002  1
  O  O51  1  0.590438  0.727825  0.547331  1
  O  O52  1  0.952296  0.065279  0.338089  1
  O  O53  1  0.547704  0.565279  0.161911  1
  O  O54  1  0.562165  0.235909  0.997002  1
  O  O55  1  0.409562  0.272175  0.452669  1
  O  O56  1  0.957729  0.878820  0.223768  1
  O  O57  1  0.250847  0.509384  0.505419  1
  O  O58  1  0.249153  0.009384  0.994581  1
  O  O59  1  0.909562  0.227825  0.952669  1
  O  O60  1  0.837059  0.197634  0.121078  1
  O  O61  1  0.213645  0.413313  0.042213  1
  O  O62  1  0.954024  0.554128  0.171791  1
  O  O63  1  0.749153  0.490616  0.494581  1
