# generated using pymatgen
data_NiH18C4S6(N2O)4
_symmetry_space_group_name_H-M   'P 1'
_cell_length_a   9.57014384
_cell_length_b   12.01425488
_cell_length_c   20.22618452
_cell_angle_alpha   90.00000000
_cell_angle_beta   90.00000000
_cell_angle_gamma   90.00000000
_symmetry_Int_Tables_number   1
_chemical_formula_structural   NiH18C4S6(N2O)4
_chemical_formula_sum   'Ni4 H72 C16 S24 N32 O16'
_cell_volume   2325.56922371
_cell_formula_units_Z   4
loop_
 _symmetry_equiv_pos_site_id
 _symmetry_equiv_pos_as_xyz
  1  'x, y, z'
loop_
 _atom_site_type_symbol
 _atom_site_label
 _atom_site_symmetry_multiplicity
 _atom_site_fract_x
 _atom_site_fract_y
 _atom_site_fract_z
 _atom_site_occupancy
  Ni  Ni0  1  0.442154  0.542797  0.096356  1
  Ni  Ni1  1  0.942154  0.957203  0.903644  1
  Ni  Ni2  1  0.057846  0.457203  0.596356  1
  Ni  Ni3  1  0.557846  0.042797  0.403644  1
  H  H4  1  0.060889  0.991283  0.541496  1
  H  H5  1  0.221611  0.461404  0.358182  1
  H  H6  1  0.726425  0.388905  0.933595  1
  H  H7  1  0.228851  0.340963  0.814352  1
  H  H8  1  0.595515  0.279859  0.573961  1
  H  H9  1  0.773575  0.611095  0.433595  1
  H  H10  1  0.186210  0.894405  0.811814  1
  H  H11  1  0.173476  0.825004  0.321313  1
  H  H12  1  0.260730  0.940718  0.345940  1
  H  H13  1  0.065579  0.368225  0.847289  1
  H  H14  1  0.826524  0.325004  0.178687  1
  H  H15  1  0.060337  0.057472  0.467057  1
  H  H16  1  0.723092  0.176363  0.651052  1
  H  H17  1  0.276908  0.676363  0.848948  1
  H  H18  1  0.439663  0.942528  0.967057  1
  H  H19  1  0.902961  0.762187  0.991961  1
  H  H20  1  0.934658  0.659562  0.220887  1
  H  H21  1  0.069959  0.057216  0.034532  1
  H  H22  1  0.095515  0.220141  0.426039  1
  H  H23  1  0.567830  0.714337  0.842308  1
  H  H24  1  0.565342  0.340438  0.720887  1
  H  H25  1  0.693284  0.521159  0.249106  1
  H  H26  1  0.565579  0.131775  0.152711  1
  H  H27  1  0.430041  0.942784  0.534532  1
  H  H28  1  0.904485  0.720141  0.073961  1
  H  H29  1  0.439111  0.008717  0.041496  1
  H  H30  1  0.789669  0.242877  0.387372  1
  H  H31  1  0.404485  0.779859  0.926039  1
  H  H32  1  0.306716  0.021159  0.250894  1
  H  H33  1  0.776908  0.823637  0.151052  1
  H  H34  1  0.710331  0.757123  0.887372  1
  H  H35  1  0.006665  0.537548  0.239637  1
  H  H36  1  0.597039  0.237813  0.491961  1
  H  H37  1  0.278389  0.538596  0.858182  1
  H  H38  1  0.097039  0.262187  0.508039  1
  H  H39  1  0.067830  0.785663  0.157692  1
  H  H40  1  0.760730  0.559282  0.654060  1
  H  H41  1  0.930041  0.557216  0.465468  1
  H  H42  1  0.223092  0.323637  0.348948  1
  H  H43  1  0.686210  0.605595  0.188186  1
  H  H44  1  0.226425  0.111095  0.066405  1
  H  H45  1  0.673476  0.674996  0.678687  1
  H  H46  1  0.271149  0.659037  0.314352  1
  H  H47  1  0.993335  0.037548  0.260363  1
  H  H48  1  0.289669  0.257123  0.612628  1
  H  H49  1  0.193284  0.978841  0.750894  1
  H  H50  1  0.569959  0.442784  0.965468  1
  H  H51  1  0.939663  0.557472  0.032943  1
  H  H52  1  0.778389  0.961404  0.141818  1
  H  H53  1  0.432170  0.214337  0.657692  1
  H  H54  1  0.434421  0.631775  0.347289  1
  H  H55  1  0.493335  0.462452  0.739637  1
  H  H56  1  0.434658  0.840438  0.779113  1
  H  H57  1  0.771149  0.840963  0.685648  1
  H  H58  1  0.728851  0.159037  0.185648  1
  H  H59  1  0.934421  0.868225  0.652711  1
  H  H60  1  0.210331  0.742877  0.112628  1
  H  H61  1  0.402961  0.737813  0.008039  1
  H  H62  1  0.065342  0.159562  0.279113  1
  H  H63  1  0.813790  0.394405  0.688186  1
  H  H64  1  0.721611  0.038596  0.641818  1
  H  H65  1  0.506665  0.962452  0.760363  1
  H  H66  1  0.560889  0.508717  0.458504  1
  H  H67  1  0.313790  0.105595  0.311814  1
  H  H68  1  0.932170  0.285663  0.342308  1
  H  H69  1  0.326524  0.174996  0.821313  1
  H  H70  1  0.939111  0.491283  0.958504  1
  H  H71  1  0.739270  0.440718  0.154060  1
  H  H72  1  0.560337  0.442528  0.532943  1
  H  H73  1  0.806716  0.478841  0.749106  1
  H  H74  1  0.239270  0.059282  0.845940  1
  H  H75  1  0.273575  0.888905  0.566405  1
  C  C76  1  0.145229  0.381383  0.436939  1
  C  C77  1  0.376305  0.374353  0.675682  1
  C  C78  1  0.135260  0.208447  0.859270  1
  C  C79  1  0.751606  0.492134  0.505270  1
  C  C80  1  0.864740  0.708447  0.640730  1
  C  C81  1  0.123695  0.625647  0.175682  1
  C  C82  1  0.645229  0.118617  0.563061  1
  C  C83  1  0.623695  0.874353  0.824318  1
  C  C84  1  0.248394  0.992134  0.994730  1
  C  C85  1  0.876305  0.125647  0.324318  1
  C  C86  1  0.748394  0.507866  0.005270  1
  C  C87  1  0.364740  0.791553  0.359270  1
  C  C88  1  0.354771  0.618617  0.936939  1
  C  C89  1  0.854771  0.881383  0.063061  1
  C  C90  1  0.635260  0.291553  0.140730  1
  C  C91  1  0.251606  0.007866  0.494730  1
  S  S92  1  0.833654  0.994345  0.012496  1
  S  S93  1  0.265261  0.484605  0.664553  1
  S  S94  1  0.169378  0.902597  0.939312  1
  S  S95  1  0.979071  0.162685  0.890815  1
  S  S96  1  0.765261  0.015395  0.335447  1
  S  S97  1  0.333654  0.505655  0.987504  1
  S  S98  1  0.669378  0.597403  0.060688  1
  S  S99  1  0.020929  0.662685  0.609185  1
  S  S100  1  0.166346  0.494345  0.487504  1
  S  S101  1  0.234739  0.515395  0.164553  1
  S  S102  1  0.330622  0.097403  0.439312  1
  S  S103  1  0.425619  0.857027  0.145731  1
  S  S104  1  0.532871  0.734146  0.192835  1
  S  S105  1  0.574381  0.357027  0.354269  1
  S  S106  1  0.074381  0.142973  0.645731  1
  S  S107  1  0.967129  0.265854  0.692835  1
  S  S108  1  0.830622  0.402597  0.560688  1
  S  S109  1  0.479071  0.337315  0.109185  1
  S  S110  1  0.032871  0.765854  0.807165  1
  S  S111  1  0.467129  0.234146  0.307165  1
  S  S112  1  0.520929  0.837315  0.390815  1
  S  S113  1  0.925619  0.642973  0.854269  1
  S  S114  1  0.666346  0.005655  0.512496  1
  S  S115  1  0.734739  0.984605  0.835447  1
  N  N116  1  0.251677  0.856156  0.349736  1
  N  N117  1  0.388889  0.996601  0.996956  1
  N  N118  1  0.900547  0.783977  0.041211  1
  N  N119  1  0.611111  0.496601  0.503044  1
  N  N120  1  0.149846  0.316776  0.844863  1
  N  N121  1  0.876389  0.219539  0.359576  1
  N  N122  1  0.623611  0.780461  0.859576  1
  N  N123  1  0.751677  0.643844  0.650264  1
  N  N124  1  0.248323  0.143844  0.849736  1
  N  N125  1  0.526598  0.883355  0.775229  1
  N  N126  1  0.599453  0.216023  0.541211  1
  N  N127  1  0.473402  0.383355  0.724771  1
  N  N128  1  0.973402  0.116645  0.275229  1
  N  N129  1  0.350154  0.683224  0.344863  1
  N  N130  1  0.123611  0.719539  0.140424  1
  N  N131  1  0.323463  0.943183  0.536169  1
  N  N132  1  0.828690  0.889785  0.129623  1
  N  N133  1  0.671310  0.110215  0.629623  1
  N  N134  1  0.171310  0.389785  0.370377  1
  N  N135  1  0.328690  0.610215  0.870377  1
  N  N136  1  0.748323  0.356156  0.150264  1
  N  N137  1  0.676537  0.443183  0.963831  1
  N  N138  1  0.099453  0.283977  0.458789  1
  N  N139  1  0.888889  0.503399  0.003044  1
  N  N140  1  0.376389  0.280461  0.640424  1
  N  N141  1  0.176537  0.056817  0.036169  1
  N  N142  1  0.026598  0.616645  0.224771  1
  N  N143  1  0.649846  0.183224  0.155137  1
  N  N144  1  0.823463  0.556817  0.463831  1
  N  N145  1  0.111111  0.003399  0.496956  1
  N  N146  1  0.850154  0.816776  0.655137  1
  N  N147  1  0.400547  0.716023  0.958789  1
  O  O148  1  0.479329  0.448038  0.374996  1
  O  O149  1  0.249418  0.940705  0.784970  1
  O  O150  1  0.250582  0.059295  0.284970  1
  O  O151  1  0.979329  0.051962  0.625004  1
  O  O152  1  0.639291  0.302322  0.413926  1
  O  O153  1  0.684811  0.398844  0.309532  1
  O  O154  1  0.860709  0.697678  0.913926  1
  O  O155  1  0.184811  0.101156  0.690468  1
  O  O156  1  0.815189  0.601156  0.809532  1
  O  O157  1  0.139291  0.197678  0.586074  1
  O  O158  1  0.520671  0.948038  0.125004  1
  O  O159  1  0.020671  0.551962  0.874996  1
  O  O160  1  0.315189  0.898844  0.190468  1
  O  O161  1  0.360709  0.802322  0.086074  1
  O  O162  1  0.749418  0.559295  0.215030  1
  O  O163  1  0.750582  0.440705  0.715030  1
