# generated using pymatgen
data_NbO2F
_symmetry_space_group_name_H-M   'P 1'
_cell_length_a   16.80953165
_cell_length_b   9.66031216
_cell_length_c   5.78546524
_cell_angle_alpha   53.21010509
_cell_angle_beta   58.91829916
_cell_angle_gamma   30.45372183
_symmetry_Int_Tables_number   1
_chemical_formula_structural   NbO2F
_chemical_formula_sum   'Nb6 O12 F6'
_cell_volume   381.33090961
_cell_formula_units_Z   6
loop_
 _symmetry_equiv_pos_site_id
 _symmetry_equiv_pos_as_xyz
  1  'x, y, z'
loop_
 _atom_site_type_symbol
 _atom_site_label
 _atom_site_symmetry_multiplicity
 _atom_site_fract_x
 _atom_site_fract_y
 _atom_site_fract_z
 _atom_site_occupancy
  Nb  Nb0  1  0.000636  0.999040  0.980671  1
  Nb  Nb1  1  0.000636  0.499051  0.519329  1
  Nb  Nb2  1  0.332697  0.000949  0.980671  1
  Nb  Nb3  1  0.332697  0.500960  0.519329  1
  Nb  Nb4  1  0.666667  0.000005  0.066811  1
  Nb  Nb5  1  0.666667  0.499995  0.433189  1
  O  O6  1  0.004123  0.243816  0.750000  1
  O  O7  1  0.166667  0.250000  0.750000  1
  O  O8  1  0.004123  0.743815  0.250000  1
  O  O9  1  0.329210  0.256184  0.750000  1
  O  O10  1  0.166667  0.750000  0.750000  1
  O  O11  1  0.496508  0.255236  0.268881  1
  O  O12  1  0.329210  0.756185  0.250000  1
  O  O13  1  0.666667  0.250000  0.750000  1
  O  O14  1  0.496508  0.755240  0.231119  1
  O  O15  1  0.836825  0.244764  0.231119  1
  O  O16  1  0.666667  0.750000  0.250000  1
  O  O17  1  0.836825  0.744760  0.268881  1
  F  F18  1  0.166667  0.250000  0.250000  1
  F  F19  1  0.166667  0.750000  0.250000  1
  F  F20  1  0.502519  0.246219  0.754982  1
  F  F21  1  0.502519  0.746223  0.745018  1
  F  F22  1  0.830814  0.253781  0.745018  1
  F  F23  1  0.830814  0.753777  0.754982  1
