# generated using pymatgen
data_Zr10C9
_symmetry_space_group_name_H-M   'P 1'
_cell_length_a   6.70097524
_cell_length_b   35.27263778
_cell_length_c   14.20803350
_cell_angle_alpha   15.82407834
_cell_angle_beta   44.97224238
_cell_angle_gamma   55.25467271
_symmetry_Int_Tables_number   1
_chemical_formula_structural   Zr10C9
_chemical_formula_sum   'Zr20 C18'
_cell_volume   529.76793814
_cell_formula_units_Z   2
loop_
 _symmetry_equiv_pos_site_id
 _symmetry_equiv_pos_as_xyz
  1  'x, y, z'
loop_
 _atom_site_type_symbol
 _atom_site_label
 _atom_site_symmetry_multiplicity
 _atom_site_fract_x
 _atom_site_fract_y
 _atom_site_fract_z
 _atom_site_occupancy
  Zr  Zr0  1  0.999171  0.000443  0.001236  1
  Zr  Zr1  1  0.515621  0.005394  0.977359  1
  Zr  Zr2  1  0.464890  0.106040  0.983519  1
  Zr  Zr3  1  0.385109  0.193960  0.016481  1
  Zr  Zr4  1  0.334379  0.294606  0.022641  1
  Zr  Zr5  1  0.947412  0.108647  0.978676  1
  Zr  Zr6  1  0.305003  0.403548  0.989063  1
  Zr  Zr7  1  0.902588  0.191353  0.021324  1
  Zr  Zr8  1  0.269938  0.505394  0.977359  1
  Zr  Zr9  1  0.850829  0.299557  0.998764  1
  Zr  Zr10  1  0.793481  0.396452  0.010937  1
  Zr  Zr11  1  0.214678  0.608647  0.978676  1
  Zr  Zr12  1  0.744464  0.500443  0.001236  1
  Zr  Zr13  1  0.151689  0.693960  0.016481  1
  Zr  Zr14  1  0.105536  0.799557  0.998764  1
  Zr  Zr15  1  0.698311  0.606040  0.983519  1
  Zr  Zr16  1  0.056519  0.903548  0.989063  1
  Zr  Zr17  1  0.635322  0.691353  0.021324  1
  Zr  Zr18  1  0.580062  0.794606  0.022641  1
  Zr  Zr19  1  0.544997  0.896452  0.010937  1
  C  C20  1  0.451864  0.102777  0.491541  1
  C  C21  1  0.398136  0.197223  0.508459  1
  C  C22  1  0.947129  0.099662  0.503309  1
  C  C23  1  0.346879  0.298636  0.504129  1
  C  C24  1  0.902871  0.200338  0.496691  1
  C  C25  1  0.301644  0.400000  0.500000  1
  C  C26  1  0.845977  0.295025  0.513664  1
  C  C27  1  0.257120  0.504975  0.486336  1
  C  C28  1  0.206852  0.602777  0.491541  1
  C  C29  1  0.155026  0.700338  0.496691  1
  C  C30  1  0.751081  0.501364  0.495871  1
  C  C31  1  0.694974  0.599662  0.503309  1
  C  C32  1  0.098919  0.798636  0.504129  1
  C  C33  1  0.643148  0.697223  0.508459  1
  C  C34  1  0.004023  0.004975  0.486336  1
  C  C35  1  0.592880  0.795025  0.513664  1
  C  C36  1  0.548356  0.900000  0.500000  1
  C  C37  1  0.503121  0.001364  0.495871  1
