# generated using pymatgen
data_RbBe2F5
_symmetry_space_group_name_H-M   'P 1'
_cell_length_a   4.76322506
_cell_length_b   4.72205629
_cell_length_c   6.21221622
_cell_angle_alpha   88.67596227
_cell_angle_beta   92.35337645
_cell_angle_gamma   120.05748323
_symmetry_Int_Tables_number   1
_chemical_formula_structural   RbBe2F5
_chemical_formula_sum   'Rb1 Be2 F5'
_cell_volume   120.83403637
_cell_formula_units_Z   1
loop_
 _symmetry_equiv_pos_site_id
 _symmetry_equiv_pos_as_xyz
  1  'x, y, z'
loop_
 _atom_site_type_symbol
 _atom_site_label
 _atom_site_symmetry_multiplicity
 _atom_site_fract_x
 _atom_site_fract_y
 _atom_site_fract_z
 _atom_site_occupancy
  Rb  Rb0  1  0.999615  0.013456  0.990774  1
  Be  Be1  1  0.691100  0.392069  0.397268  1
  Be  Be2  1  0.352275  0.726728  0.580837  1
  F  F3  1  0.666854  0.323510  0.159371  1
  F  F4  1  0.427417  0.483157  0.459727  1
  F  F5  1  0.035243  0.696260  0.463522  1
  F  F6  1  0.641109  0.090517  0.542386  1
  F  F7  1  0.313386  0.659303  0.819115  1
