# generated using pymatgen
data_K5Nb4O12F
_symmetry_space_group_name_H-M   'P 1'
_cell_length_a   5.20624703
_cell_length_b   12.06580400
_cell_length_c   12.10318277
_cell_angle_alpha   90.00000000
_cell_angle_beta   92.84665012
_cell_angle_gamma   90.00000000
_symmetry_Int_Tables_number   1
_chemical_formula_structural   K5Nb4O12F
_chemical_formula_sum   'K10 Nb8 O24 F2'
_cell_volume   759.35418850
_cell_formula_units_Z   2
loop_
 _symmetry_equiv_pos_site_id
 _symmetry_equiv_pos_as_xyz
  1  'x, y, z'
loop_
 _atom_site_type_symbol
 _atom_site_label
 _atom_site_symmetry_multiplicity
 _atom_site_fract_x
 _atom_site_fract_y
 _atom_site_fract_z
 _atom_site_occupancy
  O  O0  1  0.266682  0.372273  0.116108  1
  O  O1  1  0.733319  0.627728  0.883893  1
  O  O2  1  0.100457  0.021457  0.782483  1
  O  O3  1  0.399543  0.521457  0.717516  1
  O  O4  1  0.899542  0.978542  0.217517  1
  O  O5  1  0.600458  0.478542  0.282483  1
  O  O6  1  0.920818  0.218366  0.999132  1
  O  O7  1  0.579184  0.718366  0.500869  1
  O  O8  1  0.079183  0.781634  0.000868  1
  O  O9  1  0.420817  0.281634  0.499132  1
  O  O10  1  0.328744  0.103393  0.330110  1
  O  O11  1  0.171257  0.603393  0.169889  1
  O  O12  1  0.233318  0.872273  0.383892  1
  O  O13  1  0.828744  0.396607  0.830111  1
  O  O14  1  0.831084  0.161767  0.379835  1
  O  O15  1  0.668916  0.661767  0.120166  1
  O  O16  1  0.168917  0.838233  0.620166  1
  O  O17  1  0.331083  0.338233  0.879835  1
  O  O18  1  0.755687  0.459701  0.037850  1
  O  O19  1  0.744311  0.959701  0.462150  1
  O  O20  1  0.244312  0.540299  0.962151  1
  O  O21  1  0.255688  0.040299  0.537849  1
  O  O22  1  0.766683  0.127727  0.616108  1
  O  O23  1  0.671255  0.896607  0.669889  1
  F  F24  1  1.000000  0.500000  0.500000  1
  F  F25  1  0.500001  0.000000  0.000000  1
  K  K26  1  0.000000  0.000000  0.000000  1
  K  K27  1  0.500001  0.500000  0.500000  1
  K  K28  1  0.558867  0.169462  0.149209  1
  K  K29  1  0.941133  0.669462  0.350791  1
  K  K30  1  0.441134  0.830539  0.850791  1
  K  K31  1  0.058866  0.330539  0.649209  1
  K  K32  1  0.553640  0.145614  0.829784  1
  K  K33  1  0.946362  0.645614  0.670217  1
  K  K34  1  0.446361  0.854386  0.170217  1
  K  K35  1  0.053639  0.354386  0.329784  1
  Nb  Nb36  1  0.027367  0.013360  0.355778  1
  Nb  Nb37  1  0.472632  0.513360  0.144222  1
  Nb  Nb38  1  0.972632  0.986640  0.644221  1
  Nb  Nb39  1  0.527367  0.486640  0.855779  1
  Nb  Nb40  1  0.542863  0.142598  0.475987  1
  Nb  Nb41  1  0.957137  0.642598  0.024012  1
  Nb  Nb42  1  0.457136  0.857402  0.524012  1
  Nb  Nb43  1  0.042864  0.357402  0.975987  1
