# generated using pymatgen
data_Sr2Pr2MnCuO8
_symmetry_space_group_name_H-M   'P 1'
_cell_length_a   3.83873090
_cell_length_b   16.23626096
_cell_length_c   6.94478340
_cell_angle_alpha   106.13555138
_cell_angle_beta   106.08651436
_cell_angle_gamma   90.08296711
_symmetry_Int_Tables_number   1
_chemical_formula_structural   Sr2Pr2MnCuO8
_chemical_formula_sum   'Sr4 Pr4 Mn2 Cu2 O16'
_cell_volume   398.06738715
_cell_formula_units_Z   2
loop_
 _symmetry_equiv_pos_site_id
 _symmetry_equiv_pos_as_xyz
  1  'x, y, z'
loop_
 _atom_site_type_symbol
 _atom_site_label
 _atom_site_symmetry_multiplicity
 _atom_site_fract_x
 _atom_site_fract_y
 _atom_site_fract_z
 _atom_site_occupancy
  Sr  Sr0  1  0.364170  0.618578  0.736739  1
  Sr  Sr1  1  0.639911  0.661614  0.281740  1
  Sr  Sr2  1  0.360089  0.088387  0.718260  1
  Sr  Sr3  1  0.635830  0.131422  0.263261  1
  Pr  Pr4  1  0.822037  0.317617  0.641454  1
  Pr  Pr5  1  0.640452  0.906701  0.280169  1
  Pr  Pr6  1  0.177963  0.432383  0.358546  1
  Pr  Pr7  1  0.359548  0.843299  0.719831  1
  Mn  Mn8  1  0.009672  0.239593  0.012885  1
  Mn  Mn9  1  0.990328  0.510407  0.987115  1
  Cu  Cu10  1  0.997690  0.992556  0.991952  1
  Cu  Cu11  1  0.002310  0.757444  0.008048  1
  O  O12  1  0.159236  0.018430  0.318017  1
  O  O13  1  0.218099  0.294406  0.433638  1
  O  O14  1  0.171851  0.572552  0.347216  1
  O  O15  1  0.169431  0.807164  0.340981  1
  O  O16  1  0.495676  0.985547  0.989341  1
  O  O17  1  0.520266  0.240535  0.034336  1
  O  O18  1  0.479734  0.509465  -0.034336  1
  O  O19  1  0.504324  0.764453  0.010659  1
  O  O20  1  0.828149  0.177448  0.652784  1
  O  O21  1  0.781901  0.455594  0.566362  1
  O  O22  1  0.840764  0.731570  0.681983  1
  O  O23  1  0.830569  0.942836  0.659019  1
  O  O24  1  0.011643  0.119532  0.016665  1
  O  O25  1  0.000000  0.375000  0.000000  1
  O  O26  1  0.988357  0.630468  -0.016665  1
  O  O27  1  0.000000  0.875000  0.000000  1
