# generated using pymatgen
data_Eu8C4I9N7
_symmetry_space_group_name_H-M   'P 1'
_cell_length_a   10.61885734
_cell_length_b   10.61885750
_cell_length_c   7.79691954
_cell_angle_alpha   90.00000000
_cell_angle_beta   90.00000000
_cell_angle_gamma   119.99999950
_symmetry_Int_Tables_number   1
_chemical_formula_structural   Eu8C4I9N7
_chemical_formula_sum   'Eu8 C4 I9 N7'
_cell_volume   761.39367633
_cell_formula_units_Z   1
loop_
 _symmetry_equiv_pos_site_id
 _symmetry_equiv_pos_as_xyz
  1  'x, y, z'
loop_
 _atom_site_type_symbol
 _atom_site_label
 _atom_site_symmetry_multiplicity
 _atom_site_fract_x
 _atom_site_fract_y
 _atom_site_fract_z
 _atom_site_occupancy
  Eu  Eu0  1  0.465574  0.931148  0.140501  1
  Eu  Eu1  1  0.271425  0.135712  0.610712  1
  Eu  Eu2  1  0.465574  0.534426  0.140501  1
  Eu  Eu3  1  0.333333  0.666667  0.534932  1
  Eu  Eu4  1  0.000000  0.000000  0.211879  1
  Eu  Eu5  1  0.864288  0.728575  0.610712  1
  Eu  Eu6  1  0.068852  0.534426  0.140501  1
  Eu  Eu7  1  0.864288  0.135712  0.610712  1
  C  C8  1  0.333333  0.666667  0.862424  1
  C  C9  1  0.668387  0.834193  0.384241  1
  C  C10  1  0.165807  0.834193  0.384241  1
  C  C11  1  0.165807  0.331613  0.384241  1
  I  I12  1  0.517832  0.035665  0.672651  1
  I  I13  1  0.517832  0.482168  0.672651  1
  I  I14  1  0.738340  0.869170  0.910228  1
  I  I15  1  0.796854  0.593709  0.215231  1
  I  I16  1  0.130830  0.869170  0.910228  1
  I  I17  1  0.964335  0.482168  0.672651  1
  I  I18  1  0.406291  0.203146  0.215231  1
  I  I19  1  0.796854  0.203146  0.215231  1
  I  I20  1  0.130830  0.261660  0.910228  1
  N  N21  1  0.103179  0.896821  0.443078  1
  N  N22  1  0.333333  0.666667  0.014749  1
  N  N23  1  0.793641  0.896821  0.443078  1
  N  N24  1  0.228388  0.456777  0.324830  1
  N  N25  1  0.228388  0.771612  0.324830  1
  N  N26  1  0.103179  0.206359  0.443078  1
  N  N27  1  0.543223  0.771612  0.324830  1
