# generated using pymatgen
data_SiO2
_symmetry_space_group_name_H-M   'P 1'
_cell_length_a   13.27045406
_cell_length_b   21.72111899
_cell_length_c   5.29182837
_cell_angle_alpha   90.00000000
_cell_angle_beta   90.00000000
_cell_angle_gamma   90.00000000
_symmetry_Int_Tables_number   1
_chemical_formula_structural   SiO2
_chemical_formula_sum   'Si24 O48'
_cell_volume   1525.36482686
_cell_formula_units_Z   24
loop_
 _symmetry_equiv_pos_site_id
 _symmetry_equiv_pos_as_xyz
  1  'x, y, z'
loop_
 _atom_site_type_symbol
 _atom_site_label
 _atom_site_symmetry_multiplicity
 _atom_site_fract_x
 _atom_site_fract_y
 _atom_site_fract_z
 _atom_site_occupancy
  Si  Si0  1  0.617887  0.040421  0.750000  1
  Si  Si1  1  0.617887  0.959579  0.250000  1
  Si  Si2  1  0.382113  0.040421  0.750000  1
  Si  Si3  1  0.382113  0.959579  0.250000  1
  Si  Si4  1  0.117887  0.540421  0.750000  1
  Si  Si5  1  0.117887  0.459579  0.250000  1
  Si  Si6  1  0.882113  0.540421  0.750000  1
  Si  Si7  1  0.882113  0.459579  0.250000  1
  Si  Si8  1  0.308054  0.175710  0.750000  1
  Si  Si9  1  0.308054  0.824290  0.250000  1
  Si  Si10  1  0.691946  0.175710  0.750000  1
  Si  Si11  1  0.691946  0.824290  0.250000  1
  Si  Si12  1  0.808054  0.675710  0.750000  1
  Si  Si13  1  0.808054  0.324290  0.250000  1
  Si  Si14  1  0.191946  0.675710  0.750000  1
  Si  Si15  1  0.191946  0.324290  0.250000  1
  Si  Si16  1  0.615860  0.242832  0.250000  1
  Si  Si17  1  0.615860  0.757168  0.750000  1
  Si  Si18  1  0.384140  0.242832  0.250000  1
  Si  Si19  1  0.384140  0.757168  0.750000  1
  Si  Si20  1  0.115860  0.742832  0.250000  1
  Si  Si21  1  0.115860  0.257168  0.750000  1
  Si  Si22  1  0.884140  0.742832  0.250000  1
  Si  Si23  1  0.884140  0.257168  0.750000  1
  O  O24  1  0.689203  0.101150  0.750000  1
  O  O25  1  0.689203  0.898850  0.250000  1
  O  O26  1  0.310797  0.101150  0.750000  1
  O  O27  1  0.310797  0.898850  0.250000  1
  O  O28  1  0.189203  0.601150  0.750000  1
  O  O29  1  0.189203  0.398850  0.250000  1
  O  O30  1  0.810797  0.601150  0.750000  1
  O  O31  1  0.810797  0.398850  0.250000  1
  O  O32  1  0.642029  0.000000  0.500000  1
  O  O33  1  0.357971  0.000000  0.000000  1
  O  O34  1  0.357971  0.000000  0.500000  1
  O  O35  1  0.642029  0.000000  0.000000  1
  O  O36  1  0.142029  0.500000  0.500000  1
  O  O37  1  0.857971  0.500000  0.000000  1
  O  O38  1  0.857971  0.500000  0.500000  1
  O  O39  1  0.142029  0.500000  0.000000  1
  O  O40  1  0.500000  0.061812  0.750000  1
  O  O41  1  0.500000  0.938188  0.250000  1
  O  O42  1  0.000000  0.561812  0.750000  1
  O  O43  1  0.000000  0.438188  0.250000  1
  O  O44  1  0.365046  0.201243  0.000193  1
  O  O45  1  0.365046  0.798757  -0.000193  1
  O  O46  1  0.634954  0.201243  0.499807  1
  O  O47  1  0.634954  0.798757  0.500193  1
  O  O48  1  0.634954  0.798757  -0.000193  1
  O  O49  1  0.634954  0.201243  0.000193  1
  O  O50  1  0.365046  0.798757  0.500193  1
  O  O51  1  0.365046  0.201243  0.499807  1
  O  O52  1  0.865046  0.701243  0.000193  1
  O  O53  1  0.865046  0.298757  -0.000193  1
  O  O54  1  0.134954  0.701243  0.499807  1
  O  O55  1  0.134954  0.298757  0.500193  1
  O  O56  1  0.134954  0.298757  -0.000193  1
  O  O57  1  0.134954  0.701243  0.000193  1
  O  O58  1  0.865046  0.298757  0.500193  1
  O  O59  1  0.865046  0.701243  0.499807  1
  O  O60  1  0.190716  0.197901  0.750000  1
  O  O61  1  0.190716  0.802099  0.250000  1
  O  O62  1  0.809284  0.197901  0.750000  1
  O  O63  1  0.809284  0.802099  0.250000  1
  O  O64  1  0.690716  0.697901  0.750000  1
  O  O65  1  0.690716  0.302099  0.250000  1
  O  O66  1  0.309284  0.697901  0.750000  1
  O  O67  1  0.309284  0.302099  0.250000  1
  O  O68  1  0.500000  0.267239  0.250000  1
  O  O69  1  0.500000  0.732761  0.750000  1
  O  O70  1  0.000000  0.767239  0.250000  1
  O  O71  1  0.000000  0.232761  0.750000  1
