# generated using pymatgen
data_Na3MgP2HO8
_symmetry_space_group_name_H-M   'P 1'
_cell_length_a   5.28490664
_cell_length_b   6.89524463
_cell_length_c   5.22444522
_cell_angle_alpha   91.74182236
_cell_angle_beta   117.60404263
_cell_angle_gamma   90.42747924
_symmetry_Int_Tables_number   1
_chemical_formula_structural   Na3MgP2HO8
_chemical_formula_sum   'Na3 Mg1 P2 H1 O8'
_cell_volume   168.58364061
_cell_formula_units_Z   1
loop_
 _symmetry_equiv_pos_site_id
 _symmetry_equiv_pos_as_xyz
  1  'x, y, z'
loop_
 _atom_site_type_symbol
 _atom_site_label
 _atom_site_symmetry_multiplicity
 _atom_site_fract_x
 _atom_site_fract_y
 _atom_site_fract_z
 _atom_site_occupancy
  Na  Na0  1  0.300030  0.791349  0.663803  1
  Na  Na1  1  0.699970  0.208651  0.336197  1
  Na  Na2  1  0.000000  0.500000  0.000000  1
  Mg  Mg3  1  0.000000  0.000000  0.000000  1
  P  P4  1  0.353350  0.244138  0.661138  1
  P  P5  1  0.646650  0.755862  0.338862  1
  H  H6  1  0.500000  0.500000  0.000000  1
  O  O7  1  0.214974  0.104934  0.787198  1
  O  O8  1  0.785026  0.895066  0.212802  1
  O  O9  1  0.678246  0.208569  0.787355  1
  O  O10  1  0.321754  0.791431  0.212645  1
  O  O11  1  0.318904  0.459321  0.755152  1
  O  O12  1  0.681096  0.540679  0.244848  1
  O  O13  1  0.796120  0.774089  0.672648  1
  O  O14  1  0.203880  0.225911  0.327352  1
