# generated using pymatgen
data_Ca9LaTi8Mn2O30
_symmetry_space_group_name_H-M   'P 1'
_cell_length_a   5.43177380
_cell_length_b   5.50639045
_cell_length_c   38.57845846
_cell_angle_alpha   89.95365576
_cell_angle_beta   89.98801892
_cell_angle_gamma   89.92208741
_symmetry_Int_Tables_number   1
_chemical_formula_structural   Ca9LaTi8Mn2O30
_chemical_formula_sum   'Ca18 La2 Ti16 Mn4 O60'
_cell_volume   1153.85967546
_cell_formula_units_Z   2
loop_
 _symmetry_equiv_pos_site_id
 _symmetry_equiv_pos_as_xyz
  1  'x, y, z'
loop_
 _atom_site_type_symbol
 _atom_site_label
 _atom_site_symmetry_multiplicity
 _atom_site_fract_x
 _atom_site_fract_y
 _atom_site_fract_z
 _atom_site_occupancy
  Ca  Ca0  1  0.010775  0.959848  0.149982  1
  Ca  Ca1  1  0.013541  0.960275  0.350559  1
  Ca  Ca2  1  0.010516  0.962602  0.550828  1
  Ca  Ca3  1  0.012091  0.962418  0.750315  1
  Ca  Ca4  1  0.012430  0.962078  0.949778  1
  Ca  Ca5  1  0.490280  0.458082  0.350534  1
  Ca  Ca6  1  0.487784  0.458655  0.150007  1
  Ca  Ca7  1  0.489654  0.457366  0.749626  1
  Ca  Ca8  1  0.490616  0.458045  0.950561  1
  Ca  Ca9  1  0.512604  0.541351  0.050034  1
  Ca  Ca10  1  0.513040  0.540993  0.250223  1
  Ca  Ca11  1  0.510416  0.543644  0.650745  1
  Ca  Ca12  1  0.509933  0.540300  0.447183  1
  Ca  Ca13  1  0.989291  0.039942  0.049950  1
  Ca  Ca14  1  0.989596  0.039714  0.250212  1
  Ca  Ca15  1  0.987804  0.037377  0.447859  1
  Ca  Ca16  1  0.988873  0.037142  0.650016  1
  Ca  Ca17  1  0.986758  0.036132  0.850082  1
  La  La18  1  0.494479  0.467860  0.550909  1
  La  La19  1  0.504537  0.533423  0.850069  1
  Ti  Ti20  1  0.000225  0.499469  0.498121  1
  Ti  Ti21  1  0.007267  0.498837  0.000785  1
  Ti  Ti22  1  0.000264  0.499509  0.199970  1
  Ti  Ti23  1  0.999340  0.498851  0.398628  1
  Ti  Ti24  1  0.997796  0.500981  0.601798  1
  Ti  Ti25  1  0.999204  0.498854  0.798665  1
  Ti  Ti26  1  0.496816  0.999681  0.099492  1
  Ti  Ti27  1  0.507752  0.000034  0.999338  1
  Ti  Ti28  1  0.505815  0.001015  0.300059  1
  Ti  Ti29  1  0.498268  0.998929  0.498205  1
  Ti  Ti30  1  0.504537  -0.000045  0.700630  1
  Ti  Ti31  1  0.501075  0.999760  0.199880  1
  Ti  Ti32  1  0.997512  0.500349  0.100292  1
  Ti  Ti33  1  0.007986  0.499332  0.299908  1
  Ti  Ti34  1  0.001400  0.498726  0.700021  1
  Ti  Ti35  1  0.998728  0.498589  0.901842  1
  Mn  Mn36  1  0.501406  0.999673  0.399422  1
  Mn  Mn37  1  0.497671  0.999761  0.601077  1
  Mn  Mn38  1  0.498367  0.999697  0.900495  1
  Mn  Mn39  1  0.498911  0.999729  0.799392  1
  O  O40  1  0.082176  0.480365  0.049985  1
  O  O41  1  0.081149  0.480654  0.250106  1
  O  O42  1  0.079487  0.479779  0.450336  1
  O  O43  1  0.081473  0.478660  0.650245  1
  O  O44  1  0.065025  0.484560  0.849905  1
  O  O45  1  0.214533  0.215165  0.108707  1
  O  O46  1  0.212112  0.214745  0.308832  1
  O  O47  1  0.216935  0.217486  0.508732  1
  O  O48  1  0.211358  0.215160  0.708704  1
  O  O49  1  0.219570  0.220337  0.908564  1
  O  O50  1  0.213813  0.215504  0.191371  1
  O  O51  1  0.214758  0.216412  0.391514  1
  O  O52  1  0.215832  0.219462  0.591183  1
  O  O53  1  0.220058  0.219497  0.791480  1
  O  O54  1  0.210310  0.215561  0.991274  1
  O  O55  1  0.285416  0.714514  0.108739  1
  O  O56  1  0.284459  0.715101  0.191375  1
  O  O57  1  0.283771  0.713336  0.308834  1
  O  O58  1  0.283732  0.713344  0.391717  1
  O  O59  1  0.277451  0.717674  0.592244  1
  O  O60  1  0.284743  0.713683  0.708282  1
  O  O61  1  0.286367  0.715039  0.791971  1
  O  O62  1  0.280778  0.719828  0.507657  1
  O  O63  1  0.285519  0.714568  0.908119  1
  O  O64  1  0.283068  0.714181  0.991418  1
  O  O65  1  0.417588  0.980457  0.050398  1
  O  O66  1  0.418226  0.980273  0.250313  1
  O  O67  1  0.418151  0.981860  0.649386  1
  O  O68  1  0.419847  0.982967  0.449563  1
  O  O69  1  0.420754  0.990454  0.850917  1
  O  O70  1  0.581319  0.018561  0.350517  1
  O  O71  1  0.581168  0.019453  0.150206  1
  O  O72  1  0.579141  0.010748  0.550367  1
  O  O73  1  0.586081  0.019710  0.747815  1
  O  O74  1  0.583703  0.019111  0.951366  1
  O  O75  1  0.712045  0.286849  0.008742  1
  O  O76  1  0.715459  0.285168  0.091320  1
  O  O77  1  0.714375  0.285257  0.208789  1
  O  O78  1  0.712695  0.283727  0.291675  1
  O  O79  1  0.714698  0.288755  0.608262  1
  O  O80  1  0.718699  0.283753  0.408459  1
  O  O81  1  0.710908  0.287527  0.491908  1
  O  O82  1  0.714376  0.288092  0.691257  1
  O  O83  1  0.718868  0.281420  0.807402  1
  O  O84  1  0.719807  0.281179  0.892506  1
  O  O85  1  0.784028  0.784857  0.008968  1
  O  O86  1  0.785155  0.784932  0.208800  1
  O  O87  1  0.785090  0.781622  0.408694  1
  O  O88  1  0.781785  0.779474  0.608574  1
  O  O89  1  0.781365  0.782994  0.808650  1
  O  O90  1  0.786278  0.784512  0.091271  1
  O  O91  1  0.786429  0.783738  0.690959  1
  O  O92  1  0.783733  0.784731  0.291537  1
  O  O93  1  0.780831  0.783433  0.491523  1
  O  O94  1  0.781285  0.782018  0.891272  1
  O  O95  1  0.917808  0.519410  0.149990  1
  O  O96  1  0.918974  0.519291  0.349927  1
  O  O97  1  0.932133  0.516694  0.549769  1
  O  O98  1  0.919212  0.521683  0.750039  1
  O  O99  1  0.918740  0.521695  0.950074  1
