# generated using pymatgen
data_Cs3Bi2I9
_symmetry_space_group_name_H-M   'P 1'
_cell_length_a   8.66993148
_cell_length_b   8.64923288
_cell_length_c   22.00995974
_cell_angle_alpha   90.55279168
_cell_angle_beta   91.10362917
_cell_angle_gamma   59.92349848
_symmetry_Int_Tables_number   1
_chemical_formula_structural   Cs3Bi2I9
_chemical_formula_sum   'Cs6 Bi4 I18'
_cell_volume   1427.99687981
_cell_formula_units_Z   2
loop_
 _symmetry_equiv_pos_site_id
 _symmetry_equiv_pos_as_xyz
  1  'x, y, z'
loop_
 _atom_site_type_symbol
 _atom_site_label
 _atom_site_symmetry_multiplicity
 _atom_site_fract_x
 _atom_site_fract_y
 _atom_site_fract_z
 _atom_site_occupancy
  Cs  Cs0  1  0.997233  0.005550  0.249991  1
  Cs  Cs1  1  0.669273  0.664288  0.577445  1
  Cs  Cs2  1  0.002766  0.994451  0.750009  1
  Cs  Cs3  1  0.333525  0.335736  0.077448  1
  Cs  Cs4  1  0.330729  0.335709  0.422555  1
  Cs  Cs5  1  0.666475  0.664264  0.922551  1
  Bi  Bi6  1  0.676437  0.669524  0.155756  1
  Bi  Bi7  1  0.323563  0.330472  0.844242  1
  Bi  Bi8  1  0.345968  0.330485  0.655760  1
  Bi  Bi9  1  0.654032  0.669515  0.344241  1
  I  I10  1  0.186166  0.166019  0.575048  1
  I  I11  1  0.813833  0.833989  0.424954  1
  I  I12  1  0.000612  0.503321  0.256816  1
  I  I13  1  0.146014  0.667583  0.917124  1
  I  I14  1  0.813656  0.332466  0.417092  1
  I  I15  1  0.352199  0.833989  0.075046  1
  I  I16  1  0.853989  0.332418  0.082876  1
  I  I17  1  0.848680  0.841196  0.089342  1
  I  I18  1  0.999388  0.496679  0.743185  1
  I  I19  1  0.496173  0.503248  0.243156  1
  I  I20  1  0.186344  0.667535  0.582908  1
  I  I21  1  0.503828  0.496751  0.756844  1
  I  I22  1  0.497237  0.005597  0.249993  1
  I  I23  1  0.310150  0.841157  0.410655  1
  I  I24  1  0.689851  0.158843  0.589345  1
  I  I25  1  0.151310  0.158806  0.910657  1
  I  I26  1  0.502765  0.994401  0.750007  1
  I  I27  1  0.647803  0.166009  0.924954  1
