# generated using pymatgen
data_InSnBr3
_symmetry_space_group_name_H-M   'P 1'
_cell_length_a   12.05966162
_cell_length_b   24.32802408
_cell_length_c   16.41270523
_cell_angle_alpha   47.84861917
_cell_angle_beta   132.07885284
_cell_angle_gamma   116.89506857
_symmetry_Int_Tables_number   1
_chemical_formula_structural   InSnBr3
_chemical_formula_sum   'In16 Sn16 Br48'
_cell_volume   2649.65469967
_cell_formula_units_Z   16
loop_
 _symmetry_equiv_pos_site_id
 _symmetry_equiv_pos_as_xyz
  1  'x, y, z'
loop_
 _atom_site_type_symbol
 _atom_site_label
 _atom_site_symmetry_multiplicity
 _atom_site_fract_x
 _atom_site_fract_y
 _atom_site_fract_z
 _atom_site_occupancy
  In  In0  1  0.000195  0.001422  0.499959  1
  In  In1  1  0.181015  0.749982  0.651080  1
  In  In2  1  0.002170  0.500099  0.504977  1
  In  In3  1  0.502624  0.913152  0.530276  1
  In  In4  1  0.819960  0.748144  0.972462  1
  In  In5  1  0.169015  0.255298  0.638243  1
  In  In6  1  0.162667  0.752891  0.017515  1
  In  In7  1  0.498132  0.581294  0.476448  1
  In  In8  1  0.990895  0.499159  0.000248  1
  In  In9  1  0.495880  0.083703  0.856720  1
  In  In10  1  0.832480  0.252114  0.975942  1
  In  In11  1  0.834548  0.753694  0.356201  1
  In  In12  1  0.178089  0.249488  0.028453  1
  In  In13  1  0.501741  0.414031  0.142626  1
  In  In14  1  0.999368  0.001044  0.999597  1
  In  In15  1  0.824222  0.251387  0.349178  1
  Sn  Sn16  1  0.051322  0.511429  0.768325  1
  Sn  Sn17  1  0.051390  0.002061  0.275369  1
  Sn  Sn18  1  0.503153  0.890049  0.883552  1
  Sn  Sn19  1  0.517157  0.594855  0.827653  1
  Sn  Sn20  1  0.186022  0.757149  0.328309  1
  Sn  Sn21  1  0.985142  0.499319  0.263563  1
  Sn  Sn22  1  0.510953  0.391396  0.859289  1
  Sn  Sn23  1  0.812241  0.749168  0.653118  1
  Sn  Sn24  1  0.507853  0.904972  0.188358  1
  Sn  Sn25  1  0.490307  0.406547  0.499155  1
  Sn  Sn26  1  0.185891  0.253490  0.340086  1
  Sn  Sn27  1  0.503260  0.610878  0.158914  1
  Sn  Sn28  1  0.807906  0.251699  0.670258  1
  Sn  Sn29  1  0.513117  0.094239  0.497777  1
  Sn  Sn30  1  0.497457  0.111865  0.116859  1
  Sn  Sn31  1  0.946513  0.007807  0.709978  1
  Br  Br32  1  0.282177  0.925953  0.851116  1
  Br  Br33  1  0.120250  0.749278  0.809423  1
  Br  Br34  1  0.255238  0.933025  0.544440  1
  Br  Br35  1  0.271453  0.565487  0.920826  1
  Br  Br36  1  0.499630  0.748979  0.879055  1
  Br  Br37  1  0.132133  0.867670  0.331021  1
  Br  Br38  1  0.138135  0.626014  0.586580  1
  Br  Br39  1  0.255087  0.432972  0.845047  1
  Br  Br40  1  0.738729  0.933266  0.786102  1
  Br  Br41  1  0.116709  0.254036  0.804746  1
  Br  Br42  1  0.491678  0.742565  0.633981  1
  Br  Br43  1  0.161025  0.868228  0.083583  1
  Br  Br44  1  0.139226  0.629582  0.302569  1
  Br  Br45  1  0.502980  0.935886  0.316255  1
  Br  Br46  1  0.491783  0.562349  0.685647  1
  Br  Br47  1  0.271866  0.431441  0.558855  1
  Br  Br48  1  0.275424  0.070970  0.937582  1
  Br  Br49  1  0.838069  0.631208  0.919834  1
  Br  Br50  1  0.865723  0.868981  0.697430  1
  Br  Br51  1  0.497738  0.248794  0.886781  1
  Br  Br52  1  0.500305  0.754897  0.362936  1
  Br  Br53  1  0.137694  0.131515  0.573882  1
  Br  Br54  1  0.157923  0.368705  0.340841  1
  Br  Br55  1  0.277900  0.571536  0.200077  1
  Br  Br56  1  0.717271  0.425382  0.803941  1
  Br  Br57  1  0.858294  0.634799  0.660351  1
  Br  Br58  1  0.839128  0.870827  0.411577  1
  Br  Br59  1  0.496632  0.255812  0.624651  1
  Br  Br60  1  0.500326  0.748493  0.116559  1
  Br  Br61  1  0.146382  0.127033  0.305260  1
  Br  Br62  1  0.138290  0.363877  0.075232  1
  Br  Br63  1  0.717148  0.928636  0.064728  1
  Br  Br64  1  0.721022  0.570812  0.419715  1
  Br  Br65  1  0.501085  0.435552  0.313481  1
  Br  Br66  1  0.497078  0.062739  0.683041  1
  Br  Br67  1  0.851540  0.137603  0.917785  1
  Br  Br68  1  0.837600  0.369244  0.682433  1
  Br  Br69  1  0.502986  0.242107  0.377153  1
  Br  Br70  1  0.878967  0.750454  0.187322  1
  Br  Br71  1  0.262337  0.065828  0.213354  1
  Br  Br72  1  0.738135  0.566617  0.151859  1
  Br  Br73  1  0.850016  0.126593  0.655730  1
  Br  Br74  1  0.870304  0.375142  0.415025  1
  Br  Br75  1  0.499537  0.251564  0.117340  1
  Br  Br76  1  0.727650  0.431332  0.065912  1
  Br  Br77  1  0.726757  0.066402  0.446681  1
  Br  Br78  1  0.878051  0.247465  0.193120  1
  Br  Br79  1  0.720848  0.072167  0.153764  1
