# generated using pymatgen
data_YZr5O12
_symmetry_space_group_name_H-M   'P 1'
_cell_length_a   10.99293061
_cell_length_b   5.16938261
_cell_length_c   6.41509302
_cell_angle_alpha   66.23991508
_cell_angle_beta   55.16258709
_cell_angle_gamma   45.14062667
_symmetry_Int_Tables_number   1
_chemical_formula_structural   YZr5O12
_chemical_formula_sum   'Y1 Zr5 O12'
_cell_volume   212.09395417
_cell_formula_units_Z   1
loop_
 _symmetry_equiv_pos_site_id
 _symmetry_equiv_pos_as_xyz
  1  'x, y, z'
loop_
 _atom_site_type_symbol
 _atom_site_label
 _atom_site_symmetry_multiplicity
 _atom_site_fract_x
 _atom_site_fract_y
 _atom_site_fract_z
 _atom_site_occupancy
  Y  Y0  1  0.500000  0.499863  0.500000  1
  Zr  Zr1  1  1.000000  0.994370  0.000000  1
  Zr  Zr2  1  0.333533  0.002120  0.001076  1
  Zr  Zr3  1  0.165093  0.501823  0.501360  1
  Zr  Zr4  1  0.666467  0.003795  -0.001076  1
  Zr  Zr5  1  0.834907  0.498462  0.498640  1
  O  O6  1  0.071163  0.000027  0.288349  1
  O  O7  1  0.094321  0.501432  0.218852  1
  O  O8  1  0.402333  0.022925  0.270410  1
  O  O9  1  0.233366  0.005277  0.790540  1
  O  O10  1  0.424131  0.503144  0.215459  1
  O  O11  1  0.249440  0.497191  0.731706  1
  O  O12  1  0.750560  0.977215  0.268294  1
  O  O13  1  0.575869  0.990995  0.784541  1
  O  O14  1  0.597667  0.500333  0.729590  1
  O  O15  1  0.766634  0.495913  0.209460  1
  O  O16  1  0.905679  0.003248  0.781148  1
  O  O17  1  0.928837  0.501867  0.711651  1
