# generated using pymatgen
data_MgSiO3
_symmetry_space_group_name_H-M   'P 1'
_cell_length_a   5.06236394
_cell_length_b   8.48560601
_cell_length_c   9.49556645
_cell_angle_alpha   90.00000000
_cell_angle_beta   90.00000000
_cell_angle_gamma   90.00000000
_symmetry_Int_Tables_number   1
_chemical_formula_structural   MgSiO3
_chemical_formula_sum   'Mg8 Si8 O24'
_cell_volume   407.90319279
_cell_formula_units_Z   8
loop_
 _symmetry_equiv_pos_site_id
 _symmetry_equiv_pos_as_xyz
  1  'x, y, z'
loop_
 _atom_site_type_symbol
 _atom_site_label
 _atom_site_symmetry_multiplicity
 _atom_site_fract_x
 _atom_site_fract_y
 _atom_site_fract_z
 _atom_site_occupancy
  Mg  Mg0  1  0.926047  0.883235  0.711951  1
  Mg  Mg1  1  0.831720  0.645048  0.514554  1
  Mg  Mg2  1  0.073953  0.116765  0.211951  1
  Mg  Mg3  1  0.573953  0.383235  0.211951  1
  Mg  Mg4  1  0.168280  0.354952  0.014554  1
  Mg  Mg5  1  0.668280  0.145048  0.014554  1
  Mg  Mg6  1  0.426047  0.616765  0.711951  1
  Mg  Mg7  1  0.331720  0.854952  0.514554  1
  Si  Si8  1  0.810269  0.341416  0.753522  1
  Si  Si9  1  0.689731  0.841416  0.253522  1
  Si  Si10  1  0.310269  0.158584  0.753522  1
  Si  Si11  1  0.189731  0.658584  0.253522  1
  Si  Si12  1  0.655445  0.151951  0.469503  1
  Si  Si13  1  0.844555  0.651951  0.969503  1
  Si  Si14  1  0.155445  0.348049  0.469503  1
  Si  Si15  1  0.344555  0.848049  0.969503  1
  O  O16  1  0.373108  0.205732  0.127884  1
  O  O17  1  0.071655  0.507117  0.384258  1
  O  O18  1  0.928345  0.492883  0.884258  1
  O  O19  1  0.126892  0.705732  0.627884  1
  O  O20  1  -0.010683  0.796124  0.345244  1
  O  O21  1  0.626892  0.794268  0.627884  1
  O  O22  1  0.571655  0.992883  0.384258  1
  O  O23  1  0.489317  0.703876  0.345244  1
  O  O24  1  0.454264  0.296381  0.412662  1
  O  O25  1  0.847992  0.657574  0.142632  1
  O  O26  1  0.045736  0.796381  0.912663  1
  O  O27  1  0.010683  0.203876  0.845244  1
  O  O28  1  -0.045736  0.203619  0.412662  1
  O  O29  1  0.545736  0.703619  0.912663  1
  O  O30  1  0.190355  0.033560  0.637789  1
  O  O31  1  0.347992  0.842426  0.142632  1
  O  O32  1  0.873108  0.294268  0.127884  1
  O  O33  1  0.428345  0.007117  0.884258  1
  O  O34  1  0.809645  0.966440  0.137789  1
  O  O35  1  0.652008  0.157575  0.642632  1
  O  O36  1  0.510683  0.296124  0.845244  1
  O  O37  1  0.309645  0.533560  0.137789  1
  O  O38  1  0.152008  0.342425  0.642632  1
  O  O39  1  0.690355  0.466440  0.637789  1
