# generated using pymatgen
data_FeHO2
_symmetry_space_group_name_H-M   'P 1'
_cell_length_a   9.74078480
_cell_length_b   3.05524883
_cell_length_c   4.96295586
_cell_angle_alpha   91.16863247
_cell_angle_beta   90.00000000
_cell_angle_gamma   90.00000000
_symmetry_Int_Tables_number   1
_chemical_formula_structural   FeHO2
_chemical_formula_sum   'Fe4 H4 O8'
_cell_volume   147.66943210
_cell_formula_units_Z   4
loop_
 _symmetry_equiv_pos_site_id
 _symmetry_equiv_pos_as_xyz
  1  'x, y, z'
loop_
 _atom_site_type_symbol
 _atom_site_label
 _atom_site_symmetry_multiplicity
 _atom_site_fract_x
 _atom_site_fract_y
 _atom_site_fract_z
 _atom_site_occupancy
  Fe  Fe0  1  0.619862  0.238487  0.546724  1
  Fe  Fe1  1  0.119862  0.261513  0.953276  1
  Fe  Fe2  1  0.314704  0.755936  0.440762  1
  Fe  Fe3  1  0.814704  0.744064  0.059238  1
  H  H4  1  0.373898  0.261857  0.964869  1
  H  H5  1  0.873898  0.238143  0.535131  1
  H  H6  1  0.548296  0.715181  0.100242  1
  H  H7  1  0.048296  0.784819  0.399758  1
  O  O8  1  0.318728  0.263118  0.134801  1
  O  O9  1  0.818728  0.236882  0.365199  1
  O  O10  1  0.671045  0.746681  0.778694  1
  O  O11  1  0.171045  0.753319  0.721306  1
  O  O12  1  0.415052  0.254555  0.617840  1
  O  O13  1  0.915052  0.245445  0.882160  1
  O  O14  1  0.599455  0.727127  0.270042  1
  O  O15  1  0.099455  0.772873  0.229958  1
