# generated using pymatgen
data_TlMo2Cl7O2
_symmetry_space_group_name_H-M   'P 1'
_cell_length_a   7.23457400
_cell_length_b   9.59986192
_cell_length_c   9.84460312
_cell_angle_alpha   90.00000000
_cell_angle_beta   90.00000000
_cell_angle_gamma   90.00000000
_symmetry_Int_Tables_number   1
_chemical_formula_structural   TlMo2Cl7O2
_chemical_formula_sum   'Tl2 Mo4 Cl14 O4'
_cell_volume   683.71665955
_cell_formula_units_Z   2
loop_
 _symmetry_equiv_pos_site_id
 _symmetry_equiv_pos_as_xyz
  1  'x, y, z'
loop_
 _atom_site_type_symbol
 _atom_site_label
 _atom_site_symmetry_multiplicity
 _atom_site_fract_x
 _atom_site_fract_y
 _atom_site_fract_z
 _atom_site_occupancy
  Tl  Tl0  1  0.750000  0.527375  0.250000  1
  Tl  Tl1  1  0.250000  0.472625  0.750000  1
  Mo  Mo2  1  0.250000  0.811523  0.070733  1
  Mo  Mo3  1  0.750000  0.188477  0.929267  1
  Mo  Mo4  1  0.750000  0.188477  0.570733  1
  Mo  Mo5  1  0.250000  0.811523  0.429267  1
  Cl  Cl6  1  0.981285  0.116086  0.750000  1
  Cl  Cl7  1  0.750000  0.399453  0.750000  1
  Cl  Cl8  1  0.017352  0.691936  0.548776  1
  Cl  Cl9  1  0.517352  0.308064  0.451224  1
  Cl  Cl10  1  0.482648  0.691936  0.548776  1
  Cl  Cl11  1  0.518715  0.116086  0.750000  1
  Cl  Cl12  1  0.517352  0.308064  0.048776  1
  Cl  Cl13  1  0.250000  0.600547  0.250000  1
  Cl  Cl14  1  0.482648  0.691936  0.951224  1
  Cl  Cl15  1  0.017352  0.691936  0.951224  1
  Cl  Cl16  1  0.481285  0.883914  0.250000  1
  Cl  Cl17  1  0.982648  0.308064  0.048776  1
  Cl  Cl18  1  0.982648  0.308064  0.451224  1
  Cl  Cl19  1  0.018715  0.883914  0.250000  1
  O  O20  1  0.750000  0.029780  0.004765  1
  O  O21  1  0.250000  0.970220  0.995235  1
  O  O22  1  0.750000  0.029780  0.495235  1
  O  O23  1  0.250000  0.970220  0.504765  1
