# generated using pymatgen
data_NdInPt
_symmetry_space_group_name_H-M   'P 1'
_cell_length_a   7.73741899
_cell_length_b   7.73029623
_cell_length_c   4.09866575
_cell_angle_alpha   90.00036480
_cell_angle_beta   89.99721612
_cell_angle_gamma   120.00828106
_symmetry_Int_Tables_number   1
_chemical_formula_structural   NdInPt
_chemical_formula_sum   'Nd3 In3 Pt3'
_cell_volume   212.28980573
_cell_formula_units_Z   3
loop_
 _symmetry_equiv_pos_site_id
 _symmetry_equiv_pos_as_xyz
  1  'x, y, z'
loop_
 _atom_site_type_symbol
 _atom_site_label
 _atom_site_symmetry_multiplicity
 _atom_site_fract_x
 _atom_site_fract_y
 _atom_site_fract_z
 _atom_site_occupancy
  Nd  Nd0  1  0.999898  0.587618  0.499730  1
  Nd  Nd1  1  0.588062  0.000007  0.500298  1
  Nd  Nd2  1  0.412202  0.412262  0.499579  1
  In  In3  1  0.000008  0.250565  0.999944  1
  In  In4  1  0.250353  0.999949  0.000161  1
  In  In5  1  0.749348  0.749479  0.999827  1
  Pt  Pt6  1  0.999925  0.999973  0.499955  1
  Pt  Pt7  1  0.666825  0.333380  0.000402  1
  Pt  Pt8  1  0.333379  0.666767  0.000103  1
