# generated using pymatgen
data_Li11Sc7Ti(PO4)12
_symmetry_space_group_name_H-M   'P 1'
_cell_length_a   10.18287405
_cell_length_b   9.95544474
_cell_length_c   9.49872563
_cell_angle_alpha   96.16087230
_cell_angle_beta   92.50878068
_cell_angle_gamma   89.96207404
_symmetry_Int_Tables_number   1
_chemical_formula_structural   Li11Sc7Ti(PO4)12
_chemical_formula_sum   'Li11 Sc7 Ti1 P12 O48'
_cell_volume   956.44674055
_cell_formula_units_Z   1
loop_
 _symmetry_equiv_pos_site_id
 _symmetry_equiv_pos_as_xyz
  1  'x, y, z'
loop_
 _atom_site_type_symbol
 _atom_site_label
 _atom_site_symmetry_multiplicity
 _atom_site_fract_x
 _atom_site_fract_y
 _atom_site_fract_z
 _atom_site_occupancy
  Li  Li0  1  0.248738  0.730392  0.780606  1
  Li  Li1  1  0.163035  0.822207  0.063540  1
  Li  Li2  1  0.307981  0.349337  0.650836  1
  Li  Li3  1  0.253290  0.303073  0.359427  1
  Li  Li4  1  0.458777  0.568698  0.757627  1
  Li  Li5  1  0.480422  0.390635  0.365532  1
  Li  Li6  1  0.745140  0.749320  0.667292  1
  Li  Li7  1  0.664207  0.794233  0.306078  1
  Li  Li8  1  0.784380  0.234072  0.255729  1
  Li  Li9  1  0.864721  0.219360  0.811824  1
  Li  Li10  1  0.951248  0.848276  0.236917  1
  Sc  Sc11  1  0.250770  0.360378  0.018339  1
  Sc  Sc12  1  0.220066  0.587125  0.481672  1
  Sc  Sc13  1  0.241131  0.943987  0.424880  1
  Sc  Sc14  1  0.745644  0.040800  0.550842  1
  Sc  Sc15  1  0.748698  0.485896  0.406405  1
  Sc  Sc16  1  0.715072  0.914093  0.984282  1
  Sc  Sc17  1  0.739777  0.582634  0.010471  1
  Ti  Ti18  1  0.255224  0.053591  0.799613  1
  P  P19  1  -0.001302  0.250593  0.496664  1
  P  P20  1  0.078758  0.126110  0.207017  1
  P  P21  1  0.023686  0.465007  0.755946  1
  P  P22  1  0.412246  0.646086  0.242690  1
  P  P23  1  0.507261  0.866216  0.672080  1
  P  P24  1  0.455817  0.744129  0.050175  1
  P  P25  1  0.504768  0.164484  0.991031  1
  P  P26  1  0.480474  0.091524  0.299007  1
  P  P27  1  0.625341  0.353031  0.734249  1
  P  P28  1  0.995540  0.588732  0.240490  1
  P  P29  1  0.970660  0.911887  0.808147  1
  P  P30  1  0.007171  0.850310  0.578669  1
  O  O31  1  0.052899  0.877263  0.427418  1
  O  O32  1  0.087933  0.723426  0.612191  1
  O  O33  1  0.051970  0.692768  0.154974  1
  O  O34  1  0.112342  0.937560  0.881759  1
  O  O35  1  0.099370  0.171925  0.384312  1
  O  O36  1  0.098444  0.335280  0.598486  1
  O  O37  1  0.183701  0.009422  0.618959  1
  O  O38  1  0.101703  0.501847  0.305839  1
  O  O39  1  0.174296  0.228659  0.153666  1
  O  O40  1  0.221790  0.225837  0.839893  1
  O  O41  1  0.172757  0.503575  0.843601  1
  O  O42  1  0.133640  0.981804  0.205067  1
  O  O43  1  0.334565  0.446971  0.477220  1
  O  O44  1  0.422250  0.995159  0.667341  1
  O  O45  1  0.316469  0.723408  0.353814  1
  O  O46  1  0.417164  0.741868  0.670609  1
  O  O47  1  0.262769  0.537180  0.732019  1
  O  O48  1  0.391601  0.967880  0.291533  1
  O  O49  1  0.340322  0.517989  0.172884  1
  O  O50  1  0.323764  0.763819  0.973645  1
  O  O51  1  0.417301  0.205120  0.388922  1
  O  O52  1  0.478692  0.341704  0.743071  1
  O  O53  1  0.433149  0.303104  0.028586  1
  O  O54  1  0.391728  0.057558  0.945372  1
  O  O55  1  0.541243  0.632181  0.967429  1
  O  O56  1  0.543787  0.869361  0.085872  1
  O  O57  1  0.550325  0.624629  0.311451  1
  O  O58  1  0.604814  0.859632  0.550487  1
  O  O59  1  0.540682  0.128437  0.161328  1
  O  O60  1  0.704481  0.411682  0.867191  1
  O  O61  1  0.609283  0.872385  0.804320  1
  O  O62  1  0.771284  0.457743  0.167126  1
  O  O63  1  0.694106  0.221379  0.674851  1
  O  O64  1  0.650298  0.336041  0.350961  1
  O  O65  1  0.623338  0.478999  0.631456  1
  O  O66  1  0.613957  0.020093  0.367943  1
  O  O67  1  0.871692  0.029401  0.841700  1
  O  O68  1  0.906417  0.490142  0.116784  1
  O  O69  1  0.898172  0.785979  0.848037  1
  O  O70  1  0.778850  0.774909  0.098473  1
  O  O71  1  0.752762  0.550830  0.626866  1
  O  O72  1  0.751547  0.051428  0.334273  1
  O  O73  1  0.893787  0.638175  0.347999  1
  O  O74  1  0.852669  0.854442  0.549759  1
  O  O75  1  0.936822  0.133202  0.158699  1
  O  O76  1  0.975992  0.370546  0.857274  1
  O  O77  1  0.908146  0.335892  0.413017  1
  O  O78  1  0.928186  0.144153  0.570845  1
