# generated using pymatgen
data_RbAg4I5
_symmetry_space_group_name_H-M   'P 1'
_cell_length_a   11.78668524
_cell_length_b   12.24502340
_cell_length_c   12.04973100
_cell_angle_alpha   89.83325301
_cell_angle_beta   93.36005494
_cell_angle_gamma   86.59893937
_symmetry_Int_Tables_number   1
_chemical_formula_structural   RbAg4I5
_chemical_formula_sum   'Rb4 Ag16 I20'
_cell_volume   1733.03337834
_cell_formula_units_Z   4
loop_
 _symmetry_equiv_pos_site_id
 _symmetry_equiv_pos_as_xyz
  1  'x, y, z'
loop_
 _atom_site_type_symbol
 _atom_site_label
 _atom_site_symmetry_multiplicity
 _atom_site_fract_x
 _atom_site_fract_y
 _atom_site_fract_z
 _atom_site_occupancy
  Rb  Rb0  1  0.172410  0.106722  0.114185  1
  Rb  Rb1  1  0.421364  0.733268  0.520085  1
  Rb  Rb2  1  0.515454  0.362501  0.866811  1
  Rb  Rb3  1  0.902572  0.607182  0.336161  1
  Ag  Ag4  1  0.431170  0.910795  0.232725  1
  Ag  Ag5  1  0.403004  0.303089  0.321898  1
  Ag  Ag6  1  0.797938  0.582266  0.905360  1
  Ag  Ag7  1  0.713423  0.040001  0.784443  1
  Ag  Ag8  1  0.732352  0.199122  0.568789  1
  Ag  Ag9  1  0.678650  0.740800  0.077233  1
  Ag  Ag10  1  0.849025  0.323734  0.173328  1
  Ag  Ag11  1  0.869271  0.814198  0.581585  1
  Ag  Ag12  1  0.891476  0.298987  0.431218  1
  Ag  Ag13  1  0.823395  0.003551  0.008699  1
  Ag  Ag14  1  0.017221  0.955709  0.737346  1
  Ag  Ag15  1  0.775766  0.996213  0.263475  1
  Ag  Ag16  1  0.041499  0.594299  0.752839  1
  Ag  Ag17  1  0.064486  0.222613  0.617831  1
  Ag  Ag18  1  0.179199  0.764460  0.024214  1
  Ag  Ag19  1  0.971212  0.375676  0.809899  1
  I  I20  1  0.030725  0.568287  0.976808  1
  I  I21  1  0.061536  0.345005  0.292883  1
  I  I22  1  0.085098  0.701410  0.565320  1
  I  I23  1  0.214759  0.921405  0.865063  1
  I  I24  1  0.199009  0.347205  0.741774  1
  I  I25  1  0.332168  0.712611  0.201225  1
  I  I26  1  0.355749  0.070835  0.372066  1
  I  I27  1  0.348691  0.330180  0.096085  1
  I  I28  1  0.594953  0.624879  0.784741  1
  I  I29  1  0.452218  0.441169  0.493656  1
  I  I30  1  0.589024  0.949783  0.059521  1
  I  I31  1  0.539034  0.140667  0.667477  1
  I  I32  1  0.696785  0.832263  0.415468  1
  I  I33  1  0.695800  0.522747  0.123914  1
  I  I34  1  0.691847  0.210601  0.307834  1
  I  I35  1  0.830774  0.842913  0.816599  1
  I  I36  1  0.817128  0.418278  0.618685  1
  I  I37  1  0.861984  0.225119  0.954188  1
  I  I38  1  0.965387  0.882077  0.169764  1
  I  I39  1  0.947443  0.056380  0.531805  1
