# generated using pymatgen
data_Ca6Si2H6O13
_symmetry_space_group_name_H-M   'P 1'
_cell_length_a   10.11226936
_cell_length_b   10.11228718
_cell_length_c   7.53252209
_cell_angle_alpha   90.00005715
_cell_angle_beta   90.00020606
_cell_angle_gamma   119.99961025
_symmetry_Int_Tables_number   1
_chemical_formula_structural   Ca6Si2H6O13
_chemical_formula_sum   'Ca12 Si4 H12 O26'
_cell_volume   667.06902555
_cell_formula_units_Z   2
loop_
 _symmetry_equiv_pos_site_id
 _symmetry_equiv_pos_as_xyz
  1  'x, y, z'
loop_
 _atom_site_type_symbol
 _atom_site_label
 _atom_site_symmetry_multiplicity
 _atom_site_fract_x
 _atom_site_fract_y
 _atom_site_fract_z
 _atom_site_occupancy
  Ca  Ca0  1  0.376397  0.333876  0.992371  1
  Ca  Ca1  1  0.957464  0.623589  0.992377  1
  Ca  Ca2  1  0.666124  0.042526  0.992371  1
  Ca  Ca3  1  0.381468  0.335773  0.497374  1
  Ca  Ca4  1  0.954315  0.618542  0.497370  1
  Ca  Ca5  1  0.664227  0.045689  0.497374  1
  Ca  Ca6  1  0.336003  0.955281  0.244254  1
  Ca  Ca7  1  0.619276  0.663999  0.244255  1
  Ca  Ca8  1  0.044713  0.380716  0.244262  1
  Ca  Ca9  1  0.331758  0.956693  0.750234  1
  Ca  Ca10  1  0.624942  0.668242  0.750233  1
  Ca  Ca11  1  0.043313  0.375072  0.750230  1
  Si  Si12  1  0.666662  0.333331  0.715103  1
  Si  Si13  1  0.666658  0.333330  0.274270  1
  Si  Si14  1  0.333339  0.666670  0.027510  1
  Si  Si15  1  0.333342  0.666670  0.466288  1
  H  H16  1  0.000428  0.840576  0.738802  1
  H  H17  1  0.840154  -0.000426  0.738802  1
  H  H18  1  0.159419  0.159848  0.738801  1
  H  H19  1  0.839413  0.837129  0.999309  1
  H  H20  1  0.997718  0.160593  0.999307  1
  H  H21  1  0.162867  0.002280  0.999309  1
  H  H22  1  0.836235  0.826904  0.496705  1
  H  H23  1  0.990669  0.163768  0.496707  1
  H  H24  1  0.173092  0.009330  0.496705  1
  H  H25  1  0.014401  0.835091  0.241113  1
  H  H26  1  0.820699  0.985602  0.241114  1
  H  H27  1  0.164904  0.179305  0.241114  1
  O  O28  1  0.666626  0.333312  0.494802  1
  O  O29  1  0.333368  0.666684  0.247159  1
  O  O30  1  0.556179  0.403929  0.223864  1
  O  O31  1  0.847742  0.443816  0.223896  1
  O  O32  1  0.596067  0.152253  0.223867  1
  O  O33  1  0.555978  0.403183  0.765776  1
  O  O34  1  0.847206  0.444023  0.765739  1
  O  O35  1  0.596817  0.152796  0.765772  1
  O  O36  1  0.401771  0.846656  0.976053  1
  O  O37  1  0.444889  0.598232  0.976049  1
  O  O38  1  0.153343  0.555113  0.976083  1
  O  O39  1  0.404763  0.847877  0.517182  1
  O  O40  1  0.443121  0.595240  0.517184  1
  O  O41  1  0.152127  0.556884  0.517153  1
  O  O42  1  0.075925  0.785352  0.246547  1
  O  O43  1  0.709436  0.924080  0.246551  1
  O  O44  1  0.214642  0.290568  0.246553  1
  O  O45  1  0.067410  0.796905  0.739542  1
  O  O46  1  0.729503  0.932589  0.739535  1
  O  O47  1  0.203085  0.270500  0.739533  1
  O  O48  1  0.273061  0.067763  0.004022  1
  O  O49  1  0.794706  0.726937  0.004022  1
  O  O50  1  0.932237  0.205305  0.004015  1
  O  O51  1  0.283929  0.072886  0.492079  1
  O  O52  1  0.788961  0.716068  0.492076  1
  O  O53  1  0.927110  0.211046  0.492083  1
