# generated using pymatgen
data_Cu2Bi8Pb6S19
_symmetry_space_group_name_H-M   'P 1'
_cell_length_a   4.05561328
_cell_length_b   14.22505166
_cell_length_c   15.96419125
_cell_angle_alpha   89.35521753
_cell_angle_beta   82.72006740
_cell_angle_gamma   81.77604682
_symmetry_Int_Tables_number   1
_chemical_formula_structural   Cu2Bi8Pb6S19
_chemical_formula_sum   'Cu2 Bi8 Pb6 S19'
_cell_volume   904.15398787
_cell_formula_units_Z   1
loop_
 _symmetry_equiv_pos_site_id
 _symmetry_equiv_pos_as_xyz
  1  'x, y, z'
loop_
 _atom_site_type_symbol
 _atom_site_label
 _atom_site_symmetry_multiplicity
 _atom_site_fract_x
 _atom_site_fract_y
 _atom_site_fract_z
 _atom_site_occupancy
  Cu  Cu0  1  0.546370  0.011938  0.909293  1
  Cu  Cu1  1  0.456933  0.987398  0.089915  1
  Bi  Bi2  1  0.896755  0.246325  0.955172  1
  Bi  Bi3  1  0.292855  0.863815  0.538634  1
  Bi  Bi4  1  0.091038  0.102666  0.706227  1
  Bi  Bi5  1  0.700757  0.136451  0.460686  1
  Bi  Bi6  1  0.902124  0.896522  0.293229  1
  Bi  Bi7  1  0.096623  0.753148  0.043631  1
  Bi  Bi8  1  0.778509  0.546170  0.895102  1
  Bi  Bi9  1  0.218997  0.453265  0.104454  1
  Pb  Pb10  1  0.683898  0.839868  0.778685  1
  Pb  Pb11  1  0.300162  0.159409  0.220553  1
  Pb  Pb12  1  0.098619  0.392329  0.406900  1
  Pb  Pb13  1  0.507095  0.636277  0.346054  1
  Pb  Pb14  1  0.494395  0.362977  0.654436  1
  Pb  Pb15  1  0.901175  0.607510  0.592982  1
  S  S16  1  0.503900  0.208644  0.776043  1
  S  S17  1  0.305233  0.023325  0.375270  1
  S  S18  1  0.090924  0.986885  0.838535  1
  S  S19  1  0.112677  0.234579  0.546070  1
  S  S20  1  0.910535  0.012725  0.161076  1
  S  S21  1  0.885798  0.766218  0.453788  1
  S  S22  1  0.327722  0.411721  0.933633  1
  S  S23  1  0.904051  0.473398  0.727182  1
  S  S24  1  0.099771  0.526922  0.272966  1
  S  S25  1  0.494274  0.790705  0.223726  1
  S  S26  1  0.567116  0.867027  0.993522  1
  S  S27  1  0.211957  0.688984  0.885946  1
  S  S28  1  0.292553  0.744847  0.666910  1
  S  S29  1  0.500202  0.499799  0.500087  1
  S  S30  1  0.429755  0.132554  0.005555  1
  S  S31  1  0.696053  0.975866  0.624931  1
  S  S32  1  0.672516  0.587952  0.066544  1
  S  S33  1  0.705276  0.254317  0.332850  1
  S  S34  1  0.788891  0.310091  0.113072  1
