# generated using pymatgen
data_SrPrGaCuO5
_symmetry_space_group_name_H-M   'P 1'
_cell_length_a   6.07413262
_cell_length_b   5.83057464
_cell_length_c   8.17752992
_cell_angle_alpha   108.66344698
_cell_angle_beta   105.84025420
_cell_angle_gamma   88.69702803
_symmetry_Int_Tables_number   1
_chemical_formula_structural   SrPrGaCuO5
_chemical_formula_sum   'Sr2 Pr2 Ga2 Cu2 O10'
_cell_volume   263.30006358
_cell_formula_units_Z   2
loop_
 _symmetry_equiv_pos_site_id
 _symmetry_equiv_pos_as_xyz
  1  'x, y, z'
loop_
 _atom_site_type_symbol
 _atom_site_label
 _atom_site_symmetry_multiplicity
 _atom_site_fract_x
 _atom_site_fract_y
 _atom_site_fract_z
 _atom_site_occupancy
  Sr  Sr0  1  0.351712  0.825620  0.748282  1
  Sr  Sr1  1  -0.003308  0.301788  0.725469  1
  Pr  Pr2  1  0.133521  0.636822  0.224709  1
  Pr  Pr3  1  0.578744  0.130947  0.177338  1
  Ga  Ga4  1  0.419556  0.226393  0.537464  1
  Ga  Ga5  1  0.719883  0.701245  0.471079  1
  Cu  Cu6  1  0.640749  0.488992  0.986527  1
  Cu  Cu7  1  0.999676  0.007480  0.007636  1
  O  O8  1  0.269058  0.829175  0.062347  1
  O  O9  1  0.185439  -0.002551  0.485875  1
  O  O10  1  0.656070  0.027518  0.471778  1
  O  O11  1  0.415603  0.429124  0.757110  1
  O  O12  1  0.214964  0.252445  0.013309  1
  O  O13  1  0.806175  0.809653  0.059869  1
  O  O14  1  0.723674  0.153019  0.929226  1
  O  O15  1  0.443915  0.478127  0.427757  1
  O  O16  1  0.945349  0.678881  0.658566  1
  O  O17  1  0.775219  0.525324  0.255659  1
