# generated using pymatgen
data_Al2CoO4
_symmetry_space_group_name_H-M   'P 1'
_cell_length_a   5.78149931
_cell_length_b   5.78149877
_cell_length_c   28.95848036
_cell_angle_alpha   60.05822100
_cell_angle_beta   60.05822452
_cell_angle_gamma   59.99999380
_symmetry_Int_Tables_number   1
_chemical_formula_structural   Al2CoO4
_chemical_formula_sum   'Al20 Co10 O40'
_cell_volume   685.05162513
_cell_formula_units_Z   10
loop_
 _symmetry_equiv_pos_site_id
 _symmetry_equiv_pos_as_xyz
  1  'x, y, z'
loop_
 _atom_site_type_symbol
 _atom_site_label
 _atom_site_symmetry_multiplicity
 _atom_site_fract_x
 _atom_site_fract_y
 _atom_site_fract_z
 _atom_site_occupancy
  Al  Al0  1  0.245057  0.245057  0.052966  1
  Al  Al1  1  0.118310  0.628692  0.124861  1
  Al  Al2  1  0.248468  0.248468  0.250919  1
  Al  Al3  1  0.628692  0.118310  0.124861  1
  Al  Al4  1  0.628692  0.628692  0.124861  1
  Al  Al5  1  0.120659  0.626822  0.325140  1
  Al  Al6  1  0.626822  0.120659  0.325140  1
  Al  Al7  1  0.124190  0.624947  0.525183  1
  Al  Al8  1  0.626822  0.626822  0.325140  1
  Al  Al9  1  0.623937  0.623937  0.425638  1
  Al  Al10  1  0.624947  0.124190  0.525183  1
  Al  Al11  1  0.624947  0.624947  0.525183  1
  Al  Al12  1  0.124120  0.623926  0.725605  1
  Al  Al13  1  0.623926  0.124120  0.725605  1
  Al  Al14  1  0.624323  0.624323  0.625406  1
  Al  Al15  1  0.121948  0.627764  0.924505  1
  Al  Al16  1  0.623926  0.623926  0.725605  1
  Al  Al17  1  0.624564  0.624564  0.825261  1
  Al  Al18  1  0.627764  0.121948  0.924505  1
  Al  Al19  1  0.627764  0.627764  0.924505  1
  Co  Co20  1  0.003841  0.003841  0.997696  1
  Co  Co21  1  0.628003  0.628003  0.023198  1
  Co  Co22  1  0.002691  0.002691  0.198386  1
  Co  Co23  1  0.626082  0.626082  0.224351  1
  Co  Co24  1  -0.000058  -0.000058  0.400035  1
  Co  Co25  1  0.251855  0.251855  0.448887  1
  Co  Co26  1  0.249734  0.249734  0.650160  1
  Co  Co27  1  0.998887  0.998887  0.600668  1
  Co  Co28  1  0.246016  0.246016  0.852390  1
  Co  Co29  1  0.000964  0.000964  0.799422  1
  O  O30  1  0.370401  0.370401  0.080945  1
  O  O31  1  0.380181  0.380181  0.171891  1
  O  O32  1  0.370401  0.854475  0.080945  1
  O  O33  1  0.854475  0.370401  0.080945  1
  O  O34  1  0.366942  0.366942  0.280530  1
  O  O35  1  0.413970  0.872352  0.168265  1
  O  O36  1  0.863452  0.863452  0.081929  1
  O  O37  1  0.872352  0.413970  0.168265  1
  O  O38  1  0.394691  0.394691  0.363185  1
  O  O39  1  0.366942  0.863467  0.280530  1
  O  O40  1  0.863467  0.366942  0.280530  1
  O  O41  1  0.872352  0.872352  0.168265  1
  O  O42  1  0.389315  0.389315  0.477642  1
  O  O43  1  0.419141  0.858356  0.372829  1
  O  O44  1  0.861193  0.861193  0.283284  1
  O  O45  1  0.389315  0.833160  0.477642  1
  O  O46  1  0.858356  0.419141  0.372829  1
  O  O47  1  0.390090  0.390090  0.565946  1
  O  O48  1  0.833160  0.389315  0.477642  1
  O  O49  1  0.858356  0.858356  0.372829  1
  O  O50  1  0.389380  0.389380  0.678015  1
  O  O51  1  0.418527  0.860796  0.571976  1
  O  O52  1  0.860796  0.418527  0.571976  1
  O  O53  1  0.860798  0.860798  0.483521  1
  O  O54  1  0.387949  0.387949  0.767231  1
  O  O55  1  0.389380  0.831166  0.678015  1
  O  O56  1  0.831166  0.389380  0.678015  1
  O  O57  1  0.860796  0.860796  0.571976  1
  O  O58  1  0.391286  0.391286  0.878394  1
  O  O59  1  0.419043  0.860397  0.772033  1
  O  O60  1  0.860397  0.419043  0.772033  1
  O  O61  1  0.860314  0.860314  0.683811  1
  O  O62  1  0.374995  0.374995  0.975003  1
  O  O63  1  0.391286  0.825461  0.878394  1
  O  O64  1  0.825461  0.391286  0.878394  1
  O  O65  1  0.860397  0.860397  0.772033  1
  O  O66  1  0.415127  0.876298  0.966455  1
  O  O67  1  0.863859  0.863859  0.881684  1
  O  O68  1  0.876298  0.415127  0.966455  1
  O  O69  1  0.876298  0.876298  0.966455  1
