# generated using pymatgen
data_CaCeC2O6F
_symmetry_space_group_name_H-M   'P 1'
_cell_length_a   7.22109641
_cell_length_b   7.24510035
_cell_length_c   18.78966930
_cell_angle_alpha   78.99811045
_cell_angle_beta   78.92136432
_cell_angle_gamma   60.10953683
_symmetry_Int_Tables_number   1
_chemical_formula_structural   CaCeC2O6F
_chemical_formula_sum   'Ca6 Ce6 C12 O36 F6'
_cell_volume   831.14531541
_cell_formula_units_Z   6
loop_
 _symmetry_equiv_pos_site_id
 _symmetry_equiv_pos_as_xyz
  1  'x, y, z'
loop_
 _atom_site_type_symbol
 _atom_site_label
 _atom_site_symmetry_multiplicity
 _atom_site_fract_x
 _atom_site_fract_y
 _atom_site_fract_z
 _atom_site_occupancy
  Ca  Ca0  1  0.839807  0.318802  0.500089  1
  Ca  Ca1  1  0.658698  0.181198  0.999911  1
  Ca  Ca2  1  0.160193  0.681198  0.499911  1
  Ca  Ca3  1  0.500000  0.000000  0.500000  1
  Ca  Ca4  1  0.341302  0.818802  0.000089  1
  Ca  Ca5  1  0.000000  0.500000  0.000000  1
  Ce  Ce6  1  0.926163  0.408831  0.250040  1
  Ce  Ce7  1  0.414966  0.908831  0.750040  1
  Ce  Ce8  1  0.585034  0.091169  0.249960  1
  Ce  Ce9  1  0.242331  0.750000  0.250000  1
  Ce  Ce10  1  0.757669  0.250000  0.750000  1
  Ce  Ce11  1  0.073837  0.591169  0.749960  1
  C  C12  1  0.918429  0.837132  0.114889  1
  C  C13  1  0.748042  0.964603  0.618198  1
  C  C14  1  0.330844  0.535397  0.881802  1
  C  C15  1  0.129549  0.337132  0.614889  1
  C  C16  1  0.700769  0.916387  0.886193  1
  C  C17  1  0.251958  0.035397  0.381802  1
  C  C18  1  0.081571  0.162868  0.885111  1
  C  C19  1  0.870451  0.662868  0.385111  1
  C  C20  1  0.496652  0.416387  0.386193  1
  C  C21  1  0.503348  0.583613  0.613807  1
  C  C22  1  0.669156  0.464603  0.118198  1
  C  C23  1  0.299231  0.083613  0.113807  1
  O  O24  1  0.173074  0.055171  0.322755  1
  O  O25  1  0.735418  0.011568  0.120812  1
  O  O26  1  0.615891  0.481093  0.054294  1
  O  O27  1  0.551000  0.444829  0.177245  1
  O  O28  1  0.564970  0.968198  0.622196  1
  O  O29  1  0.314564  0.176281  0.047802  1
  O  O30  1  0.014248  0.788057  0.049865  1
  O  O31  1  0.449000  0.555171  0.822755  1
  O  O32  1  0.622049  0.329048  0.329513  1
  O  O33  1  0.848722  0.981093  0.554294  1
  O  O34  1  0.719390  0.829048  0.829513  1
  O  O35  1  0.867798  0.488432  0.379188  1
  O  O36  1  0.461353  0.676281  0.547802  1
  O  O37  1  0.890641  0.784039  0.327050  1
  O  O38  1  0.303319  0.899550  0.121065  1
  O  O39  1  0.384109  0.518907  0.945706  1
  O  O40  1  0.998270  0.284039  0.827050  1
  O  O41  1  0.151278  0.018907  0.445706  1
  O  O42  1  0.985752  0.211943  0.950135  1
  O  O43  1  0.264582  0.988432  0.879188  1
  O  O44  1  0.435030  0.031802  0.377804  1
  O  O45  1  0.696681  0.100450  0.878935  1
  O  O46  1  0.538647  0.323719  0.452198  1
  O  O47  1  0.001730  0.715961  0.172950  1
  O  O48  1  0.377951  0.670952  0.670487  1
  O  O49  1  0.147830  0.288057  0.549865  1
  O  O50  1  0.280610  0.170952  0.170487  1
  O  O51  1  0.844636  0.468198  0.122196  1
  O  O52  1  0.676066  0.399550  0.621065  1
  O  O53  1  0.685436  0.823719  0.952198  1
  O  O54  1  0.155364  0.531802  0.877804  1
  O  O55  1  0.826926  0.944829  0.677245  1
  O  O56  1  0.852170  0.711943  0.450135  1
  O  O57  1  0.323934  0.600450  0.378935  1
  O  O58  1  0.132202  0.511568  0.620812  1
  O  O59  1  0.109359  0.215961  0.672950  1
  F  F60  1  0.755821  0.591973  0.726071  1
  F  F61  1  0.244179  0.408027  0.273929  1
  F  F62  1  0.926134  0.091973  0.226071  1
  F  F63  1  0.073866  0.908027  0.773929  1
  F  F64  1  0.414079  0.250000  0.750000  1
  F  F65  1  0.585921  0.750000  0.250000  1
