# generated using pymatgen
data_TiS2
_symmetry_space_group_name_H-M   'P 1'
_cell_length_a   6.54411319
_cell_length_b   6.10478956
_cell_length_c   8.90829532
_cell_angle_alpha   84.37851443
_cell_angle_beta   111.05479494
_cell_angle_gamma   114.26620059
_symmetry_Int_Tables_number   1
_chemical_formula_structural   TiS2
_chemical_formula_sum   'Ti4 S8'
_cell_volume   302.26809973
_cell_formula_units_Z   4
loop_
 _symmetry_equiv_pos_site_id
 _symmetry_equiv_pos_as_xyz
  1  'x, y, z'
loop_
 _atom_site_type_symbol
 _atom_site_label
 _atom_site_symmetry_multiplicity
 _atom_site_fract_x
 _atom_site_fract_y
 _atom_site_fract_z
 _atom_site_occupancy
  Ti  Ti0  1  0.203996  0.500223  0.372937  1
  Ti  Ti1  1  0.000000  0.000000  0.000000  1
  Ti  Ti2  1  0.796004  0.499777  0.627063  1
  Ti  Ti3  1  0.000000  0.000000  0.500000  1
  S  S4  1  0.919066  0.132378  0.216667  1
  S  S5  1  0.094387  0.375312  0.612839  1
  S  S6  1  0.161750  0.749487  0.149208  1
  S  S7  1  0.597268  0.787870  0.503097  1
  S  S8  1  0.402732  0.212130  0.496903  1
  S  S9  1  0.838250  0.250513  0.850792  1
  S  S10  1  0.905613  0.624688  0.387161  1
  S  S11  1  0.080934  0.867622  0.783333  1
