# generated using pymatgen
data_V2P2O9
_symmetry_space_group_name_H-M   'P 1'
_cell_length_a   7.52724960
_cell_length_b   8.54910348
_cell_length_c   9.69204265
_cell_angle_alpha   89.99942851
_cell_angle_beta   89.99986322
_cell_angle_gamma   89.99968565
_symmetry_Int_Tables_number   1
_chemical_formula_structural   V2P2O9
_chemical_formula_sum   'V8 P8 O36'
_cell_volume   623.69492145
_cell_formula_units_Z   4
loop_
 _symmetry_equiv_pos_site_id
 _symmetry_equiv_pos_as_xyz
  1  'x, y, z'
loop_
 _atom_site_type_symbol
 _atom_site_label
 _atom_site_symmetry_multiplicity
 _atom_site_fract_x
 _atom_site_fract_y
 _atom_site_fract_z
 _atom_site_occupancy
  V  V0  1  0.532869  0.691409  0.995733  1
  V  V1  1  0.967255  0.191393  0.495748  1
  V  V2  1  0.467277  0.191395  0.504244  1
  V  V3  1  0.467202  0.308601  0.004254  1
  V  V4  1  0.032846  0.691411  0.004263  1
  V  V5  1  0.967214  0.308599  0.995748  1
  V  V6  1  0.032649  0.808612  0.504236  1
  V  V7  1  0.532629  0.808615  0.495770  1
  P  P8  1  0.543896  0.500930  0.297788  1
  P  P9  1  0.956097  0.000926  0.797779  1
  P  P10  1  0.456103  0.000927  0.202213  1
  P  P11  1  0.456105  0.499081  0.702212  1
  P  P12  1  0.043894  0.500928  0.702205  1
  P  P13  1  0.543902  0.999087  0.797787  1
  P  P14  1  0.043901  0.999082  0.202221  1
  P  P15  1  0.956105  0.499087  0.297795  1
  O  O16  1  0.028934  0.346439  0.354351  1
  O  O17  1  0.971071  0.653543  0.645658  1
  O  O18  1  0.471060  0.846428  0.854356  1
  O  O19  1  0.746171  0.181304  0.473549  1
  O  O20  1  0.976027  0.501002  0.136748  1
  O  O21  1  0.964065  0.355169  0.639677  1
  O  O22  1  0.746222  0.318690  0.973555  1
  O  O23  1  0.023972  0.001001  0.363245  1
  O  O24  1  0.528935  0.153559  0.145649  1
  O  O25  1  0.246216  0.181309  0.526445  1
  O  O26  1  0.535941  0.855161  0.139673  1
  O  O27  1  0.976029  0.999006  0.636755  1
  O  O28  1  0.035943  0.855160  0.860323  1
  O  O29  1  0.753753  0.681308  0.973554  1
  O  O30  1  0.535939  0.644820  0.639686  1
  O  O31  1  0.971058  0.846426  0.145644  1
  O  O32  1  0.464066  0.144828  0.860323  1
  O  O33  1  0.250000  0.999998  0.168058  1
  O  O34  1  0.249999  0.499998  0.668058  1
  O  O35  1  0.023971  0.499003  0.863252  1
  O  O36  1  0.523974  0.001001  0.636757  1
  O  O37  1  0.964059  0.144829  0.139681  1
  O  O38  1  0.749999  0.000001  0.831942  1
  O  O39  1  0.253742  0.681310  0.026442  1
  O  O40  1  0.253933  0.818700  0.526458  1
  O  O41  1  0.471065  0.653549  0.354343  1
  O  O42  1  0.464058  0.355169  0.360318  1
  O  O43  1  0.528941  0.346434  0.645650  1
  O  O44  1  0.476027  0.999003  0.363242  1
  O  O45  1  0.035931  0.644817  0.360316  1
  O  O46  1  0.028942  0.153563  0.854350  1
  O  O47  1  0.753862  0.818695  0.473551  1
  O  O48  1  0.476030  0.500999  0.863255  1
  O  O49  1  0.246150  0.318695  0.026452  1
  O  O50  1  0.523972  0.499002  0.136745  1
  O  O51  1  0.750001  0.500001  0.331942  1
