# generated using pymatgen
data_BaSm5Al3Si9N20O
_symmetry_space_group_name_H-M   'P 1'
_cell_length_a   9.73074184
_cell_length_b   9.56262909
_cell_length_c   6.07295306
_cell_angle_alpha   90.05348006
_cell_angle_beta   90.03816924
_cell_angle_gamma   119.96607007
_symmetry_Int_Tables_number   1
_chemical_formula_structural   BaSm5Al3Si9N20O
_chemical_formula_sum   'Ba1 Sm5 Al3 Si9 N20 O1'
_cell_volume   489.55517046
_cell_formula_units_Z   1
loop_
 _symmetry_equiv_pos_site_id
 _symmetry_equiv_pos_as_xyz
  1  'x, y, z'
loop_
 _atom_site_type_symbol
 _atom_site_label
 _atom_site_symmetry_multiplicity
 _atom_site_fract_x
 _atom_site_fract_y
 _atom_site_fract_z
 _atom_site_occupancy
  Ba  Ba0  1  0.997889  0.002685  0.999828  1
  Sm  Sm1  1  0.996819  0.752372  0.501234  1
  Sm  Sm2  1  0.330517  0.661452  0.503714  1
  Sm  Sm3  1  0.245455  0.245764  0.498494  1
  Sm  Sm4  1  0.672311  0.336210  0.493854  1
  Sm  Sm5  1  0.758088  0.002631  0.501405  1
  Al  Al6  1  0.283482  0.461702  0.013970  1
  Al  Al7  1  0.818736  0.536808  0.983959  1
  Al  Al8  1  0.716576  0.182358  0.984559  1
  Si  Si9  1  0.990249  0.383221  0.258840  1
  Si  Si10  1  0.186162  0.713664  0.016070  1
  Si  Si11  1  0.395029  0.008559  0.252360  1
  Si  Si12  1  0.523185  0.811866  0.015304  1
  Si  Si13  1  0.614804  0.605134  0.254510  1
  Si  Si14  1  0.604702  0.617014  0.745513  1
  Si  Si15  1  0.476821  0.286596  0.981758  1
  Si  Si16  1  0.384252  0.988425  0.749590  1
  Si  Si17  1  0.014403  0.394666  0.743041  1
  N  N18  1  0.008897  0.516598  0.002982  1
  N  N19  1  0.002491  0.490560  0.501687  1
  N  N20  1  0.200228  0.851735  0.214187  1
  N  N21  1  0.219215  0.796613  0.755665  1
  N  N22  1  0.140685  0.339823  0.228031  1
  N  N23  1  0.200614  0.417460  0.736940  1
  N  N24  1  0.332744  0.669760  0.094005  1
  N  N25  1  0.570505  0.778690  0.755340  1
  N  N26  1  0.492520  0.484468  0.998788  1
  N  N27  1  0.643887  0.798710  0.213008  1
  N  N28  1  0.511203  0.516756  0.499215  1
  N  N29  1  0.346807  0.146329  0.791202  1
  N  N30  1  0.426885  0.203541  0.243609  1
  N  N31  1  0.799980  0.667723  0.774642  1
  N  N32  1  0.480954  0.997961  0.501671  1
  N  N33  1  0.780696  0.586184  0.261448  1
  N  N34  1  0.662468  0.332755  0.895521  1
  N  N35  1  0.506997  0.991981  0.002575  1
  N  N36  1  0.800653  0.220606  0.262099  1
  N  N37  1  0.861545  0.200155  0.776822  1
  O  O38  1  0.000545  0.000465  0.492561  1
