# generated using pymatgen
data_Na5Gd(MoO4)4
_symmetry_space_group_name_H-M   'P 1'
_cell_length_a   10.05847849
_cell_length_b   10.05847826
_cell_length_c   10.05847825
_cell_angle_alpha   109.54104975
_cell_angle_beta   109.43631688
_cell_angle_gamma   109.43632046
_symmetry_Int_Tables_number   1
_chemical_formula_structural   Na5Gd(MoO4)4
_chemical_formula_sum   'Na10 Gd2 Mo8 O32'
_cell_volume   783.38358256
_cell_formula_units_Z   2
loop_
 _symmetry_equiv_pos_site_id
 _symmetry_equiv_pos_as_xyz
  1  'x, y, z'
loop_
 _atom_site_type_symbol
 _atom_site_label
 _atom_site_symmetry_multiplicity
 _atom_site_fract_x
 _atom_site_fract_y
 _atom_site_fract_z
 _atom_site_occupancy
  Na  Na0  1  0.667255  0.703280  0.278976  1
  Na  Na1  1  0.332745  0.296720  0.721024  1
  Na  Na2  1  0.250000  0.375000  0.125000  1
  Na  Na3  1  0.424304  0.221024  0.388279  1
  Na  Na4  1  0.575696  0.778976  0.611721  1
  Na  Na5  1  0.832745  0.111721  0.036025  1
  Na  Na6  1  0.924304  0.536025  0.203280  1
  Na  Na7  1  0.167255  0.888279  0.963975  1
  Na  Na8  1  0.075696  0.463975  0.796720  1
  Na  Na9  1  0.750000  0.625000  0.875000  1
  Gd  Gd10  1  0.750000  0.125000  0.375000  1
  Gd  Gd11  1  0.250000  0.875000  0.625000  1
  Mo  Mo12  1  0.024461  0.955013  0.291535  1
  Mo  Mo13  1  0.836522  0.569448  0.544987  1
  Mo  Mo14  1  0.975539  0.044987  0.708465  1
  Mo  Mo15  1  0.663478  0.208465  0.732925  1
  Mo  Mo16  1  0.524461  0.232925  0.069448  1
  Mo  Mo17  1  0.475539  0.767075  0.930552  1
  Mo  Mo18  1  0.336522  0.791535  0.267075  1
  Mo  Mo19  1  0.163478  0.430552  0.455013  1
  O  O20  1  0.142495  0.985012  0.195557  1
  O  O21  1  0.422234  0.151399  0.851086  1
  O  O22  1  0.131700  0.255773  0.827859  1
  O  O23  1  0.653501  0.148697  0.133374  1
  O  O24  1  0.072086  0.375927  0.244227  1
  O  O25  1  0.868300  0.744227  0.172141  1
  O  O26  1  0.015322  0.366626  0.520126  1
  O  O27  1  0.857505  0.014988  0.804443  1
  O  O28  1  0.577766  0.848601  0.148914  1
  O  O29  1  0.846499  0.979874  0.495196  1
  O  O30  1  0.484678  0.004804  0.351303  1
  O  O31  1  0.515322  0.995196  0.648697  1
  O  O32  1  0.346499  0.851303  0.866626  1
  O  O33  1  0.153501  0.020126  0.504804  1
  O  O34  1  0.300313  0.648914  0.571148  1
  O  O35  1  0.572086  0.327859  0.696159  1
  O  O36  1  0.289455  0.342517  0.485012  1
  O  O37  1  0.199687  0.770835  0.348601  1
  O  O38  1  0.800313  0.229165  0.651399  1
  O  O39  1  0.922234  0.071148  0.270835  1
  O  O40  1  0.427914  0.672141  0.303841  1
  O  O41  1  0.210545  0.695557  0.053062  1
  O  O42  1  0.927914  0.624073  0.755773  1
  O  O43  1  0.699687  0.351086  0.428852  1
  O  O44  1  0.631700  0.803841  0.875927  1
  O  O45  1  0.789455  0.304443  0.946938  1
  O  O46  1  0.984678  0.633374  0.479874  1
  O  O47  1  0.642495  0.446938  0.157483  1
  O  O48  1  0.357505  0.553062  0.842517  1
  O  O49  1  0.710545  0.657483  0.514988  1
  O  O50  1  0.368300  0.196159  0.124073  1
  O  O51  1  0.077766  0.928852  0.729165  1
