# generated using pymatgen
data_H4SO5
_symmetry_space_group_name_H-M   'P 1'
_cell_length_a   8.20421656
_cell_length_b   7.04388770
_cell_length_c   7.03231849
_cell_angle_alpha   85.20157880
_cell_angle_beta   98.70892110
_cell_angle_gamma   93.39478356
_symmetry_Int_Tables_number   1
_chemical_formula_structural   H4SO5
_chemical_formula_sum   'H16 S4 O20'
_cell_volume   399.85395501
_cell_formula_units_Z   4
loop_
 _symmetry_equiv_pos_site_id
 _symmetry_equiv_pos_as_xyz
  1  'x, y, z'
loop_
 _atom_site_type_symbol
 _atom_site_label
 _atom_site_symmetry_multiplicity
 _atom_site_fract_x
 _atom_site_fract_y
 _atom_site_fract_z
 _atom_site_occupancy
  H  H0  1  0.436236  0.130696  0.093363  1
  H  H1  1  0.094579  0.676005  0.589564  1
  H  H2  1  0.496063  0.939820  0.521899  1
  H  H3  1  0.910219  0.311596  0.406222  1
  H  H4  1  0.913993  0.310176  0.912986  1
  H  H5  1  0.725238  0.383732  0.792426  1
  H  H6  1  0.793432  0.165650  0.759731  1
  H  H7  1  0.772735  0.889991  0.247822  1
  H  H8  1  0.770941  0.665335  0.337594  1
  H  H9  1  0.617959  0.782838  0.367791  1
  H  H10  1  0.202895  0.830976  0.238832  1
  H  H11  1  0.085083  0.691404  0.077417  1
  H  H12  1  0.269403  0.613934  0.207362  1
  H  H13  1  0.213411  0.130873  0.727100  1
  H  H14  1  0.284364  0.368357  0.699078  1
  H  H15  1  0.385521  0.199711  0.625298  1
  S  S16  1  0.550832  0.301966  0.323231  1
  S  S17  1  0.966708  0.839327  0.760853  1
  S  S18  1  0.450331  0.680153  0.709078  1
  S  S19  1  0.036590  0.160181  0.225645  1
  O  O20  1  0.549319  0.164063  0.152970  1
  O  O21  1  0.956365  0.689692  0.920566  1
  O  O22  1  0.455818  0.821881  0.845157  1
  O  O23  1  0.049577  0.311883  0.068780  1
  O  O24  1  0.520047  0.174195  0.495200  1
  O  O25  1  0.981953  0.730823  0.573897  1
  O  O26  1  0.478554  0.799133  0.503208  1
  O  O27  1  0.024538  0.262293  0.415130  1
  O  O28  1  0.424888  0.440036  0.265735  1
  O  O29  1  0.117339  0.959805  0.803787  1
  O  O30  1  0.575607  0.538481  0.743235  1
  O  O31  1  0.886410  0.040303  0.179220  1
  O  O32  1  0.720402  0.383635  0.347122  1
  O  O33  1  0.816164  0.941318  0.703969  1
  O  O34  1  0.283115  0.583502  0.657161  1
  O  O35  1  0.188534  0.056182  0.276223  1
  O  O36  1  0.821055  0.302051  0.791885  1
  O  O37  1  0.699731  0.767977  0.275655  1
  O  O38  1  0.174003  0.694817  0.205750  1
  O  O39  1  0.312374  0.226713  0.723926  1
