# generated using pymatgen
data_La2Te4Pb
_symmetry_space_group_name_H-M   'P 1'
_cell_length_a   8.45073057
_cell_length_b   8.45073099
_cell_length_c   8.45073118
_cell_angle_alpha   109.55082668
_cell_angle_beta   109.31212111
_cell_angle_gamma   109.55083158
_symmetry_Int_Tables_number   1
_chemical_formula_structural   La2Te4Pb
_chemical_formula_sum   'La4 Te8 Pb2'
_cell_volume   464.57775960
_cell_formula_units_Z   2
loop_
 _symmetry_equiv_pos_site_id
 _symmetry_equiv_pos_as_xyz
  1  'x, y, z'
loop_
 _atom_site_type_symbol
 _atom_site_label
 _atom_site_symmetry_multiplicity
 _atom_site_fract_x
 _atom_site_fract_y
 _atom_site_fract_z
 _atom_site_occupancy
  La  La0  1  0.250000  0.628794  0.378794  1
  La  La1  1  0.750000  0.871206  0.121206  1
  La  La2  1  0.621206  0.371206  0.250000  1
  La  La3  1  0.878794  0.128794  0.750000  1
  Te  Te4  1  0.993033  0.846040  0.495062  1
  Te  Te5  1  0.995062  0.346040  0.493033  1
  Te  Te6  1  0.506967  0.002029  0.853007  1
  Te  Te7  1  0.146993  0.153960  0.149022  1
  Te  Te8  1  0.353007  0.502029  0.006967  1
  Te  Te9  1  0.649022  0.653960  0.646993  1
  Te  Te10  1  0.504938  0.997971  0.350978  1
  Te  Te11  1  0.850978  0.497971  0.004938  1
  Pb  Pb12  1  0.125000  0.750000  0.875000  1
  Pb  Pb13  1  0.375000  0.250000  0.625000  1
