# generated using pymatgen
data_PrYSi2O7
_symmetry_space_group_name_H-M   'P 1'
_cell_length_a   6.50366686
_cell_length_b   9.03025549
_cell_length_c   11.58638057
_cell_angle_alpha   90.00000000
_cell_angle_beta   96.79000959
_cell_angle_gamma   90.00000000
_symmetry_Int_Tables_number   1
_chemical_formula_structural   PrYSi2O7
_chemical_formula_sum   'Pr4 Y4 Si8 O28'
_cell_volume   675.69281408
_cell_formula_units_Z   4
loop_
 _symmetry_equiv_pos_site_id
 _symmetry_equiv_pos_as_xyz
  1  'x, y, z'
loop_
 _atom_site_type_symbol
 _atom_site_label
 _atom_site_symmetry_multiplicity
 _atom_site_fract_x
 _atom_site_fract_y
 _atom_site_fract_z
 _atom_site_occupancy
  Pr  Pr0  1  0.783710  0.643612  0.290402  1
  Pr  Pr1  1  0.216290  0.356388  0.709598  1
  Pr  Pr2  1  0.283710  0.856388  0.790402  1
  Pr  Pr3  1  0.716290  0.143612  0.209598  1
  Y  Y4  1  0.767679  0.633691  0.630532  1
  Y  Y5  1  0.232321  0.366309  0.369468  1
  Y  Y6  1  0.267679  0.866309  0.130532  1
  Y  Y7  1  0.732321  0.133691  0.869468  1
  Si  Si8  1  0.518104  0.900538  0.435624  1
  Si  Si9  1  0.715077  0.823494  0.022396  1
  Si  Si10  1  0.018104  0.599462  0.935624  1
  Si  Si11  1  0.284923  0.176506  0.977604  1
  Si  Si12  1  0.784923  0.323494  0.477604  1
  Si  Si13  1  0.215077  0.676506  0.522396  1
  Si  Si14  1  0.481896  0.099462  0.564376  1
  Si  Si15  1  0.981896  0.400538  0.064376  1
  O  O16  1  0.296675  0.223764  0.531271  1
  O  O17  1  0.416273  0.249012  0.879386  1
  O  O18  1  0.083727  0.749012  0.620614  1
  O  O19  1  0.584066  0.923423  0.919407  1
  O  O20  1  0.522574  0.948308  0.299218  1
  O  O21  1  0.916273  0.250988  0.379386  1
  O  O22  1  0.803213  0.690964  0.946698  1
  O  O23  1  0.893792  0.937831  0.087940  1
  O  O24  1  0.022574  0.551692  0.799218  1
  O  O25  1  0.696787  0.190964  0.553302  1
  O  O26  1  0.203325  0.723764  0.968729  1
  O  O27  1  0.463457  0.308355  0.254221  1
  O  O28  1  0.393792  0.562169  0.587940  1
  O  O29  1  0.796675  0.276236  0.031271  1
  O  O30  1  0.477426  0.051692  0.700782  1
  O  O31  1  0.606208  0.437831  0.412060  1
  O  O32  1  0.583727  0.750988  0.120614  1
  O  O33  1  0.915934  0.423423  0.580593  1
  O  O34  1  0.106208  0.062169  0.912060  1
  O  O35  1  0.536543  0.691645  0.745779  1
  O  O36  1  0.963457  0.191645  0.754221  1
  O  O37  1  0.196787  0.309036  0.053302  1
  O  O38  1  0.703325  0.776236  0.468729  1
  O  O39  1  0.977426  0.448308  0.200782  1
  O  O40  1  0.303213  0.809036  0.446698  1
  O  O41  1  0.084066  0.576577  0.419407  1
  O  O42  1  0.415934  0.076577  0.080593  1
  O  O43  1  0.036543  0.808355  0.245779  1
