# generated using pymatgen
data_K4US3O14
_symmetry_space_group_name_H-M   'P 1'
_cell_length_a   9.39714694
_cell_length_b   13.41075172
_cell_length_c   23.65084045
_cell_angle_alpha   90.00000000
_cell_angle_beta   90.00000000
_cell_angle_gamma   90.00000000
_symmetry_Int_Tables_number   1
_chemical_formula_structural   K4US3O14
_chemical_formula_sum   'K32 U8 S24 O112'
_cell_volume   2980.54524202
_cell_formula_units_Z   8
loop_
 _symmetry_equiv_pos_site_id
 _symmetry_equiv_pos_as_xyz
  1  'x, y, z'
loop_
 _atom_site_type_symbol
 _atom_site_label
 _atom_site_symmetry_multiplicity
 _atom_site_fract_x
 _atom_site_fract_y
 _atom_site_fract_z
 _atom_site_occupancy
  K  K0  1  0.672503  0.288236  0.473958  1
  K  K1  1  0.161238  0.493608  0.668079  1
  K  K2  1  0.122452  0.684889  0.250000  1
  K  K3  1  0.861645  0.061697  0.873507  1
  K  K4  1  0.838762  0.506392  0.331921  1
  K  K5  1  0.838762  0.506392  0.168079  1
  K  K6  1  0.338762  0.993608  0.668079  1
  K  K7  1  0.361645  0.438303  0.373507  1
  K  K8  1  0.138355  0.938303  0.373507  1
  K  K9  1  0.622452  0.815111  0.750000  1
  K  K10  1  0.661238  0.006392  0.168079  1
  K  K11  1  0.377548  0.184889  0.250000  1
  K  K12  1  0.861645  0.061697  0.626493  1
  K  K13  1  0.827497  0.788236  0.026042  1
  K  K14  1  0.161238  0.493608  0.831921  1
  K  K15  1  0.827497  0.788236  0.473958  1
  K  K16  1  0.877548  0.315111  0.750000  1
  K  K17  1  0.500000  0.000000  0.500000  1
  K  K18  1  0.672503  0.288236  0.026042  1
  K  K19  1  0.638355  0.561697  0.626493  1
  K  K20  1  0.327497  0.711764  0.973958  1
  K  K21  1  0.361645  0.438303  0.126493  1
  K  K22  1  0.172503  0.211764  0.973958  1
  K  K23  1  0.661238  0.006392  0.331921  1
  K  K24  1  0.000000  0.500000  0.000000  1
  K  K25  1  0.500000  0.000000  0.000000  1
  K  K26  1  0.138355  0.938303  0.126493  1
  K  K27  1  0.338762  0.993608  0.831921  1
  K  K28  1  0.172503  0.211764  0.526042  1
  K  K29  1  0.000000  0.500000  0.500000  1
  K  K30  1  0.327497  0.711764  0.526042  1
  K  K31  1  0.638355  0.561697  0.873507  1
  U  U32  1  0.003359  0.231717  0.363003  1
  U  U33  1  0.003359  0.231717  0.136997  1
  U  U34  1  0.996641  0.768283  0.863003  1
  U  U35  1  0.496641  0.731717  0.363003  1
  U  U36  1  0.996641  0.768283  0.636997  1
  U  U37  1  0.503359  0.268283  0.636997  1
  U  U38  1  0.496641  0.731717  0.136997  1
  U  U39  1  0.503359  0.268283  0.863003  1
  S  S40  1  0.356326  0.426041  0.555826  1
  S  S41  1  0.767780  0.768951  0.250000  1
  S  S42  1  0.643674  0.573959  0.055826  1
  S  S43  1  0.379374  0.178192  0.400620  1
  S  S44  1  0.643674  0.573959  0.444174  1
  S  S45  1  0.143674  0.926041  0.555826  1
  S  S46  1  0.120626  0.678192  0.099380  1
  S  S47  1  0.143674  0.926041  0.944174  1
  S  S48  1  0.120626  0.678192  0.400620  1
  S  S49  1  0.356326  0.426041  0.944174  1
  S  S50  1  0.355199  0.907057  0.250000  1
  S  S51  1  0.856326  0.073959  0.444174  1
  S  S52  1  0.644801  0.092943  0.750000  1
  S  S53  1  0.732220  0.268951  0.250000  1
  S  S54  1  0.879374  0.321808  0.900620  1
  S  S55  1  0.855199  0.592943  0.750000  1
  S  S56  1  0.144801  0.407057  0.250000  1
  S  S57  1  0.379374  0.178192  0.099380  1
  S  S58  1  0.620626  0.821808  0.599380  1
  S  S59  1  0.620626  0.821808  0.900620  1
  S  S60  1  0.856326  0.073959  0.055826  1
  S  S61  1  0.879374  0.321808  0.599380  1
  S  S62  1  0.267780  0.731049  0.750000  1
  S  S63  1  0.232220  0.231049  0.750000  1
  O  O64  1  0.008547  0.110955  0.445525  1
  O  O65  1  0.285834  0.452039  0.250000  1
  O  O66  1  0.961459  0.875125  0.818836  1
  O  O67  1  0.926824  0.322343  0.960425  1
  O  O68  1  0.715826  0.585765  0.498791  1
  O  O69  1  0.508547  0.389045  0.945525  1
  O  O70  1  0.650701  0.470198  0.423589  1
  O  O71  1  0.150701  0.029802  0.923589  1
  O  O72  1  0.849299  0.970198  0.076411  1
  O  O73  1  0.210471  0.857396  0.899776  1
  O  O74  1  0.768828  0.770376  0.599960  1
  O  O75  1  0.030317  0.482557  0.250000  1
  O  O76  1  0.491453  0.610955  0.445525  1
  O  O77  1  0.973136  0.260403  0.864783  1
  O  O78  1  0.789529  0.142604  0.100224  1
  O  O79  1  0.073176  0.677657  0.460425  1
  O  O80  1  0.174396  0.710632  0.698274  1
  O  O81  1  0.959894  0.337466  0.090987  1
  O  O82  1  0.325604  0.210632  0.698274  1
  O  O83  1  0.710471  0.642604  0.399776  1
  O  O84  1  0.040106  0.662534  0.909013  1
  O  O85  1  0.214166  0.952039  0.250000  1
  O  O86  1  0.473136  0.239597  0.364783  1
  O  O87  1  0.573176  0.822343  0.539575  1
  O  O88  1  0.135488  0.575533  0.378727  1
  O  O89  1  0.715826  0.585765  0.001209  1
  O  O90  1  0.364512  0.075533  0.121273  1
  O  O91  1  0.573176  0.822343  0.960425  1
  O  O92  1  0.426824  0.177657  0.460425  1
  O  O93  1  0.491453  0.610955  0.054475  1
  O  O94  1  0.426824  0.177657  0.039575  1
  O  O95  1  0.040106  0.662534  0.590987  1
  O  O96  1  0.459894  0.162534  0.590987  1
  O  O97  1  0.231172  0.229624  0.099960  1
  O  O98  1  0.325604  0.210632  0.801726  1
  O  O99  1  0.731172  0.270376  0.900040  1
  O  O100  1  0.812035  0.663459  0.250000  1
  O  O101  1  0.370211  0.839825  0.198702  1
  O  O102  1  0.710471  0.642604  0.100224  1
  O  O103  1  0.731172  0.270376  0.599960  1
  O  O104  1  0.540106  0.837466  0.409013  1
  O  O105  1  0.174396  0.710632  0.801726  1
  O  O106  1  0.129789  0.339825  0.301298  1
  O  O107  1  0.461459  0.624875  0.181164  1
  O  O108  1  0.973136  0.260403  0.635217  1
  O  O109  1  0.825604  0.289368  0.301726  1
  O  O110  1  0.768828  0.770376  0.900040  1
  O  O111  1  0.210471  0.857396  0.600224  1
  O  O112  1  0.849299  0.970198  0.423589  1
  O  O113  1  0.150701  0.029802  0.576411  1
  O  O114  1  0.129789  0.339825  0.198702  1
  O  O115  1  0.508547  0.389045  0.554475  1
  O  O116  1  0.926824  0.322343  0.539575  1
  O  O117  1  0.135488  0.575533  0.121273  1
  O  O118  1  0.026864  0.739597  0.364783  1
  O  O119  1  0.268828  0.729624  0.400040  1
  O  O120  1  0.349299  0.529802  0.576411  1
  O  O121  1  0.538541  0.375125  0.681164  1
  O  O122  1  0.364512  0.075533  0.378727  1
  O  O123  1  0.870211  0.660175  0.698702  1
  O  O124  1  0.038541  0.124875  0.181164  1
  O  O125  1  0.461459  0.624875  0.318836  1
  O  O126  1  0.284174  0.414235  0.998791  1
  O  O127  1  0.784174  0.085765  0.001209  1
  O  O128  1  0.674396  0.789368  0.198274  1
  O  O129  1  0.289529  0.357396  0.899776  1
  O  O130  1  0.969683  0.517443  0.750000  1
  O  O131  1  0.674396  0.789368  0.301726  1
  O  O132  1  0.991453  0.889045  0.554475  1
  O  O133  1  0.312035  0.836541  0.750000  1
  O  O134  1  0.864512  0.424467  0.878727  1
  O  O135  1  0.038541  0.124875  0.318836  1
  O  O136  1  0.635488  0.924467  0.878727  1
  O  O137  1  0.114054  0.160693  0.750000  1
  O  O138  1  0.215826  0.914235  0.998791  1
  O  O139  1  0.526864  0.760403  0.864783  1
  O  O140  1  0.008547  0.110955  0.054475  1
  O  O141  1  0.870211  0.660175  0.801298  1
  O  O142  1  0.789529  0.142604  0.399776  1
  O  O143  1  0.714166  0.547961  0.750000  1
  O  O144  1  0.469683  0.982557  0.250000  1
  O  O145  1  0.026864  0.739597  0.135217  1
  O  O146  1  0.885946  0.839307  0.250000  1
  O  O147  1  0.370211  0.839825  0.301298  1
  O  O148  1  0.687965  0.163459  0.250000  1
  O  O149  1  0.187965  0.336541  0.750000  1
  O  O150  1  0.825604  0.289368  0.198274  1
  O  O151  1  0.614054  0.339307  0.250000  1
  O  O152  1  0.385946  0.660693  0.750000  1
  O  O153  1  0.540106  0.837466  0.090987  1
  O  O154  1  0.526864  0.760403  0.635217  1
  O  O155  1  0.215826  0.914235  0.501209  1
  O  O156  1  0.961459  0.875125  0.681164  1
  O  O157  1  0.635488  0.924467  0.621273  1
  O  O158  1  0.268828  0.729624  0.099960  1
  O  O159  1  0.784174  0.085765  0.498791  1
  O  O160  1  0.864512  0.424467  0.621273  1
  O  O161  1  0.785834  0.047961  0.750000  1
  O  O162  1  0.991453  0.889045  0.945525  1
  O  O163  1  0.530317  0.017443  0.750000  1
  O  O164  1  0.289529  0.357396  0.600224  1
  O  O165  1  0.284174  0.414235  0.501209  1
  O  O166  1  0.650701  0.470198  0.076411  1
  O  O167  1  0.629789  0.160175  0.801298  1
  O  O168  1  0.959894  0.337466  0.409013  1
  O  O169  1  0.073176  0.677657  0.039575  1
  O  O170  1  0.538541  0.375125  0.818836  1
  O  O171  1  0.473136  0.239597  0.135217  1
  O  O172  1  0.629789  0.160175  0.698702  1
  O  O173  1  0.349299  0.529802  0.923589  1
  O  O174  1  0.231172  0.229624  0.400040  1
  O  O175  1  0.459894  0.162534  0.909013  1
