# generated using pymatgen
data_Re2C9S3O8
_symmetry_space_group_name_H-M   'P 1'
_cell_length_a   7.23961991
_cell_length_b   8.68698219
_cell_length_c   14.13599327
_cell_angle_alpha   83.67750449
_cell_angle_beta   79.46530282
_cell_angle_gamma   75.30002802
_symmetry_Int_Tables_number   1
_chemical_formula_structural   Re2C9S3O8
_chemical_formula_sum   'Re4 C18 S6 O16'
_cell_volume   843.52440231
_cell_formula_units_Z   2
loop_
 _symmetry_equiv_pos_site_id
 _symmetry_equiv_pos_as_xyz
  1  'x, y, z'
loop_
 _atom_site_type_symbol
 _atom_site_label
 _atom_site_symmetry_multiplicity
 _atom_site_fract_x
 _atom_site_fract_y
 _atom_site_fract_z
 _atom_site_occupancy
  Re  Re0  1  0.816232  0.184452  0.948144  1
  Re  Re1  1  0.106874  0.675055  0.643134  1
  Re  Re2  1  0.893126  0.324945  0.356866  1
  Re  Re3  1  0.183768  0.815548  0.051856  1
  C  C4  1  0.718267  0.521845  0.404955  1
  C  C5  1  0.880154  0.576791  0.668438  1
  C  C6  1  0.614984  0.222672  0.868335  1
  C  C7  1  0.631848  0.154429  0.069098  1
  C  C8  1  0.013629  0.206369  0.830761  1
  C  C9  1  0.317027  0.796190  0.621787  1
  C  C10  1  0.986371  0.793631  0.169239  1
  C  C11  1  0.119846  0.423209  0.331562  1
  C  C12  1  0.385016  0.777328  0.131665  1
  C  C13  1  0.013106  0.191496  0.164008  1
  C  C14  1  0.753819  0.412320  0.959205  1
  C  C15  1  0.682973  0.203810  0.378213  1
  C  C16  1  0.368152  0.845571  0.930902  1
  C  C17  1  0.986894  0.808504  0.835992  1
  C  C18  1  0.962328  0.240199  0.481594  1
  C  C19  1  0.281733  0.478155  0.595045  1
  C  C20  1  0.037672  0.759801  0.518406  1
  C  C21  1  0.246181  0.587680  0.040795  1
  S  S22  1  0.860716  0.373003  0.180321  1
  S  S23  1  0.908412  0.880801  0.951481  1
  S  S24  1  0.091588  0.119199  0.048519  1
  S  S25  1  0.139284  0.626997  0.819679  1
  S  S26  1  0.096037  0.091765  0.263042  1
  S  S27  1  0.903963  0.908235  0.736958  1
  O  O28  1  0.254861  0.476613  0.315750  1
  O  O29  1  0.745139  0.523387  0.684250  1
  O  O30  1  0.125122  0.223537  0.763129  1
  O  O31  1  0.491154  0.257166  0.822142  1
  O  O32  1  0.014944  0.183503  0.553513  1
  O  O33  1  0.574543  0.123643  0.393727  1
  O  O34  1  0.384329  0.360174  0.566155  1
  O  O35  1  0.530925  0.135567  0.140684  1
  O  O36  1  0.615671  0.639826  0.433845  1
  O  O37  1  0.985056  0.816497  0.446487  1
  O  O38  1  0.425457  0.876357  0.606273  1
  O  O39  1  0.874878  0.776463  0.236871  1
  O  O40  1  0.508846  0.742834  0.177858  1
  O  O41  1  0.709307  0.550596  0.962446  1
  O  O42  1  0.290693  0.449404  0.037554  1
  O  O43  1  0.469075  0.864433  0.859316  1
