# generated using pymatgen
data_NaYb3Ti2(SbO7)2
_symmetry_space_group_name_H-M   'P 1'
_cell_length_a   7.34188847
_cell_length_b   14.65437438
_cell_length_c   12.72321514
_cell_angle_alpha   29.75573257
_cell_angle_beta   54.37184629
_cell_angle_gamma   59.61796369
_symmetry_Int_Tables_number   1
_chemical_formula_structural   NaYb3Ti2(SbO7)2
_chemical_formula_sum   'Na2 Yb6 Ti4 Sb4 O28'
_cell_volume   552.21813135
_cell_formula_units_Z   2
loop_
 _symmetry_equiv_pos_site_id
 _symmetry_equiv_pos_as_xyz
  1  'x, y, z'
loop_
 _atom_site_type_symbol
 _atom_site_label
 _atom_site_symmetry_multiplicity
 _atom_site_fract_x
 _atom_site_fract_y
 _atom_site_fract_z
 _atom_site_occupancy
  Yb  Yb0  1  0.001009  0.000887  0.997111  1
  Yb  Yb1  1  0.499483  0.999218  0.000490  1
  Yb  Yb2  1  0.998831  0.495651  0.004464  1
  Yb  Yb3  1  0.499422  0.500253  -0.000428  1
  Yb  Yb4  1  0.000819  0.749801  0.499627  1
  Yb  Yb5  1  0.996980  0.749658  -0.000174  1
  Na  Na6  1  0.996390  0.249210  0.999682  1
  Na  Na7  1  0.996114  0.248489  0.502420  1
  Ti  Ti8  1  0.999442  0.989479  0.510455  1
  Ti  Ti9  1  0.999184  0.510004  0.488818  1
  Ti  Ti10  1  0.501267  0.749957  0.999325  1
  Ti  Ti11  1  0.500171  0.749559  0.500299  1
  Sb  Sb12  1  0.499354  0.249267  0.000461  1
  Sb  Sb13  1  0.500741  0.995921  0.503438  1
  Sb  Sb14  1  0.498776  0.249588  0.500077  1
  Sb  Sb15  1  0.498075  0.503310  0.496720  1
  O  O16  1  0.127260  0.985760  0.133952  1
  O  O17  1  0.174506  0.200029  0.180467  1
  O  O18  1  0.576308  0.997984  0.175493  1
  O  O19  1  0.126740  0.510938  0.109753  1
  O  O20  1  0.570854  0.205522  0.173218  1
  O  O21  1  0.181202  0.694939  0.178242  1
  O  O22  1  0.428146  0.206527  0.413771  1
  O  O23  1  0.174102  0.298458  0.581499  1
  O  O24  1  0.824531  0.988460  0.437658  1
  O  O25  1  0.576677  0.501552  0.171795  1
  O  O26  1  0.172948  0.510520  0.562848  1
  O  O27  1  0.576114  0.703346  0.170197  1
  O  O28  1  0.822816  0.199116  0.420740  1
  O  O29  1  0.570271  0.294093  0.585110  1
  O  O30  1  0.420536  0.703410  0.424117  1
  O  O31  1  0.425407  0.293208  0.828032  1
  O  O32  1  0.182153  0.803889  0.570152  1
  O  O33  1  0.870641  0.984960  0.893863  1
  O  O34  1  0.821779  0.509831  0.417658  1
  O  O35  1  0.423627  0.501212  0.824551  1
  O  O36  1  0.174793  0.988749  0.583971  1
  O  O37  1  0.822782  0.299556  0.820154  1
  O  O38  1  0.819073  0.696248  0.428850  1
  O  O39  1  0.577600  0.795168  0.577772  1
  O  O40  1  0.421462  0.795930  0.831094  1
  O  O41  1  0.872078  0.512413  0.866465  1
  O  O42  1  0.423566  0.998240  0.827123  1
  O  O43  1  0.819482  0.802301  0.823215  1
