# generated using pymatgen
data_Pb2O3
_symmetry_space_group_name_H-M   'P 1'
_cell_length_a   4.78313449
_cell_length_b   4.91810411
_cell_length_c   7.05612010
_cell_angle_alpha   90.00000000
_cell_angle_beta   91.35958602
_cell_angle_gamma   90.00000000
_symmetry_Int_Tables_number   1
_chemical_formula_structural   Pb2O3
_chemical_formula_sum   'Pb4 O6'
_cell_volume   165.94111032
_cell_formula_units_Z   2
loop_
 _symmetry_equiv_pos_site_id
 _symmetry_equiv_pos_as_xyz
  1  'x, y, z'
loop_
 _atom_site_type_symbol
 _atom_site_label
 _atom_site_symmetry_multiplicity
 _atom_site_fract_x
 _atom_site_fract_y
 _atom_site_fract_z
 _atom_site_occupancy
  Pb  Pb0  1  0.248202  0.750000  0.989277  1
  Pb  Pb1  1  0.751798  0.250000  0.010723  1
  Pb  Pb2  1  0.239517  0.250000  0.608840  1
  Pb  Pb3  1  0.760483  0.750000  0.391160  1
  O  O4  1  0.227806  0.750000  0.701680  1
  O  O5  1  0.251124  0.250000  0.961786  1
  O  O6  1  0.748876  0.750000  0.038214  1
  O  O7  1  0.258465  0.750000  0.277868  1
  O  O8  1  0.772194  0.250000  0.298320  1
  O  O9  1  0.741535  0.250000  0.722132  1
