# generated using pymatgen
data_Li2CrCl4
_symmetry_space_group_name_H-M   'P 1'
_cell_length_a   7.42284166
_cell_length_b   7.22876429
_cell_length_c   15.27689603
_cell_angle_alpha   61.51168777
_cell_angle_beta   58.01241240
_cell_angle_gamma   62.50011324
_symmetry_Int_Tables_number   1
_chemical_formula_structural   Li2CrCl4
_chemical_formula_sum   'Li8 Cr4 Cl16'
_cell_volume   586.55056995
_cell_formula_units_Z   4
loop_
 _symmetry_equiv_pos_site_id
 _symmetry_equiv_pos_as_xyz
  1  'x, y, z'
loop_
 _atom_site_type_symbol
 _atom_site_label
 _atom_site_symmetry_multiplicity
 _atom_site_fract_x
 _atom_site_fract_y
 _atom_site_fract_z
 _atom_site_occupancy
  Li  Li0  1  0.127020  0.106629  0.050878  1
  Li  Li1  1  0.008995  0.995356  0.743427  1
  Li  Li2  1  0.986662  0.527035  0.504984  1
  Li  Li3  1  0.519919  0.486726  0.257795  1
  Li  Li4  1  0.007145  0.498548  0.755419  1
  Li  Li5  1  0.513360  0.970577  0.520116  1
  Li  Li6  1  0.485980  0.519015  0.497815  1
  Li  Li7  1  0.491513  0.508012  0.750812  1
  Cr  Cr8  1  0.991698  0.496146  0.254253  1
  Cr  Cr9  1  0.498936  0.994039  0.253648  1
  Cr  Cr10  1  0.505222  0.496194  0.990861  1
  Cr  Cr11  1  0.505315  0.000333  0.749841  1
  Cl  Cl12  1  0.279216  0.248865  0.105380  1
  Cl  Cl13  1  0.233435  0.261528  0.352176  1
  Cl  Cl14  1  0.266047  0.701428  0.124131  1
  Cl  Cl15  1  0.731241  0.234987  0.140108  1
  Cl  Cl16  1  0.230761  0.272200  0.607659  1
  Cl  Cl17  1  0.277258  0.747599  0.370429  1
  Cl  Cl18  1  0.764194  0.737234  0.151457  1
  Cl  Cl19  1  0.739999  0.278121  0.370925  1
  Cl  Cl20  1  0.253167  0.249197  0.858939  1
  Cl  Cl21  1  0.259130  0.734657  0.633420  1
  Cl  Cl22  1  0.740740  0.236201  0.639746  1
  Cl  Cl23  1  0.753431  0.737578  0.397147  1
  Cl  Cl24  1  0.250914  0.785475  0.855401  1
  Cl  Cl25  1  0.735613  0.773926  0.629794  1
  Cl  Cl26  1  0.729298  0.292631  0.863051  1
  Cl  Cl27  1  0.738792  0.734764  0.882887  1
