# generated using pymatgen
data_BH2CO
_symmetry_space_group_name_H-M   'P 1'
_cell_length_a   5.99677110
_cell_length_b   5.99677110
_cell_length_c   11.34164614
_cell_angle_alpha   81.25122996
_cell_angle_beta   98.74877004
_cell_angle_gamma   136.56263482
_symmetry_Int_Tables_number   1
_chemical_formula_structural   BH2CO
_chemical_formula_sum   'B4 H8 C4 O4'
_cell_volume   276.64457590
_cell_formula_units_Z   4
loop_
 _symmetry_equiv_pos_site_id
 _symmetry_equiv_pos_as_xyz
  1  'x, y, z'
loop_
 _atom_site_type_symbol
 _atom_site_label
 _atom_site_symmetry_multiplicity
 _atom_site_fract_x
 _atom_site_fract_y
 _atom_site_fract_z
 _atom_site_occupancy
  B  B0  1  0.655188  0.508358  0.506990  1
  B  B1  1  0.508358  0.655188  0.993010  1
  B  B2  1  0.344812  0.491642  0.493010  1
  B  B3  1  0.491642  0.344812  0.006990  1
  H  H4  1  0.091932  0.240216  0.538264  1
  H  H5  1  0.240216  0.091932  0.961736  1
  H  H6  1  0.908068  0.759784  0.461736  1
  H  H7  1  0.759784  0.908068  0.038264  1
  H  H8  1  0.727139  0.419274  0.979593  1
  H  H9  1  0.419274  0.727139  0.520407  1
  H  H10  1  0.272861  0.580726  0.020407  1
  H  H11  1  0.580726  0.272861  0.479593  1
  C  C12  1  0.815013  0.582763  0.630357  1
  C  C13  1  0.582763  0.815013  0.869643  1
  C  C14  1  0.184987  0.417237  0.369643  1
  C  C15  1  0.417237  0.184987  0.130357  1
  O  O16  1  0.966324  0.669076  0.720355  1
  O  O17  1  0.669076  0.966324  0.779645  1
  O  O18  1  0.033676  0.330924  0.279645  1
  O  O19  1  0.330924  0.033676  0.220355  1
