# generated using pymatgen
data_Nb24(CuS8)5
_symmetry_space_group_name_H-M   'P 1'
_cell_length_a   13.27200948
_cell_length_b   13.27200959
_cell_length_c   132.68142147
_cell_angle_alpha   14.53901206
_cell_angle_beta   14.53901037
_cell_angle_gamma   14.53459511
_symmetry_Int_Tables_number   1
_chemical_formula_structural   Nb24(CuS8)5
_chemical_formula_sum   'Nb24 Cu5 S40'
_cell_volume   1282.13690043
_cell_formula_units_Z   1
loop_
 _symmetry_equiv_pos_site_id
 _symmetry_equiv_pos_as_xyz
  1  'x, y, z'
loop_
 _atom_site_type_symbol
 _atom_site_label
 _atom_site_symmetry_multiplicity
 _atom_site_fract_x
 _atom_site_fract_y
 _atom_site_fract_z
 _atom_site_occupancy
  Nb  Nb0  1  0.079850  0.079850  0.008359  1
  Nb  Nb1  1  0.090680  0.090680  0.106284  1
  Nb  Nb2  1  0.076897  0.076897  0.209023  1
  Nb  Nb3  1  0.914039  0.914039  0.092782  1
  Nb  Nb4  1  0.079165  0.079165  0.308540  1
  Nb  Nb5  1  0.920197  0.920197  0.191587  1
  Nb  Nb6  1  0.080361  0.080361  0.408428  1
  Nb  Nb7  1  0.923779  0.923779  0.290855  1
  Nb  Nb8  1  0.090061  0.090061  0.506474  1
  Nb  Nb9  1  0.909072  0.909072  0.393767  1
  Nb  Nb10  1  0.077103  0.077103  0.609402  1
  Nb  Nb11  1  0.916607  0.916607  0.492305  1
  Nb  Nb12  1  0.978630  0.978630  0.604349  1
  Nb  Nb13  1  0.083158  0.083158  0.708424  1
  Nb  Nb14  1  0.922647  0.922647  0.590649  1
  Nb  Nb15  1  0.975566  0.975566  0.804970  1
  Nb  Nb16  1  0.026009  0.026009  0.694752  1
  Nb  Nb17  1  0.084851  0.084851  0.808023  1
  Nb  Nb18  1  0.915391  0.915391  0.691953  1
  Nb  Nb19  1  0.022040  0.022040  0.895691  1
  Nb  Nb20  1  0.079970  0.079970  0.908863  1
  Nb  Nb21  1  0.917023  0.917023  0.791605  1
  Nb  Nb22  1  0.924757  0.924757  0.890442  1
  Nb  Nb23  1  0.913063  0.913063  0.992995  1
  Cu  Cu24  1  0.149642  0.149642  0.316512  1
  Cu  Cu25  1  0.849655  0.849655  0.183620  1
  Cu  Cu26  1  0.850623  0.850623  0.583380  1
  Cu  Cu27  1  0.851271  0.851271  0.883212  1
  Cu  Cu28  1  0.840279  0.840279  0.985432  1
  S  S29  1  0.202077  0.202077  0.022783  1
  S  S30  1  0.287358  0.287358  0.029951  1
  S  S31  1  0.214606  0.214606  0.120490  1
  S  S32  1  0.289935  0.289935  0.129523  1
  S  S33  1  0.708583  0.708583  0.070721  1
  S  S34  1  0.791462  0.791462  0.078178  1
  S  S35  1  0.205880  0.205880  0.222095  1
  S  S36  1  0.292879  0.292879  0.228894  1
  S  S37  1  0.712151  0.712151  0.170360  1
  S  S38  1  0.791240  0.791240  0.178255  1
  S  S39  1  0.209297  0.209297  0.321652  1
  S  S40  1  0.287751  0.287751  0.329669  1
  S  S41  1  0.707392  0.707392  0.271061  1
  S  S42  1  0.794371  0.794371  0.277840  1
  S  S43  1  0.208430  0.208430  0.421864  1
  S  S44  1  0.289446  0.289446  0.429633  1
  S  S45  1  0.709609  0.709609  0.370679  1
  S  S46  1  0.783678  0.783678  0.379846  1
  S  S47  1  0.219695  0.219695  0.519317  1
  S  S48  1  0.288816  0.288816  0.530052  1
  S  S49  1  0.712745  0.712745  0.469927  1
  S  S50  1  0.788270  0.788270  0.478960  1
  S  S51  1  0.202238  0.202238  0.622466  1
  S  S52  1  0.297112  0.297112  0.627813  1
  S  S53  1  0.714559  0.714559  0.569341  1
  S  S54  1  0.788855  0.788855  0.578781  1
  S  S55  1  0.209828  0.209828  0.721171  1
  S  S56  1  0.291138  0.291138  0.729419  1
  S  S57  1  0.706217  0.706217  0.671486  1
  S  S58  1  0.789721  0.789721  0.678970  1
  S  S59  1  0.217523  0.217523  0.819504  1
  S  S60  1  0.293561  0.293561  0.828642  1
  S  S61  1  0.710098  0.710098  0.770337  1
  S  S62  1  0.789305  0.789305  0.779038  1
  S  S63  1  0.211967  0.211967  0.920870  1
  S  S64  1  0.285521  0.285521  0.930735  1
  S  S65  1  0.705990  0.705990  0.871628  1
  S  S66  1  0.788892  0.788892  0.878954  1
  S  S67  1  0.711009  0.711009  0.970032  1
  S  S68  1  0.783408  0.783408  0.979888  1
