# generated using pymatgen
data_CuH9C4NO6
_symmetry_space_group_name_H-M   'P 1'
_cell_length_a   7.57180045
_cell_length_b   9.29229293
_cell_length_c   14.18979052
_cell_angle_alpha   90.00000000
_cell_angle_beta   90.00000000
_cell_angle_gamma   90.00000000
_symmetry_Int_Tables_number   1
_chemical_formula_structural   CuH9C4NO6
_chemical_formula_sum   'Cu4 H36 C16 N4 O24'
_cell_volume   998.38497384
_cell_formula_units_Z   4
loop_
 _symmetry_equiv_pos_site_id
 _symmetry_equiv_pos_as_xyz
  1  'x, y, z'
loop_
 _atom_site_type_symbol
 _atom_site_label
 _atom_site_symmetry_multiplicity
 _atom_site_fract_x
 _atom_site_fract_y
 _atom_site_fract_z
 _atom_site_occupancy
  Cu  Cu0  1  0.000000  0.000000  0.500000  1
  Cu  Cu1  1  0.500000  0.500000  0.500000  1
  Cu  Cu2  1  0.000000  0.000000  0.000000  1
  Cu  Cu3  1  0.500000  0.500000  0.000000  1
  H  H4  1  0.366485  0.567824  0.250000  1
  H  H5  1  0.133515  0.067824  0.250000  1
  H  H6  1  0.741849  0.224137  0.450323  1
  H  H7  1  0.431338  0.173034  0.387683  1
  H  H8  1  0.108633  0.181836  0.750000  1
  H  H9  1  0.503009  0.854382  0.150286  1
  H  H10  1  0.258151  0.775863  0.549677  1
  H  H11  1  0.633515  0.432176  0.750000  1
  H  H12  1  0.931338  0.326966  0.612317  1
  H  H13  1  0.391367  0.681836  0.750000  1
  H  H14  1  0.308364  0.388558  0.250000  1
  H  H15  1  0.891367  0.818164  0.250000  1
  H  H16  1  0.691636  0.611442  0.750000  1
  H  H17  1  0.241849  0.275863  0.549677  1
  H  H18  1  0.496991  0.145618  0.849714  1
  H  H19  1  0.068662  0.673034  0.387683  1
  H  H20  1  0.568662  0.826966  0.612317  1
  H  H21  1  0.241849  0.275863  0.950323  1
  H  H22  1  0.931338  0.326966  0.887683  1
  H  H23  1  0.758151  0.724137  0.049677  1
  H  H24  1  0.191636  0.888558  0.250000  1
  H  H25  1  0.258151  0.775863  0.950323  1
  H  H26  1  0.503009  0.854382  0.349714  1
  H  H27  1  0.996991  0.354382  0.150286  1
  H  H28  1  0.866485  0.932176  0.750000  1
  H  H29  1  0.758151  0.724137  0.450323  1
  H  H30  1  0.996991  0.354382  0.349714  1
  H  H31  1  0.431338  0.173034  0.112317  1
  H  H32  1  0.608633  0.318164  0.250000  1
  H  H33  1  0.003009  0.645618  0.849714  1
  H  H34  1  0.068662  0.673034  0.112317  1
  H  H35  1  0.496991  0.145618  0.650286  1
  H  H36  1  0.568662  0.826966  0.887683  1
  H  H37  1  0.741849  0.224137  0.049677  1
  H  H38  1  0.808364  0.111442  0.750000  1
  H  H39  1  0.003009  0.645618  0.650286  1
  C  C40  1  0.324480  0.169077  0.440222  1
  C  C41  1  0.175520  0.669077  0.440222  1
  C  C42  1  0.324480  0.169077  0.059778  1
  C  C43  1  0.295809  0.937750  0.750000  1
  C  C44  1  0.824480  0.330923  0.559778  1
  C  C45  1  0.675520  0.830923  0.940222  1
  C  C46  1  0.078382  0.065770  0.750000  1
  C  C47  1  0.421618  0.565770  0.750000  1
  C  C48  1  0.795809  0.562250  0.250000  1
  C  C49  1  0.704191  0.062250  0.250000  1
  C  C50  1  0.175520  0.669077  0.059778  1
  C  C51  1  0.675520  0.830923  0.559778  1
  C  C52  1  0.204191  0.437750  0.750000  1
  C  C53  1  0.921618  0.934230  0.250000  1
  C  C54  1  0.824480  0.330923  0.940222  1
  C  C55  1  0.578382  0.434230  0.250000  1
  N  N56  1  0.404736  0.463831  0.250000  1
  N  N57  1  0.595264  0.536169  0.750000  1
  N  N58  1  0.095264  0.963831  0.250000  1
  N  N59  1  0.904736  0.036169  0.750000  1
  O  O60  1  0.189536  0.991319  0.678241  1
  O  O61  1  0.689536  0.508681  0.178241  1
  O  O62  1  0.310464  0.491319  0.821759  1
  O  O63  1  0.810464  0.008681  0.321759  1
  O  O64  1  0.159949  0.776540  0.995366  1
  O  O65  1  0.204392  0.076422  0.060643  1
  O  O66  1  0.295608  0.576422  0.060643  1
  O  O67  1  0.689536  0.508681  0.321759  1
  O  O68  1  0.795608  0.923578  0.939357  1
  O  O69  1  0.840051  0.223460  0.495366  1
  O  O70  1  0.659949  0.723460  0.004634  1
  O  O71  1  0.704392  0.423578  0.560643  1
  O  O72  1  0.810464  0.008681  0.178241  1
  O  O73  1  0.659949  0.723460  0.495366  1
  O  O74  1  0.840051  0.223460  0.004634  1
  O  O75  1  0.795608  0.923578  0.560643  1
  O  O76  1  0.204392  0.076422  0.439357  1
  O  O77  1  0.704392  0.423578  0.939357  1
  O  O78  1  0.295608  0.576422  0.439357  1
  O  O79  1  0.159949  0.776540  0.504634  1
  O  O80  1  0.310464  0.491319  0.678241  1
  O  O81  1  0.340051  0.276540  0.504634  1
  O  O82  1  0.340051  0.276540  0.995366  1
  O  O83  1  0.189536  0.991319  0.821759  1
