# generated using pymatgen
data_Na8Ga42O67
_symmetry_space_group_name_H-M   'P 1'
_cell_length_a   12.28370967
_cell_length_b   12.27585364
_cell_length_c   49.19226610
_cell_angle_alpha   28.17923572
_cell_angle_beta   28.13496930
_cell_angle_gamma   28.18494010
_symmetry_Int_Tables_number   1
_chemical_formula_structural   Na8Ga42O67
_chemical_formula_sum   'Na8 Ga42 O67'
_cell_volume   1460.16963784
_cell_formula_units_Z   1
loop_
 _symmetry_equiv_pos_site_id
 _symmetry_equiv_pos_as_xyz
  1  'x, y, z'
loop_
 _atom_site_type_symbol
 _atom_site_label
 _atom_site_symmetry_multiplicity
 _atom_site_fract_x
 _atom_site_fract_y
 _atom_site_fract_z
 _atom_site_occupancy
  Na  Na0  1  0.673336  0.647156  0.159969  1
  Na  Na1  1  0.883303  0.732629  0.216625  1
  Na  Na2  1  0.791028  0.729566  0.488062  1
  Na  Na3  1  0.351275  0.336417  0.840513  1
  Na  Na4  1  0.291656  0.888514  0.308474  1
  Na  Na5  1  0.354689  0.123178  0.005493  1
  Na  Na6  1  0.092051  0.973555  0.607748  1
  Na  Na7  1  0.202768  0.142919  0.310410  1
  Ga  Ga8  1  0.008892  0.991002  0.998392  1
  Ga  Ga9  1  0.101253  0.073916  0.150841  1
  Ga  Ga10  1  0.110253  0.600393  0.018040  1
  Ga  Ga11  1  0.616400  0.101997  0.017357  1
  Ga  Ga12  1  0.348644  0.335524  0.088904  1
  Ga  Ga13  1  0.445044  0.428083  0.106152  1
  Ga  Ga14  1  0.576497  0.554198  0.143868  1
  Ga  Ga15  1  0.106586  0.075231  0.403741  1
  Ga  Ga16  1  0.098560  0.579459  0.276632  1
  Ga  Ga17  1  0.616526  0.063397  0.276602  1
  Ga  Ga18  1  0.009979  0.985387  0.248480  1
  Ga  Ga19  1  0.354211  0.338641  0.338455  1
  Ga  Ga20  1  0.407822  0.898517  0.224869  1
  Ga  Ga21  1  0.894023  0.406466  0.228667  1
  Ga  Ga22  1  0.910735  0.899066  0.102273  1
  Ga  Ga23  1  0.466085  0.404312  0.369584  1
  Ga  Ga24  1  0.560523  0.524968  0.391947  1
  Ga  Ga25  1  0.099260  0.084403  0.651769  1
  Ga  Ga26  1  0.100196  0.569792  0.527891  1
  Ga  Ga27  1  0.597680  0.071700  0.528267  1
  Ga  Ga28  1  0.002870  0.982995  0.503627  1
  Ga  Ga29  1  0.655389  0.632074  0.415245  1
  Ga  Ga30  1  0.360815  0.340361  0.587020  1
  Ga  Ga31  1  0.413802  0.881630  0.479398  1
  Ga  Ga32  1  0.917355  0.388086  0.476942  1
  Ga  Ga33  1  0.904824  0.885942  0.352643  1
  Ga  Ga34  1  0.457537  0.435833  0.613971  1
  Ga  Ga35  1  0.556899  0.538077  0.637945  1
  Ga  Ga36  1  0.104943  0.092960  0.891432  1
  Ga  Ga37  1  0.099251  0.579269  0.775181  1
  Ga  Ga38  1  0.591359  0.083601  0.775416  1
  Ga  Ga39  1  0.651796  0.638301  0.666176  1
  Ga  Ga40  1  0.413187  0.897905  0.727746  1
  Ga  Ga41  1  0.909820  0.891567  0.603535  1
  Ga  Ga42  1  0.915840  0.397280  0.727744  1
  Ga  Ga43  1  0.462160  0.448551  0.859386  1
  Ga  Ga44  1  0.549490  0.535698  0.887791  1
  Ga  Ga45  1  0.662871  0.648993  0.909974  1
  Ga  Ga46  1  0.009861  0.998342  0.749943  1
  Ga  Ga47  1  0.414305  0.908685  0.972258  1
  Ga  Ga48  1  0.922705  0.405815  0.972341  1
  Ga  Ga49  1  0.928284  0.915268  0.844016  1
  O  O50  1  0.099388  0.084425  0.028998  1
  O  O51  1  0.297299  0.272545  0.077809  1
  O  O52  1  0.190230  0.174502  0.183352  1
  O  O53  1  0.184176  0.686334  0.059342  1
  O  O54  1  0.692954  0.178348  0.060705  1
  O  O55  1  0.086168  0.090795  0.275632  1
  O  O56  1  0.098740  0.589775  0.156940  1
  O  O57  1  0.595268  0.084270  0.159007  1
  O  O58  1  0.612013  0.610029  0.020379  1
  O  O59  1  0.401361  0.363416  0.231787  1
  O  O60  1  0.394769  0.893195  0.100361  1
  O  O61  1  0.919529  0.375502  0.100780  1
  O  O62  1  0.302202  0.279373  0.325823  1
  O  O63  1  0.258918  0.789722  0.207411  1
  O  O64  1  0.817467  0.228972  0.208434  1
  O  O65  1  0.830243  0.816603  0.059326  1
  O  O66  1  0.204092  0.183817  0.429202  1
  O  O67  1  0.196551  0.709106  0.298058  1
  O  O68  1  0.721492  0.179821  0.299380  1
  O  O69  1  0.718860  0.700548  0.180048  1
  O  O70  1  0.110981  0.086211  0.523401  1
  O  O71  1  0.102436  0.595899  0.400365  1
  O  O72  1  0.629390  0.054096  0.404901  1
  O  O73  1  0.599044  0.592831  0.278173  1
  O  O74  1  0.500696  0.545307  0.363910  1
  O  O75  1  0.408896  0.375003  0.479479  1
  O  O76  1  0.410394  0.882460  0.355154  1
  O  O77  1  0.922115  0.366349  0.353736  1
  O  O78  1  0.897424  0.860774  0.232870  1
  O  O79  1  0.309832  0.291828  0.570832  1
  O  O80  1  0.288599  0.796817  0.453840  1
  O  O81  1  0.821682  0.265617  0.452895  1
  O  O82  1  0.816752  0.780038  0.324946  1
  O  O83  1  0.217059  0.198228  0.672803  1
  O  O84  1  0.208312  0.714963  0.544576  1
  O  O85  1  0.736006  0.189750  0.543922  1
  O  O86  1  0.715123  0.693802  0.425600  1
  O  O87  1  0.123035  0.107701  0.768605  1
  O  O88  1  0.102749  0.609288  0.647299  1
  O  O89  1  0.627156  0.083379  0.648159  1
  O  O90  1  0.618365  0.586564  0.521760  1
  O  O91  1  0.527338  0.569760  0.600158  1
  O  O92  1  0.406870  0.390090  0.724756  1
  O  O93  1  0.394691  0.903203  0.600954  1
  O  O94  1  0.922606  0.375995  0.599831  1
  O  O95  1  0.916554  0.884988  0.477192  1
  O  O96  1  0.294797  0.278652  0.821725  1
  O  O97  1  0.290109  0.809708  0.699925  1
  O  O98  1  0.825224  0.278256  0.699033  1
  O  O99  1  0.816908  0.798159  0.570141  1
  O  O100  1  0.163182  0.157175  0.947415  1
  O  O101  1  0.202477  0.753345  0.789306  1
  O  O102  1  0.767105  0.193429  0.788336  1
  O  O103  1  0.721656  0.709207  0.671267  1
  O  O104  1  0.101993  0.600573  0.896941  1
  O  O105  1  0.606886  0.090199  0.897023  1
  O  O106  1  0.618767  0.608098  0.769477  1
  O  O107  1  0.484594  0.409371  0.899585  1
  O  O108  1  0.399209  0.379737  0.980328  1
  O  O109  1  0.409154  0.887689  0.848580  1
  O  O110  1  0.897649  0.402024  0.849571  1
  O  O111  1  0.912697  0.896160  0.726047  1
  O  O112  1  0.296960  0.792032  0.952562  1
  O  O113  1  0.806637  0.283286  0.952980  1
  O  O114  1  0.817990  0.808020  0.818665  1
  O  O115  1  0.702175  0.687461  0.930913  1
  O  O116  1  0.912867  0.902661  0.972033  1
