# generated using pymatgen
data_Ge3Rh5
_symmetry_space_group_name_H-M   'P 1'
_cell_length_a   4.04134511
_cell_length_b   5.49922166
_cell_length_c   10.49367749
_cell_angle_alpha   90.00115209
_cell_angle_beta   89.99999949
_cell_angle_gamma   90.00024794
_symmetry_Int_Tables_number   1
_chemical_formula_structural   Ge3Rh5
_chemical_formula_sum   'Ge6 Rh10'
_cell_volume   233.21413884
_cell_formula_units_Z   2
loop_
 _symmetry_equiv_pos_site_id
 _symmetry_equiv_pos_as_xyz
  1  'x, y, z'
loop_
 _atom_site_type_symbol
 _atom_site_label
 _atom_site_symmetry_multiplicity
 _atom_site_fract_x
 _atom_site_fract_y
 _atom_site_fract_z
 _atom_site_occupancy
  Ge  Ge0  1  0.500000  0.892022  0.348636  1
  Ge  Ge1  1  0.999997  0.499993  0.500008  1
  Ge  Ge2  1  0.500001  0.392024  0.151358  1
  Ge  Ge3  1  0.499999  0.108007  0.651382  1
  Ge  Ge4  1  0.500000  0.608016  0.848624  1
  Ge  Ge5  1  0.999999  -0.000007  -0.000009  1
  Rh  Rh6  1  0.000002  0.349820  0.717800  1
  Rh  Rh7  1  0.000000  0.150169  0.217785  1
  Rh  Rh8  1  0.000004  0.849821  0.782231  1
  Rh  Rh9  1  0.499999  0.828824  0.106710  1
  Rh  Rh10  1  0.499999  0.171171  0.893374  1
  Rh  Rh11  1  0.500001  0.671132  0.606634  1
  Rh  Rh12  1  0.000004  -0.000010  0.499952  1
  Rh  Rh13  1  0.500000  0.328860  0.393284  1
  Rh  Rh14  1  -0.000003  0.499991  0.000050  1
  Rh  Rh15  1  -0.000001  0.650167  0.282179  1
