# generated using pymatgen
data_P28Pb5I2
_symmetry_space_group_name_H-M   'P 1'
_cell_length_a   9.87649449
_cell_length_b   18.16804589
_cell_length_c   19.78876447
_cell_angle_alpha   90.00000000
_cell_angle_beta   96.26424100
_cell_angle_gamma   90.00000000
_symmetry_Int_Tables_number   1
_chemical_formula_structural   P28Pb5I2
_chemical_formula_sum   'P112 Pb20 I8'
_cell_volume   3529.62759941
_cell_formula_units_Z   4
loop_
 _symmetry_equiv_pos_site_id
 _symmetry_equiv_pos_as_xyz
  1  'x, y, z'
loop_
 _atom_site_type_symbol
 _atom_site_label
 _atom_site_symmetry_multiplicity
 _atom_site_fract_x
 _atom_site_fract_y
 _atom_site_fract_z
 _atom_site_occupancy
  P  P0  1  0.169154  0.899896  0.782816  1
  P  P1  1  0.831252  0.905601  0.765236  1
  P  P2  1  0.490273  0.900976  0.771556  1
  P  P3  1  0.678422  0.486617  0.328762  1
  P  P4  1  0.235753  0.867304  0.472810  1
  P  P5  1  0.136032  0.506588  0.596419  1
  P  P6  1  0.396684  0.891447  0.933563  1
  P  P7  1  0.387707  0.968255  0.351398  1
  P  P8  1  0.993896  0.150554  0.676058  1
  P  P9  1  0.493896  0.349446  0.176058  1
  P  P10  1  0.482928  0.508742  0.600879  1
  P  P11  1  0.612293  0.031745  0.648602  1
  P  P12  1  0.600608  0.475798  0.070583  1
  P  P13  1  0.212597  0.524009  0.857047  1
  P  P14  1  0.774777  0.023041  0.579509  1
  P  P15  1  0.923946  0.370383  0.010950  1
  P  P16  1  0.091567  0.351183  0.169797  1
  P  P17  1  0.330846  0.399896  0.717184  1
  P  P18  1  0.112293  0.468255  0.148602  1
  P  P19  1  0.830846  0.100104  0.217184  1
  P  P20  1  0.063419  0.519252  0.932527  1
  P  P21  1  0.764247  0.132696  0.527190  1
  P  P22  1  0.994788  0.515722  0.676318  1
  P  P23  1  0.936581  0.480748  0.067473  1
  P  P24  1  0.982928  0.991258  0.100879  1
  P  P25  1  0.594282  0.192820  0.567066  1
  P  P26  1  0.603316  0.108553  0.066437  1
  P  P27  1  0.463261  0.465838  0.152025  1
  P  P28  1  0.076054  0.629617  0.989050  1
  P  P29  1  0.509727  0.099024  0.228444  1
  P  P30  1  0.094282  0.307180  0.067066  1
  P  P31  1  0.100608  0.024202  0.570583  1
  P  P32  1  0.591567  0.148817  0.669797  1
  P  P33  1  0.363968  0.006588  0.903581  1
  P  P34  1  0.636032  0.993412  0.096419  1
  P  P35  1  0.399392  0.524202  0.929417  1
  P  P36  1  0.009727  0.400976  0.728444  1
  P  P37  1  0.899392  0.975798  0.429417  1
  P  P38  1  0.677390  0.842032  0.814670  1
  P  P39  1  0.668748  0.405601  0.734764  1
  P  P40  1  0.998519  0.844577  0.826288  1
  P  P41  1  0.178422  0.013383  0.828762  1
  P  P42  1  0.274777  0.476959  0.079509  1
  P  P43  1  0.321578  0.513383  0.671238  1
  P  P44  1  0.160969  0.981654  0.180182  1
  P  P45  1  0.505212  0.015722  0.823682  1
  P  P46  1  0.088301  0.135382  0.514957  1
  P  P47  1  0.322610  0.157968  0.185330  1
  P  P48  1  0.712597  0.975991  0.357047  1
  P  P49  1  0.192421  0.487574  0.396133  1
  P  P50  1  0.002043  0.106646  0.072810  1
  P  P51  1  0.536739  0.534162  0.847975  1
  P  P52  1  0.411699  0.635382  0.985043  1
  P  P53  1  0.911699  0.864618  0.485043  1
  P  P54  1  0.177390  0.657968  0.314670  1
  P  P55  1  0.436581  0.019252  0.567473  1
  P  P56  1  0.669154  0.600104  0.282816  1
  P  P57  1  0.588301  0.364618  0.014957  1
  P  P58  1  0.725223  0.523041  0.920491  1
  P  P59  1  0.423946  0.129617  0.510950  1
  P  P60  1  0.555915  0.695321  0.926345  1
  P  P61  1  0.225223  0.976959  0.420491  1
  P  P62  1  0.839031  0.018346  0.819818  1
  P  P63  1  0.905718  0.692820  0.932934  1
  P  P64  1  0.103316  0.391447  0.566437  1
  P  P65  1  0.055915  0.804679  0.426345  1
  P  P66  1  0.036739  0.965838  0.347975  1
  P  P67  1  0.149772  0.341370  0.666870  1
  P  P68  1  0.772268  0.305237  0.060517  1
  P  P69  1  0.908433  0.648817  0.830203  1
  P  P70  1  0.405718  0.807180  0.432934  1
  P  P71  1  0.339031  0.481654  0.319818  1
  P  P72  1  0.501481  0.344577  0.673712  1
  P  P73  1  0.502043  0.393354  0.572810  1
  P  P74  1  0.498519  0.655423  0.326288  1
  P  P75  1  0.307579  0.987574  0.103867  1
  P  P76  1  0.506104  0.650554  0.823942  1
  P  P77  1  0.408433  0.851183  0.330203  1
  P  P78  1  0.822610  0.342032  0.685330  1
  P  P79  1  0.227732  0.694763  0.939483  1
  P  P80  1  0.331252  0.594399  0.265236  1
  P  P81  1  0.494788  0.984278  0.176318  1
  P  P82  1  0.005212  0.484278  0.323682  1
  P  P83  1  0.444085  0.304679  0.073655  1
  P  P84  1  0.649772  0.158630  0.166870  1
  P  P85  1  0.017072  0.008742  0.899121  1
  P  P86  1  0.944085  0.195321  0.573655  1
  P  P87  1  0.692421  0.012426  0.896133  1
  P  P88  1  0.350228  0.841370  0.833130  1
  P  P89  1  0.887707  0.531745  0.851398  1
  P  P90  1  0.863968  0.493412  0.403581  1
  P  P91  1  0.990273  0.599024  0.271556  1
  P  P92  1  0.821578  0.986617  0.171238  1
  P  P93  1  0.006104  0.849446  0.323942  1
  P  P94  1  0.787403  0.475991  0.142953  1
  P  P95  1  0.264247  0.367304  0.027190  1
  P  P96  1  0.997957  0.893354  0.927190  1
  P  P97  1  0.963261  0.034162  0.652025  1
  P  P98  1  0.497957  0.606646  0.427190  1
  P  P99  1  0.517072  0.491258  0.399121  1
  P  P100  1  0.896684  0.608553  0.433563  1
  P  P101  1  0.287403  0.024009  0.642953  1
  P  P102  1  0.563419  0.980748  0.432527  1
  P  P103  1  0.576054  0.870383  0.489050  1
  P  P104  1  0.001481  0.155423  0.173712  1
  P  P105  1  0.168748  0.094399  0.234764  1
  P  P106  1  0.807579  0.512426  0.603867  1
  P  P107  1  0.660969  0.518346  0.680182  1
  P  P108  1  0.850228  0.658630  0.333130  1
  P  P109  1  0.272268  0.194763  0.560517  1
  P  P110  1  0.735753  0.632696  0.972810  1
  P  P111  1  0.727732  0.805237  0.439483  1
  Pb  Pb112  1  0.190144  0.796072  0.235389  1
  Pb  Pb113  1  0.690144  0.703928  0.735389  1
  Pb  Pb114  1  0.708043  0.871633  0.957119  1
  Pb  Pb115  1  0.195522  0.665097  0.796287  1
  Pb  Pb116  1  0.695227  0.639706  0.127395  1
  Pb  Pb117  1  0.280869  0.334465  0.476265  1
  Pb  Pb118  1  0.304773  0.360294  0.872605  1
  Pb  Pb119  1  0.208043  0.628367  0.457119  1
  Pb  Pb120  1  0.780869  0.165535  0.976265  1
  Pb  Pb121  1  0.309856  0.296072  0.264611  1
  Pb  Pb122  1  0.804773  0.139706  0.372605  1
  Pb  Pb123  1  0.219131  0.834465  0.023735  1
  Pb  Pb124  1  0.304478  0.165097  0.703713  1
  Pb  Pb125  1  0.791957  0.371633  0.542881  1
  Pb  Pb126  1  0.291957  0.128367  0.042881  1
  Pb  Pb127  1  0.804478  0.334903  0.203713  1
  Pb  Pb128  1  0.195227  0.860294  0.627395  1
  Pb  Pb129  1  0.695522  0.834903  0.296287  1
  Pb  Pb130  1  0.809856  0.203928  0.764611  1
  Pb  Pb131  1  0.719131  0.665535  0.523735  1
  I  I132  1  0.594870  0.266688  0.376369  1
  I  I133  1  0.094870  0.233312  0.876369  1
  I  I134  1  0.405130  0.733312  0.623631  1
  I  I135  1  0.479035  0.772582  0.133839  1
  I  I136  1  0.020965  0.272582  0.366161  1
  I  I137  1  0.979035  0.727418  0.633839  1
  I  I138  1  0.905130  0.766688  0.123631  1
  I  I139  1  0.520965  0.227418  0.866161  1
