# generated using pymatgen
data_KC2N3
_symmetry_space_group_name_H-M   'P 1'
_cell_length_a   4.03438773
_cell_length_b   8.55393897
_cell_length_c   12.73678219
_cell_angle_alpha   89.99876649
_cell_angle_beta   89.99972652
_cell_angle_gamma   89.99982956
_symmetry_Int_Tables_number   1
_chemical_formula_structural   KC2N3
_chemical_formula_sum   'K4 C8 N12'
_cell_volume   439.54516146
_cell_formula_units_Z   4
loop_
 _symmetry_equiv_pos_site_id
 _symmetry_equiv_pos_as_xyz
  1  'x, y, z'
loop_
 _atom_site_type_symbol
 _atom_site_label
 _atom_site_symmetry_multiplicity
 _atom_site_fract_x
 _atom_site_fract_y
 _atom_site_fract_z
 _atom_site_occupancy
  K  K0  1  0.250001  0.624462  0.869471  1
  K  K1  1  0.749998  0.375540  0.130527  1
  K  K2  1  0.750004  0.875537  0.369474  1
  K  K3  1  0.249998  0.124462  0.630528  1
  C  C4  1  0.750001  0.261345  0.873610  1
  C  C5  1  0.250002  0.011461  0.127848  1
  C  C6  1  0.249998  0.738643  0.126387  1
  C  C7  1  0.750000  0.761343  0.626391  1
  C  C8  1  0.250000  0.511460  0.372152  1
  C  C9  1  0.250001  0.238658  0.373610  1
  C  C10  1  0.750001  0.488538  0.627850  1
  C  C11  1  0.749999  0.988539  0.872153  1
  N  N12  1  0.750003  0.392442  0.904019  1
  N  N13  1  0.250002  0.644965  0.396396  1
  N  N14  1  0.250002  0.107552  0.404021  1
  N  N15  1  0.749998  0.892446  0.595979  1
  N  N16  1  0.749999  0.125761  0.828216  1
  N  N17  1  0.750002  0.625748  0.671787  1
  N  N18  1  0.250000  0.144976  0.103608  1
  N  N19  1  0.250006  0.874237  0.171785  1
  N  N20  1  0.249999  0.374251  0.328214  1
  N  N21  1  0.750000  0.855027  0.896395  1
  N  N22  1  0.750000  0.355033  0.603605  1
  N  N23  1  0.249987  0.607575  0.095974  1
