# generated using pymatgen
data_U2InNi2
_symmetry_space_group_name_H-M   'P 1'
_cell_length_a   3.72916939
_cell_length_b   7.19730202
_cell_length_c   7.17882016
_cell_angle_alpha   89.81005434
_cell_angle_beta   89.47806877
_cell_angle_gamma   90.03605152
_symmetry_Int_Tables_number   1
_chemical_formula_structural   U2InNi2
_chemical_formula_sum   'U4 In2 Ni4'
_cell_volume   192.67013948
_cell_formula_units_Z   2
loop_
 _symmetry_equiv_pos_site_id
 _symmetry_equiv_pos_as_xyz
  1  'x, y, z'
loop_
 _atom_site_type_symbol
 _atom_site_label
 _atom_site_symmetry_multiplicity
 _atom_site_fract_x
 _atom_site_fract_y
 _atom_site_fract_z
 _atom_site_occupancy
  U  U0  1  0.500180  0.163674  0.663125  1
  U  U1  1  0.498878  0.836897  0.337841  1
  U  U2  1  0.499493  0.663495  0.837271  1
  U  U3  1  0.500426  0.335400  0.162513  1
  In  In4  1  0.000506  0.000237  0.999922  1
  In  In5  1  0.999341  0.499532  0.499523  1
  Ni  Ni6  1  0.000038  0.368187  0.868471  1
  Ni  Ni7  1  0.998592  0.631848  0.132028  1
  Ni  Ni8  1  0.002094  0.132059  0.367649  1
  Ni  Ni9  1  0.000453  0.868671  0.631657  1
