# generated using pymatgen
data_ZnH8C4(NO3)2
_symmetry_space_group_name_H-M   'P 1'
_cell_length_a   10.95019672
_cell_length_b   8.75696483
_cell_length_c   10.81889988
_cell_angle_alpha   90.00000000
_cell_angle_beta   90.00000000
_cell_angle_gamma   90.00000000
_symmetry_Int_Tables_number   1
_chemical_formula_structural   ZnH8C4(NO3)2
_chemical_formula_sum   'Zn4 H32 C16 N8 O24'
_cell_volume   1037.42958434
_cell_formula_units_Z   4
loop_
 _symmetry_equiv_pos_site_id
 _symmetry_equiv_pos_as_xyz
  1  'x, y, z'
loop_
 _atom_site_type_symbol
 _atom_site_label
 _atom_site_symmetry_multiplicity
 _atom_site_fract_x
 _atom_site_fract_y
 _atom_site_fract_z
 _atom_site_occupancy
  Zn  Zn0  1  0.750000  0.791971  0.750000  1
  Zn  Zn1  1  0.750000  0.708029  0.250000  1
  Zn  Zn2  1  0.250000  0.208029  0.250000  1
  Zn  Zn3  1  0.250000  0.291971  0.750000  1
  H  H4  1  0.058348  0.250000  0.500000  1
  H  H5  1  0.462939  0.588858  0.687589  1
  H  H6  1  0.441652  0.250000  0.000000  1
  H  H7  1  0.009599  0.750000  0.500000  1
  H  H8  1  0.962939  0.088858  0.812411  1
  H  H9  1  0.779032  0.852123  0.497847  1
  H  H10  1  0.389431  0.549102  0.122352  1
  H  H11  1  0.889431  0.049102  0.377648  1
  H  H12  1  0.779032  0.647877  0.502153  1
  H  H13  1  0.537061  0.088858  0.687589  1
  H  H14  1  0.720968  0.852123  0.002153  1
  H  H15  1  0.610569  0.450898  0.877648  1
  H  H16  1  0.037061  0.911142  0.187589  1
  H  H17  1  0.889431  0.450898  0.622352  1
  H  H18  1  0.720968  0.647877  -0.002153  1
  H  H19  1  0.279032  0.147877  -0.002153  1
  H  H20  1  0.537061  0.411142  0.312411  1
  H  H21  1  0.279032  0.352123  0.002153  1
  H  H22  1  0.110569  0.950898  0.622352  1
  H  H23  1  0.220968  0.352123  0.497847  1
  H  H24  1  0.990401  0.250000  0.500000  1
  H  H25  1  0.462939  0.911142  0.312411  1
  H  H26  1  0.558348  0.750000  0.000000  1
  H  H27  1  0.941652  0.750000  0.500000  1
  H  H28  1  0.509599  0.250000  0.000000  1
  H  H29  1  0.037061  0.588858  0.812411  1
  H  H30  1  0.490401  0.750000  0.000000  1
  H  H31  1  0.389431  0.950898  0.877648  1
  H  H32  1  0.110569  0.549102  0.377648  1
  H  H33  1  0.610569  0.049102  0.122352  1
  H  H34  1  0.962939  0.411142  0.187589  1
  H  H35  1  0.220968  0.147877  0.502153  1
  C  C36  1  0.175018  0.750000  0.000000  1
  C  C37  1  0.324982  0.750000  0.500000  1
  C  C38  1  0.675018  0.250000  0.500000  1
  C  C39  1  0.782610  0.750000  0.000000  1
  C  C40  1  0.977001  0.482527  0.270255  1
  C  C41  1  0.522999  0.482527  0.229745  1
  C  C42  1  0.022999  0.517473  0.729745  1
  C  C43  1  0.824982  0.250000  0.000000  1
  C  C44  1  0.477001  0.517473  0.770255  1
  C  C45  1  0.977001  0.017473  0.729745  1
  C  C46  1  0.477001  0.982527  0.229745  1
  C  C47  1  0.522999  0.017473  0.770255  1
  C  C48  1  0.282610  0.250000  0.500000  1
  C  C49  1  0.717390  0.750000  0.500000  1
  C  C50  1  0.022999  0.982527  0.270255  1
  C  C51  1  0.217390  0.250000  0.000000  1
  N  N52  1  0.785253  0.185989  0.464635  1
  N  N53  1  0.785253  0.314011  0.535365  1
  N  N54  1  0.214747  0.814011  0.535365  1
  N  N55  1  0.714747  0.314011  0.964635  1
  N  N56  1  0.714747  0.185989  0.035365  1
  N  N57  1  0.285253  0.685989  0.035365  1
  N  N58  1  0.214747  0.685989  0.464635  1
  N  N59  1  0.285253  0.814011  0.964635  1
  O  O60  1  0.907893  0.977276  0.308080  1
  O  O61  1  0.349075  0.245507  0.391380  1
  O  O62  1  0.650925  0.745507  0.391380  1
  O  O63  1  0.395637  0.443634  0.822258  1
  O  O64  1  0.092107  0.477276  0.308080  1
  O  O65  1  0.104363  0.056366  0.322258  1
  O  O66  1  0.150925  0.254493  0.891380  1
  O  O67  1  0.849075  0.754493  0.891380  1
  O  O68  1  0.592107  0.977276  0.191920  1
  O  O69  1  0.907893  0.522724  0.691920  1
  O  O70  1  0.407893  0.022724  0.808080  1
  O  O71  1  0.407893  0.477276  0.191920  1
  O  O72  1  0.592107  0.522724  0.808080  1
  O  O73  1  0.604363  0.943634  0.822258  1
  O  O74  1  0.395637  0.056366  0.177742  1
  O  O75  1  0.849075  0.745507  0.108620  1
  O  O76  1  0.604363  0.556366  0.177742  1
  O  O77  1  0.895637  0.556366  0.322258  1
  O  O78  1  0.349075  0.254493  0.608620  1
  O  O79  1  0.092107  0.022724  0.691920  1
  O  O80  1  0.150925  0.245507  0.108620  1
  O  O81  1  0.104363  0.443634  0.677742  1
  O  O82  1  0.650925  0.754493  0.608620  1
  O  O83  1  0.895637  0.943634  0.677742  1
