# generated using pymatgen
data_K2Mo4O13
_symmetry_space_group_name_H-M   'P 1'
_cell_length_a   7.72176528
_cell_length_b   15.71045215
_cell_length_c   18.97184418
_cell_angle_alpha   90.00000000
_cell_angle_beta   90.00000000
_cell_angle_gamma   90.00000000
_symmetry_Int_Tables_number   1
_chemical_formula_structural   K2Mo4O13
_chemical_formula_sum   'K16 Mo32 O104'
_cell_volume   2301.52040418
_cell_formula_units_Z   8
loop_
 _symmetry_equiv_pos_site_id
 _symmetry_equiv_pos_as_xyz
  1  'x, y, z'
loop_
 _atom_site_type_symbol
 _atom_site_label
 _atom_site_symmetry_multiplicity
 _atom_site_fract_x
 _atom_site_fract_y
 _atom_site_fract_z
 _atom_site_occupancy
  K  K0  1  0.107065  0.529721  0.084352  1
  K  K1  1  0.229455  0.284071  0.067126  1
  K  K2  1  0.729455  0.215929  0.932874  1
  K  K3  1  0.392935  0.470279  0.584352  1
  K  K4  1  0.729455  0.284071  0.432874  1
  K  K5  1  0.270545  0.784071  0.067126  1
  K  K6  1  0.107065  0.970279  0.584352  1
  K  K7  1  0.892935  0.470279  0.915648  1
  K  K8  1  0.270545  0.715929  0.567126  1
  K  K9  1  0.770545  0.715929  0.932874  1
  K  K10  1  0.892935  0.029721  0.415648  1
  K  K11  1  0.392935  0.029721  0.084352  1
  K  K12  1  0.607065  0.970279  0.915648  1
  K  K13  1  0.229455  0.215929  0.567126  1
  K  K14  1  0.607065  0.529721  0.415648  1
  K  K15  1  0.770545  0.784071  0.432874  1
  Mo  Mo16  1  0.171992  0.568463  0.743926  1
  Mo  Mo17  1  0.671992  0.568463  0.756074  1
  Mo  Mo18  1  0.394243  0.432107  0.892628  1
  Mo  Mo19  1  0.105757  0.932107  0.892628  1
  Mo  Mo20  1  0.793930  0.638392  0.597736  1
  Mo  Mo21  1  0.394243  0.067893  0.392628  1
  Mo  Mo22  1  0.605757  0.932107  0.607372  1
  Mo  Mo23  1  0.579007  0.777447  0.750979  1
  Mo  Mo24  1  0.828008  0.068463  0.756074  1
  Mo  Mo25  1  0.828008  0.431537  0.256074  1
  Mo  Mo26  1  0.920993  0.277447  0.750979  1
  Mo  Mo27  1  0.206070  0.361608  0.402264  1
  Mo  Mo28  1  0.206070  0.138392  0.902264  1
  Mo  Mo29  1  0.105757  0.567893  0.392628  1
  Mo  Mo30  1  0.293930  0.861608  0.402264  1
  Mo  Mo31  1  0.894243  0.067893  0.107372  1
  Mo  Mo32  1  0.579007  0.722553  0.250979  1
  Mo  Mo33  1  0.894243  0.432107  0.607372  1
  Mo  Mo34  1  0.793930  0.861608  0.097736  1
  Mo  Mo35  1  0.420993  0.277447  0.749021  1
  Mo  Mo36  1  0.171992  0.931537  0.243926  1
  Mo  Mo37  1  0.920993  0.222553  0.250979  1
  Mo  Mo38  1  0.420993  0.222553  0.249021  1
  Mo  Mo39  1  0.079007  0.777447  0.749021  1
  Mo  Mo40  1  0.328008  0.431537  0.243926  1
  Mo  Mo41  1  0.605757  0.567893  0.107372  1
  Mo  Mo42  1  0.328008  0.068463  0.743926  1
  Mo  Mo43  1  0.671992  0.931537  0.256074  1
  Mo  Mo44  1  0.706070  0.361608  0.097736  1
  Mo  Mo45  1  0.293930  0.638392  0.902264  1
  Mo  Mo46  1  0.706070  0.138392  0.597736  1
  Mo  Mo47  1  0.079007  0.722553  0.249021  1
  O  O48  1  0.192710  0.677757  0.816058  1
  O  O49  1  0.169103  0.853070  0.819646  1
  O  O50  1  0.735798  0.086448  0.043052  1
  O  O51  1  0.426987  0.333159  0.195038  1
  O  O52  1  0.100448  0.227215  0.936791  1
  O  O53  1  0.735798  0.413552  0.543052  1
  O  O54  1  0.830897  0.146930  0.180354  1
  O  O55  1  0.923308  0.515640  0.304798  1
  O  O56  1  0.235798  0.086448  0.456948  1
  O  O57  1  0.073013  0.666841  0.695038  1
  O  O58  1  0.222116  0.520799  0.832757  1
  O  O59  1  0.613808  0.622680  0.542781  1
  O  O60  1  0.865390  0.770112  0.784124  1
  O  O61  1  0.423308  0.515640  0.195202  1
  O  O62  1  0.722116  0.520799  0.667243  1
  O  O63  1  0.100448  0.272785  0.436791  1
  O  O64  1  0.777884  0.479201  0.167243  1
  O  O65  1  0.945011  0.342327  0.823848  1
  O  O66  1  0.886192  0.377320  0.042781  1
  O  O67  1  0.634610  0.229888  0.284124  1
  O  O68  1  0.134610  0.270112  0.715876  1
  O  O69  1  0.807290  0.177757  0.683942  1
  O  O70  1  0.422291  0.620507  0.075889  1
  O  O71  1  0.445011  0.157673  0.176152  1
  O  O72  1  0.764202  0.586448  0.043052  1
  O  O73  1  0.634610  0.270112  0.784124  1
  O  O74  1  0.692710  0.822243  0.183942  1
  O  O75  1  0.617243  0.072445  0.793693  1
  O  O76  1  0.882757  0.572445  0.793693  1
  O  O77  1  0.669103  0.853070  0.680354  1
  O  O78  1  0.764202  0.913552  0.543052  1
  O  O79  1  0.617243  0.427555  0.293693  1
  O  O80  1  0.692710  0.677757  0.683942  1
  O  O81  1  0.545711  0.449914  0.075743  1
  O  O82  1  0.445011  0.342327  0.676152  1
  O  O83  1  0.073013  0.833159  0.195038  1
  O  O84  1  0.382757  0.572445  0.706307  1
  O  O85  1  0.134610  0.229888  0.215876  1
  O  O86  1  0.573013  0.666841  0.804962  1
  O  O87  1  0.922291  0.879493  0.924111  1
  O  O88  1  0.382757  0.927555  0.206307  1
  O  O89  1  0.554989  0.657673  0.323848  1
  O  O90  1  0.399552  0.772785  0.436791  1
  O  O91  1  0.423308  0.984360  0.695202  1
  O  O92  1  0.117243  0.072445  0.706307  1
  O  O93  1  0.926987  0.166841  0.804962  1
  O  O94  1  0.454289  0.949914  0.424257  1
  O  O95  1  0.192710  0.822243  0.316058  1
  O  O96  1  0.113808  0.877320  0.457219  1
  O  O97  1  0.386192  0.122680  0.957219  1
  O  O98  1  0.922291  0.620507  0.424111  1
  O  O99  1  0.076692  0.015640  0.195202  1
  O  O100  1  0.077709  0.120507  0.075889  1
  O  O101  1  0.722116  0.979201  0.167243  1
  O  O102  1  0.077709  0.379493  0.575889  1
  O  O103  1  0.807290  0.322243  0.183942  1
  O  O104  1  0.882757  0.927555  0.293693  1
  O  O105  1  0.577709  0.379493  0.924111  1
  O  O106  1  0.264202  0.913552  0.956948  1
  O  O107  1  0.926987  0.333159  0.304962  1
  O  O108  1  0.386192  0.377320  0.457219  1
  O  O109  1  0.923308  0.984360  0.804798  1
  O  O110  1  0.600448  0.227215  0.563209  1
  O  O111  1  0.573013  0.833159  0.304962  1
  O  O112  1  0.307290  0.177757  0.816058  1
  O  O113  1  0.365390  0.770112  0.715876  1
  O  O114  1  0.899552  0.727215  0.563209  1
  O  O115  1  0.277884  0.020799  0.832757  1
  O  O116  1  0.945011  0.157673  0.323848  1
  O  O117  1  0.600448  0.272785  0.063209  1
  O  O118  1  0.454289  0.550086  0.924257  1
  O  O119  1  0.830897  0.353070  0.680354  1
  O  O120  1  0.545711  0.050086  0.575743  1
  O  O121  1  0.222116  0.979201  0.332757  1
  O  O122  1  0.576692  0.484360  0.804798  1
  O  O123  1  0.954289  0.550086  0.575743  1
  O  O124  1  0.054989  0.657673  0.176152  1
  O  O125  1  0.669103  0.646930  0.180354  1
  O  O126  1  0.045711  0.050086  0.924257  1
  O  O127  1  0.777884  0.020799  0.667243  1
  O  O128  1  0.577709  0.120507  0.424111  1
  O  O129  1  0.330897  0.353070  0.819646  1
  O  O130  1  0.426987  0.166841  0.695038  1
  O  O131  1  0.613808  0.877320  0.042781  1
  O  O132  1  0.113808  0.622680  0.957219  1
  O  O133  1  0.169103  0.646930  0.319646  1
  O  O134  1  0.045711  0.449914  0.424257  1
  O  O135  1  0.235798  0.413552  0.956948  1
  O  O136  1  0.264202  0.586448  0.456948  1
  O  O137  1  0.954289  0.949914  0.075743  1
  O  O138  1  0.554989  0.842327  0.823848  1
  O  O139  1  0.886192  0.122680  0.542781  1
  O  O140  1  0.399552  0.727215  0.936791  1
  O  O141  1  0.330897  0.146930  0.319646  1
  O  O142  1  0.117243  0.427555  0.206307  1
  O  O143  1  0.277884  0.479201  0.332757  1
  O  O144  1  0.422291  0.879493  0.575889  1
  O  O145  1  0.307290  0.322243  0.316058  1
  O  O146  1  0.076692  0.484360  0.695202  1
  O  O147  1  0.899552  0.772785  0.063209  1
  O  O148  1  0.054989  0.842327  0.676152  1
  O  O149  1  0.865390  0.729888  0.284124  1
  O  O150  1  0.576692  0.015640  0.304798  1
  O  O151  1  0.365390  0.729888  0.215876  1
