# generated using pymatgen
data_KMgP2H5O9
_symmetry_space_group_name_H-M   'P 1'
_cell_length_a   9.07057241
_cell_length_b   8.73999682
_cell_length_c   9.66211598
_cell_angle_alpha   90.00000000
_cell_angle_beta   90.00000000
_cell_angle_gamma   90.00000000
_symmetry_Int_Tables_number   1
_chemical_formula_structural   KMgP2H5O9
_chemical_formula_sum   'K4 Mg4 P8 H20 O36'
_cell_volume   765.98138509
_cell_formula_units_Z   4
loop_
 _symmetry_equiv_pos_site_id
 _symmetry_equiv_pos_as_xyz
  1  'x, y, z'
loop_
 _atom_site_type_symbol
 _atom_site_label
 _atom_site_symmetry_multiplicity
 _atom_site_fract_x
 _atom_site_fract_y
 _atom_site_fract_z
 _atom_site_occupancy
  K  K0  1  0.244605  0.711644  0.912383  1
  K  K1  1  0.255395  0.711644  0.412383  1
  K  K2  1  0.744605  0.211644  0.587617  1
  K  K3  1  0.755395  0.211644  0.087617  1
  Mg  Mg4  1  0.929820  0.673908  0.650767  1
  Mg  Mg5  1  0.570180  0.673908  0.150767  1
  Mg  Mg6  1  0.429820  0.173908  0.849233  1
  Mg  Mg7  1  0.070180  0.173908  0.349233  1
  P  P8  1  0.076037  0.182604  0.821505  1
  P  P9  1  0.850793  0.474984  0.851328  1
  P  P10  1  0.423963  0.182604  0.321505  1
  P  P11  1  0.649207  0.474984  0.351328  1
  P  P12  1  0.576037  0.682604  0.678495  1
  P  P13  1  0.350793  0.974984  0.648672  1
  P  P14  1  0.923963  0.682604  0.178495  1
  P  P15  1  0.149207  0.974984  0.148672  1
  H  H16  1  0.586389  0.421367  0.912806  1
  H  H17  1  0.900646  0.991757  0.299648  1
  H  H18  1  0.553916  0.928193  0.985932  1
  H  H19  1  0.196792  0.194694  0.622593  1
  H  H20  1  0.296839  0.517769  0.649569  1
  H  H21  1  0.303208  0.194694  0.122593  1
  H  H22  1  0.203161  0.517769  0.149569  1
  H  H23  1  0.946084  0.928193  0.485932  1
  H  H24  1  0.599354  0.991757  0.799648  1
  H  H25  1  0.913611  0.421367  0.412806  1
  H  H26  1  0.086389  0.921367  0.587194  1
  H  H27  1  0.053916  0.428193  0.514068  1
  H  H28  1  0.400646  0.491757  0.200352  1
  H  H29  1  0.696792  0.694694  0.877407  1
  H  H30  1  0.796839  0.017769  0.850431  1
  H  H31  1  0.803208  0.694694  0.377407  1
  H  H32  1  0.703161  0.017769  0.350431  1
  H  H33  1  0.099354  0.491757  0.700352  1
  H  H34  1  0.446084  0.428193  0.014068  1
  H  H35  1  0.413611  0.921367  0.087194  1
  O  O36  1  0.184610  -0.027912  0.306162  1
  O  O37  1  0.095047  0.178580  0.655889  1
  O  O38  1  0.466679  0.107916  0.640184  1
  O  O39  1  0.521263  0.508297  0.641819  1
  O  O40  1  0.439484  0.779825  0.646675  1
  O  O41  1  0.122114  0.546067  0.614368  1
  O  O42  1  0.007456  0.856491  0.550166  1
  O  O43  1  0.120510  0.483450  0.215551  1
  O  O44  1  0.285845  0.236366  0.391801  1
  O  O45  1  0.214155  0.236366  0.891801  1
  O  O46  1  0.379490  0.483450  0.715551  1
  O  O47  1  0.492544  0.856491  0.050166  1
  O  O48  1  0.377886  0.546067  0.114368  1
  O  O49  1  0.060516  0.779825  0.146675  1
  O  O50  1  0.033321  0.107916  0.140184  1
  O  O51  1  -0.021263  0.508297  0.141819  1
  O  O52  1  0.315390  -0.027912  0.806162  1
  O  O53  1  0.404953  0.178580  0.155889  1
  O  O54  1  0.684610  0.472088  0.193838  1
  O  O55  1  0.595047  0.678580  0.844111  1
  O  O56  1  0.966679  0.607916  0.859816  1
  O  O57  1  0.021263  0.008297  0.858181  1
  O  O58  1  0.939484  0.279825  0.853325  1
  O  O59  1  0.507456  0.356491  0.949834  1
  O  O60  1  0.622114  0.046067  0.885632  1
  O  O61  1  0.620510  0.983450  0.284449  1
  O  O62  1  0.785845  0.736366  0.108199  1
  O  O63  1  0.714155  0.736366  0.608199  1
  O  O64  1  0.879490  0.983450  0.784449  1
  O  O65  1  0.877886  0.046067  0.385632  1
  O  O66  1  0.992544  0.356491  0.449834  1
  O  O67  1  0.560516  0.279825  0.353325  1
  O  O68  1  0.533321  0.607916  0.359816  1
  O  O69  1  0.478737  0.008297  0.358181  1
  O  O70  1  0.815390  0.472088  0.693838  1
  O  O71  1  0.904953  0.678580  0.344111  1
