# generated using pymatgen
data_K2H2RuO5
_symmetry_space_group_name_H-M   'P 1'
_cell_length_a   8.17447736
_cell_length_b   6.84473737
_cell_length_c   10.71409318
_cell_angle_alpha   90.00000000
_cell_angle_beta   90.00000000
_cell_angle_gamma   90.00000000
_symmetry_Int_Tables_number   1
_chemical_formula_structural   K2H2RuO5
_chemical_formula_sum   'K8 H8 Ru4 O20'
_cell_volume   599.47655586
_cell_formula_units_Z   4
loop_
 _symmetry_equiv_pos_site_id
 _symmetry_equiv_pos_as_xyz
  1  'x, y, z'
loop_
 _atom_site_type_symbol
 _atom_site_label
 _atom_site_symmetry_multiplicity
 _atom_site_fract_x
 _atom_site_fract_y
 _atom_site_fract_z
 _atom_site_occupancy
  K  K0  1  0.347341  0.873998  0.207385  1
  K  K1  1  0.152659  0.126002  0.707385  1
  K  K2  1  0.847341  0.626002  0.792615  1
  K  K3  1  0.652659  0.373998  0.292615  1
  K  K4  1  0.995434  0.288072  0.062574  1
  K  K5  1  0.504566  0.711928  0.562574  1
  K  K6  1  0.495434  0.211928  0.937426  1
  K  K7  1  0.004566  0.788072  0.437426  1
  H  H8  1  0.675430  0.889111  0.344651  1
  H  H9  1  0.824570  0.110889  0.844651  1
  H  H10  1  0.175430  0.610889  0.655349  1
  H  H11  1  0.324570  0.389111  0.155349  1
  H  H12  1  0.479003  0.100144  0.458301  1
  H  H13  1  0.020997  0.899856  0.958301  1
  H  H14  1  0.979003  0.399856  0.541699  1
  H  H15  1  0.520997  0.600144  0.041699  1
  Ru  Ru16  1  0.190474  0.341263  0.368292  1
  Ru  Ru17  1  0.309526  0.658737  0.868292  1
  Ru  Ru18  1  0.690474  0.158737  0.631708  1
  Ru  Ru19  1  0.809526  0.841263  0.131708  1
  O  O20  1  0.826950  0.955444  0.623432  1
  O  O21  1  0.673050  0.044556  0.123431  1
  O  O22  1  0.326950  0.544556  0.376568  1
  O  O23  1  0.173050  0.455444  0.876568  1
  O  O24  1  0.709100  0.767387  0.300627  1
  O  O25  1  0.790900  0.232613  0.800627  1
  O  O26  1  0.209100  0.732613  0.699373  1
  O  O27  1  0.290900  0.267387  0.199373  1
  O  O28  1  0.756891  0.603022  0.073113  1
  O  O29  1  0.743109  0.396978  0.573113  1
  O  O30  1  0.256891  0.896978  0.926887  1
  O  O31  1  0.243109  0.103022  0.426887  1
  O  O32  1  0.507572  0.620403  0.805975  1
  O  O33  1  0.992428  0.379597  0.305975  1
  O  O34  1  0.007572  0.879597  0.194025  1
  O  O35  1  0.492428  0.120403  0.694025  1
  O  O36  1  0.902362  0.925359  0.959051  1
  O  O37  1  0.597638  0.074641  0.459051  1
  O  O38  1  0.402362  0.574641  0.040949  1
  O  O39  1  0.097638  0.425359  0.540949  1
