# generated using pymatgen
data_SrLiEuTeO6
_symmetry_space_group_name_H-M   'P 1'
_cell_length_a   5.65842101
_cell_length_b   5.81611004
_cell_length_c   7.82863552
_cell_angle_alpha   90.00000000
_cell_angle_beta   90.45367038
_cell_angle_gamma   90.00000000
_symmetry_Int_Tables_number   1
_chemical_formula_structural   SrLiEuTeO6
_chemical_formula_sum   'Sr2 Li2 Eu2 Te2 O12'
_cell_volume   257.63231268
_cell_formula_units_Z   2
loop_
 _symmetry_equiv_pos_site_id
 _symmetry_equiv_pos_as_xyz
  1  'x, y, z'
loop_
 _atom_site_type_symbol
 _atom_site_label
 _atom_site_symmetry_multiplicity
 _atom_site_fract_x
 _atom_site_fract_y
 _atom_site_fract_z
 _atom_site_occupancy
  Eu  Eu0  1  0.490781  0.557860  0.751886  1
  Eu  Eu1  1  0.990781  0.942140  0.251886  1
  Sr  Sr2  1  0.007607  0.042876  0.750032  1
  Sr  Sr3  1  0.507607  0.457124  0.250032  1
  Li  Li4  1  0.499841  0.004851  0.001073  1
  Li  Li5  1  -0.000159  0.495149  0.501073  1
  Te  Te6  1  -0.000200  0.497040  -0.000500  1
  Te  Te7  1  0.499800  0.002960  0.499500  1
  O  O8  1  0.070904  0.530768  0.241844  1
  O  O9  1  0.196053  0.768567  0.957915  1
  O  O10  1  0.227937  0.801813  0.536144  1
  O  O11  1  0.282004  0.317452  0.952138  1
  O  O12  1  0.322707  0.282461  0.548952  1
  O  O13  1  0.402366  0.022129  0.260517  1
  O  O14  1  0.570904  0.969232  0.741844  1
  O  O15  1  0.696053  0.731433  0.457915  1
  O  O16  1  0.727937  0.698187  0.036144  1
  O  O17  1  0.782004  0.182548  0.452138  1
  O  O18  1  0.822707  0.217539  0.048952  1
  O  O19  1  0.902366  0.477871  0.760517  1
