# generated using pymatgen
data_CaZn13
_symmetry_space_group_name_H-M   'P 1'
_cell_length_a   8.64740881
_cell_length_b   8.64740897
_cell_length_c   8.64740833
_cell_angle_alpha   59.99999859
_cell_angle_beta   59.99999796
_cell_angle_gamma   60.00000152
_symmetry_Int_Tables_number   1
_chemical_formula_structural   CaZn13
_chemical_formula_sum   'Ca2 Zn26'
_cell_volume   457.23866954
_cell_formula_units_Z   2
loop_
 _symmetry_equiv_pos_site_id
 _symmetry_equiv_pos_as_xyz
  1  'x, y, z'
loop_
 _atom_site_type_symbol
 _atom_site_label
 _atom_site_symmetry_multiplicity
 _atom_site_fract_x
 _atom_site_fract_y
 _atom_site_fract_z
 _atom_site_occupancy
  Ca  Ca0  1  0.750000  0.750000  0.750000  1
  Ca  Ca1  1  0.250000  0.250000  0.250000  1
  Zn  Zn2  1  0.800852  0.560077  0.439923  1
  Zn  Zn3  1  0.939923  0.699148  0.060077  1
  Zn  Zn4  1  0.439923  0.800852  0.560077  1
  Zn  Zn5  1  0.560077  0.439923  0.800852  1
  Zn  Zn6  1  0.800852  0.439923  0.199148  1
  Zn  Zn7  1  0.060077  0.939923  0.699148  1
  Zn  Zn8  1  0.560077  0.199148  0.439923  1
  Zn  Zn9  1  0.939923  0.300852  0.699148  1
  Zn  Zn10  1  0.199148  0.800852  0.439923  1
  Zn  Zn11  1  0.699148  0.060077  0.939923  1
  Zn  Zn12  1  0.300852  0.939923  0.060077  1
  Zn  Zn13  1  0.300852  0.699148  0.939923  1
  Zn  Zn14  1  0.300852  0.060077  0.699148  1
  Zn  Zn15  1  0.439923  0.560077  0.199148  1
  Zn  Zn16  1  0.439923  0.199148  0.800852  1
  Zn  Zn17  1  0.699148  0.939923  0.300852  1
  Zn  Zn18  1  0.699148  0.300852  0.060077  1
  Zn  Zn19  1  0.800852  0.199148  0.560077  1
  Zn  Zn20  1  0.939923  0.060077  0.300852  1
  Zn  Zn21  1  0.560077  0.800852  0.199148  1
  Zn  Zn22  1  0.060077  0.699148  0.300852  1
  Zn  Zn23  1  0.199148  0.560077  0.800852  1
  Zn  Zn24  1  0.060077  0.300852  0.939923  1
  Zn  Zn25  1  0.199148  0.439923  0.560077  1
  Zn  Zn26  1  0.000000  0.000000  0.000000  1
  Zn  Zn27  1  0.500000  0.500000  0.500000  1
