# generated using pymatgen
data_Sr2La14Zn3Cu5O32
_symmetry_space_group_name_H-M   'P 1'
_cell_length_a   5.40455498
_cell_length_b   5.53371317
_cell_length_c   28.09775267
_cell_angle_alpha   89.88427711
_cell_angle_beta   112.65822090
_cell_angle_gamma   90.00506109
_symmetry_Int_Tables_number   1
_chemical_formula_structural   Sr2La14Zn3Cu5O32
_chemical_formula_sum   'Sr2 La14 Zn3 Cu5 O32'
_cell_volume   775.46785972
_cell_formula_units_Z   1
loop_
 _symmetry_equiv_pos_site_id
 _symmetry_equiv_pos_as_xyz
  1  'x, y, z'
loop_
 _atom_site_type_symbol
 _atom_site_label
 _atom_site_symmetry_multiplicity
 _atom_site_fract_x
 _atom_site_fract_y
 _atom_site_fract_z
 _atom_site_occupancy
  Sr  Sr0  1  0.136985  0.504736  0.318884  1
  Sr  Sr1  1  0.643118  0.995226  0.071913  1
  La  La2  1  0.141212  0.513516  0.821186  1
  La  La3  1  0.368181  0.013989  0.933609  1
  La  La4  1  0.136803  0.513440  0.569039  1
  La  La5  1  0.361637  0.013675  0.680082  1
  La  La6  1  0.640699  0.987061  0.821269  1
  La  La7  1  0.865137  0.486663  0.932102  1
  La  La8  1  0.353040  0.021904  0.425993  1
  La  La9  1  0.636823  0.983339  0.568998  1
  La  La10  1  0.861968  0.486695  0.680352  1
  La  La11  1  0.138002  0.517940  0.070485  1
  La  La12  1  0.359407  0.012098  0.179539  1
  La  La13  1  0.632935  0.983204  0.317205  1
  La  La14  1  0.855654  0.489519  0.427584  1
  La  La15  1  0.862620  0.486159  0.180727  1
  Zn  Zn16  1  0.002419  0.999298  0.751261  1
  Zn  Zn17  1  0.994524  0.001658  0.497251  1
  Zn  Zn18  1  0.502604  0.500808  0.751325  1
  Cu  Cu19  1  0.998476  0.999356  0.249235  1
  Cu  Cu20  1  0.497096  0.498611  0.498531  1
  Cu  Cu21  1  0.004073  0.000193  0.002043  1
  Cu  Cu22  1  0.500920  0.499179  0.250341  1
  Cu  Cu23  1  0.504220  0.502477  0.002286  1
  O  O24  1  0.235809  0.747690  0.993769  1
  O  O25  1  0.184538  0.945365  0.841389  1
  O  O26  1  0.312715  0.449072  0.907170  1
  O  O27  1  0.236577  0.751048  0.742979  1
  O  O28  1  0.263078  0.249383  0.756320  1
  O  O29  1  0.738547  0.747584  0.993658  1
  O  O30  1  0.183687  0.946935  0.591015  1
  O  O31  1  0.315745  0.443724  0.658434  1
  O  O32  1  0.681204  0.553372  0.840423  1
  O  O33  1  0.813503  0.048427  0.907477  1
  O  O34  1  0.244857  0.744151  0.495233  1
  O  O35  1  0.268445  0.255660  0.507176  1
  O  O36  1  0.735419  0.750666  0.743025  1
  O  O37  1  0.762138  0.249209  0.756401  1
  O  O38  1  0.179776  0.973506  0.339115  1
  O  O39  1  0.322647  0.435481  0.410936  1
  O  O40  1  0.689936  0.559411  0.594333  1
  O  O41  1  0.815266  0.054763  0.658371  1
  O  O42  1  0.245367  0.750613  0.244436  1
  O  O43  1  0.263588  0.247343  0.252801  1
  O  O44  1  0.736419  0.744279  0.495413  1
  O  O45  1  0.760444  0.255268  0.507279  1
  O  O46  1  0.182154  0.949767  0.091253  1
  O  O47  1  0.315204  0.455212  0.157572  1
  O  O48  1  0.686019  0.555573  0.343014  1
  O  O49  1  0.819636  0.048625  0.410200  1
  O  O50  1  0.251223  0.255126  0.002053  1
  O  O51  1  0.732232  0.750884  0.244454  1
  O  O52  1  0.747657  0.247000  0.252872  1
  O  O53  1  0.688505  0.526181  0.092299  1
  O  O54  1  0.832973  0.042872  0.166032  1
  O  O55  1  0.756138  0.255066  0.001857  1
