# generated using pymatgen
data_SrTeO3
_symmetry_space_group_name_H-M   'P 1'
_cell_length_a   5.92092158
_cell_length_b   9.14494039
_cell_length_c   12.24046675
_cell_angle_alpha   69.90107041
_cell_angle_beta   89.54790657
_cell_angle_gamma   89.79964452
_symmetry_Int_Tables_number   1
_chemical_formula_structural   SrTeO3
_chemical_formula_sum   'Sr6 Te6 O18'
_cell_volume   622.39579059
_cell_formula_units_Z   6
loop_
 _symmetry_equiv_pos_site_id
 _symmetry_equiv_pos_as_xyz
  1  'x, y, z'
loop_
 _atom_site_type_symbol
 _atom_site_label
 _atom_site_symmetry_multiplicity
 _atom_site_fract_x
 _atom_site_fract_y
 _atom_site_fract_z
 _atom_site_occupancy
  Sr  Sr0  1  0.961062  0.444045  0.112700  1
  Sr  Sr1  1  0.465271  0.783389  0.551200  1
  Sr  Sr2  1  0.476644  0.766591  0.031204  1
  Sr  Sr3  1  0.488200  0.083455  0.215963  1
  Sr  Sr4  1  0.000638  0.745792  0.281862  1
  Sr  Sr5  1  0.018805  0.766665  0.789393  1
  Te  Te6  1  0.981199  0.487117  0.614479  1
  Te  Te7  1  0.509067  0.449054  0.908096  1
  Te  Te8  1  0.492748  0.467421  0.327340  1
  Te  Te9  1  0.985391  0.009561  0.005822  1
  Te  Te10  1  0.531339  0.057299  0.682260  1
  Te  Te11  1  0.981835  0.051357  0.398511  1
  O  O12  1  0.527690  0.264340  0.327889  1
  O  O13  1  0.282988  0.948762  0.649786  1
  O  O14  1  0.223835  0.916678  0.390650  1
  O  O15  1  0.534741  0.977516  0.844939  1
  O  O16  1  0.739768  0.919477  0.644668  1
  O  O17  1  0.227188  0.953877  0.114614  1
  O  O18  1  0.754378  0.911206  0.381884  1
  O  O19  1  0.746166  0.930537  0.113202  1
  O  O20  1  0.257843  0.555292  0.218486  1
  O  O21  1  0.249191  0.533286  0.955237  1
  O  O22  1  0.612365  0.306980  0.049993  1
  O  O23  1  0.012563  0.177583  0.240974  1
  O  O24  1  0.114854  0.540951  0.464758  1
  O  O25  1  0.029238  0.827994  0.968271  1
  O  O26  1  0.183704  0.599939  0.678488  1
  O  O27  1  0.722898  0.575654  0.218337  1
  O  O28  1  0.705098  0.609246  0.913719  1
  O  O29  1  0.049092  0.279035  0.689676  1
