# generated using pymatgen
data_Ag2WO4
_symmetry_space_group_name_H-M   'P 1'
_cell_length_a   5.95509770
_cell_length_b   11.13294879
_cell_length_c   12.35831017
_cell_angle_alpha   90.00000000
_cell_angle_beta   90.00000000
_cell_angle_gamma   90.00000000
_symmetry_Int_Tables_number   1
_chemical_formula_structural   Ag2WO4
_chemical_formula_sum   'Ag16 W8 O32'
_cell_volume   819.32874798
_cell_formula_units_Z   8
loop_
 _symmetry_equiv_pos_site_id
 _symmetry_equiv_pos_as_xyz
  1  'x, y, z'
loop_
 _atom_site_type_symbol
 _atom_site_label
 _atom_site_symmetry_multiplicity
 _atom_site_fract_x
 _atom_site_fract_y
 _atom_site_fract_z
 _atom_site_occupancy
  Ag  Ag0  1  0.518303  0.263153  0.319029  1
  Ag  Ag1  1  0.018303  0.236847  0.819029  1
  Ag  Ag2  1  0.981697  0.763153  0.819029  1
  Ag  Ag3  1  0.000000  0.500000  0.005068  1
  Ag  Ag4  1  0.488757  0.744899  0.672342  1
  Ag  Ag5  1  0.500000  0.500000  0.815510  1
  Ag  Ag6  1  0.011243  0.244899  0.172342  1
  Ag  Ag7  1  0.500000  0.000000  0.505068  1
  Ag  Ag8  1  0.000000  0.000000  0.655518  1
  Ag  Ag9  1  0.500000  0.500000  0.489857  1
  Ag  Ag10  1  0.481697  0.736847  0.319029  1
  Ag  Ag11  1  0.511243  0.255101  0.672342  1
  Ag  Ag12  1  0.988757  0.755101  0.172342  1
  Ag  Ag13  1  0.000000  0.000000  0.315510  1
  Ag  Ag14  1  0.000000  0.000000  0.989857  1
  Ag  Ag15  1  0.500000  0.500000  0.155518  1
  W  W16  1  0.000000  0.500000  0.642220  1
  W  W17  1  0.033229  0.249420  0.494823  1
  W  W18  1  0.966771  0.750580  0.494823  1
  W  W19  1  0.466771  0.749420  0.994823  1
  W  W20  1  0.500000  0.000000  0.142220  1
  W  W21  1  0.000000  0.500000  0.351404  1
  W  W22  1  0.500000  0.000000  0.851404  1
  W  W23  1  0.533229  0.250580  0.994823  1
  O  O24  1  0.685644  0.919726  0.234126  1
  O  O25  1  0.814356  0.419726  0.734126  1
  O  O26  1  0.211808  0.655328  0.998479  1
  O  O27  1  0.200240  0.366456  0.384932  1
  O  O28  1  0.350286  0.087858  0.995615  1
  O  O29  1  0.307814  0.075860  0.759577  1
  O  O30  1  0.700240  0.133544  0.884932  1
  O  O31  1  0.699112  0.132507  0.106738  1
  O  O32  1  0.300888  0.867493  0.106738  1
  O  O33  1  0.128134  0.811340  0.379574  1
  O  O34  1  0.371866  0.311340  0.879574  1
  O  O35  1  0.149714  0.587858  0.495615  1
  O  O36  1  0.628134  0.688660  0.879574  1
  O  O37  1  0.185644  0.580274  0.734126  1
  O  O38  1  0.799760  0.633544  0.384932  1
  O  O39  1  0.314356  0.080274  0.234126  1
  O  O40  1  0.692186  0.924140  0.759577  1
  O  O41  1  0.636931  0.688651  0.107575  1
  O  O42  1  0.199112  0.367493  0.606738  1
  O  O43  1  0.299760  0.866456  0.884932  1
  O  O44  1  0.711808  0.844672  0.498479  1
  O  O45  1  0.800888  0.632507  0.606738  1
  O  O46  1  0.807814  0.424140  0.259577  1
  O  O47  1  0.788192  0.344672  0.998479  1
  O  O48  1  0.288192  0.155328  0.498479  1
  O  O49  1  0.136931  0.811349  0.607575  1
  O  O50  1  0.871866  0.188660  0.379574  1
  O  O51  1  0.863069  0.188651  0.607575  1
  O  O52  1  0.850286  0.412142  0.495615  1
  O  O53  1  0.192186  0.575860  0.259577  1
  O  O54  1  0.649714  0.912142  0.995615  1
  O  O55  1  0.363069  0.311349  0.107575  1
