# generated using pymatgen
data_Li2FeSiO4
_symmetry_space_group_name_H-M   'P 1'
_cell_length_a   5.11358375
_cell_length_b   8.33871313
_cell_length_c   8.32542935
_cell_angle_alpha   99.16915181
_cell_angle_beta   90.00000000
_cell_angle_gamma   90.00000000
_symmetry_Int_Tables_number   1
_chemical_formula_structural   Li2FeSiO4
_chemical_formula_sum   'Li8 Fe4 Si4 O16'
_cell_volume   350.46605564
_cell_formula_units_Z   4
loop_
 _symmetry_equiv_pos_site_id
 _symmetry_equiv_pos_as_xyz
  1  'x, y, z'
loop_
 _atom_site_type_symbol
 _atom_site_label
 _atom_site_symmetry_multiplicity
 _atom_site_fract_x
 _atom_site_fract_y
 _atom_site_fract_z
 _atom_site_occupancy
  Li  Li0  1  0.593352  0.421861  0.916463  1
  Li  Li1  1  0.077770  0.336910  0.334227  1
  Li  Li2  1  0.692190  0.164168  0.165473  1
  Li  Li3  1  0.676410  0.922130  0.416538  1
  Li  Li4  1  0.093352  0.578139  0.083537  1
  Li  Li5  1  0.577770  0.663090  0.665773  1
  Li  Li6  1  0.176410  0.077870  0.583462  1
  Li  Li7  1  0.192190  0.835832  0.834527  1
  Fe  Fe8  1  0.687721  0.793589  0.042819  1
  Fe  Fe9  1  0.187721  0.206411  0.957181  1
  Fe  Fe10  1  0.582178  0.292438  0.541711  1
  Fe  Fe11  1  0.082178  0.707562  0.458289  1
  Si  Si12  1  0.691533  0.040864  0.791824  1
  Si  Si13  1  0.577941  0.541753  0.292131  1
  Si  Si14  1  0.191533  0.959136  0.208176  1
  Si  Si15  1  0.077941  0.458247  0.707869  1
  O  O16  1  0.173319  0.312644  0.560415  1
  O  O17  1  0.695037  0.572828  0.114247  1
  O  O18  1  0.573988  0.072065  0.614113  1
  O  O19  1  0.085677  0.136928  0.169690  1
  O  O20  1  0.673319  0.687356  0.439585  1
  O  O21  1  0.755000  0.462561  0.715259  1
  O  O22  1  0.014468  0.036089  0.784079  1
  O  O23  1  0.073988  0.927935  0.385887  1
  O  O24  1  0.195037  0.427172  0.885753  1
  O  O25  1  0.514468  0.963911  0.215921  1
  O  O26  1  0.585677  0.863072  0.830310  1
  O  O27  1  0.683774  0.363751  0.330068  1
  O  O28  1  0.096642  0.813236  0.060884  1
  O  O29  1  0.183774  0.636249  0.669932  1
  O  O30  1  0.255000  0.537439  0.284741  1
  O  O31  1  0.596642  0.186764  0.939116  1
