# generated using pymatgen
data_Ba6In5N
_symmetry_space_group_name_H-M   'P 1'
_cell_length_a   15.69619020
_cell_length_b   15.69619013
_cell_length_c   15.69618977
_cell_angle_alpha   30.78082740
_cell_angle_beta   30.78082780
_cell_angle_gamma   30.78082886
_symmetry_Int_Tables_number   1
_chemical_formula_structural   Ba6In5N
_chemical_formula_sum   'Ba12 In10 N2'
_cell_volume   898.13845196
_cell_formula_units_Z   2
loop_
 _symmetry_equiv_pos_site_id
 _symmetry_equiv_pos_as_xyz
  1  'x, y, z'
loop_
 _atom_site_type_symbol
 _atom_site_label
 _atom_site_symmetry_multiplicity
 _atom_site_fract_x
 _atom_site_fract_y
 _atom_site_fract_z
 _atom_site_occupancy
  Ba  Ba0  1  0.248025  0.365436  0.781511  1
  Ba  Ba1  1  0.251975  0.718489  0.134564  1
  Ba  Ba2  1  0.718489  0.134564  0.251975  1
  Ba  Ba3  1  0.748025  0.281511  0.865436  1
  Ba  Ba4  1  0.281511  0.865436  0.748025  1
  Ba  Ba5  1  0.865436  0.748025  0.281511  1
  Ba  Ba6  1  0.634564  0.218489  0.751975  1
  Ba  Ba7  1  0.781511  0.248025  0.365436  1
  Ba  Ba8  1  0.751975  0.634564  0.218489  1
  Ba  Ba9  1  0.365436  0.781511  0.248025  1
  Ba  Ba10  1  0.218489  0.751975  0.634564  1
  Ba  Ba11  1  0.134564  0.251975  0.718489  1
  In  In12  1  0.250000  0.465981  0.034019  1
  In  In13  1  0.806639  0.806639  0.806639  1
  In  In14  1  0.193361  0.193361  0.193361  1
  In  In15  1  0.034019  0.250000  0.465981  1
  In  In16  1  0.465981  0.034019  0.250000  1
  In  In17  1  0.306639  0.306639  0.306639  1
  In  In18  1  0.750000  0.534019  0.965981  1
  In  In19  1  0.534019  0.965981  0.750000  1
  In  In20  1  0.965981  0.750000  0.534019  1
  In  In21  1  0.693361  0.693361  0.693361  1
  N  N22  1  0.000000  0.000000  0.000000  1
  N  N23  1  0.500000  0.500000  0.500000  1
