# generated using pymatgen
data_Nd5Fe5As5O4F
_symmetry_space_group_name_H-M   'P 1'
_cell_length_a   20.30477704
_cell_length_b   9.09192944
_cell_length_c   9.97782898
_cell_angle_alpha   68.65506937
_cell_angle_beta   65.95372965
_cell_angle_gamma   26.55129504
_symmetry_Int_Tables_number   1
_chemical_formula_structural   Nd5Fe5As5O4F
_chemical_formula_sum   'Nd10 Fe10 As10 O8 F2'
_cell_volume   751.91755497
_cell_formula_units_Z   2
loop_
 _symmetry_equiv_pos_site_id
 _symmetry_equiv_pos_as_xyz
  1  'x, y, z'
loop_
 _atom_site_type_symbol
 _atom_site_label
 _atom_site_symmetry_multiplicity
 _atom_site_fract_x
 _atom_site_fract_y
 _atom_site_fract_z
 _atom_site_occupancy
  Nd  Nd0  1  0.112600  0.276754  0.138829  1
  Nd  Nd1  1  0.322430  0.253509  0.130770  1
  Nd  Nd2  1  0.087400  0.723246  0.861171  1
  Nd  Nd3  1  0.531395  0.225293  0.137154  1
  Nd  Nd4  1  0.270393  0.755818  0.860199  1
  Nd  Nd5  1  0.714964  0.254819  0.137818  1
  Nd  Nd6  1  0.485036  0.745181  0.862182  1
  Nd  Nd7  1  0.929607  0.244182  0.139801  1
  Nd  Nd8  1  0.668605  0.774707  0.862846  1
  Nd  Nd9  1  0.877570  0.746491  0.869230  1
  Fe  Fe10  1  0.151888  0.246263  0.497867  1
  Fe  Fe11  1  0.048112  0.753737  0.502133  1
  Fe  Fe12  1  0.351516  0.249395  0.497651  1
  Fe  Fe13  1  0.248263  0.754260  0.501295  1
  Fe  Fe14  1  0.545637  0.258987  0.500984  1
  Fe  Fe15  1  0.451061  0.746397  0.496553  1
  Fe  Fe16  1  0.748939  0.253603  0.503447  1
  Fe  Fe17  1  0.654363  0.741013  0.499016  1
  Fe  Fe18  1  0.951737  0.245740  0.498705  1
  Fe  Fe19  1  0.848484  0.750605  0.502349  1
  As  As20  1  0.011231  0.252429  0.683750  1
  As  As21  1  0.216981  0.243341  0.680299  1
  As  As22  1  0.188769  0.747571  0.316250  1
  As  As23  1  0.415071  0.245463  0.682280  1
  As  As24  1  0.386097  0.748426  0.313242  1
  As  As25  1  0.611791  0.253985  0.683129  1
  As  As26  1  0.588209  0.746015  0.316871  1
  As  As27  1  0.813903  0.251574  0.686758  1
  As  As28  1  0.784929  0.754537  0.317720  1
  As  As29  1  0.983019  0.756659  0.319701  1
  O  O30  1  0.055455  0.242284  0.002076  1
  O  O31  1  0.253498  0.238581  0.999291  1
  O  O32  1  0.144545  0.757716  0.997924  1
  O  O33  1  0.445965  0.264070  0.998234  1
  O  O34  1  0.645577  0.254849  0.999729  1
  O  O35  1  0.554423  0.745151  0.000271  1
  O  O36  1  0.754035  0.735930  0.001766  1
  O  O37  1  0.946502  0.761419  0.000709  1
  F  F38  1  0.349942  0.751390  0.998160  1
  F  F39  1  0.850059  0.248610  0.001840  1
