# generated using pymatgen
data_K5CeCu2(NO2)12
_symmetry_space_group_name_H-M   'P 1'
_cell_length_a   10.67200926
_cell_length_b   10.67200926
_cell_length_c   10.67200926
_cell_angle_alpha   90.00000000
_cell_angle_beta   90.00000000
_cell_angle_gamma   90.00000000
_symmetry_Int_Tables_number   1
_chemical_formula_structural   K5CeCu2(NO2)12
_chemical_formula_sum   'K10 Ce2 Cu4 N24 O48'
_cell_volume   1215.45414836
_cell_formula_units_Z   2
loop_
 _symmetry_equiv_pos_site_id
 _symmetry_equiv_pos_as_xyz
  1  'x, y, z'
loop_
 _atom_site_type_symbol
 _atom_site_label
 _atom_site_symmetry_multiplicity
 _atom_site_fract_x
 _atom_site_fract_y
 _atom_site_fract_z
 _atom_site_occupancy
  K  K0  1  0.500000  0.500000  0.000000  1
  K  K1  1  0.500000  0.000000  0.500000  1
  K  K2  1  0.250000  0.750000  0.750000  1
  K  K3  1  0.750000  0.250000  0.250000  1
  K  K4  1  0.750000  0.250000  0.750000  1
  K  K5  1  0.000000  0.000000  0.000000  1
  K  K6  1  0.750000  0.750000  0.250000  1
  K  K7  1  0.250000  0.750000  0.250000  1
  K  K8  1  0.000000  0.500000  0.500000  1
  K  K9  1  0.250000  0.250000  0.750000  1
  Ce  Ce10  1  0.250000  0.250000  0.250000  1
  Ce  Ce11  1  0.750000  0.750000  0.750000  1
  Cu  Cu12  1  0.000000  0.000000  0.500000  1
  Cu  Cu13  1  0.500000  0.000000  0.000000  1
  Cu  Cu14  1  0.000000  0.500000  0.000000  1
  Cu  Cu15  1  0.500000  0.500000  0.500000  1
  N  N16  1  0.504146  0.503234  0.696891  1
  N  N17  1  0.803109  0.995854  0.503234  1
  N  N18  1  0.696891  0.995854  0.996766  1
  N  N19  1  0.503234  0.803109  0.995854  1
  N  N20  1  0.995854  0.996766  0.696891  1
  N  N21  1  0.003234  0.303109  0.004146  1
  N  N22  1  0.303109  0.004146  0.003234  1
  N  N23  1  0.803109  0.504146  0.996766  1
  N  N24  1  0.503234  0.696891  0.504146  1
  N  N25  1  0.004146  0.496766  0.196891  1
  N  N26  1  0.996766  0.803109  0.504146  1
  N  N27  1  0.495854  0.496766  0.303109  1
  N  N28  1  0.504146  0.996766  0.803109  1
  N  N29  1  0.003234  0.196891  0.495854  1
  N  N30  1  0.696891  0.504146  0.503234  1
  N  N31  1  0.496766  0.196891  0.004146  1
  N  N32  1  0.496766  0.303109  0.495854  1
  N  N33  1  0.196891  0.004146  0.496766  1
  N  N34  1  0.996766  0.696891  0.995854  1
  N  N35  1  0.995854  0.503234  0.803109  1
  N  N36  1  0.495854  0.003234  0.196891  1
  N  N37  1  0.004146  0.003234  0.303109  1
  N  N38  1  0.196891  0.495854  0.003234  1
  N  N39  1  0.303109  0.495854  0.496766  1
  O  O40  1  0.503523  0.258016  0.904480  1
  O  O41  1  0.003523  0.758016  0.095520  1
  O  O42  1  0.404480  0.003523  0.741984  1
  O  O43  1  0.241984  0.595520  0.503523  1
  O  O44  1  0.904480  0.503523  0.258016  1
  O  O45  1  0.255918  0.105577  0.476044  1
  O  O46  1  0.394423  0.476044  0.244082  1
  O  O47  1  0.976044  0.744082  0.605577  1
  O  O48  1  0.595520  0.996477  0.258016  1
  O  O49  1  0.023956  0.255918  0.394423  1
  O  O50  1  0.095520  0.003523  0.758016  1
  O  O51  1  0.394423  0.023956  0.255918  1
  O  O52  1  0.741984  0.404480  0.003523  1
  O  O53  1  0.894423  0.976044  0.755918  1
  O  O54  1  0.023956  0.244082  0.105577  1
  O  O55  1  0.904480  0.996477  0.241984  1
  O  O56  1  0.894423  0.523956  0.744082  1
  O  O57  1  0.258016  0.904480  0.503523  1
  O  O58  1  0.095520  0.496477  0.741984  1
  O  O59  1  0.105577  0.023956  0.244082  1
  O  O60  1  0.523956  0.744082  0.894423  1
  O  O61  1  0.258016  0.595520  0.996477  1
  O  O62  1  0.255918  0.394423  0.023956  1
  O  O63  1  0.741984  0.095520  0.496477  1
  O  O64  1  0.003523  0.741984  0.404480  1
  O  O65  1  0.244082  0.394423  0.476044  1
  O  O66  1  0.404480  0.496477  0.758016  1
  O  O67  1  0.996477  0.258016  0.595520  1
  O  O68  1  0.595520  0.503523  0.241984  1
  O  O69  1  0.523956  0.755918  0.605577  1
  O  O70  1  0.744082  0.605577  0.976044  1
  O  O71  1  0.605577  0.976044  0.744082  1
  O  O72  1  0.241984  0.904480  0.996477  1
  O  O73  1  0.755918  0.894423  0.976044  1
  O  O74  1  0.758016  0.095520  0.003523  1
  O  O75  1  0.503523  0.241984  0.595520  1
  O  O76  1  0.744082  0.894423  0.523956  1
  O  O77  1  0.758016  0.404480  0.496477  1
  O  O78  1  0.996477  0.241984  0.904480  1
  O  O79  1  0.496477  0.741984  0.095520  1
  O  O80  1  0.105577  0.476044  0.255918  1
  O  O81  1  0.244082  0.105577  0.023956  1
  O  O82  1  0.476044  0.244082  0.394423  1
  O  O83  1  0.605577  0.523956  0.755918  1
  O  O84  1  0.496477  0.758016  0.404480  1
  O  O85  1  0.976044  0.755918  0.894423  1
  O  O86  1  0.755918  0.605577  0.523956  1
  O  O87  1  0.476044  0.255918  0.105577  1
