# generated using pymatgen
data_Ce9DyO20
_symmetry_space_group_name_H-M   'P 1'
_cell_length_a   7.70709195
_cell_length_b   19.30093596
_cell_length_c   10.21101741
_cell_angle_alpha   19.06684560
_cell_angle_beta   55.46885282
_cell_angle_gamma   59.93640264
_symmetry_Int_Tables_number   1
_chemical_formula_structural   Ce9DyO20
_chemical_formula_sum   'Ce9 Dy1 O20'
_cell_volume   405.33991698
_cell_formula_units_Z   1
loop_
 _symmetry_equiv_pos_site_id
 _symmetry_equiv_pos_as_xyz
  1  'x, y, z'
loop_
 _atom_site_type_symbol
 _atom_site_label
 _atom_site_symmetry_multiplicity
 _atom_site_fract_x
 _atom_site_fract_y
 _atom_site_fract_z
 _atom_site_occupancy
  Ce  Ce0  1  0.000094  0.199236  0.999823  1
  Ce  Ce1  1  0.500000  0.000000  0.000000  1
  Ce  Ce2  1  0.999861  0.400577  0.000377  1
  Ce  Ce3  1  0.502099  0.199429  0.999351  1
  Ce  Ce4  1  0.498036  0.398147  0.004563  1
  Ce  Ce5  1  0.999906  0.800764  0.000177  1
  Ce  Ce6  1  0.501964  0.601853  0.995437  1
  Ce  Ce7  1  0.497901  0.800571  0.000649  1
  Ce  Ce8  1  0.000139  0.599423  0.999623  1
  Dy  Dy9  1  0.000000  0.000000  0.000000  1
  O  O10  1  0.125539  0.149929  0.249760  1
  O  O11  1  0.126222  0.351990  0.245443  1
  O  O12  1  0.377367  0.050352  0.748264  1
  O  O13  1  0.624692  0.149647  0.250543  1
  O  O14  1  0.125490  0.550231  0.249468  1
  O  O15  1  0.624520  0.350571  0.249205  1
  O  O16  1  0.375334  0.250665  0.748612  1
  O  O17  1  0.125814  0.748659  0.251113  1
  O  O18  1  0.624502  0.550391  0.249510  1
  O  O19  1  0.874277  0.050090  0.748729  1
  O  O20  1  0.375498  0.449609  0.750490  1
  O  O21  1  0.125723  0.949910  0.251271  1
  O  O22  1  0.624666  0.749335  0.251388  1
  O  O23  1  0.874186  0.251341  0.748887  1
  O  O24  1  0.375480  0.649429  0.750795  1
  O  O25  1  0.622633  0.949648  0.251736  1
  O  O26  1  0.874510  0.449769  0.750532  1
  O  O27  1  0.375308  0.850353  0.749457  1
  O  O28  1  0.873778  0.648010  0.754557  1
  O  O29  1  0.874461  0.850071  0.750240  1
