# generated using pymatgen
data_Lu2FeS4
_symmetry_space_group_name_H-M   'P 1'
_cell_length_a   7.75417560
_cell_length_b   7.59526180
_cell_length_c   30.24943528
_cell_angle_alpha   59.75131939
_cell_angle_beta   60.26504511
_cell_angle_gamma   60.58062560
_symmetry_Int_Tables_number   1
_chemical_formula_structural   Lu2FeS4
_chemical_formula_sum   'Lu16 Fe8 S32'
_cell_volume   1265.28167741
_cell_formula_units_Z   8
loop_
 _symmetry_equiv_pos_site_id
 _symmetry_equiv_pos_as_xyz
  1  'x, y, z'
loop_
 _atom_site_type_symbol
 _atom_site_label
 _atom_site_symmetry_multiplicity
 _atom_site_fract_x
 _atom_site_fract_y
 _atom_site_fract_z
 _atom_site_occupancy
  Lu  Lu0  1  0.492842  0.496502  0.003535  1
  Lu  Lu1  1  0.500621  0.505918  0.119678  1
  Lu  Lu2  1  0.448630  0.018106  0.253806  1
  Lu  Lu3  1  0.500749  0.014339  0.119821  1
  Lu  Lu4  1  0.505850  0.490949  0.253111  1
  Lu  Lu5  1  0.503888  0.489940  0.377035  1
  Lu  Lu6  1  0.016375  0.500038  0.120916  1
  Lu  Lu7  1  0.497236  0.987319  0.503322  1
  Lu  Lu8  1  0.005009  0.502579  0.622807  1
  Lu  Lu9  1  0.503982  0.997480  0.376852  1
  Lu  Lu10  1  0.504253  0.009849  0.747026  1
  Lu  Lu11  1  0.993665  0.494624  0.378886  1
  Lu  Lu12  1  0.006316  0.498160  0.874713  1
  Lu  Lu13  1  0.501484  0.005339  0.623426  1
  Lu  Lu14  1  0.494733  0.494504  0.876236  1
  Lu  Lu15  1  0.494957  0.005645  0.876367  1
  Fe  Fe16  1  0.058251  0.127051  0.544598  1
  Fe  Fe17  1  0.916986  0.864089  0.213587  1
  Fe  Fe18  1  0.070397  0.142237  0.786020  1
  Fe  Fe19  1  0.500554  0.499557  0.624031  1
  Fe  Fe20  1  0.936004  0.863128  0.459575  1
  Fe  Fe21  1  0.502970  0.497913  0.747546  1
  Fe  Fe22  1  0.940698  0.864856  0.709865  1
  Fe  Fe23  1  0.881339  0.873606  0.967787  1
  S  S24  1  0.250618  0.255606  0.064145  1
  S  S25  1  0.251071  0.252378  0.186060  1
  S  S26  1  0.250206  0.737880  0.064044  1
  S  S27  1  0.732446  0.257885  0.062864  1
  S  S28  1  0.274850  0.738227  0.187100  1
  S  S29  1  0.251368  0.253053  0.316014  1
  S  S30  1  0.242283  0.243057  0.442469  1
  S  S31  1  0.736099  0.239822  0.190685  1
  S  S32  1  0.251127  0.731418  0.316100  1
  S  S33  1  0.755888  0.745615  0.063178  1
  S  S34  1  0.725505  0.253581  0.316684  1
  S  S35  1  0.736360  0.761061  0.190732  1
  S  S36  1  0.279482  0.737649  0.436146  1
  S  S37  1  0.240971  0.236440  0.564807  1
  S  S38  1  0.756270  0.232256  0.438500  1
  S  S39  1  0.248430  0.253568  0.687470  1
  S  S40  1  0.239969  0.758424  0.566977  1
  S  S41  1  0.743818  0.752488  0.312628  1
  S  S42  1  0.758624  0.756303  0.437795  1
  S  S43  1  0.708669  0.279088  0.570196  1
  S  S44  1  0.302587  0.708881  0.686296  1
  S  S45  1  0.251578  0.253020  0.809070  1
  S  S46  1  0.749499  0.253757  0.687452  1
  S  S47  1  0.253387  0.261795  0.930773  1
  S  S48  1  0.254356  0.759689  0.808099  1
  S  S49  1  0.752540  0.749633  0.561318  1
  S  S50  1  0.749033  0.748123  0.688140  1
  S  S51  1  0.714161  0.278437  0.807194  1
  S  S52  1  0.255348  0.751409  0.935449  1
  S  S53  1  0.752985  0.257554  0.934533  1
  S  S54  1  0.749876  0.756630  0.809393  1
  S  S55  1  0.752807  0.751545  0.934640  1
