# generated using pymatgen
data_NaLaH2S2O9
_symmetry_space_group_name_H-M   'P 1'
_cell_length_a   7.32851986
_cell_length_b   7.32851945
_cell_length_c   12.03456148
_cell_angle_alpha   90.00000000
_cell_angle_beta   90.00000000
_cell_angle_gamma   120.00000187
_symmetry_Int_Tables_number   1
_chemical_formula_structural   NaLaH2S2O9
_chemical_formula_sum   'Na3 La3 H6 S6 O27'
_cell_volume   559.74910469
_cell_formula_units_Z   3
loop_
 _symmetry_equiv_pos_site_id
 _symmetry_equiv_pos_as_xyz
  1  'x, y, z'
loop_
 _atom_site_type_symbol
 _atom_site_label
 _atom_site_symmetry_multiplicity
 _atom_site_fract_x
 _atom_site_fract_y
 _atom_site_fract_z
 _atom_site_occupancy
  Na  Na0  1  0.480257  0.996390  0.833032  1
  Na  Na1  1  0.516133  0.519743  0.499699  1
  Na  Na2  1  0.003610  0.483867  0.166366  1
  La  La3  1  0.570879  0.571585  0.000318  1
  La  La4  1  0.428415  -0.000705  0.333651  1
  La  La5  1  0.000705  0.429121  0.666985  1
  H  H6  1  0.041334  0.931729  0.031052  1
  H  H7  1  0.068271  0.109606  0.364385  1
  H  H8  1  0.105935  0.061402  0.632024  1
  H  H9  1  0.890394  0.958666  0.697718  1
  H  H10  1  0.955467  0.894065  0.298691  1
  H  H11  1  0.938598  0.044533  0.965357  1
  S  S12  1  0.004421  0.440391  0.926001  1
  S  S13  1  0.435970  -0.004421  0.592668  1
  S  S14  1  0.559609  0.564030  0.259334  1
  S  S15  1  0.564163  0.560692  0.739471  1
  S  S16  1  0.439308  0.003471  0.072804  1
  S  S17  1  -0.003471  0.435837  0.406137  1
  O  O18  1  0.128009  0.623389  0.336237  1
  O  O19  1  0.122571  0.615569  0.845356  1
  O  O20  1  0.241112  0.870028  0.136411  1
  O  O21  1  0.257109  0.849391  0.663741  1
  O  O22  1  0.129972  0.371084  0.469744  1
  O  O23  1  0.150609  0.407718  0.997074  1
  O  O24  1  0.495381  0.871991  0.002904  1
  O  O25  1  0.492998  0.877429  0.512023  1
  O  O26  1  0.092431  0.009891  0.321770  1
  O  O27  1  0.384431  0.507002  0.178689  1
  O  O28  1  0.376611  0.504619  0.669571  1
  O  O29  1  0.592282  0.742891  0.330407  1
  O  O30  1  0.628916  0.758888  0.803078  1
  O  O31  1  0.508788  0.380351  0.330912  1
  O  O32  1  0.509421  0.390420  0.823222  1
  O  O33  1  0.375398  0.128825  0.525478  1
  O  O34  1  0.413730  0.153439  0.001076  1
  O  O35  1  0.753427  0.624602  0.192144  1
  O  O36  1  0.739709  0.586270  0.667743  1
  O  O37  1  0.917460  0.907569  0.988436  1
  O  O38  1  0.619649  0.128437  0.664246  1
  O  O39  1  0.609580  0.119001  0.156555  1
  O  O40  1  0.880999  0.490579  0.489888  1
  O  O41  1  0.871563  0.491212  -0.002421  1
  O  O42  1  0.846561  0.260291  0.334409  1
  O  O43  1  0.871175  0.246573  0.858811  1
  O  O44  1  0.990109  0.082540  0.655103  1
