# generated using pymatgen
data_Rb3Nb5P2O19
_symmetry_space_group_name_H-M   'P 1'
_cell_length_a   19.75989871
_cell_length_b   19.75989841
_cell_length_c   19.75989869
_cell_angle_alpha   39.07306986
_cell_angle_beta   39.07307090
_cell_angle_gamma   39.07307041
_symmetry_Int_Tables_number   1
_chemical_formula_structural   Rb3Nb5P2O19
_chemical_formula_sum   'Rb18 Nb30 P12 O114'
_cell_volume   2756.99373640
_cell_formula_units_Z   6
loop_
 _symmetry_equiv_pos_site_id
 _symmetry_equiv_pos_as_xyz
  1  'x, y, z'
loop_
 _atom_site_type_symbol
 _atom_site_label
 _atom_site_symmetry_multiplicity
 _atom_site_fract_x
 _atom_site_fract_y
 _atom_site_fract_z
 _atom_site_occupancy
  Rb  Rb0  1  0.671436  0.318619  0.973730  1
  Rb  Rb1  1  0.250000  0.922643  0.577357  1
  Rb  Rb2  1  0.828564  0.526270  0.181381  1
  Rb  Rb3  1  0.750000  0.077357  0.422643  1
  Rb  Rb4  1  0.473730  0.818619  0.171436  1
  Rb  Rb5  1  0.422643  0.750000  0.077357  1
  Rb  Rb6  1  0.181381  0.828564  0.526270  1
  Rb  Rb7  1  0.681381  0.026270  0.328564  1
  Rb  Rb8  1  0.973730  0.671436  0.318619  1
  Rb  Rb9  1  0.526270  0.181381  0.828564  1
  Rb  Rb10  1  0.171436  0.473730  0.818619  1
  Rb  Rb11  1  0.318619  0.973730  0.671436  1
  Rb  Rb12  1  0.818619  0.171436  0.473730  1
  Rb  Rb13  1  0.077357  0.422643  0.750000  1
  Rb  Rb14  1  0.026270  0.328564  0.681381  1
  Rb  Rb15  1  0.922643  0.577357  0.250000  1
  Rb  Rb16  1  0.328564  0.681381  0.026270  1
  Rb  Rb17  1  0.577357  0.250000  0.922643  1
  Nb  Nb18  1  0.867293  0.732723  0.545138  1
  Nb  Nb19  1  0.533762  0.724146  0.405054  1
  Nb  Nb20  1  0.405054  0.533762  0.724146  1
  Nb  Nb21  1  0.775854  0.966238  0.094946  1
  Nb  Nb22  1  0.724146  0.405054  0.533762  1
  Nb  Nb23  1  0.594946  0.466238  0.275854  1
  Nb  Nb24  1  0.466238  0.275854  0.594946  1
  Nb  Nb25  1  0.094946  0.775854  0.966238  1
  Nb  Nb26  1  0.905054  0.224146  0.033762  1
  Nb  Nb27  1  0.732723  0.545138  0.867293  1
  Nb  Nb28  1  0.367293  0.045138  0.232723  1
  Nb  Nb29  1  0.659229  0.659229  0.659229  1
  Nb  Nb30  1  0.454862  0.132707  0.267277  1
  Nb  Nb31  1  0.500000  0.500000  0.500000  1
  Nb  Nb32  1  0.840771  0.840771  0.840771  1
  Nb  Nb33  1  0.767277  0.632707  0.954862  1
  Nb  Nb34  1  0.632707  0.954862  0.767277  1
  Nb  Nb35  1  0.545138  0.867293  0.732723  1
  Nb  Nb36  1  0.132707  0.267277  0.454862  1
  Nb  Nb37  1  0.159229  0.159229  0.159229  1
  Nb  Nb38  1  0.033762  0.905054  0.224146  1
  Nb  Nb39  1  0.267277  0.454862  0.132707  1
  Nb  Nb40  1  0.045138  0.232723  0.367293  1
  Nb  Nb41  1  0.954862  0.767277  0.632707  1
  Nb  Nb42  1  0.224146  0.033762  0.905054  1
  Nb  Nb43  1  0.966238  0.094946  0.775854  1
  Nb  Nb44  1  0.340771  0.340771  0.340771  1
  Nb  Nb45  1  0.000000  0.000000  0.000000  1
  Nb  Nb46  1  0.232723  0.367293  0.045138  1
  Nb  Nb47  1  0.275854  0.594946  0.466238  1
  P  P48  1  0.163055  0.598808  0.384037  1
  P  P49  1  0.098808  0.663055  0.884037  1
  P  P50  1  0.615963  0.836945  0.401192  1
  P  P51  1  0.336945  0.115963  0.901192  1
  P  P52  1  0.884037  0.098808  0.663055  1
  P  P53  1  0.663055  0.884037  0.098808  1
  P  P54  1  0.901192  0.336945  0.115963  1
  P  P55  1  0.384037  0.163055  0.598808  1
  P  P56  1  0.598808  0.384037  0.163055  1
  P  P57  1  0.401192  0.615963  0.836945  1
  P  P58  1  0.115963  0.901192  0.336945  1
  P  P59  1  0.836945  0.401192  0.615963  1
  O  O60  1  0.288407  0.148172  0.407300  1
  O  O61  1  0.496554  0.352925  0.247732  1
  O  O62  1  0.092700  0.351828  0.211593  1
  O  O63  1  0.399029  0.522984  0.962910  1
  O  O64  1  0.560652  0.939348  0.750000  1
  O  O65  1  0.929357  0.816807  0.073283  1
  O  O66  1  0.683193  0.570643  0.426717  1
  O  O67  1  0.060174  0.916438  0.296973  1
  O  O68  1  0.353319  0.602090  0.483330  1
  O  O69  1  0.316807  0.429357  0.573283  1
  O  O70  1  0.592700  0.711593  0.851828  1
  O  O71  1  0.907300  0.648172  0.788407  1
  O  O72  1  0.340275  0.232123  0.782242  1
  O  O73  1  0.282242  0.732123  0.840275  1
  O  O74  1  0.397910  0.516670  0.646681  1
  O  O75  1  0.939826  0.083562  0.703027  1
  O  O76  1  0.983330  0.102090  0.853319  1
  O  O77  1  0.815488  0.702893  0.946646  1
  O  O78  1  0.796973  0.416438  0.560174  1
  O  O79  1  0.916438  0.296973  0.060174  1
  O  O80  1  0.570643  0.426717  0.683193  1
  O  O81  1  0.522984  0.962910  0.399029  1
  O  O82  1  0.070643  0.183193  0.926717  1
  O  O83  1  0.439826  0.203027  0.583562  1
  O  O84  1  0.553354  0.797107  0.684512  1
  O  O85  1  0.516670  0.646681  0.397910  1
  O  O86  1  0.376311  0.909403  0.848788  1
  O  O87  1  0.429357  0.573283  0.316807  1
  O  O88  1  0.250000  0.439348  0.060652  1
  O  O89  1  0.022984  0.899029  0.462910  1
  O  O90  1  0.747732  0.852925  0.996554  1
  O  O91  1  0.102090  0.853319  0.983330  1
  O  O92  1  0.147075  0.003446  0.252268  1
  O  O93  1  0.151212  0.623689  0.090597  1
  O  O94  1  0.996554  0.747732  0.852925  1
  O  O95  1  0.590597  0.123689  0.651212  1
  O  O96  1  0.648172  0.788407  0.907300  1
  O  O97  1  0.003446  0.252268  0.147075  1
  O  O98  1  0.752268  0.503446  0.647075  1
  O  O99  1  0.351828  0.211593  0.092700  1
  O  O100  1  0.053354  0.184512  0.297107  1
  O  O101  1  0.788407  0.907300  0.648172  1
  O  O102  1  0.623689  0.090597  0.151212  1
  O  O103  1  0.646681  0.397910  0.516670  1
  O  O104  1  0.083562  0.703027  0.939826  1
  O  O105  1  0.659725  0.767877  0.217758  1
  O  O106  1  0.217758  0.659725  0.767877  1
  O  O107  1  0.684512  0.553354  0.797107  1
  O  O108  1  0.977016  0.100971  0.537090  1
  O  O109  1  0.711593  0.851828  0.592700  1
  O  O110  1  0.573283  0.316807  0.429357  1
  O  O111  1  0.315488  0.446646  0.202893  1
  O  O112  1  0.352925  0.247732  0.496554  1
  O  O113  1  0.583562  0.439826  0.203027  1
  O  O114  1  0.853319  0.983330  0.102090  1
  O  O115  1  0.602090  0.483330  0.353319  1
  O  O116  1  0.146681  0.016670  0.897910  1
  O  O117  1  0.962910  0.399029  0.522984  1
  O  O118  1  0.651212  0.590597  0.123689  1
  O  O119  1  0.016670  0.897910  0.146681  1
  O  O120  1  0.297107  0.053354  0.184512  1
  O  O121  1  0.184512  0.297107  0.053354  1
  O  O122  1  0.202893  0.315488  0.446646  1
  O  O123  1  0.600971  0.477016  0.037090  1
  O  O124  1  0.767877  0.217758  0.659725  1
  O  O125  1  0.348788  0.409403  0.876311  1
  O  O126  1  0.946646  0.815488  0.702893  1
  O  O127  1  0.183193  0.926717  0.070643  1
  O  O128  1  0.446646  0.202893  0.315488  1
  O  O129  1  0.426717  0.683193  0.570643  1
  O  O130  1  0.503446  0.647075  0.752268  1
  O  O131  1  0.073283  0.929357  0.816807  1
  O  O132  1  0.899029  0.462910  0.022984  1
  O  O133  1  0.483330  0.353319  0.602090  1
  O  O134  1  0.750000  0.560652  0.939348  1
  O  O135  1  0.416438  0.560174  0.796973  1
  O  O136  1  0.462910  0.022984  0.899029  1
  O  O137  1  0.876311  0.348788  0.409403  1
  O  O138  1  0.232123  0.782242  0.340275  1
  O  O139  1  0.090597  0.151212  0.623689  1
  O  O140  1  0.647075  0.752268  0.503446  1
  O  O141  1  0.477016  0.037090  0.600971  1
  O  O142  1  0.717758  0.267877  0.159725  1
  O  O143  1  0.939348  0.750000  0.560652  1
  O  O144  1  0.909403  0.848788  0.376311  1
  O  O145  1  0.926717  0.070643  0.183193  1
  O  O146  1  0.037090  0.600971  0.477016  1
  O  O147  1  0.840275  0.282242  0.732123  1
  O  O148  1  0.409403  0.876311  0.348788  1
  O  O149  1  0.247732  0.496554  0.352925  1
  O  O150  1  0.703027  0.939826  0.083562  1
  O  O151  1  0.732123  0.840275  0.282242  1
  O  O152  1  0.852925  0.996554  0.747732  1
  O  O153  1  0.439348  0.060652  0.250000  1
  O  O154  1  0.148172  0.407300  0.288407  1
  O  O155  1  0.848788  0.376311  0.909403  1
  O  O156  1  0.159725  0.717758  0.267877  1
  O  O157  1  0.797107  0.684512  0.553354  1
  O  O158  1  0.296973  0.060174  0.916438  1
  O  O159  1  0.782242  0.340275  0.232123  1
  O  O160  1  0.897910  0.146681  0.016670  1
  O  O161  1  0.100971  0.537090  0.977016  1
  O  O162  1  0.560174  0.796973  0.416438  1
  O  O163  1  0.123689  0.651212  0.590597  1
  O  O164  1  0.851828  0.592700  0.711593  1
  O  O165  1  0.407300  0.288407  0.148172  1
  O  O166  1  0.702893  0.946646  0.815488  1
  O  O167  1  0.252268  0.147075  0.003446  1
  O  O168  1  0.537090  0.977016  0.100971  1
  O  O169  1  0.816807  0.073283  0.929357  1
  O  O170  1  0.203027  0.583562  0.439826  1
  O  O171  1  0.267877  0.159725  0.717758  1
  O  O172  1  0.211593  0.092700  0.351828  1
  O  O173  1  0.060652  0.250000  0.439348  1
