# generated using pymatgen
data_Ba24In19N11
_symmetry_space_group_name_H-M   'P 1'
_cell_length_a   10.82763086
_cell_length_b   10.66369074
_cell_length_c   21.43713430
_cell_angle_alpha   60.16921411
_cell_angle_beta   60.53925684
_cell_angle_gamma   60.49960498
_symmetry_Int_Tables_number   1
_chemical_formula_structural   Ba24In19N11
_chemical_formula_sum   'Ba24 In19 N11'
_cell_volume   1766.11499402
_cell_formula_units_Z   1
loop_
 _symmetry_equiv_pos_site_id
 _symmetry_equiv_pos_as_xyz
  1  'x, y, z'
loop_
 _atom_site_type_symbol
 _atom_site_label
 _atom_site_symmetry_multiplicity
 _atom_site_fract_x
 _atom_site_fract_y
 _atom_site_fract_z
 _atom_site_occupancy
  Ba  Ba0  1  0.047668  0.057813  0.349414  1
  Ba  Ba1  1  0.050693  0.697313  0.027341  1
  Ba  Ba2  1  0.692956  0.057224  0.026647  1
  Ba  Ba3  1  0.047668  0.695691  0.349414  1
  Ba  Ba4  1  0.047665  0.056441  0.847204  1
  Ba  Ba5  1  0.311040  0.936261  0.158219  1
  Ba  Ba6  1  0.299961  0.303616  0.475868  1
  Ba  Ba7  1  0.046327  0.697687  0.529150  1
  Ba  Ba8  1  0.690294  0.055253  0.349599  1
  Ba  Ba9  1  0.692956  0.696526  0.026647  1
  Ba  Ba10  1  0.692834  0.053682  0.528270  1
  Ba  Ba11  1  0.933944  0.319454  0.159428  1
  Ba  Ba12  1  0.047665  0.701487  0.847204  1
  Ba  Ba13  1  0.299961  0.944688  0.475868  1
  Ba  Ba14  1  0.315404  0.320292  0.963324  1
  Ba  Ba15  1  0.298075  0.948522  0.652440  1
  Ba  Ba16  1  0.697769  0.055434  0.845681  1
  Ba  Ba17  1  0.692834  0.696945  0.528270  1
  Ba  Ba18  1  0.942814  0.304233  0.474360  1
  Ba  Ba19  1  0.933944  0.927746  0.159428  1
  Ba  Ba20  1  0.944921  0.303880  0.652728  1
  Ba  Ba21  1  0.315404  0.937655  0.963324  1
  Ba  Ba22  1  0.939056  0.317043  0.963428  1
  Ba  Ba23  1  0.944921  0.945742  0.652728  1
  In  In24  1  0.305968  0.301089  0.150931  1
  In  In25  1  0.305668  0.300461  0.296706  1
  In  In26  1  0.505454  0.501703  0.995570  1
  In  In27  1  0.500156  0.997296  0.249809  1
  In  In28  1  0.305968  0.591082  0.150931  1
  In  In29  1  0.609673  0.296829  0.148335  1
  In  In30  1  0.500156  0.502931  0.249809  1
  In  In31  1  0.302910  0.301966  0.652921  1
  In  In32  1  0.395182  0.700540  0.351869  1
  In  In33  1  0.689889  0.417071  0.348474  1
  In  In34  1  0.303856  0.303298  0.794774  1
  In  In35  1  0.302910  0.589282  0.652921  1
  In  In36  1  0.696985  0.703683  0.197824  1
  In  In37  1  0.689889  0.696092  0.348474  1
  In  In38  1  0.587775  0.303832  0.652281  1
  In  In39  1  0.401032  0.700413  0.849072  1
  In  In40  1  0.696599  0.402482  0.851078  1
  In  In41  1  0.687032  0.691727  0.714757  1
  In  In42  1  0.696599  0.698763  0.851078  1
  N  N43  1  0.451753  0.016392  0.007731  1
  N  N44  1  0.116862  0.128681  0.562888  1
  N  N45  1  0.497532  0.001862  0.499372  1
  N  N46  1  0.875398  0.874656  0.437644  1
  N  N47  1  0.010085  0.016296  0.228662  1
  N  N48  1  0.994000  0.504485  0.499275  1
  N  N49  1  0.994000  0.002965  0.499275  1
  N  N50  1  0.869783  0.874174  0.940935  1
  N  N51  1  0.994301  0.000579  0.752270  1
  N  N52  1  0.013803  0.456474  0.009027  1
  N  N53  1  0.013803  0.011668  0.009027  1
