# generated using pymatgen
data_Mn14Si23
_symmetry_space_group_name_H-M   'P 1'
_cell_length_a   4.98659749
_cell_length_b   13.62763255
_cell_length_c   13.98125443
_cell_angle_alpha   90.00000000
_cell_angle_beta   90.00000000
_cell_angle_gamma   90.00000000
_symmetry_Int_Tables_number   1
_chemical_formula_structural   Mn14Si23
_chemical_formula_sum   'Mn28 Si46'
_cell_volume   950.10339083
_cell_formula_units_Z   2
loop_
 _symmetry_equiv_pos_site_id
 _symmetry_equiv_pos_as_xyz
  1  'x, y, z'
loop_
 _atom_site_type_symbol
 _atom_site_label
 _atom_site_symmetry_multiplicity
 _atom_site_fract_x
 _atom_site_fract_y
 _atom_site_fract_z
 _atom_site_occupancy
  Mn  Mn0  1  0.500000  0.257357  0.541483  1
  Mn  Mn1  1  0.500000  0.213118  0.737377  1
  Mn  Mn2  1  0.000000  0.242643  0.041483  1
  Mn  Mn3  1  0.000000  0.430250  0.940676  1
  Mn  Mn4  1  0.000000  0.713118  0.762623  1
  Mn  Mn5  1  0.500000  0.930250  0.559324  1
  Mn  Mn6  1  0.500000  0.148926  0.026038  1
  Mn  Mn7  1  0.500000  0.571689  0.171979  1
  Mn  Mn8  1  0.500000  0.742643  0.458517  1
  Mn  Mn9  1  0.000000  0.887279  0.257708  1
  Mn  Mn10  1  0.500000  0.512935  0.576838  1
  Mn  Mn11  1  0.500000  0.786882  0.262623  1
  Mn  Mn12  1  0.500000  0.612721  0.757708  1
  Mn  Mn13  1  0.500000  0.487065  0.423162  1
  Mn  Mn14  1  0.500000  0.428311  0.828021  1
  Mn  Mn15  1  0.000000  0.071689  0.328021  1
  Mn  Mn16  1  0.000000  0.351074  0.526038  1
  Mn  Mn17  1  0.000000  0.928311  0.671979  1
  Mn  Mn18  1  0.000000  0.569750  0.059324  1
  Mn  Mn19  1  0.000000  0.112721  0.742292  1
  Mn  Mn20  1  0.000000  0.987065  0.076838  1
  Mn  Mn21  1  0.000000  0.286882  0.237377  1
  Mn  Mn22  1  0.000000  0.012935  0.923162  1
  Mn  Mn23  1  0.500000  0.851074  0.973962  1
  Mn  Mn24  1  0.500000  0.387279  0.242292  1
  Mn  Mn25  1  0.500000  0.069750  0.440676  1
  Mn  Mn26  1  0.000000  0.648926  0.473962  1
  Mn  Mn27  1  0.000000  0.757357  0.958517  1
  Si  Si28  1  0.000000  0.311419  0.820227  1
  Si  Si29  1  0.733671  0.096726  0.606751  1
  Si  Si30  1  0.500000  0.745884  0.847500  1
  Si  Si31  1  0.272816  0.611509  0.328487  1
  Si  Si32  1  0.500000  0.987389  0.084495  1
  Si  Si33  1  0.742043  0.338051  0.386175  1
  Si  Si34  1  0.257957  0.338051  0.386175  1
  Si  Si35  1  0.000000  0.754116  0.347500  1
  Si  Si36  1  0.500000  0.018843  0.737223  1
  Si  Si37  1  0.257957  0.661949  0.613825  1
  Si  Si38  1  0.000000  0.184294  0.463422  1
  Si  Si39  1  0.766329  0.403274  0.106751  1
  Si  Si40  1  0.272816  0.388491  0.671513  1
  Si  Si41  1  0.757957  0.838051  0.113825  1
  Si  Si42  1  0.500000  0.811419  0.679773  1
  Si  Si43  1  0.233671  0.596726  0.893249  1
  Si  Si44  1  0.766329  0.596726  0.893249  1
  Si  Si45  1  0.000000  0.481157  0.237223  1
  Si  Si46  1  0.727184  0.611509  0.328487  1
  Si  Si47  1  0.727184  0.388491  0.671513  1
  Si  Si48  1  0.757957  0.161949  0.886175  1
  Si  Si49  1  0.000000  0.815706  0.536578  1
  Si  Si50  1  0.500000  0.188581  0.320227  1
  Si  Si51  1  0.233671  0.403274  0.106751  1
  Si  Si52  1  0.500000  0.684294  0.036578  1
  Si  Si53  1  0.242043  0.161949  0.886175  1
  Si  Si54  1  0.000000  0.000000  0.500000  1
  Si  Si55  1  0.500000  0.012611  0.915505  1
  Si  Si56  1  0.742043  0.661949  0.613825  1
  Si  Si57  1  0.266329  0.903274  0.393249  1
  Si  Si58  1  0.772816  0.888491  0.828487  1
  Si  Si59  1  0.000000  0.688581  0.179773  1
  Si  Si60  1  0.500000  0.981157  0.262777  1
  Si  Si61  1  0.000000  0.245884  0.652500  1
  Si  Si62  1  0.242043  0.838051  0.113825  1
  Si  Si63  1  0.000000  0.518843  0.762777  1
  Si  Si64  1  0.266329  0.096726  0.606751  1
  Si  Si65  1  0.772816  0.111509  0.171513  1
  Si  Si66  1  0.733671  0.903274  0.393249  1
  Si  Si67  1  0.500000  0.315706  0.963422  1
  Si  Si68  1  0.500000  0.500000  0.000000  1
  Si  Si69  1  0.000000  0.512611  0.584495  1
  Si  Si70  1  0.500000  0.254116  0.152500  1
  Si  Si71  1  0.227184  0.888491  0.828487  1
  Si  Si72  1  0.227184  0.111509  0.171513  1
  Si  Si73  1  0.000000  0.487389  0.415505  1
