# generated using pymatgen
data_Ce14Gd18O55
_symmetry_space_group_name_H-M   'P 1'
_cell_length_a   9.52402852
_cell_length_b   9.44395653
_cell_length_c   18.98913673
_cell_angle_alpha   109.00344762
_cell_angle_beta   109.56293214
_cell_angle_gamma   109.68900163
_symmetry_Int_Tables_number   1
_chemical_formula_structural   Ce14Gd18O55
_chemical_formula_sum   'Ce14 Gd18 O55'
_cell_volume   1317.31687206
_cell_formula_units_Z   1
loop_
 _symmetry_equiv_pos_site_id
 _symmetry_equiv_pos_as_xyz
  1  'x, y, z'
loop_
 _atom_site_type_symbol
 _atom_site_label
 _atom_site_symmetry_multiplicity
 _atom_site_fract_x
 _atom_site_fract_y
 _atom_site_fract_z
 _atom_site_occupancy
  Ce  Ce0  1  0.496387  0.247587  0.873588  1
  Ce  Ce1  1  0.489733  0.737768  0.620833  1
  Ce  Ce2  1  0.724451  0.481976  0.616376  1
  Ce  Ce3  1  0.758884  0.754451  0.502676  1
  Ce  Ce4  1  0.495403  0.248197  0.371533  1
  Ce  Ce5  1  0.702214  0.232782  0.740160  1
  Ce  Ce6  1  0.485326  0.996002  0.496123  1
  Ce  Ce7  1  0.759086  0.008247  0.874450  1
  Ce  Ce8  1  0.978552  0.250187  0.615630  1
  Ce  Ce9  1  0.755042  0.756336  0.005506  1
  Ce  Ce10  1  0.706945  0.239087  0.241953  1
  Ce  Ce11  1  0.490398  0.994038  0.001290  1
  Ce  Ce12  1  0.758314  0.009344  0.375864  1
  Ce  Ce13  1  0.982454  0.254150  0.117811  1
  Gd  Gd14  1  0.006388  0.772549  0.890568  1
  Gd  Gd15  1  0.240152  0.973640  0.625463  1
  Gd  Gd16  1  0.010096  0.777688  0.390356  1
  Gd  Gd17  1  0.294116  0.523402  0.871335  1
  Gd  Gd18  1  0.275231  0.752056  0.753166  1
  Gd  Gd19  1  0.245891  0.233055  0.989132  1
  Gd  Gd20  1  0.242267  0.961878  0.124849  1
  Gd  Gd21  1  0.533319  0.526938  0.760445  1
  Gd  Gd22  1  0.270270  0.739119  0.248097  1
  Gd  Gd23  1  0.293872  0.525618  0.383276  1
  Gd  Gd24  1  0.243032  0.247888  0.482773  1
  Gd  Gd25  1  0.528184  0.525217  0.260377  1
  Gd  Gd26  1  0.529322  0.766409  0.137183  1
  Gd  Gd27  1  0.715310  0.478185  0.117166  1
  Gd  Gd28  1  0.001175  0.504425  0.512672  1
  Gd  Gd29  1  0.008164  0.001819  0.247168  1
  Gd  Gd30  1  0.003674  0.007631  0.750834  1
  Gd  Gd31  1  0.975609  0.501384  0.014984  1
  O  O32  1  0.231665  0.979708  0.755509  1
  O  O33  1  0.231950  0.743709  0.872075  1
  O  O34  1  0.227155  0.278464  0.873494  1
  O  O35  1  0.009903  0.034159  0.630047  1
  O  O36  1  0.242714  0.465260  0.736664  1
  O  O37  1  0.016057  0.250953  0.508416  1
  O  O38  1  0.257157  0.740511  0.629466  1
  O  O39  1  0.223949  0.957008  0.244268  1
  O  O40  1  0.741934  0.008288  0.000069  1
  O  O41  1  0.235965  0.745329  0.373593  1
  O  O42  1  0.524525  0.762956  0.751625  1
  O  O43  1  0.520734  0.513863  0.877841  1
  O  O44  1  0.485764  0.226544  0.989947  1
  O  O45  1  0.235365  0.508640  0.488921  1
  O  O46  1  0.520375  0.760029  0.506283  1
  O  O47  1  0.248701  0.258260  0.362833  1
  O  O48  1  0.480381  0.476875  0.620234  1
  O  O49  1  0.474456  0.242655  0.740712  1
  O  O50  1  0.010624  0.035501  0.128653  1
  O  O51  1  0.235816  0.458683  0.237484  1
  O  O52  1  0.254507  0.024970  0.512949  1
  O  O53  1  0.517053  0.008588  0.871547  1
  O  O54  1  0.761609  0.776543  0.885645  1
  O  O55  1  0.017427  0.260122  0.005321  1
  O  O56  1  0.253596  0.713286  0.114549  1
  O  O57  1  0.759436  0.278432  0.873493  1
  O  O58  1  0.987193  0.733569  -0.000254  1
  O  O59  1  0.488115  0.984037  0.622419  1
  O  O60  1  0.744325  0.013681  0.499623  1
  O  O61  1  0.781991  0.513716  0.761465  1
  O  O62  1  0.528315  0.769571  0.259269  1
  O  O63  1  0.998288  0.979998  0.863083  1
  O  O64  1  0.524587  0.518229  0.381057  1
  O  O65  1  0.492514  0.239514  0.492492  1
  O  O66  1  0.765485  0.744415  0.638192  1
  O  O67  1  0.735896  0.495175  0.502077  1
  O  O68  1  0.499675  0.743317  0.002615  1
  O  O69  1  0.465588  0.476984  0.117393  1
  O  O70  1  0.473198  0.241834  0.241234  1
  O  O71  1  0.742837  0.239812  0.627831  1
  O  O72  1  0.249889  0.016799  0.012911  1
  O  O73  1  0.775200  0.042242  0.752816  1
  O  O74  1  0.766459  0.778151  0.387878  1
  O  O75  1  0.510961  0.011021  0.374377  1
  O  O76  1  0.985968  0.510596  0.634282  1
  O  O77  1  0.763261  0.279126  0.374564  1
  O  O78  1  0.995256  0.735668  0.499581  1
  O  O79  1  0.493745  0.994466  0.124788  1
  O  O80  1  0.777482  0.515308  0.261641  1
  O  O81  1  0.001540  0.987146  0.363613  1
  O  O82  1  0.772635  0.749423  0.134607  1
  O  O83  1  0.723899  0.487799  0.998169  1
  O  O84  1  0.748253  0.237261  0.129985  1
  O  O85  1  0.775607  0.039296  0.252031  1
  O  O86  1  0.985560  0.511458  0.135888  1
