# generated using pymatgen
data_NaLuGeO4
_symmetry_space_group_name_H-M   'P 1'
_cell_length_a   5.28250128
_cell_length_b   6.38057601
_cell_length_c   11.32070188
_cell_angle_alpha   90.00000000
_cell_angle_beta   90.00000000
_cell_angle_gamma   90.00000000
_symmetry_Int_Tables_number   1
_chemical_formula_structural   NaLuGeO4
_chemical_formula_sum   'Na4 Lu4 Ge4 O16'
_cell_volume   381.56879579
_cell_formula_units_Z   4
loop_
 _symmetry_equiv_pos_site_id
 _symmetry_equiv_pos_as_xyz
  1  'x, y, z'
loop_
 _atom_site_type_symbol
 _atom_site_label
 _atom_site_symmetry_multiplicity
 _atom_site_fract_x
 _atom_site_fract_y
 _atom_site_fract_z
 _atom_site_occupancy
  O  O0  1  0.833494  0.750000  0.953025  1
  O  O1  1  0.333494  0.250000  0.546975  1
  O  O2  1  0.166506  0.250000  0.046975  1
  O  O3  1  0.666506  0.750000  0.453025  1
  O  O4  1  0.207883  0.039717  0.822702  1
  O  O5  1  0.707883  0.960283  0.677298  1
  O  O6  1  0.792117  0.539717  0.177298  1
  O  O7  1  0.292117  0.460283  0.322702  1
  O  O8  1  0.792117  0.960283  0.177298  1
  O  O9  1  0.292117  0.039717  0.322702  1
  O  O10  1  0.207883  0.460283  0.822702  1
  O  O11  1  0.707883  0.539717  0.677298  1
  O  O12  1  0.221392  0.750000  0.613004  1
  O  O13  1  0.721392  0.250000  0.886996  1
  O  O14  1  0.778608  0.250000  0.386996  1
  O  O15  1  0.278608  0.750000  0.113004  1
  Na  Na16  1  0.500000  0.500000  0.000000  1
  Na  Na17  1  0.000000  0.500000  0.500000  1
  Na  Na18  1  0.500000  0.000000  0.000000  1
  Na  Na19  1  0.000000  0.000000  0.500000  1
  Ge  Ge20  1  0.949770  0.750000  0.099080  1
  Ge  Ge21  1  0.449770  0.250000  0.400920  1
  Ge  Ge22  1  0.050230  0.250000  0.900920  1
  Ge  Ge23  1  0.550230  0.750000  0.599080  1
  Lu  Lu24  1  0.993714  0.750000  0.776523  1
  Lu  Lu25  1  0.493714  0.250000  0.723477  1
  Lu  Lu26  1  0.006286  0.250000  0.223477  1
  Lu  Lu27  1  0.506286  0.750000  0.276523  1
