# generated using pymatgen
data_Al2S3
_symmetry_space_group_name_H-M   'P 1'
_cell_length_a   7.30754594
_cell_length_b   6.86881287
_cell_length_c   21.83633625
_cell_angle_alpha   96.09616777
_cell_angle_beta   92.46824634
_cell_angle_gamma   119.44872009
_symmetry_Int_Tables_number   1
_chemical_formula_structural   Al2S3
_chemical_formula_sum   'Al12 S18'
_cell_volume   943.28153938
_cell_formula_units_Z   6
loop_
 _symmetry_equiv_pos_site_id
 _symmetry_equiv_pos_as_xyz
  1  'x, y, z'
loop_
 _atom_site_type_symbol
 _atom_site_label
 _atom_site_symmetry_multiplicity
 _atom_site_fract_x
 _atom_site_fract_y
 _atom_site_fract_z
 _atom_site_occupancy
  Al  Al0  1  0.561494  0.141039  0.840565  1
  Al  Al1  1  0.479660  0.096277  0.287596  1
  Al  Al2  1  0.748421  0.645342  0.729334  1
  Al  Al3  1  0.090747  0.738900  0.892324  1
  Al  Al4  1  0.521210  0.021766  0.463297  1
  Al  Al5  1  0.419236  0.592593  0.782649  1
  Al  Al6  1  0.035328  0.706350  0.323987  1
  Al  Al7  1  0.704836  0.890883  0.265684  1
  Al  Al8  1  0.136117  0.254959  0.820279  1
  Al  Al9  1  0.130569  0.552136  0.006151  1
  Al  Al10  1  0.270923  0.927656  0.668951  1
  Al  Al11  1  0.604109  0.594399  0.397956  1
  S  S12  1  0.863157  0.344774  0.348880  1
  S  S13  1  0.375664  0.860765  0.363345  1
  S  S14  1  0.965136  0.872294  0.819703  1
  S  S15  1  0.053993  0.812547  0.990064  1
  S  S16  1  0.524212  0.972463  0.740073  1
  S  S17  1  0.406747  0.381450  0.306627  1
  S  S18  1  0.274247  0.389688  0.038560  1
  S  S19  1  0.494904  0.127637  0.606989  1
  S  S20  1  0.931281  0.704582  0.647750  1
  S  S21  1  0.430111  0.815758  0.881001  1
  S  S22  1  0.588184  0.761590  0.490236  1
  S  S23  1  0.460602  0.380883  0.874883  1
  S  S24  1  0.119848  0.783528  0.226930  1
  S  S25  1  0.776630  0.402733  0.437210  1
  S  S26  1  0.878518  0.894200  0.360283  1
  S  S27  1  0.920655  0.344949  0.877148  1
  S  S28  1  0.337366  0.124618  0.524015  1
  S  S29  1  0.896094  0.863244  0.191651  1
