# generated using pymatgen
data_K4H4PtC6S2(NO6)2
_symmetry_space_group_name_H-M   'P 1'
_cell_length_a   11.22089518
_cell_length_b   7.15440452
_cell_length_c   6.72359519
_cell_angle_alpha   108.66122056
_cell_angle_beta   90.17799300
_cell_angle_gamma   101.08723796
_symmetry_Int_Tables_number   1
_chemical_formula_structural   K4H4PtC6S2(NO6)2
_chemical_formula_sum   'K4 H4 Pt1 C6 S2 N2 O12'
_cell_volume   500.62641049
_cell_formula_units_Z   1
loop_
 _symmetry_equiv_pos_site_id
 _symmetry_equiv_pos_as_xyz
  1  'x, y, z'
loop_
 _atom_site_type_symbol
 _atom_site_label
 _atom_site_symmetry_multiplicity
 _atom_site_fract_x
 _atom_site_fract_y
 _atom_site_fract_z
 _atom_site_occupancy
  K  K0  1  0.550858  0.244093  0.406305  1
  K  K1  1  0.449142  0.755907  0.593695  1
  K  K2  1  0.807655  0.902346  0.450082  1
  K  K3  1  0.192345  0.097654  0.549918  1
  H  H4  1  0.598927  0.543497  0.145979  1
  H  H5  1  0.401073  0.456503  0.854021  1
  H  H6  1  0.534063  0.717410  0.152879  1
  H  H7  1  0.465937  0.282590  0.847121  1
  Pt  Pt8  1  0.000000  0.000000  0.000000  1
  C  C9  1  0.772202  0.644320  0.801611  1
  C  C10  1  0.227798  0.355680  0.198389  1
  C  C11  1  0.767359  0.133056  0.011662  1
  C  C12  1  0.232641  0.866944  0.988338  1
  C  C13  1  0.656368  0.165407  0.890737  1
  C  C14  1  0.343632  0.834593  0.109263  1
  S  S15  1  0.899983  0.671307  0.943407  1
  S  S16  1  0.100017  0.328693  0.056593  1
  N  N17  1  0.682110  0.620604  0.697586  1
  N  N18  1  0.317890  0.379396  0.302414  1
  O  O19  1  0.852564  0.075831  0.887499  1
  O  O20  1  0.147436  0.924169  0.112501  1
  O  O21  1  0.766229  0.154148  0.201372  1
  O  O22  1  0.233771  0.845852  0.798628  1
  O  O23  1  0.645572  0.091829  0.693083  1
  O  O24  1  0.354428  0.908171  0.306917  1
  O  O25  1  0.582215  0.257208  0.006598  1
  O  O26  1  0.417785  0.742792  0.993402  1
  O  O27  1  0.592383  0.678728  0.236691  1
  O  O28  1  0.407617  0.321272  0.763309  1
  O  O29  1  0.016270  0.730668  0.467275  1
  O  O30  1  0.983730  0.269332  0.532725  1
