# generated using pymatgen
data_NaCa2SiO4F
_symmetry_space_group_name_H-M   'P 1'
_cell_length_a   8.09777705
_cell_length_b   7.84188498
_cell_length_c   7.64172201
_cell_angle_alpha   93.18425047
_cell_angle_beta   92.69667439
_cell_angle_gamma   87.87382355
_symmetry_Int_Tables_number   1
_chemical_formula_structural   NaCa2SiO4F
_chemical_formula_sum   'Na4 Ca8 Si4 O16 F4'
_cell_volume   483.68819435
_cell_formula_units_Z   4
loop_
 _symmetry_equiv_pos_site_id
 _symmetry_equiv_pos_as_xyz
  1  'x, y, z'
loop_
 _atom_site_type_symbol
 _atom_site_label
 _atom_site_symmetry_multiplicity
 _atom_site_fract_x
 _atom_site_fract_y
 _atom_site_fract_z
 _atom_site_occupancy
  Na  Na0  1  0.215873  0.479534  0.436212  1
  Na  Na1  1  -0.003960  0.005915  0.536669  1
  Na  Na2  1  0.485431  0.518602  0.075173  1
  Na  Na3  1  0.942658  0.988079  0.008584  1
  Ca  Ca4  1  0.941933  0.592636  0.103984  1
  Ca  Ca5  1  0.522847  0.466195  0.721589  1
  Ca  Ca6  1  0.512893  -0.017098  0.968305  1
  Ca  Ca7  1  0.704043  0.266229  0.305577  1
  Ca  Ca8  1  0.228127  0.767547  0.781834  1
  Ca  Ca9  1  0.400217  0.041252  0.496593  1
  Ca  Ca10  1  0.879516  0.570506  0.627814  1
  Ca  Ca11  1  0.230730  0.220545  0.122558  1
  Si  Si12  1  0.676608  0.772645  0.316084  1
  Si  Si13  1  0.825501  0.271647  0.822741  1
  Si  Si14  1  0.270172  0.768964  0.243590  1
  Si  Si15  1  0.197709  0.266317  0.738395  1
  O  O16  1  0.773900  0.269996  0.610571  1
  O  O17  1  0.025481  0.217791  0.851686  1
  O  O18  1  0.722625  0.154336  0.940564  1
  O  O19  1  0.785396  0.475083  0.885790  1
  O  O20  1  0.474986  0.137004  0.232321  1
  O  O21  1  0.757382  0.582709  0.339826  1
  O  O22  1  0.482735  0.772461  0.250101  1
  O  O23  1  0.799966  0.875178  0.206408  1
  O  O24  1  0.350668  0.334102  0.881617  1
  O  O25  1  0.285849  0.048813  0.767414  1
  O  O26  1  0.128272  0.487937  0.707821  1
  O  O27  1  0.488732  0.716565  0.841641  1
  O  O28  1  0.184155  0.219706  0.518252  1
  O  O29  1  0.199834  0.908690  0.106585  1
  O  O30  1  0.218360  0.577957  0.168831  1
  O  O31  1  0.219985  0.806011  0.447276  1
  F  F32  1  -0.055273  0.815094  0.768464  1
  F  F33  1  0.483711  0.424996  0.440095  1
  F  F34  1  0.672733  0.872209  0.516003  1
  F  F35  1  0.970204  0.323848  0.213032  1
