# generated using pymatgen
data_Hg4Pb2N6O19
_symmetry_space_group_name_H-M   'P 1'
_cell_length_a   11.22209549
_cell_length_b   11.22431050
_cell_length_c   11.22234674
_cell_angle_alpha   60.01447220
_cell_angle_beta   60.01409291
_cell_angle_gamma   60.01006226
_symmetry_Int_Tables_number   1
_chemical_formula_structural   Hg4Pb2N6O19
_chemical_formula_sum   'Hg8 Pb4 N12 O38'
_cell_volume   999.83668809
_cell_formula_units_Z   2
loop_
 _symmetry_equiv_pos_site_id
 _symmetry_equiv_pos_as_xyz
  1  'x, y, z'
loop_
 _atom_site_type_symbol
 _atom_site_label
 _atom_site_symmetry_multiplicity
 _atom_site_fract_x
 _atom_site_fract_y
 _atom_site_fract_z
 _atom_site_occupancy
  Hg  Hg0  1  0.361600  0.046081  0.046214  1
  Hg  Hg1  1  0.046176  0.046102  0.046185  1
  Hg  Hg2  1  0.953812  0.638428  0.953736  1
  Hg  Hg3  1  0.953945  0.953858  0.638403  1
  Hg  Hg4  1  0.638433  0.953842  0.953817  1
  Hg  Hg5  1  0.046048  0.361571  0.046316  1
  Hg  Hg6  1  0.953799  0.953873  0.953880  1
  Hg  Hg7  1  0.046156  0.046095  0.361575  1
  Pb  Pb8  1  0.999852  0.500127  0.500045  1
  Pb  Pb9  1  0.499794  0.500107  0.000131  1
  Pb  Pb10  1  0.500012  0.000224  0.499801  1
  Pb  Pb11  1  0.500207  0.499912  0.500074  1
  N  N12  1  0.134387  0.615471  0.134728  1
  N  N13  1  0.865530  0.384546  0.865308  1
  N  N14  1  0.865446  0.384564  0.384610  1
  N  N15  1  0.384471  0.865458  0.865468  1
  N  N16  1  0.384566  0.865265  0.384578  1
  N  N17  1  0.615453  0.615441  0.134718  1
  N  N18  1  0.865569  0.865340  0.384541  1
  N  N19  1  0.615534  0.134589  0.615416  1
  N  N20  1  0.134556  0.615424  0.615390  1
  N  N21  1  0.384567  0.384610  0.865268  1
  N  N22  1  0.134423  0.134692  0.615441  1
  N  N23  1  0.615464  0.134607  0.134536  1
  O  O24  1  0.655002  0.193236  0.996844  1
  O  O25  1  0.654978  0.655005  0.996764  1
  O  O26  1  0.215268  0.215237  0.534760  1
  O  O27  1  0.806747  0.002989  0.345195  1
  O  O28  1  0.655021  0.193204  0.654870  1
  O  O29  1  0.996938  0.654926  0.654893  1
  O  O30  1  0.003001  0.345016  0.806885  1
  O  O31  1  0.003053  0.345073  0.345097  1
  O  O32  1  0.784753  0.465181  0.465304  1
  O  O33  1  0.534695  0.215329  0.215289  1
  O  O34  1  0.215255  0.534749  0.215330  1
  O  O35  1  0.345094  0.806896  0.345043  1
  O  O36  1  0.654960  0.654880  0.193225  1
  O  O37  1  0.534741  0.534745  0.215219  1
  O  O38  1  0.215259  0.534694  0.534739  1
  O  O39  1  0.806788  0.345058  0.345034  1
  O  O40  1  0.193282  0.996903  0.654914  1
  O  O41  1  0.465224  0.465208  0.784783  1
  O  O42  1  0.345003  0.345115  0.003138  1
  O  O43  1  0.193271  0.654982  0.996824  1
  O  O44  1  0.345034  0.003083  0.806796  1
  O  O45  1  0.345083  0.003063  0.345134  1
  O  O46  1  0.806707  0.345025  0.003187  1
  O  O47  1  0.345048  0.806774  0.003031  1
  O  O48  1  0.465237  0.784728  0.465272  1
  O  O49  1  0.784725  0.784675  0.465257  1
  O  O50  1  0.125066  0.125000  0.125034  1
  O  O51  1  0.534741  0.215257  0.534689  1
  O  O52  1  0.465181  0.784773  0.784634  1
  O  O53  1  0.345066  0.345098  0.806808  1
  O  O54  1  0.002947  0.806813  0.345085  1
  O  O55  1  0.654977  0.996904  0.193254  1
  O  O56  1  0.874977  0.875013  0.874934  1
  O  O57  1  0.193241  0.654977  0.654880  1
  O  O58  1  0.996962  0.654937  0.193175  1
  O  O59  1  0.997090  0.193107  0.654875  1
  O  O60  1  0.655024  0.996888  0.654891  1
  O  O61  1  0.784756  0.465230  0.784736  1
