# generated using pymatgen
data_Li2TiFe(PO4)3
_symmetry_space_group_name_H-M   'P 1'
_cell_length_a   8.64975327
_cell_length_b   8.79580532
_cell_length_c   12.00781909
_cell_angle_alpha   90.00000000
_cell_angle_beta   90.33063681
_cell_angle_gamma   90.00000000
_symmetry_Int_Tables_number   1
_chemical_formula_structural   Li2TiFe(PO4)3
_chemical_formula_sum   'Li8 Ti4 Fe4 P12 O48'
_cell_volume   913.55822725
_cell_formula_units_Z   4
loop_
 _symmetry_equiv_pos_site_id
 _symmetry_equiv_pos_as_xyz
  1  'x, y, z'
loop_
 _atom_site_type_symbol
 _atom_site_label
 _atom_site_symmetry_multiplicity
 _atom_site_fract_x
 _atom_site_fract_y
 _atom_site_fract_z
 _atom_site_occupancy
  Li  Li0  1  0.215302  0.778019  0.171142  1
  Li  Li1  1  0.222155  0.726804  0.820855  1
  Li  Li2  1  0.284698  0.278019  0.328858  1
  Li  Li3  1  0.277845  0.226804  0.679145  1
  Li  Li4  1  0.715302  0.721981  0.671142  1
  Li  Li5  1  0.722155  0.773196  0.320855  1
  Li  Li6  1  0.784698  0.221981  0.828858  1
  Li  Li7  1  0.777845  0.273196  0.179145  1
  Ti  Ti8  1  0.246237  0.953941  0.384938  1
  Ti  Ti9  1  0.253763  0.453941  0.115062  1
  Ti  Ti10  1  0.746237  0.546059  0.884938  1
  Ti  Ti11  1  0.753763  0.046059  0.615062  1
  Fe  Fe12  1  0.249802  0.543785  0.615664  1
  Fe  Fe13  1  0.250198  0.043785  0.884336  1
  Fe  Fe14  1  0.749802  0.956215  0.115664  1
  Fe  Fe15  1  0.750198  0.456215  0.384336  1
  P  P16  1  0.038776  0.250673  0.497329  1
  P  P17  1  0.103143  0.393610  0.853890  1
  P  P18  1  0.102876  0.108752  0.146655  1
  P  P19  1  0.397124  0.608752  0.353345  1
  P  P20  1  0.396857  0.893610  0.646110  1
  P  P21  1  0.461224  0.750673  0.002671  1
  P  P22  1  0.538776  0.249327  0.997329  1
  P  P23  1  0.603143  0.106390  0.353890  1
  P  P24  1  0.602876  0.391248  0.646655  1
  P  P25  1  0.896857  0.606390  0.146110  1
  P  P26  1  0.897124  0.891248  0.853345  1
  P  P27  1  0.961224  0.749327  0.502671  1
  O  O28  1  0.057221  0.654147  0.583265  1
  O  O29  1  0.063553  0.850552  0.426760  1
  O  O30  1  0.075964  0.596858  0.153220  1
  O  O31  1  0.073760  0.892467  0.841132  1
  O  O32  1  0.147101  0.147378  0.425691  1
  O  O33  1  0.145499  0.343722  0.574047  1
  O  O34  1  0.153857  0.075508  0.027733  1
  O  O35  1  0.154539  0.418730  0.977363  1
  O  O36  1  0.164832  0.268637  0.184166  1
  O  O37  1  0.152030  0.232915  0.815758  1
  O  O38  1  0.178757  0.517687  0.782502  1
  O  O39  1  0.176155  0.985941  0.225005  1
  O  O40  1  0.321243  0.017687  0.717498  1
  O  O41  1  0.323845  0.485941  0.274995  1
  O  O42  1  0.335168  0.768637  0.315834  1
  O  O43  1  0.347970  0.732915  0.684242  1
  O  O44  1  0.346143  0.575508  0.472267  1
  O  O45  1  0.345461  0.918730  0.522637  1
  O  O46  1  0.352899  0.647378  0.074309  1
  O  O47  1  0.354501  0.843722  0.925953  1
  O  O48  1  0.424036  0.096858  0.346780  1
  O  O49  1  0.426240  0.392467  0.658868  1
  O  O50  1  0.436447  0.350552  0.073240  1
  O  O51  1  0.442779  0.154147  0.916735  1
  O  O52  1  0.563553  0.649448  0.926760  1
  O  O53  1  0.557221  0.845853  0.083265  1
  O  O54  1  0.573760  0.607533  0.341132  1
  O  O55  1  0.575964  0.903142  0.653220  1
  O  O56  1  0.645499  0.156278  0.074047  1
  O  O57  1  0.647101  0.352622  0.925691  1
  O  O58  1  0.654539  0.081270  0.477363  1
  O  O59  1  0.653857  0.424492  0.527733  1
  O  O60  1  0.664832  0.231363  0.684166  1
  O  O61  1  0.652030  0.267085  0.315758  1
  O  O62  1  0.676155  0.514059  0.725005  1
  O  O63  1  0.678757  0.982313  0.282502  1
  O  O64  1  0.823845  0.014059  0.774995  1
  O  O65  1  0.821243  0.482313  0.217498  1
  O  O66  1  0.835168  0.731363  0.815834  1
  O  O67  1  0.847970  0.767085  0.184242  1
  O  O68  1  0.845461  0.581270  0.022637  1
  O  O69  1  0.846143  0.924492  0.972267  1
  O  O70  1  0.854501  0.656278  0.425953  1
  O  O71  1  0.852899  0.852622  0.574309  1
  O  O72  1  0.926240  0.107533  0.158868  1
  O  O73  1  0.924036  0.403142  0.846780  1
  O  O74  1  0.936447  0.149448  0.573240  1
  O  O75  1  0.942779  0.345853  0.416735  1
