# generated using pymatgen
data_NiAs3H3OF18
_symmetry_space_group_name_H-M   'P 1'
_cell_length_a   9.57516353
_cell_length_b   10.42860630
_cell_length_c   14.04655963
_cell_angle_alpha   90.00000000
_cell_angle_beta   90.00000000
_cell_angle_gamma   90.00000000
_symmetry_Int_Tables_number   1
_chemical_formula_structural   NiAs3H3OF18
_chemical_formula_sum   'Ni4 As12 H12 O4 F72'
_cell_volume   1402.62779026
_cell_formula_units_Z   4
loop_
 _symmetry_equiv_pos_site_id
 _symmetry_equiv_pos_as_xyz
  1  'x, y, z'
loop_
 _atom_site_type_symbol
 _atom_site_label
 _atom_site_symmetry_multiplicity
 _atom_site_fract_x
 _atom_site_fract_y
 _atom_site_fract_z
 _atom_site_occupancy
  Ni  Ni0  1  0.500000  0.500000  0.500000  1
  Ni  Ni1  1  0.500000  0.500000  0.000000  1
  Ni  Ni2  1  0.000000  0.000000  0.500000  1
  Ni  Ni3  1  0.000000  0.000000  0.000000  1
  As  As4  1  0.196900  0.705190  0.550563  1
  As  As5  1  0.803100  0.294810  0.449437  1
  As  As6  1  0.803100  0.294810  0.050563  1
  As  As7  1  0.196900  0.705190  0.949437  1
  As  As8  1  0.390704  0.477869  0.250000  1
  As  As9  1  0.303100  0.205190  0.550563  1
  As  As10  1  0.696900  0.794810  0.050563  1
  As  As11  1  0.890704  0.022131  0.750000  1
  As  As12  1  0.696900  0.794810  0.449437  1
  As  As13  1  0.609296  0.522131  0.750000  1
  As  As14  1  0.109296  0.977869  0.250000  1
  As  As15  1  0.303100  0.205190  0.949437  1
  H  H16  1  0.978594  0.623285  0.192744  1
  H  H17  1  0.478594  0.876715  0.692743  1
  H  H18  1  0.478594  0.876715  0.807257  1
  H  H19  1  0.401007  0.993358  0.750000  1
  H  H20  1  0.978594  0.623285  0.307256  1
  H  H21  1  0.598993  0.006642  0.250000  1
  H  H22  1  0.521406  0.123285  0.307256  1
  H  H23  1  0.098993  0.493358  0.750000  1
  H  H24  1  0.021406  0.376715  0.692743  1
  H  H25  1  0.901007  0.506642  0.250000  1
  H  H26  1  0.021406  0.376715  0.807257  1
  H  H27  1  0.521406  0.123285  0.192744  1
  O  O28  1  0.520312  0.068544  0.250000  1
  O  O29  1  0.020312  0.431456  0.750000  1
  O  O30  1  0.979688  0.568544  0.250000  1
  O  O31  1  0.479688  0.931456  0.750000  1
  F  F32  1  0.400511  0.121793  0.636594  1
  F  F33  1  0.111331  0.975637  0.119544  1
  F  F34  1  0.794835  0.712799  0.966064  1
  F  F35  1  0.671640  0.421490  0.440176  1
  F  F36  1  0.561932  0.672081  0.050148  1
  F  F37  1  0.888669  0.024363  0.880456  1
  F  F38  1  0.284291  0.788532  0.857864  1
  F  F39  1  0.719563  0.076430  0.750000  1
  F  F40  1  0.611331  0.524363  0.619544  1
  F  F41  1  0.051860  0.816055  0.250000  1
  F  F42  1  0.784291  0.711468  0.357864  1
  F  F43  1  0.784291  0.711468  0.142136  1
  F  F44  1  0.099489  0.621793  0.863406  1
  F  F45  1  0.900511  0.378207  0.363406  1
  F  F46  1  0.215709  0.288532  0.642136  1
  F  F47  1  0.434278  0.473460  0.750000  1
  F  F48  1  0.948140  0.183945  0.750000  1
  F  F49  1  0.890714  0.378496  0.539629  1
  F  F50  1  0.715709  0.211468  0.357864  1
  F  F51  1  0.438068  0.327919  0.550148  1
  F  F52  1  0.934278  0.026540  0.250000  1
  F  F53  1  0.828360  0.921490  0.440176  1
  F  F54  1  0.219563  0.423570  0.250000  1
  F  F55  1  0.780437  0.576430  0.750000  1
  F  F56  1  0.438068  0.327919  0.949852  1
  F  F57  1  0.334533  0.636518  0.250000  1
  F  F58  1  0.890714  0.378496  0.960371  1
  F  F59  1  0.065722  0.973460  0.750000  1
  F  F60  1  0.215709  0.288532  0.857864  1
  F  F61  1  0.671640  0.421490  0.059824  1
  F  F62  1  0.099489  0.621793  0.636594  1
  F  F63  1  0.111331  0.975637  0.380456  1
  F  F64  1  0.938068  0.172081  0.050148  1
  F  F65  1  0.611331  0.524363  0.880456  1
  F  F66  1  0.284291  0.788532  0.642136  1
  F  F67  1  0.888669  0.024363  0.619544  1
  F  F68  1  0.794835  0.712799  0.533936  1
  F  F69  1  0.665467  0.363482  0.750000  1
  F  F70  1  0.400511  0.121793  0.863406  1
  F  F71  1  0.205165  0.287201  0.033936  1
  F  F72  1  0.705165  0.212799  0.966064  1
  F  F73  1  0.294835  0.787201  0.033936  1
  F  F74  1  0.388669  0.475637  0.380456  1
  F  F75  1  0.205165  0.287201  0.466064  1
  F  F76  1  0.061932  0.827919  0.550148  1
  F  F77  1  0.328360  0.578510  0.559824  1
  F  F78  1  0.388669  0.475637  0.119544  1
  F  F79  1  0.109286  0.621504  0.039629  1
  F  F80  1  0.599489  0.878207  0.136594  1
  F  F81  1  0.900511  0.378207  0.136594  1
  F  F82  1  0.609286  0.878496  0.539629  1
  F  F83  1  0.171640  0.078510  0.559824  1
  F  F84  1  0.561932  0.672081  0.449852  1
  F  F85  1  0.390714  0.121504  0.460371  1
  F  F86  1  0.715709  0.211468  0.142136  1
  F  F87  1  0.599489  0.878207  0.363406  1
  F  F88  1  0.171640  0.078510  0.940176  1
  F  F89  1  0.609286  0.878496  0.960371  1
  F  F90  1  0.109286  0.621504  0.460371  1
  F  F91  1  0.448140  0.316055  0.250000  1
  F  F92  1  0.938068  0.172081  0.449852  1
  F  F93  1  0.834533  0.863482  0.750000  1
  F  F94  1  0.280437  0.923570  0.250000  1
  F  F95  1  0.294835  0.787201  0.466064  1
  F  F96  1  0.328360  0.578510  0.940176  1
  F  F97  1  0.390714  0.121504  0.039629  1
  F  F98  1  0.061932  0.827919  0.949852  1
  F  F99  1  0.165467  0.136518  0.250000  1
  F  F100  1  0.828360  0.921490  0.059824  1
  F  F101  1  0.565722  0.526540  0.250000  1
  F  F102  1  0.551860  0.683945  0.750000  1
  F  F103  1  0.705165  0.212799  0.533936  1
