# generated using pymatgen
data_AlPO4
_symmetry_space_group_name_H-M   'P 1'
_cell_length_a   14.13956043
_cell_length_b   14.13956040
_cell_length_c   8.60353646
_cell_angle_alpha   90.00000000
_cell_angle_beta   90.00000000
_cell_angle_gamma   120.79505249
_symmetry_Int_Tables_number   1
_chemical_formula_structural   AlPO4
_chemical_formula_sum   'Al12 P12 O48'
_cell_volume   1477.55637678
_cell_formula_units_Z   12
loop_
 _symmetry_equiv_pos_site_id
 _symmetry_equiv_pos_as_xyz
  1  'x, y, z'
loop_
 _atom_site_type_symbol
 _atom_site_label
 _atom_site_symmetry_multiplicity
 _atom_site_fract_x
 _atom_site_fract_y
 _atom_site_fract_z
 _atom_site_occupancy
  Al  Al0  1  0.329756  0.456705  0.689086  1
  Al  Al1  1  0.329756  0.456705  0.310914  1
  Al  Al2  1  0.543295  0.670244  0.189086  1
  Al  Al3  1  0.543295  0.670244  0.810914  1
  Al  Al4  1  0.455979  0.127855  0.315620  1
  Al  Al5  1  0.455979  0.127855  0.684380  1
  Al  Al6  1  0.670640  0.124658  0.816507  1
  Al  Al7  1  0.670640  0.124658  0.183493  1
  Al  Al8  1  0.872145  0.544021  0.184380  1
  Al  Al9  1  0.872145  0.544021  0.815620  1
  Al  Al10  1  0.875342  0.329360  0.683493  1
  Al  Al11  1  0.875342  0.329360  0.316507  1
  P  P12  1  0.130338  0.661962  0.680285  1
  P  P13  1  0.130338  0.661962  0.319715  1
  P  P14  1  0.123126  0.459264  0.172447  1
  P  P15  1  0.123126  0.459264  0.827553  1
  P  P16  1  0.338038  0.869662  0.819715  1
  P  P17  1  0.338038  0.869662  0.180285  1
  P  P18  1  0.540736  0.876874  0.327553  1
  P  P19  1  0.540736  0.876874  0.672447  1
  P  P20  1  0.458259  0.339735  0.177811  1
  P  P21  1  0.458259  0.339735  0.822189  1
  P  P22  1  0.660265  0.541741  0.677811  1
  P  P23  1  0.660265  0.541741  0.322189  1
  O  O24  1  0.019466  0.641103  0.715846  1
  O  O25  1  0.162101  0.680506  0.500000  1
  O  O26  1  0.221515  0.778485  0.250000  1
  O  O27  1  0.221515  0.778485  0.750000  1
  O  O28  1  0.005587  0.381767  0.805409  1
  O  O29  1  0.358897  0.980534  0.784154  1
  O  O30  1  0.165056  0.579051  0.265437  1
  O  O31  1  0.165056  0.579051  0.734563  1
  O  O32  1  0.149217  0.510731  0.000000  1
  O  O33  1  0.319494  0.837899  0.000000  1
  O  O34  1  0.420949  0.834944  0.234563  1
  O  O35  1  0.420949  0.834944  0.765437  1
  O  O36  1  0.201527  0.422714  0.785031  1
  O  O37  1  0.201527  0.422714  0.214969  1
  O  O38  1  0.489269  0.850783  0.500000  1
  O  O39  1  0.309492  0.418222  0.500000  1
  O  O40  1  0.411906  0.588094  0.250000  1
  O  O41  1  0.411906  0.588094  0.750000  1
  O  O42  1  0.618233  0.994413  0.694591  1
  O  O43  1  0.375658  0.373395  0.209512  1
  O  O44  1  0.375658  0.373395  0.790488  1
  O  O45  1  0.577286  0.798473  0.285031  1
  O  O46  1  0.577286  0.798473  0.714969  1
  O  O47  1  0.581778  0.690508  0.000000  1
  O  O48  1  0.492552  0.359916  0.000000  1
  O  O49  1  0.422278  0.223989  0.221999  1
  O  O50  1  0.422278  0.223989  0.778001  1
  O  O51  1  0.626605  0.624342  0.290488  1
  O  O52  1  0.626605  0.624342  0.709512  1
  O  O53  1  0.358897  0.980534  0.215846  1
  O  O54  1  0.576931  0.423069  0.250000  1
  O  O55  1  0.576931  0.423069  0.750000  1
  O  O56  1  0.640084  0.507448  0.500000  1
  O  O57  1  0.403860  0.102527  0.500000  1
  O  O58  1  0.776011  0.577722  0.278001  1
  O  O59  1  0.776011  0.577722  0.721999  1
  O  O60  1  0.581922  0.164523  0.257201  1
  O  O61  1  0.581922  0.164523  0.742799  1
  O  O62  1  0.633081  0.068574  0.000000  1
  O  O63  1  0.897473  0.596140  0.000000  1
  O  O64  1  0.835477  0.418078  0.757201  1
  O  O65  1  0.835477  0.418078  0.242799  1
  O  O66  1  0.618233  0.994413  0.305409  1
  O  O67  1  0.019466  0.641103  0.284154  1
  O  O68  1  0.801862  0.198138  0.250000  1
  O  O69  1  0.801862  0.198138  0.750000  1
  O  O70  1  0.931426  0.366919  0.500000  1
  O  O71  1  0.005587  0.381767  0.194591  1
