# generated using pymatgen
data_Li2Cr3(P2O7)2
_symmetry_space_group_name_H-M   'P 1'
_cell_length_a   5.44090565
_cell_length_b   6.47017320
_cell_length_c   17.12862232
_cell_angle_alpha   81.99627967
_cell_angle_beta   77.81608082
_cell_angle_gamma   71.67102653
_symmetry_Int_Tables_number   1
_chemical_formula_structural   Li2Cr3(P2O7)2
_chemical_formula_sum   'Li4 Cr6 P8 O28'
_cell_volume   557.77639771
_cell_formula_units_Z   2
loop_
 _symmetry_equiv_pos_site_id
 _symmetry_equiv_pos_as_xyz
  1  'x, y, z'
loop_
 _atom_site_type_symbol
 _atom_site_label
 _atom_site_symmetry_multiplicity
 _atom_site_fract_x
 _atom_site_fract_y
 _atom_site_fract_z
 _atom_site_occupancy
  Li  Li0  1  0.087223  0.187686  0.005425  1
  Li  Li1  1  0.335408  0.696074  0.109908  1
  Li  Li2  1  0.664592  0.303926  0.890092  1
  Li  Li3  1  0.912777  0.812314  0.994575  1
  Cr  Cr4  1  0.957731  0.379728  0.181509  1
  Cr  Cr5  1  0.823618  0.720518  0.417588  1
  Cr  Cr6  1  0.748334  0.025228  0.666632  1
  Cr  Cr7  1  0.176382  0.279482  0.582412  1
  Cr  Cr8  1  0.251666  0.974772  0.333368  1
  Cr  Cr9  1  0.042269  0.620272  0.818491  1
  P  P10  1  0.187593  0.083769  0.798913  1
  P  P11  1  0.624462  0.566823  0.678962  1
  P  P12  1  0.375538  0.433177  0.321038  1
  P  P13  1  0.698069  0.229560  0.452249  1
  P  P14  1  0.552087  0.241612  0.072960  1
  P  P15  1  0.301931  0.770440  0.547751  1
  P  P16  1  0.812407  0.916231  0.201087  1
  P  P17  1  0.447913  0.758388  0.927040  1
  O  O18  1  0.222121  0.299317  0.296045  1
  O  O19  1  0.110187  0.975064  0.588590  1
  O  O20  1  0.546474  0.690200  0.594963  1
  O  O21  1  0.253910  0.304168  0.074478  1
  O  O22  1  0.643804  0.886411  0.282200  1
  O  O23  1  0.832236  0.403239  0.447957  1
  O  O24  1  0.453526  0.309800  0.405037  1
  O  O25  1  0.973692  0.700342  0.162703  1
  O  O26  1  0.569912  0.165629  0.536915  1
  O  O27  1  0.167764  0.596761  0.552043  1
  O  O28  1  0.000342  0.049918  0.198858  1
  O  O29  1  0.637395  0.429258  0.091761  1
  O  O30  1  0.889813  0.024936  0.411410  1
  O  O31  1  0.275802  0.858868  0.004621  1
  O  O32  1  0.724198  0.141132  0.995379  1
  O  O33  1  0.808869  0.338035  0.655955  1
  O  O34  1  -0.000342  0.950082  0.801142  1
  O  O35  1  0.356196  0.113589  0.717800  1
  O  O36  1  0.777879  0.700683  0.703955  1
  O  O37  1  0.191131  0.661965  0.344045  1
  O  O38  1  0.397672  0.960934  0.858387  1
  O  O39  1  0.362605  0.570742  0.908239  1
  O  O40  1  0.615540  0.456165  0.262475  1
  O  O41  1  0.746090  0.695832  0.925522  1
  O  O42  1  0.384460  0.543835  0.737525  1
  O  O43  1  0.430088  0.834371  0.463085  1
  O  O44  1  0.026308  0.299658  0.837297  1
  O  O45  1  0.602328  0.039066  0.141613  1
