# generated using pymatgen
data_BaH2O3
_symmetry_space_group_name_H-M   'P 1'
_cell_length_a   4.02436333
_cell_length_b   6.14645464
_cell_length_c   6.77330023
_cell_angle_alpha   89.98645424
_cell_angle_beta   90.00241399
_cell_angle_gamma   89.99601354
_symmetry_Int_Tables_number   1
_chemical_formula_structural   BaH2O3
_chemical_formula_sum   'Ba2 H4 O6'
_cell_volume   167.54141415
_cell_formula_units_Z   2
loop_
 _symmetry_equiv_pos_site_id
 _symmetry_equiv_pos_as_xyz
  1  'x, y, z'
loop_
 _atom_site_type_symbol
 _atom_site_label
 _atom_site_symmetry_multiplicity
 _atom_site_fract_x
 _atom_site_fract_y
 _atom_site_fract_z
 _atom_site_occupancy
  Ba  Ba0  1  0.000002  0.663861  0.745160  1
  Ba  Ba1  1  0.999999  0.336128  0.245145  1
  H  H2  1  0.205742  0.131680  0.800628  1
  H  H3  1  0.794265  0.131681  0.800629  1
  H  H4  1  0.794033  0.868476  0.300572  1
  H  H5  1  0.206101  0.868526  0.300542  1
  O  O6  1  -0.000006  0.217321  0.846590  1
  O  O7  1  -0.000158  0.782292  0.346780  1
  O  O8  1  0.500001  0.971463  0.741541  1
  O  O9  1  0.500021  0.028602  0.241610  1
  O  O10  1  0.499999  0.443079  0.522511  1
  O  O11  1  0.500001  0.556889  0.022493  1
