# generated using pymatgen
data_Ti4P8S29
_symmetry_space_group_name_H-M   'P 1'
_cell_length_a   12.89469601
_cell_length_b   13.45245164
_cell_length_c   13.45245177
_cell_angle_alpha   82.01297772
_cell_angle_beta   83.95885695
_cell_angle_gamma   83.95885466
_symmetry_Int_Tables_number   1
_chemical_formula_structural   Ti4P8S29
_chemical_formula_sum   'Ti8 P16 S58'
_cell_volume   2288.31368525
_cell_formula_units_Z   2
loop_
 _symmetry_equiv_pos_site_id
 _symmetry_equiv_pos_as_xyz
  1  'x, y, z'
loop_
 _atom_site_type_symbol
 _atom_site_label
 _atom_site_symmetry_multiplicity
 _atom_site_fract_x
 _atom_site_fract_y
 _atom_site_fract_z
 _atom_site_occupancy
  Ti  Ti0  1  0.074018  0.254753  0.554682  1
  Ti  Ti1  1  0.150027  0.186386  0.108876  1
  Ti  Ti2  1  0.350005  0.891032  0.813938  1
  Ti  Ti3  1  0.425181  0.444581  0.743322  1
  Ti  Ti4  1  0.574018  0.554682  0.254753  1
  Ti  Ti5  1  0.650027  0.108876  0.186386  1
  Ti  Ti6  1  0.850005  0.813938  0.891032  1
  Ti  Ti7  1  0.925181  0.743322  0.444581  1
  P  P8  1  0.059648  0.401373  0.018094  1
  P  P9  1  0.115489  0.192442  0.338087  1
  P  P10  1  0.140082  0.749670  0.319484  1
  P  P11  1  0.249854  0.024733  0.975272  1
  P  P12  1  0.249354  0.345747  0.653637  1
  P  P13  1  0.350635  0.665682  0.238527  1
  P  P14  1  0.385195  0.660721  0.808042  1
  P  P15  1  0.441598  0.982838  0.600238  1
  P  P16  1  0.559648  0.018094  0.401373  1
  P  P17  1  0.615489  0.338087  0.192442  1
  P  P18  1  0.640082  0.319484  0.749670  1
  P  P19  1  0.749354  0.653637  0.345747  1
  P  P20  1  0.749854  0.975272  0.024733  1
  P  P21  1  0.850635  0.238527  0.665682  1
  P  P22  1  0.885195  0.808042  0.660721  1
  P  P23  1  0.941598  0.600238  0.982838  1
  S  S24  1  0.004826  0.184896  0.241293  1
  S  S25  1  0.010198  0.839167  0.286714  1
  S  S26  1  0.020340  0.268816  0.986841  1
  S  S27  1  0.127147  0.014935  0.085456  1
  S  S28  1  0.092109  0.102452  0.473039  1
  S  S29  1  0.066344  0.522157  0.897477  1
  S  S30  1  0.111543  0.332342  0.384421  1
  S  S31  1  0.112287  0.415287  0.602861  1
  S  S32  1  0.110723  0.669841  0.455403  1
  S  S33  1  0.190436  0.368770  0.090137  1
  S  S34  1  0.200326  0.011989  0.838110  1
  S  S35  1  0.196907  0.670110  0.192390  1
  S  S36  1  0.252994  0.159721  0.252574  1
  S  S37  1  0.237634  0.199663  0.629924  1
  S  S38  1  0.259576  0.373033  0.798810  1
  S  S39  1  0.247764  0.746547  0.841050  1
  S  S40  1  0.309216  0.804465  0.315723  1
  S  S41  1  0.299140  0.162148  0.987718  1
  S  S42  1  0.309695  0.911993  0.632783  1
  S  S43  1  0.368906  0.772650  0.442316  1
  S  S44  1  0.388981  0.539944  0.329606  1
  S  S45  1  0.388569  0.393561  0.584504  1
  S  S46  1  0.388412  0.615501  0.667793  1
  S  S47  1  0.437283  0.105002  0.480982  1
  S  S48  1  0.408495  0.525029  0.897300  1
  S  S49  1  0.372921  0.915073  0.985198  1
  S  S50  1  0.504826  0.241293  0.184896  1
  S  S51  1  0.480077  0.013659  0.733158  1
  S  S52  1  0.479301  0.700083  0.147577  1
  S  S53  1  0.510198  0.286714  0.839167  1
  S  S54  1  0.520340  0.986841  0.268816  1
  S  S55  1  0.495361  0.758364  0.814683  1
  S  S56  1  0.627147  0.085456  0.014935  1
  S  S57  1  0.592109  0.473039  0.102452  1
  S  S58  1  0.566344  0.897477  0.522157  1
  S  S59  1  0.611543  0.384421  0.332342  1
  S  S60  1  0.612287  0.602861  0.415287  1
  S  S61  1  0.610723  0.455403  0.669841  1
  S  S62  1  0.690436  0.090137  0.368770  1
  S  S63  1  0.700326  0.838110  0.011989  1
  S  S64  1  0.696907  0.192390  0.670110  1
  S  S65  1  0.752994  0.252574  0.159721  1
  S  S66  1  0.737634  0.629924  0.199663  1
  S  S67  1  0.759576  0.798810  0.373033  1
  S  S68  1  0.747764  0.841050  0.746547  1
  S  S69  1  0.809216  0.315723  0.804465  1
  S  S70  1  0.799140  0.987718  0.162148  1
  S  S71  1  0.809695  0.632783  0.911993  1
  S  S72  1  0.868906  0.442316  0.772650  1
  S  S73  1  0.888981  0.329606  0.539944  1
  S  S74  1  0.888569  0.584504  0.393561  1
  S  S75  1  0.888412  0.667793  0.615501  1
  S  S76  1  0.937283  0.480982  0.105002  1
  S  S77  1  0.908495  0.897300  0.525029  1
  S  S78  1  0.872921  0.985198  0.915073  1
  S  S79  1  0.980077  0.733158  0.013659  1
  S  S80  1  0.979301  0.147577  0.700083  1
  S  S81  1  0.995361  0.814683  0.758364  1
