# generated using pymatgen
data_Ga5(PS)3
_symmetry_space_group_name_H-M   'P 1'
_cell_length_a   3.83125014
_cell_length_b   23.15555659
_cell_length_c   6.70375694
_cell_angle_alpha   29.71186595
_cell_angle_beta   55.14455748
_cell_angle_gamma   60.23979637
_symmetry_Int_Tables_number   1
_chemical_formula_structural   Ga5(PS)3
_chemical_formula_sum   'Ga5 P3 S3'
_cell_volume   241.88490572
_cell_formula_units_Z   1
loop_
 _symmetry_equiv_pos_site_id
 _symmetry_equiv_pos_as_xyz
  1  'x, y, z'
loop_
 _atom_site_type_symbol
 _atom_site_label
 _atom_site_symmetry_multiplicity
 _atom_site_fract_x
 _atom_site_fract_y
 _atom_site_fract_z
 _atom_site_occupancy
  Ga  Ga0  1  0.001325  0.007721  0.975514  1
  Ga  Ga1  1  0.001325  0.325612  0.021837  1
  Ga  Ga2  1  0.007051  0.666667  0.992949  1
  Ga  Ga3  1  0.004988  0.497711  0.001880  1
  Ga  Ga4  1  0.004988  0.835622  0.988144  1
  P  P5  1  0.252520  0.495203  0.261872  1
  P  P6  1  0.253444  0.666667  0.246556  1
  P  P7  1  0.252520  0.838130  0.233088  1
  S  S8  1  0.243589  0.003305  0.246496  1
  S  S9  1  0.234661  0.166667  0.265339  1
  S  S10  1  0.243589  0.330028  0.266325  1
