# generated using pymatgen
data_Ba3(Ge2C)2
_symmetry_space_group_name_H-M   'P 1'
_cell_length_a   9.85171590
_cell_length_b   9.85171643
_cell_length_c   9.85171691
_cell_angle_alpha   79.74743046
_cell_angle_beta   125.39211170
_cell_angle_gamma   126.78534027
_symmetry_Int_Tables_number   1
_chemical_formula_structural   Ba3(Ge2C)2
_chemical_formula_sum   'Ba6 Ge8 C4'
_cell_volume   603.03887184
_cell_formula_units_Z   2
loop_
 _symmetry_equiv_pos_site_id
 _symmetry_equiv_pos_as_xyz
  1  'x, y, z'
loop_
 _atom_site_type_symbol
 _atom_site_label
 _atom_site_symmetry_multiplicity
 _atom_site_fract_x
 _atom_site_fract_y
 _atom_site_fract_z
 _atom_site_occupancy
  Ba  Ba0  1  0.082181  0.769819  0.312362  1
  Ba  Ba1  1  0.000000  0.250000  0.250000  1
  Ba  Ba2  1  0.542543  0.730181  0.812362  1
  Ba  Ba3  1  0.457457  0.269819  0.187638  1
  Ba  Ba4  1  0.000000  0.750000  0.750000  1
  Ba  Ba5  1  0.917819  0.230181  0.687638  1
  Ge  Ge6  1  0.289033  0.699911  0.201027  1
  Ge  Ge7  1  0.501117  0.411995  0.701027  1
  Ge  Ge8  1  0.498883  0.199911  0.910878  1
  Ge  Ge9  1  0.289033  0.088005  0.589122  1
  Ge  Ge10  1  0.710967  0.911995  0.410878  1
  Ge  Ge11  1  0.501117  0.800089  0.089122  1
  Ge  Ge12  1  0.498883  0.588005  0.298973  1
  Ge  Ge13  1  0.710967  0.300089  0.798973  1
  C  C14  1  0.021900  0.962266  0.059635  1
  C  C15  1  0.097369  0.537734  0.559635  1
  C  C16  1  0.902631  0.462266  0.440365  1
  C  C17  1  0.978100  0.037734  0.940365  1
