# generated using pymatgen
data_Sr(H8O5)2
_symmetry_space_group_name_H-M   'P 1'
_cell_length_a   6.41597390
_cell_length_b   6.41597390
_cell_length_c   11.55066376
_cell_angle_alpha   89.82131027
_cell_angle_beta   90.17868973
_cell_angle_gamma   86.15217119
_symmetry_Int_Tables_number   1
_chemical_formula_structural   Sr(H8O5)2
_chemical_formula_sum   'Sr2 H32 O20'
_cell_volume   474.40307700
_cell_formula_units_Z   2
loop_
 _symmetry_equiv_pos_site_id
 _symmetry_equiv_pos_as_xyz
  1  'x, y, z'
loop_
 _atom_site_type_symbol
 _atom_site_label
 _atom_site_symmetry_multiplicity
 _atom_site_fract_x
 _atom_site_fract_y
 _atom_site_fract_z
 _atom_site_occupancy
  Sr  Sr0  1  0.000654  0.001888  0.241715  1
  Sr  Sr1  1  0.998112  0.999346  0.741715  1
  H  H2  1  0.271539  0.388931  0.352542  1
  H  H3  1  0.139890  0.308097  0.458295  1
  H  H4  1  0.715775  0.610798  0.351943  1
  H  H5  1  0.955810  0.566057  0.369056  1
  H  H6  1  0.635611  0.017340  0.389132  1
  H  H7  1  0.611018  0.272359  0.356342  1
  H  H8  1  0.392227  0.962856  0.348761  1
  H  H9  1  0.391484  0.709032  0.350584  1
  H  H10  1  0.727641  0.388982  0.856342  1
  H  H11  1  0.982660  0.364389  0.889132  1
  H  H12  1  0.037144  0.607773  0.848761  1
  H  H13  1  0.290968  0.608516  0.850584  1
  H  H14  1  0.433943  0.044190  0.869056  1
  H  H15  1  0.389202  0.284225  0.851943  1
  H  H16  1  0.611069  0.728461  0.852542  1
  H  H17  1  0.691903  0.860110  0.958295  1
  H  H18  1  0.856465  0.693929  0.551567  1
  H  H19  1  0.727625  0.605256  0.657992  1
  H  H20  1  0.282782  0.363551  0.639110  1
  H  H21  1  0.046818  0.447277  0.623827  1
  H  H22  1  0.384558  0.716421  0.646651  1
  H  H23  1  0.310378  0.864589  0.541255  1
  H  H24  1  0.620889  0.283392  0.649776  1
  H  H25  1  0.701155  0.151864  0.540580  1
  H  H26  1  0.283579  0.615442  0.146651  1
  H  H27  1  0.135411  0.689622  0.041255  1
  H  H28  1  0.716608  0.379111  0.149776  1
  H  H29  1  0.848136  0.298845  0.040580  1
  H  H30  1  0.552723  0.953182  0.123827  1
  H  H31  1  0.636449  0.717218  0.139110  1
  H  H32  1  0.306071  0.143535  0.051567  1
  H  H33  1  0.394744  0.272375  0.157992  1
  O  O34  1  0.496171  0.487286  0.318744  1
  O  O35  1  0.512714  0.503829  0.818744  1
  O  O36  1  0.518981  0.506145  0.689348  1
  O  O37  1  0.493855  0.481019  0.189348  1
  O  O38  1  0.136090  0.324583  0.372663  1
  O  O39  1  0.845396  0.681672  0.375632  1
  O  O40  1  0.709216  0.145470  0.381894  1
  O  O41  1  0.315378  0.847677  0.378187  1
  O  O42  1  0.854530  0.290784  0.881894  1
  O  O43  1  0.152323  0.684622  0.878187  1
  O  O44  1  0.318328  0.154604  0.875632  1
  O  O45  1  0.675417  0.863910  0.872663  1
  O  O46  1  0.869535  0.661575  0.635179  1
  O  O47  1  0.142939  0.317918  0.616730  1
  O  O48  1  0.292059  0.844668  0.624516  1
  O  O49  1  0.692381  0.144254  0.625561  1
  O  O50  1  0.155332  0.707941  0.124516  1
  O  O51  1  0.855746  0.307619  0.125561  1
  O  O52  1  0.682082  0.857061  0.116730  1
  O  O53  1  0.338425  0.130465  0.135179  1
