# generated using pymatgen
data_VHO3
_symmetry_space_group_name_H-M   'P 1'
_cell_length_a   5.11584834
_cell_length_b   8.57039439
_cell_length_c   8.29087954
_cell_angle_alpha   90.00000000
_cell_angle_beta   99.37840353
_cell_angle_gamma   90.00000000
_symmetry_Int_Tables_number   1
_chemical_formula_structural   VHO3
_chemical_formula_sum   'V6 H6 O18'
_cell_volume   358.65343868
_cell_formula_units_Z   6
loop_
 _symmetry_equiv_pos_site_id
 _symmetry_equiv_pos_as_xyz
  1  'x, y, z'
loop_
 _atom_site_type_symbol
 _atom_site_label
 _atom_site_symmetry_multiplicity
 _atom_site_fract_x
 _atom_site_fract_y
 _atom_site_fract_z
 _atom_site_occupancy
  V  V0  1  0.454459  0.445783  0.177685  1
  V  V1  1  0.545541  0.945783  0.822314  1
  V  V2  1  0.558097  0.555938  0.827015  1
  V  V3  1  0.441903  0.055938  0.172985  1
  V  V4  1  0.929642  0.246240  0.070826  1
  V  V5  1  0.070358  0.746240  0.929174  1
  H  H6  1  0.780625  0.631102  0.367536  1
  H  H7  1  0.219375  0.131102  0.632464  1
  H  H8  1  0.831602  0.222093  0.564427  1
  H  H9  1  0.073790  0.340491  0.601123  1
  H  H10  1  0.168398  0.722093  0.435573  1
  H  H11  1  0.926210  0.840491  0.398877  1
  O  O12  1  0.677252  0.412379  0.009495  1
  O  O13  1  0.322748  0.912379  0.990505  1
  O  O14  1  0.331143  0.592333  0.999572  1
  O  O15  1  0.668857  0.092333  0.000428  1
  O  O16  1  0.133879  0.404347  0.209966  1
  O  O17  1  0.866121  0.904347  0.790034  1
  O  O18  1  0.883712  0.600088  0.786106  1
  O  O19  1  0.116288  0.100088  0.213894  1
  O  O20  1  0.584376  0.251684  0.243722  1
  O  O21  1  0.415624  0.751684  0.756278  1
  O  O22  1  0.105955  0.247295  0.924774  1
  O  O23  1  0.894045  0.747295  0.075226  1
  O  O24  1  0.598908  0.565653  0.332083  1
  O  O25  1  0.401092  0.065653  0.667917  1
  O  O26  1  0.421660  0.440424  0.682700  1
  O  O27  1  0.578340  0.940424  0.317300  1
  O  O28  1  0.019180  0.235211  0.561109  1
  O  O29  1  0.980820  0.735211  0.438891  1
