# generated using pymatgen
data_Tl2S
_symmetry_space_group_name_H-M   'P 1'
_cell_length_a   9.69436378
_cell_length_b   9.69436378
_cell_length_c   9.69436379
_cell_angle_alpha   81.51809147
_cell_angle_beta   81.51809148
_cell_angle_gamma   81.51809149
_symmetry_Int_Tables_number   1
_chemical_formula_structural   Tl2S
_chemical_formula_sum   'Tl18 S9'
_cell_volume   883.86861323
_cell_formula_units_Z   9
loop_
 _symmetry_equiv_pos_site_id
 _symmetry_equiv_pos_as_xyz
  1  'x, y, z'
loop_
 _atom_site_type_symbol
 _atom_site_label
 _atom_site_symmetry_multiplicity
 _atom_site_fract_x
 _atom_site_fract_y
 _atom_site_fract_z
 _atom_site_occupancy
  S  S0  1  0.317234  0.656867  0.988491  1
  S  S1  1  0.656867  0.988491  0.317234  1
  S  S2  1  0.988491  0.317234  0.656867  1
  S  S3  1  0.679858  0.353463  0.017953  1
  S  S4  1  0.353463  0.017953  0.679858  1
  S  S5  1  0.017953  0.679858  0.353463  1
  S  S6  1  0.648753  0.648753  0.648753  1
  S  S7  1  0.315917  0.315917  0.315917  1
  S  S8  1  0.023683  0.023683  0.023683  1
  Tl  Tl9  1  0.330830  0.967171  0.988499  1
  Tl  Tl10  1  0.988499  0.330830  0.967171  1
  Tl  Tl11  1  0.967171  0.988499  0.330830  1
  Tl  Tl12  1  0.626016  0.298108  0.323065  1
  Tl  Tl13  1  0.323065  0.626016  0.298108  1
  Tl  Tl14  1  0.298108  0.323065  0.626016  1
  Tl  Tl15  1  0.959214  0.628618  0.658530  1
  Tl  Tl16  1  0.658530  0.959214  0.628618  1
  Tl  Tl17  1  0.628618  0.658530  0.959214  1
  Tl  Tl18  1  0.679455  0.340980  0.706432  1
  Tl  Tl19  1  0.340980  0.706432  0.679455  1
  Tl  Tl20  1  0.706432  0.679455  0.340980  1
  Tl  Tl21  1  0.348739  0.008995  0.370388  1
  Tl  Tl22  1  0.008995  0.370388  0.348739  1
  Tl  Tl23  1  0.370388  0.348739  0.008995  1
  Tl  Tl24  1  0.012556  0.713316  0.042467  1
  Tl  Tl25  1  0.713316  0.042467  0.012556  1
  Tl  Tl26  1  0.042467  0.012556  0.713316  1
