# generated using pymatgen
data_K2H4PtC6S6(N3O)2
_symmetry_space_group_name_H-M   'P 1'
_cell_length_a   7.41415234
_cell_length_b   11.32209066
_cell_length_c   11.46663283
_cell_angle_alpha   90.00000000
_cell_angle_beta   99.83991792
_cell_angle_gamma   90.00000000
_symmetry_Int_Tables_number   1
_chemical_formula_structural   K2H4PtC6S6(N3O)2
_chemical_formula_sum   'K4 H8 Pt2 C12 S12 N12 O4'
_cell_volume   948.39161804
_cell_formula_units_Z   2
loop_
 _symmetry_equiv_pos_site_id
 _symmetry_equiv_pos_as_xyz
  1  'x, y, z'
loop_
 _atom_site_type_symbol
 _atom_site_label
 _atom_site_symmetry_multiplicity
 _atom_site_fract_x
 _atom_site_fract_y
 _atom_site_fract_z
 _atom_site_occupancy
  K  K0  1  0.106346  0.346857  0.499993  1
  K  K1  1  0.393654  0.846857  0.500007  1
  K  K2  1  0.893654  0.653143  0.500007  1
  K  K3  1  0.606346  0.153143  0.499993  1
  H  H4  1  0.622035  0.408771  0.450428  1
  H  H5  1  0.877965  0.908771  0.549572  1
  H  H6  1  0.377965  0.591229  0.549572  1
  H  H7  1  0.122035  0.091229  0.450428  1
  H  H8  1  0.699119  0.423346  0.584263  1
  H  H9  1  0.800881  0.923346  0.415737  1
  H  H10  1  0.300881  0.576654  0.415737  1
  H  H11  1  0.199119  0.076654  0.584263  1
  Pt  Pt12  1  0.500000  0.500000  0.000000  1
  Pt  Pt13  1  0.000000  0.000000  0.000000  1
  C  C14  1  0.436231  0.324563  0.766224  1
  C  C15  1  0.063769  0.824563  0.233776  1
  C  C16  1  0.563769  0.675437  0.233776  1
  C  C17  1  0.936231  0.175437  0.766224  1
  C  C18  1  0.345363  0.406508  0.238572  1
  C  C19  1  0.154637  0.906508  0.761428  1
  C  C20  1  0.654637  0.593492  0.761428  1
  C  C21  1  0.845363  0.093492  0.238572  1
  C  C22  1  0.830945  0.440537  0.220524  1
  C  C23  1  0.669055  0.940537  0.779476  1
  C  C24  1  0.169055  0.559463  0.779476  1
  C  C25  1  0.330945  0.059463  0.220524  1
  S  S26  1  0.375514  0.320962  0.898696  1
  S  S27  1  0.124486  0.820962  0.101304  1
  S  S28  1  0.624486  0.679038  0.101304  1
  S  S29  1  0.875514  0.179038  0.898696  1
  S  S30  1  0.256254  0.479240  0.117003  1
  S  S31  1  0.243746  0.979240  0.882997  1
  S  S32  1  0.743746  0.520760  0.882997  1
  S  S33  1  0.756254  0.020760  0.117003  1
  S  S34  1  0.707602  0.361177  0.114087  1
  S  S35  1  0.792398  0.861177  0.885913  1
  S  S36  1  0.292398  0.638823  0.885913  1
  S  S37  1  0.207602  0.138823  0.114087  1
  N  N38  1  0.469958  0.320462  0.669595  1
  N  N39  1  0.030042  0.820462  0.330405  1
  N  N40  1  0.530042  0.679538  0.330405  1
  N  N41  1  0.969958  0.179538  0.669595  1
  N  N42  1  0.398604  0.356827  0.328485  1
  N  N43  1  0.101396  0.856827  0.671515  1
  N  N44  1  0.601396  0.643173  0.671515  1
  N  N45  1  0.898604  0.143173  0.328485  1
  N  N46  1  0.924826  0.490000  0.299001  1
  N  N47  1  0.575174  0.990000  0.700999  1
  N  N48  1  0.075174  0.510000  0.700999  1
  N  N49  1  0.424826  0.010000  0.299001  1
  O  O50  1  0.737022  0.413439  0.507425  1
  O  O51  1  0.762978  0.913439  0.492575  1
  O  O52  1  0.262978  0.586561  0.492575  1
  O  O53  1  0.237022  0.086561  0.507425  1
