# generated using pymatgen
data_BaH2Cl2O
_symmetry_space_group_name_H-M   'P 1'
_cell_length_a   11.13672828
_cell_length_b   4.65137119
_cell_length_c   9.09294173
_cell_angle_alpha   90.00000000
_cell_angle_beta   90.00000000
_cell_angle_gamma   90.00000000
_symmetry_Int_Tables_number   1
_chemical_formula_structural   BaH2Cl2O
_chemical_formula_sum   'Ba4 H8 Cl8 O4'
_cell_volume   471.02399351
_cell_formula_units_Z   4
loop_
 _symmetry_equiv_pos_site_id
 _symmetry_equiv_pos_as_xyz
  1  'x, y, z'
loop_
 _atom_site_type_symbol
 _atom_site_label
 _atom_site_symmetry_multiplicity
 _atom_site_fract_x
 _atom_site_fract_y
 _atom_site_fract_z
 _atom_site_occupancy
  Ba  Ba0  1  0.687113  0.250000  0.393479  1
  Ba  Ba1  1  0.187113  0.250000  0.106521  1
  Ba  Ba2  1  0.312887  0.750000  0.606521  1
  Ba  Ba3  1  0.812887  0.750000  0.893479  1
  H  H4  1  0.901801  0.750000  0.335578  1
  H  H5  1  0.401801  0.750000  0.164422  1
  H  H6  1  0.098199  0.250000  0.664422  1
  H  H7  1  0.598199  0.250000  0.835578  1
  H  H8  1  0.869293  0.750000  0.499502  1
  H  H9  1  0.369293  0.750000  0.000498  1
  H  H10  1  0.130707  0.250000  0.500498  1
  H  H11  1  0.630707  0.250000  -0.000498  1
  Cl  Cl12  1  0.602066  0.750000  0.622691  1
  Cl  Cl13  1  0.102066  0.750000  0.877309  1
  Cl  Cl14  1  0.397934  0.250000  0.377309  1
  Cl  Cl15  1  0.897934  0.250000  0.122691  1
  Cl  Cl16  1  0.618369  0.750000  0.162893  1
  Cl  Cl17  1  0.118369  0.750000  0.337107  1
  Cl  Cl18  1  0.381631  0.250000  0.837107  1
  Cl  Cl19  1  0.881631  0.250000  0.662893  1
  O  O20  1  0.832360  0.750000  0.401662  1
  O  O21  1  0.332360  0.750000  0.098338  1
  O  O22  1  0.167640  0.250000  0.598338  1
  O  O23  1  0.667640  0.250000  0.901662  1
