# generated using pymatgen
data_Rb2V(PO4)2
_symmetry_space_group_name_H-M   'P 1'
_cell_length_a   7.38377525
_cell_length_b   9.25889278
_cell_length_c   14.19278683
_cell_angle_alpha   89.99905777
_cell_angle_beta   90.00001054
_cell_angle_gamma   90.00003519
_symmetry_Int_Tables_number   1
_chemical_formula_structural   Rb2V(PO4)2
_chemical_formula_sum   'Rb8 V4 P8 O32'
_cell_volume   970.29815095
_cell_formula_units_Z   4
loop_
 _symmetry_equiv_pos_site_id
 _symmetry_equiv_pos_as_xyz
  1  'x, y, z'
loop_
 _atom_site_type_symbol
 _atom_site_label
 _atom_site_symmetry_multiplicity
 _atom_site_fract_x
 _atom_site_fract_y
 _atom_site_fract_z
 _atom_site_occupancy
  Rb  Rb0  1  0.750000  0.079035  0.594902  1
  Rb  Rb1  1  0.750003  0.633156  0.454277  1
  Rb  Rb2  1  0.750000  0.420975  0.094902  1
  Rb  Rb3  1  0.249995  0.366847  0.545722  1
  Rb  Rb4  1  0.249999  0.579025  0.905101  1
  Rb  Rb5  1  0.249997  0.133140  0.045718  1
  Rb  Rb6  1  0.750003  0.866859  0.954274  1
  Rb  Rb7  1  0.249999  0.920979  0.405098  1
  V  V8  1  0.749998  0.499450  0.704299  1
  V  V9  1  0.250001  0.999432  0.795701  1
  V  V10  1  0.250002  0.500545  0.295693  1
  V  V11  1  0.749999  0.000537  0.204313  1
  P  P12  1  0.449916  0.727987  0.151134  1
  P  P13  1  0.550093  0.272039  0.848872  1
  P  P14  1  0.050084  0.727987  0.151134  1
  P  P15  1  0.550093  0.227964  0.348870  1
  P  P16  1  0.949908  0.272039  0.848872  1
  P  P17  1  0.449914  0.772009  0.651128  1
  P  P18  1  0.949908  0.227963  0.348870  1
  P  P19  1  0.050086  0.772009  0.651128  1
  O  O20  1  0.998890  0.815293  0.552416  1
  O  O21  1  0.750000  0.414676  0.601158  1
  O  O22  1  0.562707  0.096600  0.281531  1
  O  O23  1  0.567545  0.655157  0.696406  1
  O  O24  1  0.932456  0.844843  0.196415  1
  O  O25  1  0.067563  0.155137  0.803590  1
  O  O26  1  0.501110  0.684718  0.052420  1
  O  O27  1  0.062711  0.596594  0.218474  1
  O  O28  1  0.562713  0.403401  0.781531  1
  O  O29  1  0.749999  0.305610  0.348521  1
  O  O30  1  0.998890  0.684718  0.052418  1
  O  O31  1  0.750000  0.194391  0.848523  1
  O  O32  1  0.437300  0.903401  0.718471  1
  O  O33  1  0.501110  0.815293  0.552417  1
  O  O34  1  0.937288  0.403402  0.781532  1
  O  O35  1  0.250000  0.805612  0.151483  1
  O  O36  1  0.250000  0.585330  0.398835  1
  O  O37  1  0.067557  0.344858  0.303593  1
  O  O38  1  0.937291  0.096600  0.281530  1
  O  O39  1  0.432437  0.155138  0.803590  1
  O  O40  1  0.062700  0.903402  0.718471  1
  O  O41  1  0.498893  0.184712  0.447583  1
  O  O42  1  0.250000  0.914678  0.898816  1
  O  O43  1  0.932455  0.655157  0.696406  1
  O  O44  1  0.437289  0.596595  0.218475  1
  O  O45  1  0.250001  0.694398  0.651482  1
  O  O46  1  0.001107  0.315286  0.947580  1
  O  O47  1  0.001107  0.184712  0.447583  1
  O  O48  1  0.567544  0.844842  0.196414  1
  O  O49  1  0.498892  0.315286  0.947581  1
  O  O50  1  0.432444  0.344857  0.303593  1
  O  O51  1  0.750001  0.085327  0.101153  1
