# generated using pymatgen
data_Na3LiMg4(Si2O5)6
_symmetry_space_group_name_H-M   'P 1'
_cell_length_a   10.19071297
_cell_length_b   10.11172253
_cell_length_c   14.66865911
_cell_angle_alpha   90.00000000
_cell_angle_beta   90.00000000
_cell_angle_gamma   119.74392120
_symmetry_Int_Tables_number   1
_chemical_formula_structural   Na3LiMg4(Si2O5)6
_chemical_formula_sum   'Na6 Li2 Mg8 Si24 O60'
_cell_volume   1312.39827111
_cell_formula_units_Z   2
loop_
 _symmetry_equiv_pos_site_id
 _symmetry_equiv_pos_as_xyz
  1  'x, y, z'
loop_
 _atom_site_type_symbol
 _atom_site_label
 _atom_site_symmetry_multiplicity
 _atom_site_fract_x
 _atom_site_fract_y
 _atom_site_fract_z
 _atom_site_occupancy
  Na  Na0  1  0.000000  0.000000  0.026889  1
  Na  Na1  1  0.324094  0.710665  0.534340  1
  Na  Na2  1  0.324094  0.613430  0.034340  1
  Na  Na3  1  0.675906  0.386570  0.034340  1
  Na  Na4  1  0.675906  0.289335  0.534340  1
  Na  Na5  1  0.000000  0.000000  0.526889  1
  Li  Li6  1  0.500000  0.000000  0.752670  1
  Li  Li7  1  0.500000  0.500000  0.252670  1
  Mg  Mg8  1  0.000000  0.500000  0.757306  1
  Mg  Mg9  1  0.500000  0.000000  0.247532  1
  Mg  Mg10  1  0.350004  0.663383  0.262100  1
  Mg  Mg11  1  0.350004  0.686622  0.762100  1
  Mg  Mg12  1  0.500000  0.500000  0.747532  1
  Mg  Mg13  1  0.649996  0.336617  0.262100  1
  Mg  Mg14  1  0.649996  0.313378  0.762100  1
  Mg  Mg15  1  0.000000  0.500000  0.257306  1
  Si  Si16  1  0.252390  0.887712  0.106434  1
  Si  Si17  1  0.265767  0.902922  0.907737  1
  Si  Si18  1  0.021213  0.893641  0.320967  1
  Si  Si19  1  0.067841  0.806720  0.685659  1
  Si  Si20  1  0.265767  0.362845  0.407737  1
  Si  Si21  1  0.252390  0.364678  0.606434  1
  Si  Si22  1  0.067841  0.261121  0.185659  1
  Si  Si23  1  0.021213  0.127573  0.820967  1
  Si  Si24  1  0.636928  0.753003  0.111907  1
  Si  Si25  1  0.641078  0.754297  0.901557  1
  Si  Si26  1  0.358922  0.113220  0.401557  1
  Si  Si27  1  0.363072  0.116075  0.611907  1
  Si  Si28  1  0.641078  0.886780  0.401557  1
  Si  Si29  1  0.636928  0.883925  0.611907  1
  Si  Si30  1  0.358922  0.245703  0.901557  1
  Si  Si31  1  0.363072  0.246997  0.111907  1
  Si  Si32  1  0.932159  0.738879  0.185659  1
  Si  Si33  1  0.978787  0.872427  0.820967  1
  Si  Si34  1  0.734233  0.637155  0.407737  1
  Si  Si35  1  0.747610  0.635322  0.606434  1
  Si  Si36  1  0.978787  0.106359  0.320967  1
  Si  Si37  1  0.932159  0.193280  0.685659  1
  Si  Si38  1  0.747610  0.112288  0.106434  1
  Si  Si39  1  0.734233  0.097078  0.907737  1
  O  O40  1  0.071455  0.836413  0.110998  1
  O  O41  1  0.088130  0.869478  0.904619  1
  O  O42  1  0.196025  0.974528  0.363844  1
  O  O43  1  0.200391  0.975687  0.647799  1
  O  O44  1  0.141229  0.658748  0.426166  1
  O  O45  1  0.164066  0.650089  0.336674  1
  O  O46  1  0.120348  0.680130  0.684493  1
  O  O47  1  0.277906  0.829279  0.006489  1
  O  O48  1  0.328155  0.848267  0.825640  1
  O  O49  1  0.320048  0.825910  0.184282  1
  O  O50  1  0.120348  0.440219  0.184493  1
  O  O51  1  0.164066  0.513977  0.836674  1
  O  O52  1  0.088130  0.218652  0.404619  1
  O  O53  1  0.071455  0.235042  0.610998  1
  O  O54  1  0.141229  0.482481  0.926166  1
  O  O55  1  0.277906  0.448627  0.506489  1
  O  O56  1  0.200391  0.224704  0.147799  1
  O  O57  1  0.196025  0.221497  0.863844  1
  O  O58  1  0.328155  0.479889  0.325640  1
  O  O59  1  0.320048  0.494138  0.684282  1
  O  O60  1  0.506503  0.854171  0.331931  1
  O  O61  1  0.487635  0.841503  0.669068  1
  O  O62  1  0.361861  0.273779  0.416916  1
  O  O63  1  0.342647  0.268246  0.611754  1
  O  O64  1  0.614035  0.930360  0.506428  1
  O  O65  1  0.487635  0.646133  0.169068  1
  O  O66  1  0.506503  0.652331  0.831931  1
  O  O67  1  0.614035  0.683675  0.006428  1
  O  O68  1  0.342647  0.074401  0.111754  1
  O  O69  1  0.361861  0.088082  0.916916  1
  O  O70  1  0.657353  0.925599  0.111754  1
  O  O71  1  0.638139  0.911918  0.916916  1
  O  O72  1  0.385965  0.316325  0.006428  1
  O  O73  1  0.512365  0.353867  0.169068  1
  O  O74  1  0.493497  0.347669  0.831931  1
  O  O75  1  0.385965  0.069640  0.506428  1
  O  O76  1  0.638139  0.726221  0.416916  1
  O  O77  1  0.657353  0.731754  0.611754  1
  O  O78  1  0.493497  0.145829  0.331931  1
  O  O79  1  0.512365  0.158497  0.669068  1
  O  O80  1  0.671845  0.520111  0.325640  1
  O  O81  1  0.679952  0.505862  0.684282  1
  O  O82  1  0.799609  0.775296  0.147799  1
  O  O83  1  0.803975  0.778503  0.863844  1
  O  O84  1  0.722094  0.551373  0.506489  1
  O  O85  1  0.858771  0.517519  0.926166  1
  O  O86  1  0.911870  0.781348  0.404619  1
  O  O87  1  0.928545  0.764958  0.610998  1
  O  O88  1  0.879652  0.559781  0.184493  1
  O  O89  1  0.835934  0.486023  0.836674  1
  O  O90  1  0.671845  0.151733  0.825640  1
  O  O91  1  0.679952  0.174090  0.184282  1
  O  O92  1  0.722094  0.170721  0.006489  1
  O  O93  1  0.835934  0.349911  0.336674  1
  O  O94  1  0.879652  0.319870  0.684493  1
  O  O95  1  0.858771  0.341252  0.426166  1
  O  O96  1  0.803975  0.025472  0.363844  1
  O  O97  1  0.799609  0.024313  0.647799  1
  O  O98  1  0.928545  0.163587  0.110998  1
  O  O99  1  0.911870  0.130522  0.904619  1
