# generated using pymatgen
data_PRuC4(OF)3
_symmetry_space_group_name_H-M   'P 1'
_cell_length_a   10.49311358
_cell_length_b   10.62032561
_cell_length_c   28.98008911
_cell_angle_alpha   90.00000000
_cell_angle_beta   90.00501856
_cell_angle_gamma   90.00000000
_symmetry_Int_Tables_number   1
_chemical_formula_structural   PRuC4(OF)3
_chemical_formula_sum   'P16 Ru16 C64 O48 F48'
_cell_volume   3229.54931576
_cell_formula_units_Z   16
loop_
 _symmetry_equiv_pos_site_id
 _symmetry_equiv_pos_as_xyz
  1  'x, y, z'
loop_
 _atom_site_type_symbol
 _atom_site_label
 _atom_site_symmetry_multiplicity
 _atom_site_fract_x
 _atom_site_fract_y
 _atom_site_fract_z
 _atom_site_occupancy
  P  P0  1  0.711089  0.099786  0.347445  1
  P  P1  1  0.288911  0.599786  0.152555  1
  P  P2  1  0.628540  0.216695  0.916288  1
  P  P3  1  0.711089  0.400214  0.847445  1
  P  P4  1  0.371460  0.783305  0.083712  1
  P  P5  1  0.901390  0.233031  0.402974  1
  P  P6  1  0.288911  0.900214  0.652555  1
  P  P7  1  0.758670  0.131542  0.832177  1
  P  P8  1  0.241330  0.868458  0.167823  1
  P  P9  1  0.628540  0.283305  0.416288  1
  P  P10  1  0.901390  0.266969  0.902974  1
  P  P11  1  0.371460  0.716695  0.583712  1
  P  P12  1  0.758670  0.368458  0.332177  1
  P  P13  1  0.241330  0.631542  0.667823  1
  P  P14  1  0.098610  0.733031  0.097026  1
  P  P15  1  0.098610  0.766969  0.597026  1
  Ru  Ru16  1  0.551114  0.236547  0.836806  1
  Ru  Ru17  1  0.739721  0.084308  0.430874  1
  Ru  Ru18  1  0.800910  0.440107  0.410740  1
  Ru  Ru19  1  0.199090  0.559893  0.589260  1
  Ru  Ru20  1  0.448886  0.763453  0.163194  1
  Ru  Ru21  1  0.199090  0.940107  0.089260  1
  Ru  Ru22  1  0.092278  0.805720  0.680220  1
  Ru  Ru23  1  0.739721  0.415692  0.930874  1
  Ru  Ru24  1  0.907722  0.305720  0.819780  1
  Ru  Ru25  1  0.448886  0.736547  0.663194  1
  Ru  Ru26  1  0.260279  0.915692  0.569126  1
  Ru  Ru27  1  0.092278  0.694280  0.180220  1
  Ru  Ru28  1  0.800910  0.059893  0.910740  1
  Ru  Ru29  1  0.260279  0.584308  0.069126  1
  Ru  Ru30  1  0.907722  0.194280  0.319780  1
  Ru  Ru31  1  0.551114  0.263453  0.336806  1
  C  C32  1  0.227269  0.620727  0.004262  1
  C  C33  1  0.548931  0.917916  0.161047  1
  C  C34  1  0.541080  0.261449  0.770508  1
  C  C35  1  0.046876  0.466529  0.606728  1
  C  C36  1  0.498791  0.317478  0.459988  1
  C  C37  1  0.827706  0.049269  0.977169  1
  C  C38  1  0.451069  0.082084  0.838954  1
  C  C39  1  0.590781  0.653102  0.149520  1
  C  C40  1  0.153029  0.064284  0.572391  1
  C  C41  1  0.501209  0.682522  0.540012  1
  C  C42  1  0.329936  0.054496  0.681131  1
  C  C43  1  0.865934  0.324663  0.754611  1
  C  C44  1  0.583124  0.509500  0.940494  1
  C  C45  1  0.056368  0.296924  0.308775  1
  C  C46  1  0.943632  0.796924  0.191225  1
  C  C47  1  0.451069  0.417916  0.338954  1
  C  C48  1  0.937649  0.778868  0.567866  1
  C  C49  1  0.688285  0.585209  0.407464  1
  C  C50  1  0.590781  0.846898  0.649520  1
  C  C51  1  0.953124  0.966529  0.893272  1
  C  C52  1  0.943632  0.703076  0.691225  1
  C  C53  1  0.541080  0.238551  0.270508  1
  C  C54  1  0.416876  0.490500  0.059506  1
  C  C55  1  0.458920  0.761449  0.729492  1
  C  C56  1  0.670064  0.554496  0.818869  1
  C  C57  1  0.765222  0.001478  0.787792  1
  C  C58  1  0.846971  0.564284  0.927609  1
  C  C59  1  0.227269  0.879273  0.504262  1
  C  C60  1  0.548931  0.582084  0.661046  1
  C  C61  1  0.688285  0.914791  0.907464  1
  C  C62  1  0.498791  0.182522  0.959988  1
  C  C63  1  0.409219  0.153102  0.350480  1
  C  C64  1  0.772731  0.120727  0.495738  1
  C  C65  1  0.583124  0.990500  0.440494  1
  C  C66  1  0.062351  0.278868  0.932134  1
  C  C67  1  0.153029  0.435716  0.072391  1
  C  C68  1  0.670064  0.945504  0.318869  1
  C  C69  1  0.997749  0.962854  0.675015  1
  C  C70  1  0.458920  0.738551  0.229492  1
  C  C71  1  0.234778  0.501478  0.712208  1
  C  C72  1  0.134066  0.824663  0.745389  1
  C  C73  1  0.765222  0.498522  0.287792  1
  C  C74  1  0.846971  0.935716  0.427609  1
  C  C75  1  0.046876  0.033471  0.106728  1
  C  C76  1  0.134066  0.675337  0.245389  1
  C  C77  1  0.056368  0.203076  0.808775  1
  C  C78  1  0.311715  0.085209  0.092536  1
  C  C79  1  0.172294  0.950731  0.022831  1
  C  C80  1  0.997749  0.537146  0.175015  1
  C  C81  1  0.002251  0.462854  0.824985  1
  C  C82  1  0.501209  0.817478  0.040012  1
  C  C83  1  0.002251  0.037146  0.324985  1
  C  C84  1  0.416876  0.009500  0.559506  1
  C  C85  1  0.827706  0.450731  0.477169  1
  C  C86  1  0.062351  0.221132  0.432134  1
  C  C87  1  0.772731  0.379273  0.995738  1
  C  C88  1  0.311715  0.414791  0.592536  1
  C  C89  1  0.953124  0.533471  0.393272  1
  C  C90  1  0.865934  0.175337  0.254611  1
  C  C91  1  0.234778  0.998522  0.212208  1
  C  C92  1  0.409219  0.346898  0.850480  1
  C  C93  1  0.172294  0.549269  0.522831  1
  C  C94  1  0.937649  0.721132  0.067866  1
  C  C95  1  0.329936  0.445504  0.181131  1
  O  O96  1  0.043772  0.587123  0.382215  1
  O  O97  1  0.056467  0.943079  0.328767  1
  O  O98  1  0.043772  0.912877  0.882215  1
  O  O99  1  0.839232  0.164759  0.216169  1
  O  O100  1  0.325014  0.085705  0.357471  1
  O  O101  1  0.620064  0.829422  0.906550  1
  O  O102  1  0.792805  0.353778  0.033771  1
  O  O103  1  0.909725  0.653338  0.924583  1
  O  O104  1  0.458234  0.721749  0.268845  1
  O  O105  1  0.147123  0.355521  0.301600  1
  O  O106  1  0.147123  0.144479  0.801600  1
  O  O107  1  0.207195  0.646222  0.966229  1
  O  O108  1  0.852877  0.644479  0.698400  1
  O  O109  1  0.541766  0.278251  0.731155  1
  O  O110  1  0.325014  0.414295  0.857471  1
  O  O111  1  0.056467  0.556921  0.828767  1
  O  O112  1  0.607223  0.490308  0.658699  1
  O  O113  1  0.841988  0.044578  0.016692  1
  O  O114  1  0.379936  0.170578  0.093450  1
  O  O115  1  0.792805  0.146222  0.533771  1
  O  O116  1  0.158012  0.955422  0.983308  1
  O  O117  1  0.909725  0.846662  0.424583  1
  O  O118  1  0.090275  0.346662  0.075417  1
  O  O119  1  0.607223  0.009692  0.158699  1
  O  O120  1  0.160768  0.664759  0.283831  1
  O  O121  1  0.379936  0.329422  0.593450  1
  O  O122  1  0.207195  0.853778  0.466229  1
  O  O123  1  0.956228  0.412877  0.617785  1
  O  O124  1  0.943533  0.056921  0.671233  1
  O  O125  1  0.158012  0.544578  0.483308  1
  O  O126  1  0.852877  0.855521  0.198400  1
  O  O127  1  0.489061  0.564342  0.945538  1
  O  O128  1  0.090275  0.153338  0.575417  1
  O  O129  1  0.943533  0.443079  0.171233  1
  O  O130  1  0.841988  0.455422  0.516692  1
  O  O131  1  0.620064  0.670578  0.406550  1
  O  O132  1  0.510939  0.064342  0.554462  1
  O  O133  1  0.392777  0.990308  0.841301  1
  O  O134  1  0.839232  0.335241  0.716169  1
  O  O135  1  0.489061  0.935658  0.445538  1
  O  O136  1  0.392777  0.509692  0.341301  1
  O  O137  1  0.510939  0.435658  0.054462  1
  O  O138  1  0.160768  0.835241  0.783831  1
  O  O139  1  0.956228  0.087123  0.117785  1
  O  O140  1  0.674986  0.585705  0.142529  1
  O  O141  1  0.674986  0.914295  0.642529  1
  O  O142  1  0.541766  0.221749  0.231155  1
  O  O143  1  0.458234  0.778251  0.768845  1
  F  F144  1  0.590595  0.723132  0.038283  1
  F  F145  1  0.547069  0.330079  0.503520  1
  F  F146  1  0.547069  0.169921  0.003520  1
  F  F147  1  0.234636  0.141587  0.675948  1
  F  F148  1  0.684599  0.905431  0.799304  1
  F  F149  1  0.234636  0.358413  0.175948  1
  F  F150  1  0.350244  0.459202  0.227651  1
  F  F151  1  0.315401  0.094569  0.200696  1
  F  F152  1  0.114993  0.450602  0.716914  1
  F  F153  1  0.111255  0.101896  0.429909  1
  F  F154  1  0.730153  0.042429  0.744879  1
  F  F155  1  0.849303  0.699841  0.587055  1
  F  F156  1  0.649756  0.959202  0.272349  1
  F  F157  1  0.849303  0.800159  0.087055  1
  F  F158  1  0.730153  0.457571  0.244879  1
  F  F159  1  0.150697  0.199841  0.912945  1
  F  F160  1  0.111255  0.398104  0.929909  1
  F  F161  1  0.885007  0.950602  0.783086  1
  F  F162  1  0.437983  0.394671  0.162806  1
  F  F163  1  0.765364  0.858413  0.324052  1
  F  F164  1  0.565515  0.574181  0.550149  1
  F  F165  1  0.885007  0.549398  0.283086  1
  F  F166  1  0.150697  0.300159  0.412945  1
  F  F167  1  0.269847  0.542429  0.755121  1
  F  F168  1  0.765364  0.641587  0.824052  1
  F  F169  1  0.054003  0.252013  0.477986  1
  F  F170  1  0.452931  0.669921  0.496480  1
  F  F171  1  0.562017  0.894671  0.337194  1
  F  F172  1  0.590595  0.776868  0.538283  1
  F  F173  1  0.269847  0.957571  0.255121  1
  F  F174  1  0.114993  0.049398  0.216914  1
  F  F175  1  0.350244  0.040798  0.727651  1
  F  F176  1  0.054003  0.247987  0.977986  1
  F  F177  1  0.409405  0.223132  0.461717  1
  F  F178  1  0.945997  0.747987  0.522014  1
  F  F179  1  0.888745  0.601896  0.070091  1
  F  F180  1  0.888745  0.898104  0.570091  1
  F  F181  1  0.315401  0.405431  0.700696  1
  F  F182  1  0.945997  0.752013  0.022014  1
  F  F183  1  0.434485  0.074181  0.949851  1
  F  F184  1  0.562017  0.605329  0.837194  1
  F  F185  1  0.409405  0.276868  0.961717  1
  F  F186  1  0.437983  0.105329  0.662806  1
  F  F187  1  0.684599  0.594569  0.299304  1
  F  F188  1  0.434485  0.425819  0.449851  1
  F  F189  1  0.565515  0.925819  0.050149  1
  F  F190  1  0.649756  0.540798  0.772349  1
  F  F191  1  0.452931  0.830079  0.996480  1
