# generated using pymatgen
data_MgTiNb2(PbO3)4
_symmetry_space_group_name_H-M   'P 1'
_cell_length_a   8.05959695
_cell_length_b   8.30192351
_cell_length_c   10.12039147
_cell_angle_alpha   64.79452069
_cell_angle_beta   66.33432128
_cell_angle_gamma   89.85212509
_symmetry_Int_Tables_number   1
_chemical_formula_structural   MgTiNb2(PbO3)4
_chemical_formula_sum   'Mg2 Ti2 Nb4 Pb8 O24'
_cell_volume   549.45466334
_cell_formula_units_Z   2
loop_
 _symmetry_equiv_pos_site_id
 _symmetry_equiv_pos_as_xyz
  1  'x, y, z'
loop_
 _atom_site_type_symbol
 _atom_site_label
 _atom_site_symmetry_multiplicity
 _atom_site_fract_x
 _atom_site_fract_y
 _atom_site_fract_z
 _atom_site_occupancy
  Mg  Mg0  1  0.126650  0.627641  0.262006  1
  Mg  Mg1  1  0.378281  0.380109  0.758289  1
  Ti  Ti2  1  0.627076  0.123521  0.252189  1
  Ti  Ti3  1  0.874208  0.870699  0.757042  1
  Nb  Nb4  1  0.124196  0.133269  0.258349  1
  Nb  Nb5  1  0.628993  0.621733  0.256765  1
  Nb  Nb6  1  0.375891  0.889700  0.754084  1
  Nb  Nb7  1  0.877712  0.368226  0.759959  1
  Pb  Pb8  1  0.020273  0.976574  0.998222  1
  Pb  Pb9  1  0.019614  0.499651  0.980757  1
  Pb  Pb10  1  0.487994  0.980398  0.995393  1
  Pb  Pb11  1  0.504573  0.501212  0.981201  1
  Pb  Pb12  1  0.252780  0.246620  0.485562  1
  Pb  Pb13  1  0.265500  0.733674  0.487915  1
  Pb  Pb14  1  0.761555  0.244658  0.489973  1
  Pb  Pb15  1  0.751256  0.730914  0.490031  1
  O  O16  1  0.245535  0.264312  0.027667  1
  O  O17  1  0.254042  0.778984  0.011283  1
  O  O18  1  0.114470  0.361918  0.294002  1
  O  O19  1  0.119592  0.889107  0.283876  1
  O  O20  1  0.371045  0.135272  0.282612  1
  O  O21  1  0.378351  0.649704  0.270994  1
  O  O22  1  0.107960  0.394017  0.784147  1
  O  O23  1  0.118478  0.888007  0.773160  1
  O  O24  1  0.744755  0.265993  0.029083  1
  O  O25  1  0.751568  0.773105  0.017417  1
  O  O26  1  0.503245  0.020575  0.516897  1
  O  O27  1  0.622578  0.384288  0.273792  1
  O  O28  1  0.506919  0.533333  0.505792  1
  O  O29  1  0.375614  0.124073  0.773958  1
  O  O30  1  0.623254  0.896565  0.270875  1
  O  O31  1  0.369437  0.638684  0.781729  1
  O  O32  1  0.865038  0.136785  0.281405  1
  O  O33  1  0.868278  0.652472  0.268877  1
  O  O34  1  0.624307  0.394546  0.783748  1
  O  O35  1  0.627043  0.887654  0.772579  1
  O  O36  1  0.994963  0.010913  0.532423  1
  O  O37  1  0.872275  0.134553  0.773584  1
  O  O38  1  0.994529  0.513733  0.528413  1
  O  O39  1  0.867369  0.637608  0.783549  1
