# generated using pymatgen
data_BaPHO4
_symmetry_space_group_name_H-M   'P 1'
_cell_length_a   4.63737806
_cell_length_b   14.37609375
_cell_length_c   17.48109261
_cell_angle_alpha   90.00000000
_cell_angle_beta   90.00000000
_cell_angle_gamma   90.00000000
_symmetry_Int_Tables_number   1
_chemical_formula_structural   BaPHO4
_chemical_formula_sum   'Ba12 P12 H12 O48'
_cell_volume   1165.41867435
_cell_formula_units_Z   12
loop_
 _symmetry_equiv_pos_site_id
 _symmetry_equiv_pos_as_xyz
  1  'x, y, z'
loop_
 _atom_site_type_symbol
 _atom_site_label
 _atom_site_symmetry_multiplicity
 _atom_site_fract_x
 _atom_site_fract_y
 _atom_site_fract_z
 _atom_site_occupancy
  Ba  Ba0  1  0.359686  0.397853  0.250000  1
  Ba  Ba1  1  0.140314  0.897853  0.250000  1
  Ba  Ba2  1  0.640314  0.602147  0.750000  1
  Ba  Ba3  1  0.859686  0.102147  0.750000  1
  Ba  Ba4  1  0.800132  0.602767  0.413680  1
  Ba  Ba5  1  0.699868  0.102767  0.086320  1
  Ba  Ba6  1  0.199868  0.397233  0.913680  1
  Ba  Ba7  1  0.300132  0.897233  0.586320  1
  Ba  Ba8  1  0.199868  0.397233  0.586320  1
  Ba  Ba9  1  0.300132  0.897233  0.913680  1
  Ba  Ba10  1  0.800132  0.602767  0.086320  1
  Ba  Ba11  1  0.699868  0.102767  0.413680  1
  P  P12  1  0.255375  0.133165  0.250000  1
  P  P13  1  0.244625  0.633165  0.250000  1
  P  P14  1  0.744625  0.866835  0.750000  1
  P  P15  1  0.755375  0.366835  0.750000  1
  P  P16  1  0.771056  0.359133  0.417029  1
  P  P17  1  0.728944  0.859133  0.082971  1
  P  P18  1  0.228944  0.640867  0.917029  1
  P  P19  1  0.271056  0.140867  0.582971  1
  P  P20  1  0.228944  0.640867  0.582971  1
  P  P21  1  0.271056  0.140867  0.917029  1
  P  P22  1  0.771056  0.359133  0.082971  1
  P  P23  1  0.728944  0.859133  0.417029  1
  H  H24  1  0.222346  0.293250  0.421347  1
  H  H25  1  0.277654  0.793250  0.078653  1
  H  H26  1  0.777654  0.706750  0.921347  1
  H  H27  1  0.722346  0.206750  0.578653  1
  H  H28  1  0.777654  0.706750  0.578653  1
  H  H29  1  0.722346  0.206750  0.921347  1
  H  H30  1  0.222346  0.293250  0.078653  1
  H  H31  1  0.277654  0.793250  0.421347  1
  H  H32  1  0.859529  0.213295  0.250000  1
  H  H33  1  0.640471  0.713295  0.250000  1
  H  H34  1  0.140471  0.786705  0.750000  1
  H  H35  1  0.359529  0.286705  0.750000  1
  O  O36  1  0.877065  0.417593  0.348474  1
  O  O37  1  0.622935  0.917593  0.151526  1
  O  O38  1  0.122935  0.582407  0.848474  1
  O  O39  1  0.377065  0.082407  0.651526  1
  O  O40  1  0.122935  0.582407  0.651526  1
  O  O41  1  0.377065  0.082407  0.848474  1
  O  O42  1  0.877065  0.417593  0.151526  1
  O  O43  1  0.622935  0.917593  0.348474  1
  O  O44  1  0.177425  0.078038  0.322765  1
  O  O45  1  0.322575  0.578038  0.177235  1
  O  O46  1  0.822575  0.921962  0.822765  1
  O  O47  1  0.677425  0.421962  0.677235  1
  O  O48  1  0.822575  0.921962  0.677235  1
  O  O49  1  0.677425  0.421962  0.822765  1
  O  O50  1  0.177425  0.078038  0.177235  1
  O  O51  1  0.322575  0.578038  0.322765  1
  O  O52  1  0.712137  0.420943  0.487066  1
  O  O53  1  0.787863  0.920943  0.012934  1
  O  O54  1  0.287863  0.579057  0.987066  1
  O  O55  1  0.212137  0.079057  0.512934  1
  O  O56  1  0.287863  0.579057  0.512934  1
  O  O57  1  0.212137  0.079057  0.987066  1
  O  O58  1  0.712137  0.420943  0.012934  1
  O  O59  1  0.787863  0.920943  0.487066  1
  O  O60  1  0.511102  0.298726  0.391697  1
  O  O61  1  0.988898  0.798726  0.108303  1
  O  O62  1  0.488898  0.701274  0.891697  1
  O  O63  1  0.011102  0.201274  0.608303  1
  O  O64  1  0.488898  0.701274  0.608303  1
  O  O65  1  0.011102  0.201274  0.891697  1
  O  O66  1  0.511102  0.298726  0.108303  1
  O  O67  1  0.988898  0.798726  0.391697  1
  O  O68  1  0.012424  0.285253  0.442930  1
  O  O69  1  0.487576  0.785253  0.057070  1
  O  O70  1  0.987576  0.714747  0.942930  1
  O  O71  1  0.512424  0.214747  0.557070  1
  O  O72  1  0.987576  0.714747  0.557070  1
  O  O73  1  0.512424  0.214747  0.942930  1
  O  O74  1  0.012424  0.285253  0.057070  1
  O  O75  1  0.487576  0.785253  0.442930  1
  O  O76  1  0.573236  0.161527  0.250000  1
  O  O77  1  0.926764  0.661527  0.250000  1
  O  O78  1  0.426764  0.838473  0.750000  1
  O  O79  1  0.073236  0.338473  0.750000  1
  O  O80  1  0.073892  0.228982  0.250000  1
  O  O81  1  0.426108  0.728982  0.250000  1
  O  O82  1  0.926108  0.771018  0.750000  1
  O  O83  1  0.573892  0.271018  0.750000  1
