# generated using pymatgen
data_ReN(OF2)3
_symmetry_space_group_name_H-M   'P 1'
_cell_length_a   10.21027675
_cell_length_b   10.60908564
_cell_length_c   12.26840965
_cell_angle_alpha   115.67192737
_cell_angle_beta   90.00000000
_cell_angle_gamma   90.00000000
_symmetry_Int_Tables_number   1
_chemical_formula_structural   ReN(OF2)3
_chemical_formula_sum   'Re8 N8 O24 F48'
_cell_volume   1197.75500846
_cell_formula_units_Z   8
loop_
 _symmetry_equiv_pos_site_id
 _symmetry_equiv_pos_as_xyz
  1  'x, y, z'
loop_
 _atom_site_type_symbol
 _atom_site_label
 _atom_site_symmetry_multiplicity
 _atom_site_fract_x
 _atom_site_fract_y
 _atom_site_fract_z
 _atom_site_occupancy
  Re  Re0  1  0.269475  0.585855  0.154826  1
  Re  Re1  1  0.230525  0.085855  0.154826  1
  Re  Re2  1  0.265906  0.334034  0.654047  1
  Re  Re3  1  0.234094  0.834034  0.654047  1
  Re  Re4  1  0.734094  0.665966  0.345953  1
  Re  Re5  1  0.765906  0.165966  0.345953  1
  Re  Re6  1  0.769475  0.914145  0.845174  1
  Re  Re7  1  0.730525  0.414145  0.845174  1
  N  N8  1  0.523449  0.235828  0.037286  1
  N  N9  1  0.976551  0.735828  0.037286  1
  N  N10  1  0.023449  0.264172  0.962714  1
  N  N11  1  0.000000  0.500000  0.500000  1
  N  N12  1  0.000000  0.000000  0.500000  1
  N  N13  1  0.500000  0.000000  0.500000  1
  N  N14  1  0.476551  0.764172  0.962714  1
  N  N15  1  0.500000  0.500000  0.500000  1
  O  O16  1  0.973694  0.529321  0.598224  1
  O  O17  1  0.270626  0.070576  0.283790  1
  O  O18  1  0.417866  0.460999  0.430388  1
  O  O19  1  0.526306  0.029321  0.598224  1
  O  O20  1  0.729374  0.929424  0.716210  1
  O  O21  1  0.965315  0.290363  0.048981  1
  O  O22  1  0.581084  0.262289  0.123929  1
  O  O23  1  0.918916  0.762289  0.123929  1
  O  O24  1  0.081084  0.237711  0.876071  1
  O  O25  1  0.322535  0.315199  0.777125  1
  O  O26  1  0.582134  0.539001  0.569612  1
  O  O27  1  0.677465  0.684801  0.222875  1
  O  O28  1  0.177465  0.815199  0.777125  1
  O  O29  1  0.473694  0.970679  0.401776  1
  O  O30  1  0.465315  0.209637  0.951019  1
  O  O31  1  0.534685  0.790363  0.048981  1
  O  O32  1  0.034685  0.709637  0.951019  1
  O  O33  1  0.229374  0.570576  0.283790  1
  O  O34  1  0.082134  0.960999  0.430388  1
  O  O35  1  0.770626  0.429424  0.716210  1
  O  O36  1  0.026306  0.470679  0.401776  1
  O  O37  1  0.418916  0.737711  0.876071  1
  O  O38  1  0.822535  0.184801  0.222875  1
  O  O39  1  0.917866  0.039001  0.569612  1
  F  F40  1  0.810385  0.894997  0.993820  1
  F  F41  1  0.245493  0.887055  0.049884  1
  F  F42  1  0.141100  0.005790  0.687721  1
  F  F43  1  0.358900  0.505790  0.687721  1
  F  F44  1  0.606546  0.264698  0.770588  1
  F  F45  1  0.825340  0.239054  0.793928  1
  F  F46  1  0.434130  0.288219  0.569134  1
  F  F47  1  0.272401  0.133901  0.550959  1
  F  F48  1  0.772401  0.366099  0.449041  1
  F  F49  1  0.941325  0.997927  0.860938  1
  F  F50  1  0.151475  0.487972  0.747944  1
  F  F51  1  0.310385  0.605003  0.006180  1
  F  F52  1  0.858900  0.994210  0.312279  1
  F  F53  1  0.093551  0.256990  0.655937  1
  F  F54  1  0.348525  0.987972  0.747944  1
  F  F55  1  0.651475  0.012028  0.252056  1
  F  F56  1  0.298362  0.850547  0.509308  1
  F  F57  1  0.254507  0.387055  0.049884  1
  F  F58  1  0.058675  0.002073  0.139062  1
  F  F59  1  0.754507  0.112945  0.950116  1
  F  F60  1  0.689615  0.394997  0.993820  1
  F  F61  1  0.091102  0.544445  0.089253  1
  F  F62  1  0.406449  0.756990  0.655937  1
  F  F63  1  0.745493  0.612945  0.950116  1
  F  F64  1  0.325340  0.260946  0.206072  1
  F  F65  1  0.189615  0.105003  0.006180  1
  F  F66  1  0.893454  0.764698  0.770588  1
  F  F67  1  0.174660  0.760946  0.206072  1
  F  F68  1  0.908898  0.455555  0.910747  1
  F  F69  1  0.408898  0.044445  0.089253  1
  F  F70  1  0.906449  0.743010  0.344063  1
  F  F71  1  0.848525  0.512028  0.252056  1
  F  F72  1  0.565870  0.711781  0.430866  1
  F  F73  1  0.593551  0.243010  0.344063  1
  F  F74  1  0.727599  0.866099  0.449041  1
  F  F75  1  0.065870  0.788219  0.569134  1
  F  F76  1  0.227599  0.633901  0.550959  1
  F  F77  1  0.591102  0.955555  0.910747  1
  F  F78  1  0.674660  0.739054  0.793928  1
  F  F79  1  0.393454  0.735302  0.229412  1
  F  F80  1  0.441325  0.502073  0.139062  1
  F  F81  1  0.934130  0.211781  0.430866  1
  F  F82  1  0.641100  0.494210  0.312279  1
  F  F83  1  0.558675  0.497927  0.860938  1
  F  F84  1  0.201638  0.350547  0.509308  1
  F  F85  1  0.106546  0.235302  0.229412  1
  F  F86  1  0.798362  0.649453  0.490692  1
  F  F87  1  0.701638  0.149453  0.490692  1
