# generated using pymatgen
data_La2EuS4
_symmetry_space_group_name_H-M   'P 1'
_cell_length_a   7.58418936
_cell_length_b   7.58418921
_cell_length_c   7.58418932
_cell_angle_alpha   109.26701108
_cell_angle_beta   109.26701071
_cell_angle_gamma   109.88041359
_symmetry_Int_Tables_number   1
_chemical_formula_structural   La2EuS4
_chemical_formula_sum   'La4 Eu2 S8'
_cell_volume   335.80641677
_cell_formula_units_Z   2
loop_
 _symmetry_equiv_pos_site_id
 _symmetry_equiv_pos_as_xyz
  1  'x, y, z'
loop_
 _atom_site_type_symbol
 _atom_site_label
 _atom_site_symmetry_multiplicity
 _atom_site_fract_x
 _atom_site_fract_y
 _atom_site_fract_z
 _atom_site_occupancy
  Eu  Eu0  1  0.625000  0.375000  0.250000  1
  Eu  Eu1  1  0.875000  0.125000  0.750000  1
  La  La2  1  0.121807  0.750000  0.871807  1
  La  La3  1  0.250000  0.621807  0.371807  1
  La  La4  1  0.378193  0.250000  0.628193  1
  La  La5  1  0.750000  0.878193  0.128193  1
  S  S6  1  0.003079  0.851230  0.499343  1
  S  S7  1  0.003736  0.351887  0.500657  1
  S  S8  1  0.148770  0.148113  0.151849  1
  S  S9  1  0.351230  0.503079  -0.000657  1
  S  S10  1  0.496921  -0.003736  0.848151  1
  S  S11  1  0.648113  0.648770  0.651849  1
  S  S12  1  0.496264  0.996921  0.348151  1
  S  S13  1  0.851887  0.503736  0.000657  1
