# generated using pymatgen
data_KNbCl6
_symmetry_space_group_name_H-M   'P 1'
_cell_length_a   7.02413657
_cell_length_b   22.48606517
_cell_length_c   23.82055667
_cell_angle_alpha   90.00000000
_cell_angle_beta   91.10968049
_cell_angle_gamma   90.00000000
_symmetry_Int_Tables_number   1
_chemical_formula_structural   KNbCl6
_chemical_formula_sum   'K16 Nb16 Cl96'
_cell_volume   3761.63680496
_cell_formula_units_Z   16
loop_
 _symmetry_equiv_pos_site_id
 _symmetry_equiv_pos_as_xyz
  1  'x, y, z'
loop_
 _atom_site_type_symbol
 _atom_site_label
 _atom_site_symmetry_multiplicity
 _atom_site_fract_x
 _atom_site_fract_y
 _atom_site_fract_z
 _atom_site_occupancy
  K  K0  1  0.262368  0.170771  0.837045  1
  K  K1  1  0.751001  0.465325  0.066103  1
  K  K2  1  0.748999  0.965325  0.433897  1
  K  K3  1  0.751228  0.468106  0.568436  1
  K  K4  1  0.248772  0.531894  0.431564  1
  K  K5  1  0.248999  0.534675  0.933897  1
  K  K6  1  0.737632  0.829229  0.162955  1
  K  K7  1  0.251228  0.031894  0.068436  1
  K  K8  1  0.251001  0.034675  0.566103  1
  K  K9  1  0.250707  0.898893  0.298761  1
  K  K10  1  0.749293  0.101107  0.701239  1
  K  K11  1  0.249293  0.398893  0.201239  1
  K  K12  1  0.237632  0.670771  0.662955  1
  K  K13  1  0.750707  0.601107  0.798761  1
  K  K14  1  0.762368  0.329229  0.337045  1
  K  K15  1  0.748772  0.968106  0.931564  1
  Nb  Nb16  1  0.248665  0.490051  0.751852  1
  Nb  Nb17  1  0.253717  0.859749  0.482067  1
  Nb  Nb18  1  0.751335  0.509949  0.248148  1
  Nb  Nb19  1  0.748665  0.009949  0.251852  1
  Nb  Nb20  1  0.746283  0.140251  0.517933  1
  Nb  Nb21  1  0.750764  0.141603  0.018048  1
  Nb  Nb22  1  0.749236  0.641603  0.481952  1
  Nb  Nb23  1  0.244273  0.726044  0.224595  1
  Nb  Nb24  1  0.753717  0.640251  0.982067  1
  Nb  Nb25  1  0.246283  0.359749  0.017933  1
  Nb  Nb26  1  0.250764  0.358397  0.518048  1
  Nb  Nb27  1  0.249236  0.858397  0.981952  1
  Nb  Nb28  1  0.755727  0.273956  0.775405  1
  Nb  Nb29  1  0.744273  0.773956  0.724595  1
  Nb  Nb30  1  0.251335  0.990051  0.748148  1
  Nb  Nb31  1  0.255727  0.226044  0.275405  1
  Cl  Cl32  1  0.503522  0.024866  0.810221  1
  Cl  Cl33  1  0.753434  0.232355  0.474618  1
  Cl  Cl34  1  0.007073  0.604376  0.040549  1
  Cl  Cl35  1  0.990781  0.104600  0.954437  1
  Cl  Cl36  1  0.253434  0.267645  0.974618  1
  Cl  Cl37  1  0.976177  0.669567  0.913675  1
  Cl  Cl38  1  0.249449  0.636014  0.272832  1
  Cl  Cl39  1  0.507073  0.895624  0.540549  1
  Cl  Cl40  1  0.531320  0.595756  0.044258  1
  Cl  Cl41  1  0.492622  0.335889  0.584399  1
  Cl  Cl42  1  0.240205  0.459792  0.065368  1
  Cl  Cl43  1  0.009219  0.895400  0.045563  1
  Cl  Cl44  1  0.740205  0.040208  0.565368  1
  Cl  Cl45  1  0.488885  0.893856  0.049401  1
  Cl  Cl46  1  0.483482  0.800921  0.665099  1
  Cl  Cl47  1  0.504726  0.336697  0.080247  1
  Cl  Cl48  1  0.254095  0.961589  0.945064  1
  Cl  Cl49  1  0.000739  0.969592  0.683009  1
  Cl  Cl50  1  0.523823  0.169567  0.586325  1
  Cl  Cl51  1  0.516518  0.199079  0.334901  1
  Cl  Cl52  1  0.011115  0.393856  0.450599  1
  Cl  Cl53  1  0.248944  0.396380  0.713263  1
  Cl  Cl54  1  0.490147  0.834642  0.918417  1
  Cl  Cl55  1  0.524678  0.732282  0.789520  1
  Cl  Cl56  1  0.976091  0.971940  0.186572  1
  Cl  Cl57  1  0.748944  0.103620  0.213263  1
  Cl  Cl58  1  0.007378  0.835889  0.915601  1
  Cl  Cl59  1  0.009853  0.334642  0.581583  1
  Cl  Cl60  1  0.492927  0.104376  0.459451  1
  Cl  Cl61  1  0.746817  0.907155  0.292257  1
  Cl  Cl62  1  0.019728  0.466336  0.820320  1
  Cl  Cl63  1  0.737306  0.673888  0.678618  1
  Cl  Cl64  1  0.468680  0.404244  0.955742  1
  Cl  Cl65  1  0.023909  0.028060  0.813428  1
  Cl  Cl66  1  0.988885  0.606144  0.549401  1
  Cl  Cl67  1  0.476091  0.528060  0.686572  1
  Cl  Cl68  1  0.961377  0.804672  0.655978  1
  Cl  Cl69  1  0.504999  0.764296  0.279971  1
  Cl  Cl70  1  0.538623  0.304672  0.844022  1
  Cl  Cl71  1  0.253442  0.265707  0.476178  1
  Cl  Cl72  1  0.753442  0.234293  0.976178  1
  Cl  Cl73  1  0.992927  0.395624  0.959451  1
  Cl  Cl74  1  0.751056  0.603620  0.286737  1
  Cl  Cl75  1  0.995274  0.836697  0.419753  1
  Cl  Cl76  1  0.495001  0.235704  0.720029  1
  Cl  Cl77  1  0.038623  0.195328  0.344022  1
  Cl  Cl78  1  0.500739  0.530408  0.183009  1
  Cl  Cl79  1  0.983482  0.699079  0.165099  1
  Cl  Cl80  1  -0.000739  0.030408  0.316991  1
  Cl  Cl81  1  0.499261  0.469592  0.816991  1
  Cl  Cl82  1  0.754095  0.538411  0.445064  1
  Cl  Cl83  1  0.246566  0.767645  0.525382  1
  Cl  Cl84  1  0.519728  0.033664  0.320320  1
  Cl  Cl85  1  0.237306  0.826112  0.178618  1
  Cl  Cl86  1  0.992622  0.164111  0.084399  1
  Cl  Cl87  1  0.251056  0.896380  0.786737  1
  Cl  Cl88  1  0.750551  0.363986  0.727168  1
  Cl  Cl89  1  0.475322  0.267718  0.210480  1
  Cl  Cl90  1  0.004999  0.735704  0.779971  1
  Cl  Cl91  1  0.496478  0.975134  0.189779  1
  Cl  Cl92  1  0.762694  0.173888  0.821382  1
  Cl  Cl93  1  0.968680  0.095756  0.455742  1
  Cl  Cl94  1  0.490781  0.395400  0.454437  1
  Cl  Cl95  1  0.246817  0.592845  0.792257  1
  Cl  Cl96  1  0.509219  0.604600  0.545563  1
  Cl  Cl97  1  0.509853  0.165358  0.081583  1
  Cl  Cl98  1  0.024678  0.767718  0.289520  1
  Cl  Cl99  1  0.990147  0.665358  0.418417  1
  Cl  Cl100  1  0.980272  0.533664  0.179680  1
  Cl  Cl101  1  0.031320  0.904244  0.544258  1
  Cl  Cl102  1  0.253183  0.092845  0.707743  1
  Cl  Cl103  1  0.995001  0.264296  0.220029  1
  Cl  Cl104  1  0.004726  0.163303  0.580247  1
  Cl  Cl105  1  0.246558  0.765707  0.023822  1
  Cl  Cl106  1  0.476177  0.830433  0.413675  1
  Cl  Cl107  1  0.259795  0.959792  0.434632  1
  Cl  Cl108  1  0.250551  0.136014  0.227168  1
  Cl  Cl109  1  0.003522  0.475134  0.310221  1
  Cl  Cl110  1  0.523909  0.471940  0.313428  1
  Cl  Cl111  1  0.480272  0.966336  0.679680  1
  Cl  Cl112  1  0.753183  0.407155  0.207743  1
  Cl  Cl113  1  0.996478  0.524866  0.689779  1
  Cl  Cl114  1  0.975322  0.232282  0.710480  1
  Cl  Cl115  1  0.511115  0.106144  0.950599  1
  Cl  Cl116  1  0.495274  0.663303  0.919753  1
  Cl  Cl117  1  0.507378  0.664111  0.415601  1
  Cl  Cl118  1  0.023823  0.330433  0.086325  1
  Cl  Cl119  1  0.461377  0.695328  0.155978  1
  Cl  Cl120  1  0.759795  0.540208  0.934632  1
  Cl  Cl121  1  0.749449  0.863986  0.772832  1
  Cl  Cl122  1  0.746566  0.732355  0.025382  1
  Cl  Cl123  1  0.262694  0.326112  0.321382  1
  Cl  Cl124  1  0.016518  0.300921  0.834901  1
  Cl  Cl125  1  0.245905  0.461589  0.554936  1
  Cl  Cl126  1  0.746558  0.734293  0.523822  1
  Cl  Cl127  1  0.745905  0.038411  0.054936  1
