# generated using pymatgen
data_V2NO
_symmetry_space_group_name_H-M   'P 1'
_cell_length_a   6.18422316
_cell_length_b   8.22167999
_cell_length_c   5.38737715
_cell_angle_alpha   29.04744531
_cell_angle_beta   54.73894386
_cell_angle_gamma   40.93707104
_symmetry_Int_Tables_number   1
_chemical_formula_structural   V2NO
_chemical_formula_sum   'V4 N2 O2'
_cell_volume   84.11773470
_cell_formula_units_Z   2
loop_
 _symmetry_equiv_pos_site_id
 _symmetry_equiv_pos_as_xyz
  1  'x, y, z'
loop_
 _atom_site_type_symbol
 _atom_site_label
 _atom_site_symmetry_multiplicity
 _atom_site_fract_x
 _atom_site_fract_y
 _atom_site_fract_z
 _atom_site_occupancy
  V  V0  1  0.986257  0.999237  0.028688  1
  V  V1  1  0.257897  0.498679  0.986084  1
  V  V2  1  0.735074  0.497366  0.032489  1
  V  V3  1  0.508592  0.001013  0.981820  1
  N  N4  1  0.748457  0.998105  0.505942  1
  N  N5  1  0.496146  0.499322  0.509314  1
  O  O6  1  0.245305  0.998693  0.510016  1
  O  O7  1  0.997647  0.500423  0.503562  1
