# generated using pymatgen
data_Os3C10(BrO5)2
_symmetry_space_group_name_H-M   'P 1'
_cell_length_a   8.28006398
_cell_length_b   9.34445819
_cell_length_c   14.35729705
_cell_angle_alpha   102.36945326
_cell_angle_beta   90.00000000
_cell_angle_gamma   116.29843903
_symmetry_Int_Tables_number   1
_chemical_formula_structural   Os3C10(BrO5)2
_chemical_formula_sum   'Os6 C20 Br4 O20'
_cell_volume   967.03905532
_cell_formula_units_Z   2
loop_
 _symmetry_equiv_pos_site_id
 _symmetry_equiv_pos_as_xyz
  1  'x, y, z'
loop_
 _atom_site_type_symbol
 _atom_site_label
 _atom_site_symmetry_multiplicity
 _atom_site_fract_x
 _atom_site_fract_y
 _atom_site_fract_z
 _atom_site_occupancy
  Os  Os0  1  0.786385  0.007303  0.002021  1
  Os  Os1  1  0.353580  0.204916  0.355177  1
  Os  Os2  1  0.220918  0.007303  0.502021  1
  Os  Os3  1  0.563446  0.812383  0.812270  1
  Os  Os4  1  0.851336  0.204916  0.855177  1
  Os  Os5  1  0.248937  0.812383  0.312270  1
  C  C6  1  0.579679  0.052681  0.027415  1
  C  C7  1  0.365560  0.722290  0.376773  1
  C  C8  1  0.651882  0.666871  0.836219  1
  C  C9  1  0.980207  0.957930  0.951987  1
  C  C10  1  0.836928  0.361314  0.959523  1
  C  C11  1  0.014989  0.666871  0.336219  1
  C  C12  1  0.905623  0.178393  0.118741  1
  C  C13  1  0.524386  0.361314  0.459523  1
  C  C14  1  0.689011  0.815323  0.052179  1
  C  C15  1  0.977723  0.957930  0.451987  1
  C  C16  1  0.181143  0.277875  0.401292  1
  C  C17  1  0.096733  0.277875  0.901292  1
  C  C18  1  0.895263  0.283114  0.204525  1
  C  C19  1  0.433567  0.683033  0.689438  1
  C  C20  1  0.356729  0.722290  0.876773  1
  C  C21  1  0.473003  0.052681  0.527415  1
  C  C22  1  0.126312  0.815323  0.552179  1
  C  C23  1  0.272769  0.178393  0.618741  1
  C  C24  1  0.249466  0.683033  0.189438  1
  C  C25  1  0.387851  0.283114  0.704525  1
  Br  Br26  1  0.558163  0.060070  0.298151  1
  Br  Br27  1  0.113436  0.960713  0.224379  1
  Br  Br28  1  0.847277  0.960713  0.724379  1
  Br  Br29  1  0.501907  0.060070  0.798151  1
  O  O30  1  0.077510  0.325789  0.427443  1
  O  O31  1  0.355668  0.596930  0.616190  1
  O  O32  1  0.215121  0.271323  0.689974  1
  O  O33  1  0.832600  0.920496  0.418606  1
  O  O34  1  0.241261  0.596930  0.116190  1
  O  O35  1  0.436856  0.329993  0.266089  1
  O  O36  1  0.439016  0.664476  0.413351  1
  O  O37  1  0.225460  0.664476  0.913351  1
  O  O38  1  0.248279  0.325789  0.927443  1
  O  O39  1  0.870032  0.580175  0.350157  1
  O  O40  1  0.460067  0.082581  0.045332  1
  O  O41  1  0.710143  0.580175  0.850157  1
  O  O42  1  0.627371  0.461237  0.522368  1
  O  O43  1  0.833866  0.461237  0.022368  1
  O  O44  1  0.622515  0.082581  0.545332  1
  O  O45  1  0.893137  0.329993  0.766089  1
  O  O46  1  0.637597  0.707590  0.090400  1
  O  O47  1  0.056202  0.271323  0.189974  1
  O  O48  1  0.087896  0.920496  0.918606  1
  O  O49  1  0.069993  0.707590  0.590400  1
