# generated using pymatgen
data_Yb2FeS4
_symmetry_space_group_name_H-M   'P 1'
_cell_length_a   7.69782321
_cell_length_b   7.62705234
_cell_length_c   30.93693068
_cell_angle_alpha   60.45736883
_cell_angle_beta   60.69149583
_cell_angle_gamma   60.30366246
_symmetry_Int_Tables_number   1
_chemical_formula_structural   Yb2FeS4
_chemical_formula_sum   'Yb16 Fe8 S32'
_cell_volume   1298.38590988
_cell_formula_units_Z   8
loop_
 _symmetry_equiv_pos_site_id
 _symmetry_equiv_pos_as_xyz
  1  'x, y, z'
loop_
 _atom_site_type_symbol
 _atom_site_label
 _atom_site_symmetry_multiplicity
 _atom_site_fract_x
 _atom_site_fract_y
 _atom_site_fract_z
 _atom_site_occupancy
  Yb  Yb0  1  0.000000  0.500000  0.125000  1
  Yb  Yb1  1  0.500000  0.500000  0.125000  1
  Yb  Yb2  1  0.001700  0.501053  0.374048  1
  Yb  Yb3  1  0.500000  0.000000  0.125000  1
  Yb  Yb4  1  0.499724  0.500255  0.249942  1
  Yb  Yb5  1  0.501794  0.507133  0.373777  1
  Yb  Yb6  1  0.566235  0.976123  0.495380  1
  Yb  Yb7  1  0.000000  0.500000  0.625000  1
  Yb  Yb8  1  0.501794  0.995965  0.373777  1
  Yb  Yb9  1  0.498650  0.499311  0.500682  1
  Yb  Yb10  1  0.433765  0.023877  0.754620  1
  Yb  Yb11  1  0.998300  0.498947  0.875952  1
  Yb  Yb12  1  0.501350  0.500689  0.749318  1
  Yb  Yb13  1  0.498206  0.492867  0.876223  1
  Yb  Yb14  1  0.498206  0.004035  0.876223  1
  Yb  Yb15  1  0.500276  0.499745  0.000058  1
  Fe  Fe16  1  0.122587  0.124049  0.032329  1
  Fe  Fe17  1  0.124712  0.127385  0.280129  1
  Fe  Fe18  1  0.092044  0.129913  0.537032  1
  Fe  Fe19  1  0.877413  0.875951  0.217671  1
  Fe  Fe20  1  0.500000  0.500000  0.625000  1
  Fe  Fe21  1  0.500000  0.000000  0.625000  1
  Fe  Fe22  1  0.907956  0.870087  0.712968  1
  Fe  Fe23  1  0.875288  0.872615  0.969871  1
  S  S24  1  0.244698  0.244377  0.061102  1
  S  S25  1  0.244698  0.766518  0.061102  1
  S  S26  1  0.242725  0.243281  0.192678  1
  S  S27  1  0.768366  0.243994  0.060911  1
  S  S28  1  0.242649  0.243017  0.310130  1
  S  S29  1  0.231634  0.756006  0.189089  1
  S  S30  1  0.242649  0.773815  0.310130  1
  S  S31  1  0.755302  0.233482  0.188898  1
  S  S32  1  0.236945  0.233484  0.449022  1
  S  S33  1  0.757275  0.756719  0.057322  1
  S  S34  1  0.773649  0.242832  0.310172  1
  S  S35  1  0.755302  0.755623  0.188898  1
  S  S36  1  0.256750  0.746584  0.437520  1
  S  S37  1  0.257007  0.219851  0.565245  1
  S  S38  1  0.748620  0.268072  0.434969  1
  S  S39  1  0.325018  0.259604  0.663943  1
  S  S40  1  0.257007  0.762161  0.565245  1
  S  S41  1  0.762365  0.761027  0.303895  1
  S  S42  1  0.715814  0.242095  0.574999  1
  S  S43  1  0.748620  0.743434  0.434969  1
  S  S44  1  0.251380  0.256566  0.815031  1
  S  S45  1  0.284186  0.757905  0.675001  1
  S  S46  1  0.251380  0.731928  0.815031  1
  S  S47  1  0.742993  0.237839  0.684755  1
  S  S48  1  0.237635  0.238973  0.946105  1
  S  S49  1  0.674982  0.740396  0.586057  1
  S  S50  1  0.743250  0.253416  0.812480  1
  S  S51  1  0.742993  0.780149  0.684755  1
  S  S52  1  0.226351  0.757168  0.939828  1
  S  S53  1  0.757351  0.226185  0.939870  1
  S  S54  1  0.763055  0.766516  0.800978  1
  S  S55  1  0.757351  0.756983  0.939870  1
