# generated using pymatgen
data_Tm7Cl15
_symmetry_space_group_name_H-M   'P 1'
_cell_length_a   6.80891207
_cell_length_b   6.60750716
_cell_length_c   45.68596713
_cell_angle_alpha   90.00000000
_cell_angle_beta   90.00000000
_cell_angle_gamma   90.00000000
_symmetry_Int_Tables_number   1
_chemical_formula_structural   Tm7Cl15
_chemical_formula_sum   'Tm28 Cl60'
_cell_volume   2055.40870321
_cell_formula_units_Z   4
loop_
 _symmetry_equiv_pos_site_id
 _symmetry_equiv_pos_as_xyz
  1  'x, y, z'
loop_
 _atom_site_type_symbol
 _atom_site_label
 _atom_site_symmetry_multiplicity
 _atom_site_fract_x
 _atom_site_fract_y
 _atom_site_fract_z
 _atom_site_occupancy
  Tm  Tm0  1  0.547551  0.862887  0.607606  1
  Tm  Tm1  1  0.047551  0.637113  0.107606  1
  Tm  Tm2  1  0.965190  0.644006  0.956445  1
  Tm  Tm3  1  0.992923  0.256823  0.750000  1
  Tm  Tm4  1  0.523676  0.133324  0.671866  1
  Tm  Tm5  1  0.523676  0.133324  0.828134  1
  Tm  Tm6  1  0.047551  0.637113  0.392394  1
  Tm  Tm7  1  0.965190  0.644006  0.543555  1
  Tm  Tm8  1  0.492923  0.243176  0.250000  1
  Tm  Tm9  1  0.452449  0.137113  0.107606  1
  Tm  Tm10  1  0.465190  0.855994  0.456445  1
  Tm  Tm11  1  0.465190  0.855994  0.043555  1
  Tm  Tm12  1  0.976324  0.633324  0.828134  1
  Tm  Tm13  1  0.547551  0.862887  0.892394  1
  Tm  Tm14  1  0.534810  0.144006  0.956445  1
  Tm  Tm15  1  0.034810  0.355994  0.456445  1
  Tm  Tm16  1  0.952449  0.362887  0.892394  1
  Tm  Tm17  1  0.952449  0.362887  0.607606  1
  Tm  Tm18  1  0.476324  0.866676  0.171866  1
  Tm  Tm19  1  0.034810  0.355994  0.043555  1
  Tm  Tm20  1  0.534810  0.144006  0.543555  1
  Tm  Tm21  1  0.452449  0.137113  0.392394  1
  Tm  Tm22  1  0.976324  0.633324  0.671866  1
  Tm  Tm23  1  0.023676  0.366676  0.328134  1
  Tm  Tm24  1  0.476324  0.866676  0.328134  1
  Tm  Tm25  1  0.007077  0.743177  0.250000  1
  Tm  Tm26  1  0.507077  0.756823  0.750000  1
  Tm  Tm27  1  0.023676  0.366676  0.171866  1
  Cl  Cl28  1  0.850255  0.004289  0.925972  1
  Cl  Cl29  1  0.812399  0.347449  0.508768  1
  Cl  Cl30  1  0.712215  0.875412  0.372514  1
  Cl  Cl31  1  0.649745  0.504289  0.574028  1
  Cl  Cl32  1  0.660644  0.192943  0.306451  1
  Cl  Cl33  1  0.365415  0.123990  0.750000  1
  Cl  Cl34  1  0.287098  0.546674  0.284584  1
  Cl  Cl35  1  0.712215  0.875412  0.127486  1
  Cl  Cl36  1  0.187601  0.652551  0.491232  1
  Cl  Cl37  1  0.687601  0.847449  0.508768  1
  Cl  Cl38  1  0.287785  0.124588  0.872514  1
  Cl  Cl39  1  0.299006  0.842977  0.940129  1
  Cl  Cl40  1  0.149745  -0.004289  0.425972  1
  Cl  Cl41  1  0.149745  -0.004289  0.074028  1
  Cl  Cl42  1  0.799006  0.657023  0.440129  1
  Cl  Cl43  1  0.299006  0.842977  0.559871  1
  Cl  Cl44  1  0.312399  0.152551  0.008768  1
  Cl  Cl45  1  0.287785  0.124588  0.627486  1
  Cl  Cl46  1  0.687601  0.847449  0.991232  1
  Cl  Cl47  1  0.845974  0.982888  0.647016  1
  Cl  Cl48  1  0.160644  0.307057  0.693549  1
  Cl  Cl49  1  0.212902  0.046674  0.284584  1
  Cl  Cl50  1  0.345974  0.517112  0.352984  1
  Cl  Cl51  1  0.787785  0.375412  0.372514  1
  Cl  Cl52  1  0.649745  0.504289  0.925972  1
  Cl  Cl53  1  0.812399  0.347449  0.991232  1
  Cl  Cl54  1  0.850255  0.004289  0.574028  1
  Cl  Cl55  1  0.212902  0.046674  0.215416  1
  Cl  Cl56  1  0.350255  0.495711  0.425972  1
  Cl  Cl57  1  0.350255  0.495711  0.074028  1
  Cl  Cl58  1  0.634585  0.876010  0.250000  1
  Cl  Cl59  1  0.700994  0.157023  0.059871  1
  Cl  Cl60  1  0.799006  0.657023  0.059871  1
  Cl  Cl61  1  0.345974  0.517112  0.147016  1
  Cl  Cl62  1  0.134585  0.623990  0.750000  1
  Cl  Cl63  1  0.339356  0.807057  0.693549  1
  Cl  Cl64  1  0.660644  0.192943  0.193549  1
  Cl  Cl65  1  0.845974  0.982888  0.852984  1
  Cl  Cl66  1  0.654026  0.482888  0.647016  1
  Cl  Cl67  1  0.787098  0.953326  0.715416  1
  Cl  Cl68  1  0.312399  0.152551  0.491232  1
  Cl  Cl69  1  0.700994  0.157023  0.440129  1
  Cl  Cl70  1  0.712902  0.453326  0.784584  1
  Cl  Cl71  1  0.200994  0.342977  0.940129  1
  Cl  Cl72  1  0.212215  0.624588  0.872514  1
  Cl  Cl73  1  0.212215  0.624588  0.627486  1
  Cl  Cl74  1  0.200994  0.342977  0.559871  1
  Cl  Cl75  1  0.712902  0.453326  0.715416  1
  Cl  Cl76  1  0.787785  0.375412  0.127486  1
  Cl  Cl77  1  0.787098  0.953326  0.784584  1
  Cl  Cl78  1  0.654026  0.482888  0.852984  1
  Cl  Cl79  1  0.160644  0.307057  0.806451  1
  Cl  Cl80  1  0.154026  0.017112  0.147016  1
  Cl  Cl81  1  0.865415  0.376010  0.250000  1
  Cl  Cl82  1  0.339356  0.807057  0.806451  1
  Cl  Cl83  1  0.154026  0.017112  0.352984  1
  Cl  Cl84  1  0.287098  0.546674  0.215416  1
  Cl  Cl85  1  0.839356  0.692943  0.306451  1
  Cl  Cl86  1  0.839356  0.692943  0.193549  1
  Cl  Cl87  1  0.187601  0.652551  0.008768  1
