# generated using pymatgen
data_Tb5Te9
_symmetry_space_group_name_H-M   'P 1'
_cell_length_a   11.71691454
_cell_length_b   11.95294354
_cell_length_c   16.09828935
_cell_angle_alpha   90.00000000
_cell_angle_beta   90.00000000
_cell_angle_gamma   89.01887820
_symmetry_Int_Tables_number   1
_chemical_formula_structural   Tb5Te9
_chemical_formula_sum   'Tb20 Te36'
_cell_volume   2254.26092793
_cell_formula_units_Z   4
loop_
 _symmetry_equiv_pos_site_id
 _symmetry_equiv_pos_as_xyz
  1  'x, y, z'
loop_
 _atom_site_type_symbol
 _atom_site_label
 _atom_site_symmetry_multiplicity
 _atom_site_fract_x
 _atom_site_fract_y
 _atom_site_fract_z
 _atom_site_occupancy
  Tb  Tb0  1  0.000000  0.000000  0.243665  1
  Tb  Tb1  1  0.086625  0.338727  0.888805  1
  Tb  Tb2  1  0.122287  0.295846  0.358420  1
  Tb  Tb3  1  0.248449  0.516345  0.653173  1
  Tb  Tb4  1  0.157131  0.581669  0.096726  1
  Tb  Tb5  1  0.259192  0.939849  0.754228  1
  Tb  Tb6  1  0.266272  0.988063  0.395214  1
  Tb  Tb7  1  0.470227  0.244945  0.258484  1
  Tb  Tb8  1  0.444057  0.187922  0.635660  1
  Tb  Tb9  1  0.500000  0.500000  0.789917  1
  Tb  Tb10  1  0.500000  0.500000  0.139429  1
  Tb  Tb11  1  0.555943  0.812078  0.635660  1
  Tb  Tb12  1  0.529773  0.755055  0.258484  1
  Tb  Tb13  1  0.733728  0.011937  0.395214  1
  Tb  Tb14  1  0.740808  0.060151  0.754228  1
  Tb  Tb15  1  0.842869  0.418331  0.096726  1
  Tb  Tb16  1  0.751551  0.483655  0.653173  1
  Tb  Tb17  1  0.877713  0.704154  0.358420  1
  Tb  Tb18  1  0.913375  0.661273  0.888805  1
  Tb  Tb19  1  0.000000  0.000000  0.864502  1
  Te  Te20  1  0.000000  0.000000  0.681915  1
  Te  Te21  1  0.059309  0.779679  0.760394  1
  Te  Te22  1  0.198287  0.302065  0.546062  1
  Te  Te23  1  0.084141  0.336007  0.080197  1
  Te  Te24  1  0.103293  0.752939  0.247619  1
  Te  Te25  1  0.170651  0.578273  0.911800  1
  Te  Te26  1  0.291215  0.740600  0.361495  1
  Te  Te27  1  0.221731  0.116226  0.229814  1
  Te  Te28  1  0.307524  0.331950  0.774224  1
  Te  Te29  1  0.333945  0.956660  0.576766  1
  Te  Te30  1  0.396224  0.717564  0.097504  1
  Te  Te31  1  0.367198  0.707071  0.747069  1
  Te  Te32  1  0.276893  0.433665  0.239895  1
  Te  Te33  1  0.214868  0.094653  0.915109  1
  Te  Te34  1  0.383652  0.217185  0.444577  1
  Te  Te35  1  0.500000  0.500000  0.320851  1
  Te  Te36  1  0.500000  0.500000  0.592549  1
  Te  Te37  1  0.500000  0.000000  0.306259  1
  Te  Te38  1  0.500000  0.000000  0.781825  1
  Te  Te39  1  0.616348  0.782815  0.444577  1
  Te  Te40  1  0.785132  0.905347  0.915109  1
  Te  Te41  1  0.723107  0.566335  0.239895  1
  Te  Te42  1  0.632802  0.292929  0.747069  1
  Te  Te43  1  0.603776  0.282436  0.097504  1
  Te  Te44  1  0.666055  0.043340  0.576766  1
  Te  Te45  1  0.692476  0.668049  0.774224  1
  Te  Te46  1  0.778269  0.883774  0.229814  1
  Te  Te47  1  0.708785  0.259400  0.361495  1
  Te  Te48  1  0.829349  0.421727  0.911800  1
  Te  Te49  1  0.896707  0.247061  0.247619  1
  Te  Te50  1  0.915859  0.663993  0.080197  1
  Te  Te51  1  0.801713  0.697935  0.546062  1
  Te  Te52  1  0.940691  0.220321  0.760394  1
  Te  Te53  1  0.000000  0.000000  0.427161  1
  Te  Te54  1  0.000000  0.500000  0.674972  1
  Te  Te55  1  0.000000  0.500000  0.400285  1
