# generated using pymatgen
data_Ba3Ce2C5O15F2
_symmetry_space_group_name_H-M   'P 1'
_cell_length_a   5.20742233
_cell_length_b   11.16861481
_cell_length_c   14.34470199
_cell_angle_alpha   97.40487094
_cell_angle_beta   90.00000000
_cell_angle_gamma   103.48127055
_symmetry_Int_Tables_number   1
_chemical_formula_structural   Ba3Ce2C5O15F2
_chemical_formula_sum   'Ba6 Ce4 C10 O30 F4'
_cell_volume   804.13915920
_cell_formula_units_Z   2
loop_
 _symmetry_equiv_pos_site_id
 _symmetry_equiv_pos_as_xyz
  1  'x, y, z'
loop_
 _atom_site_type_symbol
 _atom_site_label
 _atom_site_symmetry_multiplicity
 _atom_site_fract_x
 _atom_site_fract_y
 _atom_site_fract_z
 _atom_site_occupancy
  Ba  Ba0  1  0.511224  0.022449  0.469050  1
  Ba  Ba1  1  0.699245  0.398490  0.088254  1
  Ba  Ba2  1  0.177399  0.354799  0.554601  1
  Ba  Ba3  1  0.002441  0.004883  0.987312  1
  Ba  Ba4  1  0.304337  0.608675  0.891030  1
  Ba  Ba5  1  0.827329  0.654658  0.390729  1
  Ce  Ce6  1  0.602950  0.205899  0.798435  1
  Ce  Ce7  1  0.112720  0.225439  0.254535  1
  Ce  Ce8  1  0.405534  0.811067  0.157055  1
  Ce  Ce9  1  0.893467  0.786934  0.695828  1
  C  C10  1  0.845620  0.691241  0.069926  1
  C  C11  1  0.547885  0.095769  0.163559  1
  C  C12  1  0.340277  0.680554  0.546068  1
  C  C13  1  0.156815  0.313631  0.905314  1
  C  C14  1  0.959857  0.919714  0.299418  1
  C  C15  1  0.657017  0.314034  0.406754  1
  C  C16  1  0.047039  0.094077  0.666588  1
  C  C17  1  0.254204  0.508408  0.250233  1
  C  C18  1  0.458089  0.916178  0.807347  1
  C  C19  1  0.758560  0.517120  0.736567  1
  O  O20  1  0.303403  0.036521  0.149124  1
  O  O21  1  0.598716  0.631445  0.060998  1
  O  O22  1  0.606482  0.212964  0.195411  1
  O  O23  1  0.703105  0.975872  0.822213  1
  O  O24  1  0.291529  0.155544  0.675717  1
  O  O25  1  0.009090  0.445642  0.246294  1
  O  O26  1  0.988447  0.976894  0.641579  1
  O  O27  1  0.097877  0.195754  0.875600  1
  O  O28  1  0.288964  0.577928  0.490546  1
  O  O29  1  0.713977  0.858567  0.286385  1
  O  O30  1  0.032729  0.631445  0.060998  1
  O  O31  1  0.002980  0.580068  0.734899  1
  O  O32  1  0.968212  0.372109  0.917282  1
  O  O33  1  0.733118  0.036521  0.149124  1
  O  O34  1  0.144590  0.858567  0.286385  1
  O  O35  1  0.403897  0.372109  0.917282  1
  O  O36  1  0.842050  0.252099  0.388867  1
  O  O37  1  0.272767  0.975872  0.822213  1
  O  O38  1  0.713430  0.426860  0.441771  1
  O  O39  1  0.018597  0.037193  0.325415  1
  O  O40  1  0.399791  0.799582  0.774018  1
  O  O41  1  0.314144  0.628288  0.260285  1
  O  O42  1  0.577088  0.580068  0.734899  1
  O  O43  1  0.700089  0.400177  0.739795  1
  O  O44  1  0.151780  0.735302  0.571589  1
  O  O45  1  0.410049  0.252099  0.388867  1
  O  O46  1  0.436551  0.445642  0.246294  1
  O  O47  1  0.864015  0.155544  0.675717  1
  O  O48  1  0.583522  0.735302  0.571589  1
  O  O49  1  0.905262  0.810525  0.091024  1
  F  F50  1  0.625728  0.251455  0.556967  1
  F  F51  1  0.124621  0.249241  0.088320  1
  F  F52  1  0.424580  0.849159  0.991588  1
  F  F53  1  0.946810  0.893620  0.462341  1
