# generated using pymatgen
data_Y3Al19Ni5
_symmetry_space_group_name_H-M   'P 1'
_cell_length_a   4.06400894
_cell_length_b   8.20120586
_cell_length_c   26.96934615
_cell_angle_alpha   90.04911546
_cell_angle_beta   89.97236686
_cell_angle_gamma   104.36265851
_symmetry_Int_Tables_number   1
_chemical_formula_structural   Y3Al19Ni5
_chemical_formula_sum   'Y6 Al38 Ni10'
_cell_volume   870.78732443
_cell_formula_units_Z   2
loop_
 _symmetry_equiv_pos_site_id
 _symmetry_equiv_pos_as_xyz
  1  'x, y, z'
loop_
 _atom_site_type_symbol
 _atom_site_label
 _atom_site_symmetry_multiplicity
 _atom_site_fract_x
 _atom_site_fract_y
 _atom_site_fract_z
 _atom_site_occupancy
  Y  Y0  1  0.384243  0.775518  0.749521  1
  Y  Y1  1  0.164378  0.332016  0.634850  1
  Y  Y2  1  0.608368  0.223788  0.250209  1
  Y  Y3  1  0.831054  0.666993  0.364619  1
  Y  Y4  1  0.163620  0.333165  0.864197  1
  Y  Y5  1  0.829476  0.666406  0.135013  1
  Al  Al6  1  0.593079  0.186518  0.463228  1
  Al  Al7  1  0.928770  0.866697  0.030870  1
  Al  Al8  1  0.060094  0.133655  0.968570  1
  Al  Al9  1  0.231501  0.468217  0.970742  1
  Al  Al10  1  0.464134  0.927769  0.398753  1
  Al  Al11  1  0.578137  0.159540  0.701735  1
  Al  Al12  1  0.401237  0.814328  0.537041  1
  Al  Al13  1  0.224101  0.446451  0.193214  1
  Al  Al14  1  0.031803  0.070427  0.173756  1
  Al  Al15  1  0.186124  0.387322  0.749537  1
  Al  Al16  1  0.217827  0.448279  0.306705  1
  Al  Al17  1  0.208045  0.418269  0.087886  1
  Al  Al18  1  0.372949  0.741073  0.864509  1
  Al  Al19  1  0.771396  0.550816  0.692999  1
  Al  Al20  1  0.533157  0.073480  0.898935  1
  Al  Al21  1  0.965820  0.927517  0.674597  1
  Al  Al22  1  0.787993  0.581141  0.588685  1
  Al  Al23  1  0.417084  0.840780  0.297710  1
  Al  Al24  1  0.230046  0.469188  0.528430  1
  Al  Al25  1  0.205230  0.417165  0.411997  1
  Al  Al26  1  0.760768  0.530632  0.471307  1
  Al  Al27  1  0.629710  0.261098  0.135692  1
  Al  Al28  1  0.760375  0.531963  0.028109  1
  Al  Al29  1  0.790647  0.583118  0.911670  1
  Al  Al30  1  0.965521  0.927331  0.824860  1
  Al  Al31  1  0.587224  0.189637  0.036995  1
  Al  Al32  1  0.769385  0.552959  0.806219  1
  Al  Al33  1  0.369408  0.739630  0.634572  1
  Al  Al34  1  0.800035  0.611817  0.250038  1
  Al  Al35  1  0.416601  0.844303  0.201268  1
  Al  Al36  1  0.576932  0.158997  0.798026  1
  Al  Al37  1  0.531018  0.073808  0.601374  1
  Al  Al38  1  0.628554  0.262166  0.365078  1
  Al  Al39  1  0.400059  0.810878  0.962311  1
  Al  Al40  1  0.034763  0.070763  0.325505  1
  Al  Al41  1  0.062045  0.133018  0.531375  1
  Al  Al42  1  0.458908  0.928434  0.101167  1
  Al  Al43  1  0.932913  0.865598  0.468576  1
  Ni  Ni44  1  0.338151  0.682762  0.458143  1
  Ni  Ni45  1  0.054017  0.108173  0.415454  1
  Ni  Ni46  1  0.654977  0.318240  0.542181  1
  Ni  Ni47  1  0.949368  0.908401  0.249645  1
  Ni  Ni48  1  0.047824  0.108777  0.084205  1
  Ni  Ni49  1  0.943025  0.893071  0.914758  1
  Ni  Ni50  1  0.938523  0.892127  0.585101  1
  Ni  Ni51  1  0.044318  0.090340  0.749621  1
  Ni  Ni52  1  0.652405  0.317264  0.957417  1
  Ni  Ni53  1  0.336964  0.683042  0.041797  1
