# generated using pymatgen
data_La5Ti6S3(ClO5)3
_symmetry_space_group_name_H-M   'P 1'
_cell_length_a   10.83126741
_cell_length_b   10.84470143
_cell_length_c   10.84470162
_cell_angle_alpha   109.67396868
_cell_angle_beta   109.73585872
_cell_angle_gamma   109.05470782
_symmetry_Int_Tables_number   1
_chemical_formula_structural   La5Ti6S3(ClO5)3
_chemical_formula_sum   'La10 Ti12 S6 Cl6 O30'
_cell_volume   979.95374021
_cell_formula_units_Z   2
loop_
 _symmetry_equiv_pos_site_id
 _symmetry_equiv_pos_as_xyz
  1  'x, y, z'
loop_
 _atom_site_type_symbol
 _atom_site_label
 _atom_site_symmetry_multiplicity
 _atom_site_fract_x
 _atom_site_fract_y
 _atom_site_fract_z
 _atom_site_occupancy
  La  La0  1  0.000000  0.658903  0.658903  1
  La  La1  1  0.000000  0.500000  0.000000  1
  La  La2  1  0.000000  0.000000  0.500000  1
  La  La3  1  0.500000  0.500000  0.500000  1
  La  La4  1  0.337329  0.005912  0.331417  1
  La  La5  1  0.353226  0.348215  0.005011  1
  La  La6  1  0.646774  0.651785  0.994989  1
  La  La7  1  0.662671  0.994088  0.668583  1
  La  La8  1  0.500000  0.000000  0.000000  1
  La  La9  1  0.000000  0.341097  0.341097  1
  Ti  Ti10  1  0.064023  0.695549  0.368474  1
  Ti  Ti11  1  0.299406  0.645267  0.945462  1
  Ti  Ti12  1  0.352805  0.700857  0.651948  1
  Ti  Ti13  1  0.299406  0.353944  0.654139  1
  Ti  Ti14  1  0.363118  0.667935  0.301566  1
  Ti  Ti15  1  0.363118  0.061552  0.695183  1
  Ti  Ti16  1  0.636882  0.938448  0.304817  1
  Ti  Ti17  1  0.636882  0.332065  0.698434  1
  Ti  Ti18  1  0.700594  0.646056  0.345861  1
  Ti  Ti19  1  0.647195  0.299143  0.348052  1
  Ti  Ti20  1  0.700594  0.354733  0.054538  1
  Ti  Ti21  1  0.935976  0.304451  0.631526  1
  S  S22  1  0.203571  0.813721  0.019730  1
  S  S23  1  0.203571  0.183842  0.389850  1
  S  S24  1  0.609691  0.793909  0.815783  1
  S  S25  1  0.390309  0.206091  0.184217  1
  S  S26  1  0.796429  0.816158  0.610150  1
  S  S27  1  0.796429  0.186279  0.980270  1
  Cl  Cl28  1  0.179823  0.976348  0.794785  1
  Cl  Cl29  1  0.026627  0.204571  0.822056  1
  Cl  Cl30  1  0.179823  0.385038  0.203474  1
  Cl  Cl31  1  0.820177  0.614962  0.796526  1
  Cl  Cl32  1  0.973373  0.795429  0.177944  1
  Cl  Cl33  1  0.820177  0.023652  0.205215  1
  O  O34  1  0.073149  0.498214  0.796898  1
  O  O35  1  0.200697  0.924947  0.497430  1
  O  O36  1  0.127926  0.627281  0.500645  1
  O  O37  1  0.291906  0.721250  0.796082  1
  O  O38  1  0.073149  0.276251  0.574935  1
  O  O39  1  0.200697  0.703267  0.275750  1
  O  O40  1  0.422129  0.925765  0.721298  1
  O  O41  1  0.369980  0.500296  0.869685  1
  O  O42  1  0.291906  0.495824  0.570656  1
  O  O43  1  0.275404  0.201044  0.708304  1
  O  O44  1  0.422129  0.700831  0.496364  1
  O  O45  1  0.275404  0.567100  0.074361  1
  O  O46  1  0.500000  0.871106  0.371106  1
  O  O47  1  0.493949  0.202935  0.924382  1
  O  O48  1  0.506051  0.430434  0.708986  1
  O  O49  1  0.493949  0.569566  0.291014  1
  O  O50  1  0.506051  0.797065  0.075618  1
  O  O51  1  0.500000  0.128894  0.628894  1
  O  O52  1  0.724596  0.432900  0.925639  1
  O  O53  1  0.577871  0.299169  0.503636  1
  O  O54  1  0.724596  0.798956  0.291696  1
  O  O55  1  0.708094  0.504176  0.429344  1
  O  O56  1  0.630020  0.499704  0.130315  1
  O  O57  1  0.577871  0.074235  0.278702  1
  O  O58  1  0.799303  0.296733  0.724250  1
  O  O59  1  0.926851  0.723749  0.425065  1
  O  O60  1  0.708094  0.278750  0.203918  1
  O  O61  1  0.872074  0.372719  0.499355  1
  O  O62  1  0.799303  0.075053  0.502570  1
  O  O63  1  0.926851  0.501786  0.203102  1
