# generated using pymatgen
data_Ca2MnGaO5
_symmetry_space_group_name_H-M   'P 1'
_cell_length_a   5.39452940
_cell_length_b   5.63503657
_cell_length_c   15.02717044
_cell_angle_alpha   89.99871741
_cell_angle_beta   90.00099809
_cell_angle_gamma   90.00487745
_symmetry_Int_Tables_number   1
_chemical_formula_structural   Ca2MnGaO5
_chemical_formula_sum   'Ca8 Mn4 Ga4 O20'
_cell_volume   456.80149123
_cell_formula_units_Z   4
loop_
 _symmetry_equiv_pos_site_id
 _symmetry_equiv_pos_as_xyz
  1  'x, y, z'
loop_
 _atom_site_type_symbol
 _atom_site_label
 _atom_site_symmetry_multiplicity
 _atom_site_fract_x
 _atom_site_fract_y
 _atom_site_fract_z
 _atom_site_occupancy
  Ca  Ca0  1  0.012715  0.527379  0.608519  1
  Ca  Ca1  1  0.987179  0.472680  0.108577  1
  Ca  Ca2  1  0.512810  0.972693  0.608540  1
  Ca  Ca3  1  0.487229  0.027305  0.108570  1
  Ca  Ca4  1  0.512954  0.972543  0.891457  1
  Ca  Ca5  1  0.012733  0.527543  0.891474  1
  Ca  Ca6  1  0.987153  0.472445  0.391478  1
  Ca  Ca7  1  0.487182  0.027442  0.391479  1
  Mn  Mn8  1  0.999930  -0.000029  0.499967  1
  Mn  Mn9  1  0.499900  0.499996  0.499976  1
  Mn  Mn10  1  0.500016  0.500017  0.000001  1
  Mn  Mn11  1  0.000030  0.000046  -0.000001  1
  Ga  Ga12  1  0.546687  0.431721  0.749980  1
  Ga  Ga13  1  0.453360  0.568302  0.250022  1
  Ga  Ga14  1  0.953386  0.931623  0.250041  1
  Ga  Ga15  1  0.046721  0.068392  0.749974  1
  O  O16  1  0.470394  0.571395  0.856895  1
  O  O17  1  0.970358  0.928453  0.856835  1
  O  O18  1  0.400779  0.122081  0.749989  1
  O  O19  1  0.255603  0.243161  0.513673  1
  O  O20  1  0.529658  0.428508  0.356913  1
  O  O21  1  0.599330  0.877924  0.250064  1
  O  O22  1  0.744178  0.756836  0.486361  1
  O  O23  1  0.244123  0.743076  0.013593  1
  O  O24  1  0.755624  0.256829  0.513549  1
  O  O25  1  0.244177  0.743080  0.486289  1
  O  O26  1  0.744178  0.756920  0.013609  1
  O  O27  1  0.755788  0.256862  0.986373  1
  O  O28  1  0.029800  0.071516  0.356907  1
  O  O29  1  0.255838  0.243158  0.986374  1
  O  O30  1  0.099336  0.622056  0.250041  1
  O  O31  1  0.470231  0.571476  0.643072  1
  O  O32  1  0.970310  0.928421  0.643104  1
  O  O33  1  0.900748  0.377985  0.749986  1
  O  O34  1  0.029809  0.071626  0.143192  1
  O  O35  1  0.529752  0.428536  0.143127  1
