# generated using pymatgen
data_H8C3SN2
_symmetry_space_group_name_H-M   'P 1'
_cell_length_a   6.36478841
_cell_length_b   11.86466970
_cell_length_c   15.11679772
_cell_angle_alpha   90.00000000
_cell_angle_beta   90.00000000
_cell_angle_gamma   90.00000000
_symmetry_Int_Tables_number   1
_chemical_formula_structural   H8C3SN2
_chemical_formula_sum   'H64 C24 S8 N16'
_cell_volume   1141.56179265
_cell_formula_units_Z   8
loop_
 _symmetry_equiv_pos_site_id
 _symmetry_equiv_pos_as_xyz
  1  'x, y, z'
loop_
 _atom_site_type_symbol
 _atom_site_label
 _atom_site_symmetry_multiplicity
 _atom_site_fract_x
 _atom_site_fract_y
 _atom_site_fract_z
 _atom_site_occupancy
  H  H0  1  0.267148  0.991207  0.197218  1
  H  H1  1  0.283097  0.303098  0.137303  1
  H  H2  1  0.369859  0.924463  0.960441  1
  H  H3  1  0.732852  0.491207  0.302782  1
  H  H4  1  0.232852  0.008793  0.697218  1
  H  H5  1  0.948975  0.916477  0.785807  1
  H  H6  1  0.216903  0.696902  0.637303  1
  H  H7  1  0.325017  0.925934  0.607347  1
  H  H8  1  0.449509  0.742551  0.852372  1
  H  H9  1  0.716903  0.803098  0.362697  1
  H  H10  1  0.050491  0.257449  0.352372  1
  H  H11  1  0.551025  0.416477  0.785807  1
  H  H12  1  0.856197  0.126174  0.089374  1
  H  H13  1  0.143803  0.626174  0.410626  1
  H  H14  1  0.948975  0.583523  0.285807  1
  H  H15  1  0.550491  0.242551  0.647628  1
  H  H16  1  0.051025  0.083523  0.214193  1
  H  H17  1  0.585621  0.818677  0.258844  1
  H  H18  1  0.767148  0.508793  0.802782  1
  H  H19  1  0.856197  0.373826  0.589374  1
  H  H20  1  0.949509  0.742551  0.647628  1
  H  H21  1  0.216903  0.803098  0.137303  1
  H  H22  1  0.643803  0.873826  0.589374  1
  H  H23  1  0.414379  0.181323  0.741156  1
  H  H24  1  0.767148  0.991207  0.302782  1
  H  H25  1  0.630141  0.424463  0.539559  1
  H  H26  1  0.643803  0.626174  0.089374  1
  H  H27  1  0.051025  0.416477  0.714193  1
  H  H28  1  0.551025  0.083523  0.285807  1
  H  H29  1  0.143803  0.873826  0.910626  1
  H  H30  1  0.914379  0.181323  0.758844  1
  H  H31  1  0.174983  0.074066  0.107347  1
  H  H32  1  0.783097  0.196902  0.862697  1
  H  H33  1  0.085621  0.681323  0.741156  1
  H  H34  1  0.356197  0.373826  0.910626  1
  H  H35  1  0.869859  0.924463  0.539559  1
  H  H36  1  0.085621  0.818677  0.241156  1
  H  H37  1  0.674983  0.074066  0.392653  1
  H  H38  1  0.716903  0.696902  0.862697  1
  H  H39  1  0.050491  0.242551  0.852372  1
  H  H40  1  0.130141  0.424463  0.960441  1
  H  H41  1  0.914379  0.318677  0.258844  1
  H  H42  1  0.356197  0.126174  0.410626  1
  H  H43  1  0.448975  0.916477  0.714193  1
  H  H44  1  0.449509  0.757449  0.352372  1
  H  H45  1  0.174983  0.425934  0.607347  1
  H  H46  1  0.283097  0.196902  0.637303  1
  H  H47  1  0.732852  0.008793  0.802782  1
  H  H48  1  0.869859  0.575537  0.039559  1
  H  H49  1  0.630141  0.075537  0.039559  1
  H  H50  1  0.550491  0.257449  0.147628  1
  H  H51  1  0.949509  0.757449  0.147628  1
  H  H52  1  0.825017  0.925934  0.892653  1
  H  H53  1  0.674983  0.425934  0.892653  1
  H  H54  1  0.267148  0.508793  0.697218  1
  H  H55  1  0.448975  0.583523  0.214193  1
  H  H56  1  0.783097  0.303098  0.362697  1
  H  H57  1  0.130141  0.075537  0.460441  1
  H  H58  1  0.232852  0.491207  0.197218  1
  H  H59  1  0.414379  0.318677  0.241156  1
  H  H60  1  0.369859  0.575537  0.460441  1
  H  H61  1  0.585621  0.681323  0.758844  1
  H  H62  1  0.325017  0.574066  0.107347  1
  H  H63  1  0.825017  0.574066  0.392653  1
  C  C64  1  0.689412  0.049019  0.596421  1
  C  C65  1  0.189412  0.049019  0.903579  1
  C  C66  1  0.064117  0.820838  0.168727  1
  C  C67  1  0.810588  0.950981  0.096421  1
  C  C68  1  0.626464  0.473732  0.833657  1
  C  C69  1  0.564117  0.679162  0.831273  1
  C  C70  1  0.310588  0.950981  0.403579  1
  C  C71  1  0.810588  0.549019  0.596421  1
  C  C72  1  0.373536  0.973732  0.666343  1
  C  C73  1  0.873536  0.973732  0.833657  1
  C  C74  1  0.064117  0.679162  0.668727  1
  C  C75  1  0.126464  0.473732  0.666343  1
  C  C76  1  0.935883  0.179162  0.831273  1
  C  C77  1  0.189412  0.450981  0.403579  1
  C  C78  1  0.435883  0.320838  0.168727  1
  C  C79  1  0.126464  0.026268  0.166343  1
  C  C80  1  0.435883  0.179162  0.668727  1
  C  C81  1  0.564117  0.820838  0.331273  1
  C  C82  1  0.310588  0.549019  0.903579  1
  C  C83  1  0.626464  0.026268  0.333657  1
  C  C84  1  0.373536  0.526268  0.166343  1
  C  C85  1  0.689412  0.450981  0.096421  1
  C  C86  1  0.935883  0.320838  0.331273  1
  C  C87  1  0.873536  0.526268  0.333657  1
  S  S88  1  0.357424  0.153074  0.936793  1
  S  S89  1  0.357424  0.346926  0.436793  1
  S  S90  1  0.857424  0.153074  0.563207  1
  S  S91  1  0.142576  0.846926  0.436793  1
  S  S92  1  0.642576  0.846926  0.063207  1
  S  S93  1  0.142576  0.653074  0.936793  1
  S  S94  1  0.642576  0.653074  0.563207  1
  S  S95  1  0.857424  0.346926  0.063207  1
  N  N96  1  0.510281  0.432349  0.142489  1
  N  N97  1  0.738374  0.558922  0.076213  1
  N  N98  1  0.489719  0.567651  0.857511  1
  N  N99  1  0.238374  0.941078  0.923787  1
  N  N100  1  0.010281  0.432349  0.357511  1
  N  N101  1  0.989719  0.567651  0.642489  1
  N  N102  1  0.238374  0.558922  0.423787  1
  N  N103  1  0.261626  0.058922  0.423787  1
  N  N104  1  0.510281  0.067651  0.642489  1
  N  N105  1  0.989719  0.932349  0.142489  1
  N  N106  1  0.761626  0.058922  0.076213  1
  N  N107  1  0.010281  0.067651  0.857511  1
  N  N108  1  0.489719  0.932349  0.357511  1
  N  N109  1  0.761626  0.441078  0.576213  1
  N  N110  1  0.738374  0.941078  0.576213  1
  N  N111  1  0.261626  0.441078  0.923787  1
