# generated using pymatgen
data_Fe13Ge3
_symmetry_space_group_name_H-M   'P 1'
_cell_length_a   5.74382200
_cell_length_b   5.71123797
_cell_length_c   5.73333196
_cell_angle_alpha   90.07648366
_cell_angle_beta   89.95778040
_cell_angle_gamma   90.06154934
_symmetry_Int_Tables_number   1
_chemical_formula_structural   Fe13Ge3
_chemical_formula_sum   'Fe13 Ge3'
_cell_volume   188.07781135
_cell_formula_units_Z   1
loop_
 _symmetry_equiv_pos_site_id
 _symmetry_equiv_pos_as_xyz
  1  'x, y, z'
loop_
 _atom_site_type_symbol
 _atom_site_label
 _atom_site_symmetry_multiplicity
 _atom_site_fract_x
 _atom_site_fract_y
 _atom_site_fract_z
 _atom_site_occupancy
  Fe  Fe0  1  0.252115  0.252109  0.747967  1
  Fe  Fe1  1  0.252686  0.252225  0.252252  1
  Fe  Fe2  1  0.252023  0.747639  0.747805  1
  Fe  Fe3  1  0.747362  0.747565  0.252695  1
  Fe  Fe4  1  0.747152  0.252466  0.252635  1
  Fe  Fe5  1  0.499949  0.999884  0.500199  1
  Fe  Fe6  1  0.500130  0.500211  0.499943  1
  Fe  Fe7  1  0.747547  0.252444  0.747358  1
  Fe  Fe8  1  0.252544  0.747710  0.252257  1
  Fe  Fe9  1  0.000003  0.499889  0.499851  1
  Fe  Fe10  1  0.747896  0.747625  0.747353  1
  Fe  Fe11  1  0.499982  0.500098  -0.000046  1
  Fe  Fe12  1  0.000038  0.000342  -0.000003  1
  Ge  Ge13  1  0.499988  -0.000147  0.999596  1
  Ge  Ge14  1  0.000358  0.000194  0.499883  1
  Ge  Ge15  1  0.000226  0.499747  0.000254  1
