# generated using pymatgen
data_K2H2C3S2O7F6
_symmetry_space_group_name_H-M   'P 1'
_cell_length_a   6.05300037
_cell_length_b   11.13459060
_cell_length_c   17.90831653
_cell_angle_alpha   90.00000000
_cell_angle_beta   99.36508505
_cell_angle_gamma   90.00000000
_symmetry_Int_Tables_number   1
_chemical_formula_structural   K2H2C3S2O7F6
_chemical_formula_sum   'K8 H8 C12 S8 O28 F24'
_cell_volume   1190.89179297
_cell_formula_units_Z   4
loop_
 _symmetry_equiv_pos_site_id
 _symmetry_equiv_pos_as_xyz
  1  'x, y, z'
loop_
 _atom_site_type_symbol
 _atom_site_label
 _atom_site_symmetry_multiplicity
 _atom_site_fract_x
 _atom_site_fract_y
 _atom_site_fract_z
 _atom_site_occupancy
  K  K0  1  0.281616  0.590926  0.151343  1
  K  K1  1  0.781616  0.909074  0.651343  1
  K  K2  1  0.718384  0.409074  0.848657  1
  K  K3  1  0.218384  0.090926  0.348657  1
  K  K4  1  0.681852  0.817350  0.380984  1
  K  K5  1  0.181852  0.682650  0.880984  1
  K  K6  1  0.318148  0.182650  0.619016  1
  K  K7  1  0.818148  0.317350  0.119016  1
  H  H8  1  0.246333  0.799500  0.276874  1
  H  H9  1  0.746333  0.700500  0.776874  1
  H  H10  1  0.753667  0.200500  0.723126  1
  H  H11  1  0.253667  0.299500  0.223126  1
  H  H12  1  0.163269  0.679228  0.307708  1
  H  H13  1  0.663269  0.820772  0.807708  1
  H  H14  1  0.836731  0.320772  0.692292  1
  H  H15  1  0.336731  0.179228  0.192292  1
  C  C16  1  0.860572  0.380981  0.358339  1
  C  C17  1  0.360572  0.119019  0.858339  1
  C  C18  1  0.139428  0.619019  0.641661  1
  C  C19  1  0.639428  0.880981  0.141661  1
  C  C20  1  0.685811  0.304679  0.478137  1
  C  C21  1  0.185811  0.195321  0.978137  1
  C  C22  1  0.314189  0.695321  0.521863  1
  C  C23  1  0.814189  0.804679  0.021863  1
  C  C24  1  0.653794  0.372169  0.400034  1
  C  C25  1  0.153794  0.127831  0.900034  1
  C  C26  1  0.346206  0.627831  0.599966  1
  C  C27  1  0.846206  0.872169  0.099966  1
  S  S28  1  0.837487  0.494632  0.279231  1
  S  S29  1  0.337487  0.005368  0.779231  1
  S  S30  1  0.162513  0.505368  0.720769  1
  S  S31  1  0.662513  0.994632  0.220769  1
  S  S32  1  0.796590  0.146029  0.486375  1
  S  S33  1  0.296590  0.353971  0.986375  1
  S  S34  1  0.203410  0.853971  0.513625  1
  S  S35  1  0.703410  0.646029  0.013625  1
  O  O36  1  0.624334  0.464270  0.231914  1
  O  O37  1  0.124334  0.035730  0.731914  1
  O  O38  1  0.375666  0.535730  0.768086  1
  O  O39  1  0.875666  0.964270  0.268086  1
  O  O40  1  0.850356  0.611968  0.315704  1
  O  O41  1  0.350356  0.888032  0.815704  1
  O  O42  1  0.149644  0.388032  0.684296  1
  O  O43  1  0.649644  0.111968  0.184296  1
  O  O44  1  0.033468  0.465200  0.244003  1
  O  O45  1  0.533468  0.034800  0.744003  1
  O  O46  1  0.966532  0.534800  0.755997  1
  O  O47  1  0.466532  0.965200  0.255997  1
  O  O48  1  0.032120  0.157608  0.477795  1
  O  O49  1  0.532120  0.342392  0.977795  1
  O  O50  1  0.967880  0.842392  0.522205  1
  O  O51  1  0.467880  0.657608  0.022205  1
  O  O52  1  0.657786  0.079873  0.425824  1
  O  O53  1  0.157786  0.420127  0.925824  1
  O  O54  1  0.342214  0.920127  0.574176  1
  O  O55  1  0.842214  0.579873  0.074176  1
  O  O56  1  0.763669  0.115683  0.563287  1
  O  O57  1  0.263669  0.384317  0.063287  1
  O  O58  1  0.236331  0.884317  0.436713  1
  O  O59  1  0.736331  0.615683  0.936713  1
  O  O60  1  0.292501  0.717336  0.290804  1
  O  O61  1  0.792501  0.782664  0.790804  1
  O  O62  1  0.707499  0.282664  0.709196  1
  O  O63  1  0.207499  0.217336  0.209196  1
  F  F64  1  0.888571  0.270704  0.326241  1
  F  F65  1  0.388571  0.229296  0.826241  1
  F  F66  1  0.111429  0.729296  0.673759  1
  F  F67  1  0.611429  0.770704  0.173759  1
  F  F68  1  0.048086  0.406245  0.408961  1
  F  F69  1  0.548086  0.093755  0.908961  1
  F  F70  1  0.951914  0.593755  0.591039  1
  F  F71  1  0.451914  0.906245  0.091039  1
  F  F72  1  0.483767  0.315807  0.352653  1
  F  F73  1  0.983767  0.184193  0.852653  1
  F  F74  1  0.516233  0.684193  0.647347  1
  F  F75  1  0.016233  0.815807  0.147347  1
  F  F76  1  0.583662  0.485946  0.413247  1
  F  F77  1  0.083662  0.014054  0.913247  1
  F  F78  1  0.416338  0.514054  0.586753  1
  F  F79  1  0.916338  0.985946  0.086753  1
  F  F80  1  0.474314  0.300580  0.497986  1
  F  F81  1  0.974314  0.199420  0.997986  1
  F  F82  1  0.525686  0.699420  0.502014  1
  F  F83  1  0.025686  0.800580  0.002014  1
  F  F84  1  0.818372  0.372650  0.530667  1
  F  F85  1  0.318372  0.127350  0.030667  1
  F  F86  1  0.181628  0.627350  0.469333  1
  F  F87  1  0.681628  0.872650  0.969333  1
