# generated using pymatgen
data_Ir3(CO)8
_symmetry_space_group_name_H-M   'P 1'
_cell_length_a   13.03848300
_cell_length_b   13.78806302
_cell_length_c   13.93112056
_cell_angle_alpha   94.17651017
_cell_angle_beta   90.00000000
_cell_angle_gamma   90.00000000
_symmetry_Int_Tables_number   1
_chemical_formula_structural   Ir3(CO)8
_chemical_formula_sum   'Ir24 C64 O64'
_cell_volume   2497.82229283
_cell_formula_units_Z   8
loop_
 _symmetry_equiv_pos_site_id
 _symmetry_equiv_pos_as_xyz
  1  'x, y, z'
loop_
 _atom_site_type_symbol
 _atom_site_label
 _atom_site_symmetry_multiplicity
 _atom_site_fract_x
 _atom_site_fract_y
 _atom_site_fract_z
 _atom_site_occupancy
  Ir  Ir0  1  0.535974  0.279661  0.113052  1
  Ir  Ir1  1  0.956923  0.132525  0.824358  1
  Ir  Ir2  1  0.307910  0.750000  0.750000  1
  Ir  Ir3  1  0.619636  0.750000  0.750000  1
  Ir  Ir4  1  0.043077  0.632525  0.324358  1
  Ir  Ir5  1  0.380364  0.250000  0.250000  1
  Ir  Ir6  1  0.959595  0.335770  0.871593  1
  Ir  Ir7  1  0.464026  0.720339  0.886948  1
  Ir  Ir8  1  0.464026  0.779661  0.613052  1
  Ir  Ir9  1  0.956923  0.367475  0.675642  1
  Ir  Ir10  1  0.199067  0.750000  0.250000  1
  Ir  Ir11  1  0.884593  0.750000  0.250000  1
  Ir  Ir12  1  0.959595  0.164230  0.628407  1
  Ir  Ir13  1  0.464353  0.609122  0.713833  1
  Ir  Ir14  1  0.535647  0.109122  0.213833  1
  Ir  Ir15  1  0.115407  0.250000  0.750000  1
  Ir  Ir16  1  0.692090  0.250000  0.250000  1
  Ir  Ir17  1  0.464353  0.890878  0.786167  1
  Ir  Ir18  1  0.043077  0.867475  0.175642  1
  Ir  Ir19  1  0.535974  0.220339  0.386948  1
  Ir  Ir20  1  0.040405  0.835770  0.371593  1
  Ir  Ir21  1  0.800933  0.250000  0.750000  1
  Ir  Ir22  1  0.535647  0.390878  0.286167  1
  Ir  Ir23  1  0.040405  0.664230  0.128407  1
  C  C24  1  0.576311  0.997781  0.279513  1
  C  C25  1  0.576311  0.502219  0.220487  1
  C  C26  1  0.211000  0.843169  0.801369  1
  C  C27  1  0.117378  0.949383  0.407759  1
  C  C28  1  0.383911  0.088337  0.206106  1
  C  C29  1  0.413769  0.558977  0.592356  1
  C  C30  1  0.683207  0.319750  0.109171  1
  C  C31  1  0.217177  0.206082  0.834879  1
  C  C32  1  0.905511  0.891579  0.328843  1
  C  C33  1  0.034688  0.102479  0.933138  1
  C  C34  1  0.034688  0.397521  0.566862  1
  C  C35  1  0.423689  0.497781  0.779513  1
  C  C36  1  0.462212  0.382030  0.062013  1
  C  C37  1  0.965312  0.897521  0.066862  1
  C  C38  1  0.698310  0.166607  0.692694  1
  C  C39  1  0.018015  0.686939  0.997278  1
  C  C40  1  0.283535  0.239067  0.350459  1
  C  C41  1  0.616089  0.911663  0.793894  1
  C  C42  1  0.965312  0.602479  0.433138  1
  C  C43  1  0.820074  0.175407  0.880662  1
  C  C44  1  0.683207  0.180250  0.390829  1
  C  C45  1  0.782823  0.706082  0.334879  1
  C  C46  1  0.789000  0.156831  0.198631  1
  C  C47  1  0.094489  0.391579  0.828843  1
  C  C48  1  0.472267  0.790357  0.009933  1
  C  C49  1  0.537788  0.617970  0.937987  1
  C  C50  1  0.179926  0.675407  0.380662  1
  C  C51  1  0.094489  0.108421  0.671157  1
  C  C52  1  0.073552  0.498968  0.292888  1
  C  C53  1  0.698310  0.333393  0.807306  1
  C  C54  1  0.383911  0.411663  0.293894  1
  C  C55  1  0.586231  0.058977  0.092356  1
  C  C56  1  0.316793  0.680250  0.890829  1
  C  C57  1  0.716465  0.739067  0.850459  1
  C  C58  1  0.301690  0.833393  0.307306  1
  C  C59  1  0.782823  0.793918  0.165121  1
  C  C60  1  0.616089  0.588337  0.706106  1
  C  C61  1  0.981985  0.313061  0.002722  1
  C  C62  1  0.018015  0.813061  0.502722  1
  C  C63  1  0.537788  0.882030  0.562013  1
  C  C64  1  0.179926  0.824593  0.119338  1
  C  C65  1  0.283535  0.260933  0.149541  1
  C  C66  1  0.527733  0.209643  0.990067  1
  C  C67  1  0.527733  0.290357  0.509933  1
  C  C68  1  0.423689  0.002219  0.720487  1
  C  C69  1  0.462212  0.117970  0.437987  1
  C  C70  1  0.472267  0.709643  0.490067  1
  C  C71  1  0.926448  0.501032  0.707112  1
  C  C72  1  0.211000  0.656831  0.698631  1
  C  C73  1  0.926448  0.998968  0.792888  1
  C  C74  1  0.586231  0.441023  0.407644  1
  C  C75  1  0.789000  0.343169  0.301369  1
  C  C76  1  0.073552  0.001032  0.207112  1
  C  C77  1  0.716465  0.760933  0.649541  1
  C  C78  1  0.820074  0.324593  0.619338  1
  C  C79  1  0.905511  0.608421  0.171157  1
  C  C80  1  0.117378  0.550617  0.092242  1
  C  C81  1  0.316793  0.819750  0.609171  1
  C  C82  1  0.882622  0.050617  0.592241  1
  C  C83  1  0.217177  0.293918  0.665121  1
  C  C84  1  0.981985  0.186939  0.497278  1
  C  C85  1  0.413769  0.941023  0.907644  1
  C  C86  1  0.882622  0.449383  0.907759  1
  C  C87  1  0.301690  0.666607  0.192694  1
  O  O88  1  0.091001  0.082707  0.225528  1
  O  O89  1  0.682871  0.968099  0.809825  1
  O  O90  1  0.233026  0.660312  0.446800  1
  O  O91  1  0.852203  0.539701  0.154685  1
  O  O92  1  0.773687  0.766782  0.586727  1
  O  O93  1  0.604890  0.928939  0.314952  1
  O  O94  1  0.395110  0.428939  0.814952  1
  O  O95  1  0.624917  0.471273  0.478493  1
  O  O96  1  0.719940  0.821901  0.115476  1
  O  O97  1  0.233026  0.839688  0.053200  1
  O  O98  1  0.847042  0.400288  0.333537  1
  O  O99  1  0.152958  0.900288  0.833537  1
  O  O100  1  0.589693  0.940838  0.531461  1
  O  O101  1  0.165308  0.481113  0.072195  1
  O  O102  1  0.366818  0.879035  0.344660  1
  O  O103  1  0.226313  0.266782  0.086727  1
  O  O104  1  0.915234  0.916711  0.001845  1
  O  O105  1  0.226313  0.233218  0.413273  1
  O  O106  1  0.834692  0.518887  0.927805  1
  O  O107  1  0.410307  0.059162  0.468539  1
  O  O108  1  0.589693  0.559162  0.968539  1
  O  O109  1  0.084766  0.416711  0.501845  1
  O  O110  1  0.915234  0.583289  0.498155  1
  O  O111  1  0.773687  0.733218  0.913273  1
  O  O112  1  0.317129  0.031901  0.190175  1
  O  O113  1  0.410307  0.440838  0.031461  1
  O  O114  1  0.280060  0.321901  0.615476  1
  O  O115  1  0.766974  0.160312  0.946800  1
  O  O116  1  0.375083  0.528727  0.521507  1
  O  O117  1  0.990614  0.199802  0.416333  1
  O  O118  1  0.745178  0.140855  0.435510  1
  O  O119  1  0.479656  0.674997  0.411687  1
  O  O120  1  0.375083  0.971273  0.978493  1
  O  O121  1  0.152958  0.599712  0.666463  1
  O  O122  1  0.395110  0.071061  0.685048  1
  O  O123  1  0.366818  0.620965  0.155340  1
  O  O124  1  0.908999  0.917293  0.774472  1
  O  O125  1  0.633182  0.120966  0.655340  1
  O  O126  1  0.254822  0.640855  0.935510  1
  O  O127  1  0.084766  0.083289  0.998155  1
  O  O128  1  0.852203  0.960299  0.345315  1
  O  O129  1  0.280060  0.178099  0.884524  1
  O  O130  1  0.317129  0.468099  0.309825  1
  O  O131  1  0.633182  0.379034  0.844660  1
  O  O132  1  0.682871  0.531901  0.690175  1
  O  O133  1  0.091001  0.417293  0.274472  1
  O  O134  1  0.847042  0.099712  0.166463  1
  O  O135  1  0.009386  0.699802  0.916333  1
  O  O136  1  0.147797  0.460299  0.845315  1
  O  O137  1  0.520344  0.174997  0.911687  1
  O  O138  1  0.745178  0.359145  0.064490  1
  O  O139  1  0.766974  0.339688  0.553200  1
  O  O140  1  0.719940  0.678099  0.384524  1
  O  O141  1  0.520344  0.325003  0.588313  1
  O  O142  1  0.834692  0.981113  0.572195  1
  O  O143  1  0.254822  0.859145  0.564490  1
  O  O144  1  0.147797  0.039701  0.654685  1
  O  O145  1  0.009386  0.800198  0.583667  1
  O  O146  1  0.908999  0.582707  0.725528  1
  O  O147  1  0.604890  0.571061  0.185048  1
  O  O148  1  0.165308  0.018887  0.427805  1
  O  O149  1  0.990614  0.300198  0.083667  1
  O  O150  1  0.479656  0.825003  0.088313  1
  O  O151  1  0.624917  0.028727  0.021507  1
