# generated using pymatgen
data_YAl6Si18(N15O)2
_symmetry_space_group_name_H-M   'P 1'
_cell_length_a   7.94099453
_cell_length_b   7.93999810
_cell_length_c   11.43932244
_cell_angle_alpha   89.96194570
_cell_angle_beta   90.42873180
_cell_angle_gamma   119.66644223
_symmetry_Int_Tables_number   1
_chemical_formula_structural   YAl6Si18(N15O)2
_chemical_formula_sum   'Y1 Al6 Si18 N30 O2'
_cell_volume   626.70238959
_cell_formula_units_Z   1
loop_
 _symmetry_equiv_pos_site_id
 _symmetry_equiv_pos_as_xyz
  1  'x, y, z'
loop_
 _atom_site_type_symbol
 _atom_site_label
 _atom_site_symmetry_multiplicity
 _atom_site_fract_x
 _atom_site_fract_y
 _atom_site_fract_z
 _atom_site_occupancy
  Y  Y0  1  0.677454  0.329773  0.867808  1
  Al  Al1  1  0.086512  0.837071  0.005712  1
  Al  Al2  1  0.096588  0.512240  0.855551  1
  Al  Al3  1  0.917538  0.746947  0.746651  1
  Al  Al4  1  0.913447  0.426683  0.601098  1
  Al  Al5  1  0.835751  0.086202  0.255813  1
  Al  Al6  1  0.833623  0.085146  0.749570  1
  Si  Si7  1  0.089785  0.840514  0.504916  1
  Si  Si8  1  0.090132  0.507316  0.355556  1
  Si  Si9  1  0.435046  0.918938  0.356722  1
  Si  Si10  1  0.430857  0.913929  0.857794  1
  Si  Si11  1  0.163577  0.257502  0.005536  1
  Si  Si12  1  0.165167  0.252259  0.497163  1
  Si  Si13  1  0.260485  0.165332  0.252051  1
  Si  Si14  1  0.254617  0.172717  0.750727  1
  Si  Si15  1  0.486568  0.570816  0.358576  1
  Si  Si16  1  0.484896  0.576463  0.855940  1
  Si  Si17  1  0.741574  0.918597  0.003078  1
  Si  Si18  1  0.738615  0.908244  0.502037  1
  Si  Si19  1  0.569775  0.489682  0.109721  1
  Si  Si20  1  0.560771  0.477999  0.604544  1
  Si  Si21  1  0.512962  0.075758  0.107226  1
  Si  Si22  1  0.513406  0.080568  0.600867  1
  Si  Si23  1  0.913125  0.746610  0.248639  1
  Si  Si24  1  0.924889  0.434087  0.114428  1
  N  N25  1  0.050312  0.386333  0.485206  1
  N  N26  1  0.044508  0.391680  0.001679  1
  N  N27  1  0.339567  0.957058  0.488036  1
  N  N28  1  0.354658  0.969744  0.987537  1
  N  N29  1  0.993249  0.010150  0.998933  1
  N  N30  1  0.013754  0.994633  0.251191  1
  N  N31  1  0.996014  0.999163  0.498239  1
  N  N32  1  0.333056  0.668792  0.330184  1
  N  N33  1  0.346072  0.678192  0.822521  1
  N  N34  1  0.317273  0.319720  0.372574  1
  N  N35  1  0.319895  0.325237  0.877872  1
  N  N36  1  0.322730  0.313214  0.125122  1
  N  N37  1  0.309744  0.312758  0.623822  1
  N  N38  1  0.672688  0.984265  0.379166  1
  N  N39  1  0.676290  0.006588  0.881419  1
  N  N40  1  0.609465  0.650443  0.493992  1
  N  N41  1  0.615090  0.654797  0.991417  1
  N  N42  1  0.643371  0.581221  0.748039  1
  N  N43  1  0.656728  0.609612  0.245907  1
  N  N44  1  0.397997  0.047520  0.242181  1
  N  N45  1  0.408090  0.063844  0.746837  1
  N  N46  1  0.668761  0.334156  0.077282  1
  N  N47  1  0.648762  0.325056  0.574435  1
  N  N48  1  0.990578  0.674834  0.130924  1
  N  N49  1  0.000665  0.687521  0.615559  1
  N  N50  1  0.677437  0.996825  0.123663  1
  N  N51  1  0.672195  0.992088  0.620211  1
  N  N52  1  0.955362  0.354430  0.246802  1
  N  N53  1  0.921570  0.345835  0.751978  1
  N  N54  1  0.015736  0.007789  0.758834  1
  O  O55  1  0.009665  0.688676  0.373378  1
  O  O56  1  0.988223  0.669765  0.880339  1
