# generated using pymatgen
data_RbPHO3F
_symmetry_space_group_name_H-M   'P 1'
_cell_length_a   15.46982053
_cell_length_b   7.49701682
_cell_length_c   8.20904220
_cell_angle_alpha   90.00000000
_cell_angle_beta   90.00000000
_cell_angle_gamma   109.02827852
_symmetry_Int_Tables_number   1
_chemical_formula_structural   RbPHO3F
_chemical_formula_sum   'Rb8 P8 H8 O24 F8'
_cell_volume   900.04132273
_cell_formula_units_Z   8
loop_
 _symmetry_equiv_pos_site_id
 _symmetry_equiv_pos_as_xyz
  1  'x, y, z'
loop_
 _atom_site_type_symbol
 _atom_site_label
 _atom_site_symmetry_multiplicity
 _atom_site_fract_x
 _atom_site_fract_y
 _atom_site_fract_z
 _atom_site_occupancy
  Rb  Rb0  1  0.037044  0.247880  0.626942  1
  Rb  Rb1  1  0.212956  0.252120  0.126943  1
  Rb  Rb2  1  0.287557  0.755998  0.869099  1
  Rb  Rb3  1  0.465258  0.769045  0.357369  1
  Rb  Rb4  1  0.535707  0.234607  0.640490  1
  Rb  Rb5  1  0.714293  0.265393  0.140490  1
  Rb  Rb6  1  0.784742  0.730955  0.857369  1
  Rb  Rb7  1  0.962443  0.744002  0.369099  1
  P  P8  1  0.040466  0.786817  0.846526  1
  P  P9  1  0.209534  0.713183  0.346526  1
  P  P10  1  0.288125  0.260626  0.664973  1
  P  P11  1  0.466819  0.257164  0.161008  1
  P  P12  1  0.533947  0.745633  0.839022  1
  P  P13  1  0.716053  0.754367  0.339022  1
  P  P14  1  0.783181  0.242836  0.661008  1
  P  P15  1  0.961875  0.239374  0.164973  1
  H  H16  1  0.044058  0.405836  0.968757  1
  H  H17  1  0.294206  0.916052  0.541852  1
  H  H18  1  0.205942  0.094164  0.468757  1
  H  H19  1  0.450544  0.583344  0.047359  1
  H  H20  1  0.548948  0.418173  0.951242  1
  H  H21  1  0.799456  0.916656  0.547359  1
  H  H22  1  0.701052  0.081827  0.451242  1
  H  H23  1  0.955794  0.583948  0.041852  1
  O  O24  1  0.036897  0.283373  0.020381  1
  O  O25  1  0.994203  0.150041  0.304525  1
  O  O26  1  0.126333  0.910708  0.922782  1
  O  O27  1  0.123667  0.589292  0.422782  1
  O  O28  1  0.291345  0.802769  0.474163  1
  O  O29  1  0.249269  0.652956  0.197870  1
  O  O30  1  0.255797  0.349959  0.804525  1
  O  O31  1  0.213103  0.216627  0.520381  1
  O  O32  1  0.322045  0.093810  0.681460  1
  O  O33  1  0.429346  0.420326  0.175426  1
  O  O34  1  0.502474  0.827211  0.694002  1
  O  O35  1  0.460242  0.705311  0.981814  1
  O  O36  1  0.539777  0.296396  0.017153  1
  O  O37  1  0.499503  0.177895  0.306223  1
  O  O38  1  0.570375  0.580735  0.823541  1
  O  O39  1  0.679625  0.919265  0.323541  1
  O  O40  1  0.789758  0.794689  0.481814  1
  O  O41  1  0.747526  0.672789  0.194002  1
  O  O42  1  0.750497  0.322105  0.806223  1
  O  O43  1  0.710223  0.203604  0.517153  1
  O  O44  1  0.820654  0.079674  0.675426  1
  O  O45  1  0.927955  0.406190  0.181460  1
  O  O46  1  0.000731  0.847044  0.697870  1
  O  O47  1  0.958655  0.697231  0.974163  1
  F  F48  1  0.062644  0.589317  0.800351  1
  F  F49  1  0.187356  0.910683  0.300351  1
  F  F50  1  0.370929  0.425552  0.583028  1
  F  F51  1  0.383030  0.085388  0.086760  1
  F  F52  1  0.617642  0.914755  0.915882  1
  F  F53  1  0.632358  0.585245  0.415882  1
  F  F54  1  0.866970  0.414612  0.586760  1
  F  F55  1  0.879071  0.074448  0.083028  1
