# generated using pymatgen
data_Ca3Co(SeO3)4
_symmetry_space_group_name_H-M   'P 1'
_cell_length_a   7.70424761
_cell_length_b   7.70424707
_cell_length_c   12.64725130
_cell_angle_alpha   107.73300984
_cell_angle_beta   107.73300857
_cell_angle_gamma   90.00000492
_symmetry_Int_Tables_number   1
_chemical_formula_structural   Ca3Co(SeO3)4
_chemical_formula_sum   'Ca6 Co2 Se8 O24'
_cell_volume   677.47207793
_cell_formula_units_Z   2
loop_
 _symmetry_equiv_pos_site_id
 _symmetry_equiv_pos_as_xyz
  1  'x, y, z'
loop_
 _atom_site_type_symbol
 _atom_site_label
 _atom_site_symmetry_multiplicity
 _atom_site_fract_x
 _atom_site_fract_y
 _atom_site_fract_z
 _atom_site_occupancy
  Ca  Ca0  1  0.801398  0.551398  0.102796  1
  Ca  Ca1  1  0.375000  0.625000  0.250000  1
  Ca  Ca2  1  0.198602  0.448602  0.897204  1
  Ca  Ca3  1  0.448602  0.198602  0.397204  1
  Ca  Ca4  1  0.551398  0.801398  0.602796  1
  Ca  Ca5  1  0.625000  0.375000  0.750000  1
  Co  Co6  1  0.125000  0.875000  0.750000  1
  Co  Co7  1  0.875000  0.125000  0.250000  1
  Se  Se8  1  0.487530  0.889375  0.116722  1
  Se  Se9  1  0.110625  0.870808  0.383278  1
  Se  Se10  1  0.889375  0.129192  0.616722  1
  Se  Se11  1  0.772653  0.512470  0.383278  1
  Se  Se12  1  0.227347  0.487530  0.616722  1
  Se  Se13  1  0.870808  0.772653  0.883278  1
  Se  Se14  1  0.129192  0.227347  0.116722  1
  Se  Se15  1  0.512470  0.110625  0.883278  1
  O  O16  1  0.865501  0.598200  0.940036  1
  O  O17  1  0.112879  0.075414  0.349005  1
  O  O18  1  0.341836  0.865501  0.440036  1
  O  O19  1  0.928438  0.295333  0.749824  1
  O  O20  1  0.273591  0.112879  0.849005  1
  O  O21  1  0.574535  0.341836  0.940036  1
  O  O22  1  0.321386  0.454491  0.749824  1
  O  O23  1  0.887121  0.924586  0.650995  1
  O  O24  1  0.658164  0.134499  0.559964  1
  O  O25  1  0.454491  0.928438  0.249824  1
  O  O26  1  0.295333  0.321386  0.249824  1
  O  O27  1  0.425465  0.658164  0.059964  1
  O  O28  1  0.704667  0.678614  0.750176  1
  O  O29  1  0.401800  0.425465  0.559964  1
  O  O30  1  0.075414  0.736126  0.849005  1
  O  O31  1  0.924586  0.263874  0.150995  1
  O  O32  1  0.545509  0.071562  0.750176  1
  O  O33  1  0.071562  0.704667  0.250176  1
  O  O34  1  0.263874  0.726409  0.650995  1
  O  O35  1  0.736126  0.273591  0.349005  1
  O  O36  1  0.134499  0.401800  0.059964  1
  O  O37  1  0.726409  0.887121  0.150995  1
  O  O38  1  0.678614  0.545509  0.250176  1
  O  O39  1  0.598200  0.574535  0.440036  1
