# generated using pymatgen
data_Na13Zr8Si9(PO16)3
_symmetry_space_group_name_H-M   'P 1'
_cell_length_a   9.19207258
_cell_length_b   9.19567879
_cell_length_c   18.62135303
_cell_angle_alpha   60.62213546
_cell_angle_beta   60.98857157
_cell_angle_gamma   60.25699458
_symmetry_Int_Tables_number   1
_chemical_formula_structural   Na13Zr8Si9(PO16)3
_chemical_formula_sum   'Na13 Zr8 Si9 P3 O48'
_cell_volume   1128.55257184
_cell_formula_units_Z   1
loop_
 _symmetry_equiv_pos_site_id
 _symmetry_equiv_pos_as_xyz
  1  'x, y, z'
loop_
 _atom_site_type_symbol
 _atom_site_label
 _atom_site_symmetry_multiplicity
 _atom_site_fract_x
 _atom_site_fract_y
 _atom_site_fract_z
 _atom_site_occupancy
  Na  Na0  1  0.296927  0.055478  0.201106  1
  Na  Na1  1  0.096437  0.232491  0.400994  1
  Na  Na2  1  0.998593  0.505093  0.497120  1
  Na  Na3  1  0.597768  0.387773  0.130980  1
  Na  Na4  1  0.302892  0.049834  0.706081  1
  Na  Na5  1  0.394012  0.619768  0.369541  1
  Na  Na6  1  0.011503  0.449130  0.988642  1
  Na  Na7  1  0.915761  0.745437  0.083880  1
  Na  Na8  1  0.601193  0.386960  0.629681  1
  Na  Na9  1  0.705375  0.946191  0.303431  1
  Na  Na10  1  0.384382  0.612228  0.877711  1
  Na  Na11  1  0.906697  0.763532  0.594220  1
  Na  Na12  1  0.714881  0.937426  0.804515  1
  Zr  Zr13  1  0.153545  0.648874  0.278253  1
  Zr  Zr14  1  0.644874  0.149700  0.027239  1
  Zr  Zr15  1  0.158004  0.645908  0.778783  1
  Zr  Zr16  1  0.358825  0.843661  0.469509  1
  Zr  Zr17  1  0.641918  0.155770  0.527126  1
  Zr  Zr18  1  0.849138  0.351677  0.223014  1
  Zr  Zr19  1  0.346831  0.857089  0.967621  1
  Zr  Zr20  1  0.853186  0.346609  0.722840  1
  Si  Si21  1  0.249403  0.467237  0.119274  1
  Si  Si22  1  0.039563  0.952186  0.377612  1
  Si  Si23  1  0.461990  0.254005  0.370780  1
  Si  Si24  1  0.537068  0.746598  0.125998  1
  Si  Si25  1  0.246271  0.468527  0.619330  1
  Si  Si26  1  0.041276  0.949202  0.876992  1
  Si  Si27  1  0.753399  0.531056  0.381344  1
  Si  Si28  1  0.465020  0.252070  0.869741  1
  Si  Si29  1  0.539441  0.746479  0.628175  1
  P  P30  1  0.960235  0.047162  0.122111  1
  P  P31  1  0.960255  0.047156  0.623291  1
  P  P32  1  0.752328  0.532736  0.880480  1
  O  O33  1  0.114614  0.003156  0.041983  1
  O  O34  1  0.999951  0.113993  0.288849  1
  O  O35  1  0.070825  0.431078  0.143004  1
  O  O36  1  0.262701  0.634520  0.027878  1
  O  O37  1  0.111479  0.007126  0.541262  1
  O  O38  1  0.423303  0.286683  0.112584  1
  O  O39  1  0.234733  0.519046  0.195881  1
  O  O40  1  0.065887  0.764039  0.375937  1
  O  O41  1  0.001987  0.113269  0.788523  1
  O  O42  1  0.430893  0.070920  0.398668  1
  O  O43  1  0.273897  0.418410  0.366734  1
  O  O44  1  0.479691  0.750752  0.054454  1
  O  O45  1  0.783576  0.062976  0.122282  1
  O  O46  1  0.066666  0.437002  0.640951  1
  O  O47  1  0.377129  0.726737  0.220717  1
  O  O48  1  0.623328  0.272925  0.277058  1
  O  O49  1  0.223095  0.947045  0.376365  1
  O  O50  1  0.513985  0.258603  0.442248  1
  O  O51  1  0.262069  0.634010  0.527072  1
  O  O52  1  0.723261  0.578841  0.131543  1
  O  O53  1  0.569048  0.928614  0.102052  1
  O  O54  1  0.419113  0.287308  0.614287  1
  O  O55  1  0.228376  0.525822  0.694622  1
  O  O56  1  0.940094  0.224831  0.122234  1
  O  O57  1  0.056212  0.764490  0.875701  1
  O  O58  1  0.762380  0.480320  0.305650  1
  O  O59  1  0.581985  0.713352  0.386831  1
  O  O60  1  0.445483  0.064125  0.895580  1
  O  O61  1  0.279100  0.419378  0.865337  1
  O  O62  1  0.737804  0.366413  0.473806  1
  O  O63  1  0.484382  0.746592  0.556796  1
  O  O64  1  0.783517  0.055294  0.626849  1
  O  O65  1  0.377476  0.723755  0.722145  1
  O  O66  1  0.625598  0.277735  0.775900  1
  O  O67  1  0.932147  0.565556  0.356991  1
  O  O68  1  0.234006  0.925370  0.873853  1
  O  O69  1  0.517827  0.256198  0.941278  1
  O  O70  1  0.727007  0.581151  0.633070  1
  O  O71  1  0.568084  0.929166  0.604576  1
  O  O72  1  0.995149  0.895009  0.206358  1
  O  O73  1  0.937259  0.227505  0.622740  1
  O  O74  1  0.767492  0.480554  0.808579  1
  O  O75  1  0.588115  0.705746  0.884250  1
  O  O76  1  0.877953  0.997133  0.463587  1
  O  O77  1  0.729406  0.383129  0.968790  1
  O  O78  1  0.915686  0.576514  0.856555  1
  O  O79  1  0.001988  0.895532  0.706125  1
  O  O80  1  0.881254  0.997236  0.962545  1
