# generated using pymatgen
data_ZrNCl
_symmetry_space_group_name_H-M   'P 1'
_cell_length_a   3.36295102
_cell_length_b   3.36295124
_cell_length_c   12.29768455
_cell_angle_alpha   90.00000000
_cell_angle_beta   90.00000000
_cell_angle_gamma   119.99999783
_symmetry_Int_Tables_number   1
_chemical_formula_structural   ZrNCl
_chemical_formula_sum   'Zr2 N2 Cl2'
_cell_volume   120.44675458
_cell_formula_units_Z   2
loop_
 _symmetry_equiv_pos_site_id
 _symmetry_equiv_pos_as_xyz
  1  'x, y, z'
loop_
 _atom_site_type_symbol
 _atom_site_label
 _atom_site_symmetry_multiplicity
 _atom_site_fract_x
 _atom_site_fract_y
 _atom_site_fract_z
 _atom_site_occupancy
  Zr  Zr0  1  0.000000  0.000000  0.195889  1
  Zr  Zr1  1  0.000000  0.000000  0.804111  1
  N  N2  1  0.666667  0.333333  0.131427  1
  N  N3  1  0.333333  0.666667  0.868573  1
  Cl  Cl4  1  0.333333  0.666667  0.642638  1
  Cl  Cl5  1  0.666667  0.333333  0.357362  1
