# generated using pymatgen
data_Al2O3
_symmetry_space_group_name_H-M   'P 1'
_cell_length_a   5.22317872
_cell_length_b   5.62168216
_cell_length_c   32.48257383
_cell_angle_alpha   53.10153445
_cell_angle_beta   41.17346992
_cell_angle_gamma   58.92663821
_symmetry_Int_Tables_number   1
_chemical_formula_structural   Al2O3
_chemical_formula_sum   'Al12 O18'
_cell_volume   498.39817482
_cell_formula_units_Z   6
loop_
 _symmetry_equiv_pos_site_id
 _symmetry_equiv_pos_as_xyz
  1  'x, y, z'
loop_
 _atom_site_type_symbol
 _atom_site_label
 _atom_site_symmetry_multiplicity
 _atom_site_fract_x
 _atom_site_fract_y
 _atom_site_fract_z
 _atom_site_occupancy
  Al  Al0  1  0.921964  -0.030223  0.976341  1
  Al  Al1  1  0.372728  0.741862  0.141416  1
  Al  Al2  1  0.157359  0.210755  0.523999  1
  Al  Al3  1  0.497183  0.713615  0.223263  1
  Al  Al4  1  0.628609  0.567036  0.367978  1
  Al  Al5  1  0.853194  0.341993  0.457130  1
  Al  Al6  1  0.132991  0.292982  0.787818  1
  Al  Al7  1  0.508584  0.642849  0.559413  1
  Al  Al8  1  0.678082  0.614754  0.622166  1
  Al  Al9  1  0.797117  0.458397  0.721764  1
  Al  Al10  1  0.522616  0.736297  0.820884  1
  Al  Al11  1  0.746679  0.620776  0.891121  1
  O  O12  1  0.601406  0.622724  0.170323  1
  O  O13  1  0.641820  0.794265  0.061266  1
  O  O14  1  0.875335  0.792902  0.198576  1
  O  O15  1  0.030622  0.736706  0.294880  1
  O  O16  1  0.527137  0.490829  0.439143  1
  O  O17  1  0.329919  0.423605  0.384397  1
  O  O18  1  0.770461  0.407582  0.514128  1
  O  O19  1  0.648362  0.006917  0.508558  1
  O  O20  1  0.883946  0.395144  0.578187  1
  O  O21  1  0.069786  0.826608  0.563499  1
  O  O22  1  0.507332  0.549750  0.700049  1
  O  O23  1  0.226125  0.630115  0.644049  1
  O  O24  1  0.749369  0.497927  0.777650  1
  O  O25  1  0.638192  0.105573  0.772042  1
  O  O26  1  0.851250  0.500105  0.839571  1
  O  O27  1  0.878088  0.348072  0.940024  1
  O  O28  1  0.058591  0.898295  0.837380  1
  O  O29  1  0.265156  0.771787  0.924984  1
