# generated using pymatgen
data_NaPrS2
_symmetry_space_group_name_H-M   'P 1'
_cell_length_a   8.13236770
_cell_length_b   10.91433272
_cell_length_c   7.28205342
_cell_angle_alpha   28.96062935
_cell_angle_beta   56.09824982
_cell_angle_gamma   41.86358257
_symmetry_Int_Tables_number   1
_chemical_formula_structural   NaPrS2
_chemical_formula_sum   'Na2 Pr2 S4'
_cell_volume   199.86191979
_cell_formula_units_Z   2
loop_
 _symmetry_equiv_pos_site_id
 _symmetry_equiv_pos_as_xyz
  1  'x, y, z'
loop_
 _atom_site_type_symbol
 _atom_site_label
 _atom_site_symmetry_multiplicity
 _atom_site_fract_x
 _atom_site_fract_y
 _atom_site_fract_z
 _atom_site_occupancy
  Na  Na0  1  0.246909  0.504991  0.997226  1
  Na  Na1  1  0.504675  0.998593  0.997716  1
  Pr  Pr2  1  0.002092  0.000523  0.998893  1
  Pr  Pr3  1  0.750950  0.502044  0.997044  1
  S  S4  1  0.237308  0.000979  0.525883  1
  S  S5  1  0.989296  0.500661  0.524370  1
  S  S6  1  0.763208  0.002409  0.470546  1
  S  S7  1  0.515424  0.500155  0.472233  1
