# generated using pymatgen
data_Sm2ZnS4
_symmetry_space_group_name_H-M   'P 1'
_cell_length_a   7.36959005
_cell_length_b   7.36958957
_cell_length_c   7.36958939
_cell_angle_alpha   111.29417600
_cell_angle_beta   105.88377735
_cell_angle_gamma   111.29417603
_symmetry_Int_Tables_number   1
_chemical_formula_structural   Sm2ZnS4
_chemical_formula_sum   'Sm4 Zn2 S8'
_cell_volume   307.21298124
_cell_formula_units_Z   2
loop_
 _symmetry_equiv_pos_site_id
 _symmetry_equiv_pos_as_xyz
  1  'x, y, z'
loop_
 _atom_site_type_symbol
 _atom_site_label
 _atom_site_symmetry_multiplicity
 _atom_site_fract_x
 _atom_site_fract_y
 _atom_site_fract_z
 _atom_site_occupancy
  Sm  Sm0  1  0.250000  0.645761  0.395761  1
  Sm  Sm1  1  0.604239  0.354239  0.250000  1
  Sm  Sm2  1  0.750000  0.854239  0.104239  1
  Sm  Sm3  1  0.895761  0.145761  0.750000  1
  Zn  Zn4  1  0.125000  0.750000  0.875000  1
  Zn  Zn5  1  0.375000  0.250000  0.625000  1
  S  S6  1  0.021646  0.903257  0.490521  1
  S  S7  1  0.478354  0.968875  0.881611  1
  S  S8  1  0.118389  0.096743  0.087264  1
  S  S9  1  0.381611  0.468875  0.978354  1
  S  S10  1  0.587264  0.596743  0.618389  1
  S  S11  1  0.509479  0.031125  0.412736  1
  S  S12  1  0.912736  0.531125  0.009479  1
  S  S13  1  0.990521  0.403257  0.521646  1
