# generated using pymatgen
data_P2O5
_symmetry_space_group_name_H-M   'P 1'
_cell_length_a   8.22124323
_cell_length_b   8.47116057
_cell_length_c   8.18541295
_cell_angle_alpha   89.97636695
_cell_angle_beta   88.06111332
_cell_angle_gamma   89.58349601
_symmetry_Int_Tables_number   1
_chemical_formula_structural   P2O5
_chemical_formula_sum   'P8 O20'
_cell_volume   569.71914318
_cell_formula_units_Z   4
loop_
 _symmetry_equiv_pos_site_id
 _symmetry_equiv_pos_as_xyz
  1  'x, y, z'
loop_
 _atom_site_type_symbol
 _atom_site_label
 _atom_site_symmetry_multiplicity
 _atom_site_fract_x
 _atom_site_fract_y
 _atom_site_fract_z
 _atom_site_occupancy
  P  P0  1  0.271814  0.023617  0.015419  1
  P  P1  1  0.999401  0.026260  0.273356  1
  P  P2  1  0.983952  0.203700  0.962135  1
  P  P3  1  0.888992  0.868195  0.893475  1
  P  P4  1  0.506825  0.519369  0.783064  1
  P  P5  1  0.463677  0.704940  0.489484  1
  P  P6  1  0.401496  0.367049  0.382794  1
  P  P7  1  0.766421  0.527962  0.511006  1
  O  O8  1  0.564146  0.337781  0.285683  1
  O  O9  1  0.266470  0.303182  0.287239  1
  O  O10  1  0.402713  0.854660  0.430247  1
  O  O11  1  0.785529  0.864530  0.065400  1
  O  O12  1  0.925896  0.055605  0.858342  1
  O  O13  1  0.254081  0.885351  0.899151  1
  O  O14  1  0.447853  0.677846  0.682189  1
  O  O15  1  0.051934  0.777589  0.903603  1
  O  O16  1  0.773359  0.809337  0.772330  1
  O  O17  1  0.180352  0.183285  0.955019  1
  O  O18  1  0.762917  0.397371  0.383087  1
  O  O19  1  0.880007  0.883436  0.233140  1
  O  O20  1  0.678424  0.475733  0.680952  1
  O  O21  1  0.372726  0.553104  0.419907  1
  O  O22  1  0.415303  0.283755  0.561272  1
  O  O23  1  0.928742  0.356785  0.903234  1
  O  O24  1  0.934824  0.164505  0.148407  1
  O  O25  1  0.181119  0.981424  0.184921  1
  O  O26  1  0.654742  0.674328  0.446836  1
  O  O27  1  0.392286  0.375299  0.724310  1
