# generated using pymatgen
data_CaTa2Ga2(CuO4)3
_symmetry_space_group_name_H-M   'P 1'
_cell_length_a   7.55538669
_cell_length_b   7.54200307
_cell_length_c   15.08828694
_cell_angle_alpha   89.92442352
_cell_angle_beta   89.85304235
_cell_angle_gamma   89.84148190
_symmetry_Int_Tables_number   1
_chemical_formula_structural   CaTa2Ga2(CuO4)3
_chemical_formula_sum   'Ca4 Ta8 Ga8 Cu12 O48'
_cell_volume   859.76521899
_cell_formula_units_Z   4
loop_
 _symmetry_equiv_pos_site_id
 _symmetry_equiv_pos_as_xyz
  1  'x, y, z'
loop_
 _atom_site_type_symbol
 _atom_site_label
 _atom_site_symmetry_multiplicity
 _atom_site_fract_x
 _atom_site_fract_y
 _atom_site_fract_z
 _atom_site_occupancy
  Ca  Ca0  1  0.267534  0.247397  0.124374  1
  Ca  Ca1  1  0.251765  0.251269  0.625047  1
  Ca  Ca2  1  0.748235  0.748731  0.374953  1
  Ca  Ca3  1  0.732466  0.752603  0.875626  1
  Ta  Ta4  1  0.000000  0.000000  0.000000  1
  Ta  Ta5  1  0.999118  0.003700  0.253597  1
  Ta  Ta6  1  0.000000  0.500000  0.000000  1
  Ta  Ta7  1  0.000882  0.996300  0.746403  1
  Ta  Ta8  1  0.000000  0.500000  0.500000  1
  Ta  Ta9  1  0.500000  0.000000  0.500000  1
  Ta  Ta10  1  0.500211  0.499004  0.749538  1
  Ta  Ta11  1  0.499789  0.500996  0.250462  1
  Ga  Ga12  1  0.000713  0.499676  0.249069  1
  Ga  Ga13  1  0.000000  0.000000  0.500000  1
  Ga  Ga14  1  0.999287  0.500324  0.750931  1
  Ga  Ga15  1  0.500000  0.000000  0.000000  1
  Ga  Ga16  1  0.499759  0.997603  0.246648  1
  Ga  Ga17  1  0.500241  0.002397  0.753352  1
  Ga  Ga18  1  0.500000  0.500000  0.000000  1
  Ga  Ga19  1  0.500000  0.500000  0.500000  1
  Cu  Cu20  1  0.250445  0.250404  0.374992  1
  Cu  Cu21  1  0.257241  0.750896  0.124712  1
  Cu  Cu22  1  0.250037  0.750001  0.374985  1
  Cu  Cu23  1  0.254611  0.250041  0.874616  1
  Cu  Cu24  1  0.251736  0.749302  0.624950  1
  Cu  Cu25  1  0.257867  0.749869  0.874824  1
  Cu  Cu26  1  0.742133  0.250131  0.125176  1
  Cu  Cu27  1  0.748264  0.250698  0.375050  1
  Cu  Cu28  1  0.745389  0.749959  0.125384  1
  Cu  Cu29  1  0.749963  0.249999  0.625015  1
  Cu  Cu30  1  0.742759  0.249104  0.875288  1
  Cu  Cu31  1  0.749555  0.749596  0.625008  1
  O  O32  1  0.053695  0.751114  0.286300  1
  O  O33  1  0.053155  0.749798  0.463080  1
  O  O34  1  0.054050  0.751241  0.787702  1
  O  O35  1  0.053502  0.750689  0.962652  1
  O  O36  1  0.074516  0.554848  0.123504  1
  O  O37  1  0.073634  0.946677  0.124572  1
  O  O38  1  0.073700  0.553607  0.624805  1
  O  O39  1  0.074705  0.945883  0.624107  1
  O  O40  1  0.249975  0.073536  0.473358  1
  O  O41  1  0.250322  0.426452  0.276839  1
  O  O42  1  0.244767  0.074231  0.972905  1
  O  O43  1  0.250465  0.426463  0.776349  1
  O  O44  1  0.248496  0.073169  0.276852  1
  O  O45  1  0.246343  0.074008  0.776629  1
  O  O46  1  0.249546  0.426547  0.473376  1
  O  O47  1  0.247300  0.425532  0.972967  1
  O  O48  1  0.427678  0.551850  0.126448  1
  O  O49  1  0.425442  0.946690  0.125019  1
  O  O50  1  0.426406  0.553310  0.624605  1
  O  O51  1  0.426830  0.947113  0.625211  1
  O  O52  1  0.446895  0.750517  0.463328  1
  O  O53  1  0.447277  0.749644  0.287730  1
  O  O54  1  0.446274  0.748306  0.962756  1
  O  O55  1  0.447534  0.749405  0.785215  1
  O  O56  1  0.552466  0.250595  0.214785  1
  O  O57  1  0.553726  0.251694  0.037244  1
  O  O58  1  0.552723  0.250356  0.712270  1
  O  O59  1  0.553105  0.249483  0.536672  1
  O  O60  1  0.573170  0.052887  0.374789  1
  O  O61  1  0.573594  0.446690  0.375395  1
  O  O62  1  0.574558  0.053310  0.874981  1
  O  O63  1  0.572322  0.448150  0.873552  1
  O  O64  1  0.752700  0.574468  0.027033  1
  O  O65  1  0.750454  0.573453  0.526624  1
  O  O66  1  0.753657  0.925992  0.223371  1
  O  O67  1  0.751504  0.926831  0.723148  1
  O  O68  1  0.749535  0.573537  0.223651  1
  O  O69  1  0.755233  0.925769  0.027095  1
  O  O70  1  0.749678  0.573548  0.723161  1
  O  O71  1  0.750025  0.926464  0.526642  1
  O  O72  1  0.925295  0.054117  0.375893  1
  O  O73  1  0.926300  0.446393  0.375195  1
  O  O74  1  0.926366  0.053323  0.875428  1
  O  O75  1  0.925484  0.445152  0.876496  1
  O  O76  1  0.946498  0.249311  0.037348  1
  O  O77  1  0.945950  0.248759  0.212298  1
  O  O78  1  0.946845  0.250202  0.536920  1
  O  O79  1  0.946305  0.248886  0.713700  1
