# generated using pymatgen
data_SiO2
_symmetry_space_group_name_H-M   'P 1'
_cell_length_a   8.88918890
_cell_length_b   11.32759920
_cell_length_c   17.60475859
_cell_angle_alpha   90.00000000
_cell_angle_beta   90.00000000
_cell_angle_gamma   90.00000000
_symmetry_Int_Tables_number   1
_chemical_formula_structural   SiO2
_chemical_formula_sum   'Si32 O64'
_cell_volume   1772.67893318
_cell_formula_units_Z   32
loop_
 _symmetry_equiv_pos_site_id
 _symmetry_equiv_pos_as_xyz
  1  'x, y, z'
loop_
 _atom_site_type_symbol
 _atom_site_label
 _atom_site_symmetry_multiplicity
 _atom_site_fract_x
 _atom_site_fract_y
 _atom_site_fract_z
 _atom_site_occupancy
  Si  Si0  1  0.776095  0.104019  0.791051  1
  Si  Si1  1  0.776095  0.895981  0.208949  1
  Si  Si2  1  0.223905  0.104019  0.708949  1
  Si  Si3  1  0.223905  0.895981  0.291051  1
  Si  Si4  1  0.276095  0.604019  0.791051  1
  Si  Si5  1  0.276095  0.395981  0.208949  1
  Si  Si6  1  0.723905  0.604019  0.708949  1
  Si  Si7  1  0.723905  0.395981  0.291051  1
  Si  Si8  1  0.797134  0.126150  0.124929  1
  Si  Si9  1  0.797134  0.873850  0.875071  1
  Si  Si10  1  0.202866  0.126150  0.375071  1
  Si  Si11  1  0.202866  0.873850  0.624929  1
  Si  Si12  1  0.297134  0.626150  0.124929  1
  Si  Si13  1  0.297134  0.373850  0.875071  1
  Si  Si14  1  0.702866  0.626150  0.375071  1
  Si  Si15  1  0.702866  0.373850  0.624929  1
  Si  Si16  1  0.587125  0.357790  0.138927  1
  Si  Si17  1  0.587125  0.642210  0.861073  1
  Si  Si18  1  0.412875  0.357790  0.361073  1
  Si  Si19  1  0.412875  0.642210  0.638927  1
  Si  Si20  1  0.087125  0.857790  0.138927  1
  Si  Si21  1  0.087125  0.142210  0.861073  1
  Si  Si22  1  0.912875  0.857790  0.361073  1
  Si  Si23  1  0.912875  0.142210  0.638927  1
  Si  Si24  1  0.500000  0.271089  0.750000  1
  Si  Si25  1  0.500000  0.728911  0.250000  1
  Si  Si26  1  0.000000  0.771089  0.750000  1
  Si  Si27  1  0.000000  0.228911  0.250000  1
  Si  Si28  1  0.968605  0.000000  0.000000  1
  Si  Si29  1  0.031395  0.000000  0.500000  1
  Si  Si30  1  0.468605  0.500000  0.000000  1
  Si  Si31  1  0.531395  0.500000  0.500000  1
  O  O32  1  0.715805  0.991416  0.840079  1
  O  O33  1  0.715805  0.008584  0.159921  1
  O  O34  1  0.284195  0.991416  0.659921  1
  O  O35  1  0.284195  0.008584  0.340079  1
  O  O36  1  0.215805  0.491416  0.840079  1
  O  O37  1  0.215805  0.508584  0.159921  1
  O  O38  1  0.784195  0.491416  0.659921  1
  O  O39  1  0.784195  0.508584  0.340079  1
  O  O40  1  0.829766  0.064798  0.705431  1
  O  O41  1  0.829766  0.935202  0.294569  1
  O  O42  1  0.170234  0.064798  0.794569  1
  O  O43  1  0.170234  0.935202  0.205431  1
  O  O44  1  0.329766  0.564798  0.705431  1
  O  O45  1  0.329766  0.435202  0.294569  1
  O  O46  1  0.670234  0.564798  0.794569  1
  O  O47  1  0.670234  0.435202  0.205431  1
  O  O48  1  0.637276  0.194344  0.783399  1
  O  O49  1  0.637276  0.805656  0.216601  1
  O  O50  1  0.362724  0.194344  0.716601  1
  O  O51  1  0.362724  0.805656  0.283399  1
  O  O52  1  0.137276  0.694344  0.783399  1
  O  O53  1  0.137276  0.305656  0.216601  1
  O  O54  1  0.862724  0.694344  0.716601  1
  O  O55  1  0.862724  0.305656  0.283399  1
  O  O56  1  0.915400  0.172046  0.833581  1
  O  O57  1  0.915400  0.827954  0.166419  1
  O  O58  1  0.084600  0.172046  0.666419  1
  O  O59  1  0.084600  0.827954  0.333581  1
  O  O60  1  0.415400  0.672046  0.833581  1
  O  O61  1  0.415400  0.327954  0.166419  1
  O  O62  1  0.584600  0.672046  0.666419  1
  O  O63  1  0.584600  0.327954  0.333581  1
  O  O64  1  0.860372  0.099329  0.039559  1
  O  O65  1  0.860372  0.900671  0.960441  1
  O  O66  1  0.139628  0.099329  0.460441  1
  O  O67  1  0.139628  0.900671  0.539559  1
  O  O68  1  0.360372  0.599329  0.039559  1
  O  O69  1  0.360372  0.400671  0.960441  1
  O  O70  1  0.639628  0.599329  0.460441  1
  O  O71  1  0.639628  0.400671  0.539559  1
  O  O72  1  0.679829  0.236357  0.122543  1
  O  O73  1  0.679829  0.763643  0.877457  1
  O  O74  1  0.320171  0.236357  0.377457  1
  O  O75  1  0.320171  0.763643  0.622543  1
  O  O76  1  0.179829  0.736357  0.122543  1
  O  O77  1  0.179829  0.263643  0.877457  1
  O  O78  1  0.820171  0.736357  0.377457  1
  O  O79  1  0.820171  0.263643  0.622543  1
  O  O80  1  0.941752  0.149899  0.179274  1
  O  O81  1  0.941752  0.850101  0.820726  1
  O  O82  1  0.058248  0.149899  0.320726  1
  O  O83  1  0.058248  0.850101  0.679274  1
  O  O84  1  0.441752  0.649899  0.179274  1
  O  O85  1  0.441752  0.350101  0.820726  1
  O  O86  1  0.558248  0.649899  0.320726  1
  O  O87  1  0.558248  0.350101  0.679274  1
  O  O88  1  0.578208  0.436794  0.061967  1
  O  O89  1  0.578208  0.563206  0.938033  1
  O  O90  1  0.421792  0.436794  0.438033  1
  O  O91  1  0.421792  0.563206  0.561967  1
  O  O92  1  0.078208  0.936794  0.061967  1
  O  O93  1  0.078208  0.063206  0.938033  1
  O  O94  1  0.921792  0.936794  0.438033  1
  O  O95  1  0.921792  0.063206  0.561967  1
