# generated using pymatgen
data_Si4Mo2P4O23
_symmetry_space_group_name_H-M   'P 1'
_cell_length_a   5.29991725
_cell_length_b   8.56829091
_cell_length_c   11.37500608
_cell_angle_alpha   77.80017686
_cell_angle_beta   77.71445819
_cell_angle_gamma   73.02855767
_symmetry_Int_Tables_number   1
_chemical_formula_structural   Si4Mo2P4O23
_chemical_formula_sum   'Si4 Mo2 P4 O23'
_cell_volume   476.55037162
_cell_formula_units_Z   1
loop_
 _symmetry_equiv_pos_site_id
 _symmetry_equiv_pos_as_xyz
  1  'x, y, z'
loop_
 _atom_site_type_symbol
 _atom_site_label
 _atom_site_symmetry_multiplicity
 _atom_site_fract_x
 _atom_site_fract_y
 _atom_site_fract_z
 _atom_site_occupancy
  Si  Si0  1  0.058453  0.186678  0.712218  1
  Si  Si1  1  0.441539  0.687031  0.428557  1
  Si  Si2  1  0.558461  0.312969  0.571443  1
  Si  Si3  1  0.941547  0.813322  0.287782  1
  Mo  Mo4  1  0.290868  0.255303  0.147339  1
  Mo  Mo5  1  0.709132  0.744697  0.852661  1
  P  P6  1  0.158320  0.685357  0.053758  1
  P  P7  1  0.248986  0.811783  0.668645  1
  P  P8  1  0.751014  0.188217  0.331355  1
  P  P9  1  0.841680  0.314643  0.946242  1
  O  O10  1  0.412014  0.045055  0.169517  1
  O  O11  1  0.972445  0.177645  0.859430  1
  O  O12  1  0.854900  0.481434  0.869406  1
  O  O13  1  0.145100  0.518566  0.130594  1
  O  O14  1  0.359918  0.816554  0.528203  1
  O  O15  1  0.468338  0.712319  0.741189  1
  O  O16  1  0.552178  0.303225  0.992195  1
  O  O17  1  0.706976  0.719261  0.338440  1
  O  O18  1  0.997212  0.735927  0.949148  1
  O  O19  1  0.640082  0.183446  0.471797  1
  O  O20  1  0.587986  0.954945  0.830483  1
  O  O21  1  0.002408  0.745170  0.696110  1
  O  O22  1  0.170940  0.997694  0.682571  1
  O  O23  1  0.803983  0.279065  0.644056  1
  O  O24  1  0.997592  0.254830  0.303890  1
  O  O25  1  0.500000  0.500000  0.500000  1
  O  O26  1  0.002788  0.264073  0.050852  1
  O  O27  1  0.447822  0.696775  0.007805  1
  O  O28  1  0.196017  0.720935  0.355944  1
  O  O29  1  0.293024  0.280739  0.661560  1
  O  O30  1  0.531662  0.287681  0.258811  1
  O  O31  1  0.027555  0.822355  0.140570  1
  O  O32  1  0.829060  0.002306  0.317429  1
