# generated using pymatgen
data_AgH8C4S3(OF)3
_symmetry_space_group_name_H-M   'P 1'
_cell_length_a   9.24323352
_cell_length_b   11.19340875
_cell_length_c   21.95253152
_cell_angle_alpha   90.00000000
_cell_angle_beta   90.00000000
_cell_angle_gamma   90.17934079
_symmetry_Int_Tables_number   1
_chemical_formula_structural   AgH8C4S3(OF)3
_chemical_formula_sum   'Ag8 H64 C32 S24 O24 F24'
_cell_volume   2271.27002891
_cell_formula_units_Z   8
loop_
 _symmetry_equiv_pos_site_id
 _symmetry_equiv_pos_as_xyz
  1  'x, y, z'
loop_
 _atom_site_type_symbol
 _atom_site_label
 _atom_site_symmetry_multiplicity
 _atom_site_fract_x
 _atom_site_fract_y
 _atom_site_fract_z
 _atom_site_occupancy
  Ag  Ag0  1  0.242464  0.247902  0.245088  1
  Ag  Ag1  1  0.261660  0.162320  0.746307  1
  Ag  Ag2  1  0.757536  0.252098  0.745088  1
  Ag  Ag3  1  0.757536  0.752098  0.754912  1
  Ag  Ag4  1  0.738340  0.337680  0.246307  1
  Ag  Ag5  1  0.242464  0.747902  0.254912  1
  Ag  Ag6  1  0.261660  0.662320  0.753693  1
  Ag  Ag7  1  0.738340  0.837680  0.253693  1
  H  H8  1  0.040126  0.437645  0.739764  1
  H  H9  1  0.927456  0.781215  0.610030  1
  H  H10  1  0.336739  0.528547  0.423611  1
  H  H11  1  0.115946  0.234995  0.891422  1
  H  H12  1  0.597757  0.332552  0.608357  1
  H  H13  1  0.469762  0.457518  0.678848  1
  H  H14  1  0.977783  0.627848  0.623776  1
  H  H15  1  0.115946  0.734995  0.608578  1
  H  H16  1  0.297862  0.550688  0.905493  1
  H  H17  1  0.572215  0.864555  0.107043  1
  H  H18  1  0.427785  0.135445  0.892957  1
  H  H19  1  0.110001  0.573398  0.888537  1
  H  H20  1  0.214218  0.650280  0.410456  1
  H  H21  1  0.336739  0.028547  0.076389  1
  H  H22  1  0.702138  0.949312  0.405493  1
  H  H23  1  0.702138  0.449312  0.094507  1
  H  H24  1  0.513538  0.713082  0.121932  1
  H  H25  1  0.537671  0.470358  0.754947  1
  H  H26  1  0.530238  0.542482  0.321152  1
  H  H27  1  0.927456  0.281215  0.889970  1
  H  H28  1  0.025747  0.544465  0.184137  1
  H  H29  1  0.040126  0.937645  0.760236  1
  H  H30  1  0.663261  0.971453  0.923611  1
  H  H31  1  0.889999  0.926602  0.388537  1
  H  H32  1  0.537671  0.970358  0.745053  1
  H  H33  1  0.486462  0.286918  0.878068  1
  H  H34  1  0.959874  0.562355  0.260236  1
  H  H35  1  0.884054  0.265005  0.391422  1
  H  H36  1  0.785782  0.349720  0.589544  1
  H  H37  1  0.663261  0.471453  0.576389  1
  H  H38  1  0.974253  0.455535  0.815863  1
  H  H39  1  0.214218  0.150280  0.089544  1
  H  H40  1  0.618580  0.175485  0.893721  1
  H  H41  1  0.462329  0.029642  0.254947  1
  H  H42  1  0.572215  0.364555  0.392957  1
  H  H43  1  0.513538  0.213082  0.378068  1
  H  H44  1  0.785782  0.849720  0.910456  1
  H  H45  1  0.469762  0.957518  0.821152  1
  H  H46  1  0.072544  0.218785  0.389970  1
  H  H47  1  0.170846  0.430726  0.916944  1
  H  H48  1  0.381420  0.324515  0.393721  1
  H  H49  1  0.381420  0.824515  0.106279  1
  H  H50  1  0.462329  0.529642  0.245053  1
  H  H51  1  0.022217  0.872152  0.123776  1
  H  H52  1  0.884054  0.765005  0.108578  1
  H  H53  1  0.297862  0.050688  0.594507  1
  H  H54  1  0.959874  0.062355  0.239764  1
  H  H55  1  0.402243  0.167448  0.108357  1
  H  H56  1  0.829154  0.569274  0.083056  1
  H  H57  1  0.427785  0.635445  0.607043  1
  H  H58  1  0.977783  0.127848  0.876224  1
  H  H59  1  0.829154  0.069274  0.416944  1
  H  H60  1  0.402243  0.667448  0.391643  1
  H  H61  1  0.486462  0.786918  0.621932  1
  H  H62  1  0.530238  0.042482  0.178848  1
  H  H63  1  0.025747  0.044465  0.315863  1
  H  H64  1  0.618580  0.675485  0.606279  1
  H  H65  1  0.170846  0.930726  0.583056  1
  H  H66  1  0.110001  0.073398  0.611463  1
  H  H67  1  0.889999  0.426602  0.111463  1
  H  H68  1  0.022217  0.372152  0.376224  1
  H  H69  1  0.072544  0.718785  0.110030  1
  H  H70  1  0.974253  0.955535  0.684137  1
  H  H71  1  0.597757  0.832552  0.891643  1
  C  C72  1  0.801721  0.991669  0.388838  1
  C  C73  1  0.009517  0.221752  0.870549  1
  C  C74  1  0.722359  0.528653  0.948166  1
  C  C75  1  0.990483  0.778248  0.129451  1
  C  C76  1  0.446560  0.501545  0.292522  1
  C  C77  1  0.009517  0.721752  0.629451  1
  C  C78  1  0.198279  0.008331  0.611162  1
  C  C79  1  0.801721  0.491669  0.111162  1
  C  C80  1  0.722359  0.028653  0.551834  1
  C  C81  1  0.198279  0.508331  0.888838  1
  C  C82  1  0.780476  0.132177  0.045115  1
  C  C83  1  0.487334  0.308066  0.373029  1
  C  C84  1  0.487334  0.808066  0.126971  1
  C  C85  1  0.512666  0.191934  0.873029  1
  C  C86  1  0.277641  0.971347  0.448166  1
  C  C87  1  0.311441  0.104449  0.105972  1
  C  C88  1  0.553440  0.498455  0.707478  1
  C  C89  1  0.219524  0.367823  0.545115  1
  C  C90  1  0.311441  0.604449  0.394028  1
  C  C91  1  0.056157  0.411767  0.787573  1
  C  C92  1  0.446560  0.001545  0.207478  1
  C  C93  1  0.553440  0.998455  0.792522  1
  C  C94  1  0.688559  0.895551  0.894028  1
  C  C95  1  0.277641  0.471347  0.051834  1
  C  C96  1  0.943843  0.088233  0.287573  1
  C  C97  1  0.688559  0.395551  0.605972  1
  C  C98  1  0.943843  0.588233  0.212427  1
  C  C99  1  0.219524  0.867823  0.954885  1
  C  C100  1  0.512666  0.691934  0.626971  1
  C  C101  1  0.990483  0.278248  0.370549  1
  C  C102  1  0.780476  0.632177  0.454885  1
  C  C103  1  0.056157  0.911767  0.712427  1
  S  S104  1  0.270016  0.051688  0.182160  1
  S  S105  1  0.476925  0.840056  0.207857  1
  S  S106  1  0.729984  0.448312  0.682160  1
  S  S107  1  0.978085  0.749216  0.210646  1
  S  S108  1  0.021915  0.250784  0.789354  1
  S  S109  1  0.234520  0.460517  0.811517  1
  S  S110  1  0.303984  0.965939  0.364015  1
  S  S111  1  0.021915  0.750784  0.710646  1
  S  S112  1  0.696016  0.534061  0.864015  1
  S  S113  1  0.696016  0.034061  0.635985  1
  S  S114  1  0.476925  0.340056  0.292143  1
  S  S115  1  0.765480  0.039483  0.311517  1
  S  S116  1  0.270016  0.551688  0.317840  1
  S  S117  1  0.303984  0.465939  0.135985  1
  S  S118  1  0.807874  0.621367  0.370749  1
  S  S119  1  0.765480  0.539483  0.188483  1
  S  S120  1  0.523075  0.659944  0.707857  1
  S  S121  1  0.523075  0.159944  0.792143  1
  S  S122  1  0.234520  0.960517  0.688483  1
  S  S123  1  0.978085  0.249216  0.289354  1
  S  S124  1  0.192126  0.878633  0.870749  1
  S  S125  1  0.729984  0.948312  0.817840  1
  S  S126  1  0.807874  0.121367  0.129251  1
  S  S127  1  0.192126  0.378633  0.629251  1
  O  O128  1  0.958865  0.655091  0.362289  1
  O  O129  1  0.041135  0.844909  0.862289  1
  O  O130  1  0.702209  0.706856  0.346358  1
  O  O131  1  0.041135  0.344909  0.637711  1
  O  O132  1  0.772690  0.996682  0.142199  1
  O  O133  1  0.548643  0.076578  0.643756  1
  O  O134  1  0.278669  0.589921  0.153967  1
  O  O135  1  0.772690  0.496682  0.357801  1
  O  O136  1  0.958865  0.155091  0.137711  1
  O  O137  1  0.190491  0.882555  0.343665  1
  O  O138  1  0.297791  0.293144  0.653642  1
  O  O139  1  0.809509  0.617445  0.843665  1
  O  O140  1  0.721331  0.910079  0.653967  1
  O  O141  1  0.809509  0.117445  0.656335  1
  O  O142  1  0.702209  0.206856  0.153642  1
  O  O143  1  0.278669  0.089921  0.346033  1
  O  O144  1  0.548643  0.576578  0.856244  1
  O  O145  1  0.451356  0.923422  0.356244  1
  O  O146  1  0.227310  0.003318  0.857801  1
  O  O147  1  0.451356  0.423422  0.143756  1
  O  O148  1  0.190491  0.382555  0.156335  1
  O  O149  1  0.227310  0.503318  0.642199  1
  O  O150  1  0.297791  0.793144  0.846358  1
  O  O151  1  0.721331  0.410079  0.846033  1
  F  F152  1  0.301501  0.363137  0.025523  1
  F  F153  1  0.131508  0.445221  0.515187  1
  F  F154  1  0.809144  0.743687  0.475893  1
  F  F155  1  0.358804  0.395528  0.529885  1
  F  F156  1  0.868492  0.554779  0.484813  1
  F  F157  1  0.131508  0.945221  0.984813  1
  F  F158  1  0.140126  0.005026  0.461970  1
  F  F159  1  0.859874  0.494974  0.961970  1
  F  F160  1  0.190856  0.756313  0.975893  1
  F  F161  1  0.698499  0.636863  0.974477  1
  F  F162  1  0.698499  0.136863  0.525523  1
  F  F163  1  0.809144  0.243687  0.024107  1
  F  F164  1  0.369846  0.051661  0.473542  1
  F  F165  1  0.641196  0.604472  0.470115  1
  F  F166  1  0.630154  0.448339  0.973542  1
  F  F167  1  0.630154  0.948339  0.526458  1
  F  F168  1  0.859874  0.994974  0.538030  1
  F  F169  1  0.301501  0.863137  0.474477  1
  F  F170  1  0.358804  0.895528  0.970115  1
  F  F171  1  0.369846  0.551661  0.026458  1
  F  F172  1  0.190856  0.256313  0.524107  1
  F  F173  1  0.868492  0.054779  0.015187  1
  F  F174  1  0.140126  0.505026  0.038030  1
  F  F175  1  0.641196  0.104472  0.029885  1
