# generated using pymatgen
data_K2ZnH12(SO7)2
_symmetry_space_group_name_H-M   'P 1'
_cell_length_a   6.87223520
_cell_length_b   10.33045495
_cell_length_c   12.41534030
_cell_angle_alpha   90.00000000
_cell_angle_beta   90.00000000
_cell_angle_gamma   112.66195414
_symmetry_Int_Tables_number   1
_chemical_formula_structural   K2ZnH12(SO7)2
_chemical_formula_sum   'K4 Zn2 H24 S4 O28'
_cell_volume   813.35645419
_cell_formula_units_Z   2
loop_
 _symmetry_equiv_pos_site_id
 _symmetry_equiv_pos_as_xyz
  1  'x, y, z'
loop_
 _atom_site_type_symbol
 _atom_site_label
 _atom_site_symmetry_multiplicity
 _atom_site_fract_x
 _atom_site_fract_y
 _atom_site_fract_z
 _atom_site_occupancy
  K  K0  1  0.651781  0.832854  0.723109  1
  K  K1  1  0.348219  0.667146  0.223109  1
  K  K2  1  0.348219  0.167146  0.276891  1
  K  K3  1  0.651781  0.332854  0.776891  1
  Zn  Zn4  1  0.000000  0.500000  0.500000  1
  Zn  Zn5  1  0.000000  0.000000  0.000000  1
  H  H6  1  0.945670  0.747891  0.099503  1
  H  H7  1  0.851296  0.014858  0.172824  1
  H  H8  1  0.054330  0.752109  0.599503  1
  H  H9  1  0.009871  0.699868  0.850114  1
  H  H10  1  0.442106  0.848664  0.957844  1
  H  H11  1  0.990129  0.800132  0.350114  1
  H  H12  1  0.400322  0.228983  0.024167  1
  H  H13  1  0.442106  0.348664  0.542156  1
  H  H14  1  0.400322  0.728983  0.475833  1
  H  H15  1  0.557894  0.151336  0.042156  1
  H  H16  1  0.970728  0.589847  0.755706  1
  H  H17  1  0.970728  0.089847  0.744294  1
  H  H18  1  0.148704  0.485142  0.672824  1
  H  H19  1  0.599678  0.271017  0.524167  1
  H  H20  1  0.945670  0.247891  0.400497  1
  H  H21  1  0.599678  0.771017  0.975833  1
  H  H22  1  0.990129  0.300132  0.149886  1
  H  H23  1  0.009871  0.199868  0.649886  1
  H  H24  1  0.029272  0.410153  0.244294  1
  H  H25  1  0.557894  0.651336  0.457844  1
  H  H26  1  0.851296  0.514858  0.327176  1
  H  H27  1  0.054330  0.252109  0.900497  1
  H  H28  1  0.148704  0.985142  0.827176  1
  H  H29  1  0.029272  0.910153  0.255706  1
  S  S30  1  0.693000  0.523056  0.114140  1
  S  S31  1  0.693000  0.023056  0.385860  1
  S  S32  1  0.307000  0.476944  0.885860  1
  S  S33  1  0.307000  0.976944  0.614140  1
  O  O34  1  0.510304  0.791087  0.922987  1
  O  O35  1  0.093668  0.386809  0.178601  1
  O  O36  1  0.489696  0.208913  0.077013  1
  O  O37  1  0.232350  0.394290  0.478235  1
  O  O38  1  0.145560  0.286440  0.410132  1
  O  O39  1  0.238772  0.311082  0.899041  1
  O  O40  1  0.761228  0.688918  0.100959  1
  O  O41  1  0.238772  0.811082  0.600959  1
  O  O42  1  0.906332  0.113191  0.678601  1
  O  O43  1  0.013287  0.986869  0.850229  1
  O  O44  1  0.906332  0.613191  0.821399  1
  O  O45  1  0.986713  0.513131  0.350229  1
  O  O46  1  0.854440  0.713560  0.589868  1
  O  O47  1  0.489696  0.708913  0.422987  1
  O  O48  1  0.093668  0.886809  0.321399  1
  O  O49  1  0.767650  0.105710  0.978235  1
  O  O50  1  0.616914  0.983143  0.272227  1
  O  O51  1  0.232350  0.894290  0.021765  1
  O  O52  1  0.383086  0.516857  0.772227  1
  O  O53  1  0.761228  0.188918  0.399041  1
  O  O54  1  0.616914  0.483143  0.227773  1
  O  O55  1  0.510304  0.291087  0.577013  1
  O  O56  1  0.986713  0.013131  0.149771  1
  O  O57  1  0.383086  0.016857  0.727773  1
  O  O58  1  0.145560  0.786440  0.089868  1
  O  O59  1  0.013287  0.486869  0.649771  1
  O  O60  1  0.767650  0.605710  0.521765  1
  O  O61  1  0.854440  0.213560  0.910132  1
