# generated using pymatgen
data_BeH8(NF2)2
_symmetry_space_group_name_H-M   'P 1'
_cell_length_a   7.98925510
_cell_length_b   11.05489097
_cell_length_c   5.85543978
_cell_angle_alpha   90.00003633
_cell_angle_beta   90.00023141
_cell_angle_gamma   90.01348735
_symmetry_Int_Tables_number   1
_chemical_formula_structural   BeH8(NF2)2
_chemical_formula_sum   'Be4 H32 N8 F16'
_cell_volume   517.15444168
_cell_formula_units_Z   4
loop_
 _symmetry_equiv_pos_site_id
 _symmetry_equiv_pos_as_xyz
  1  'x, y, z'
loop_
 _atom_site_type_symbol
 _atom_site_label
 _atom_site_symmetry_multiplicity
 _atom_site_fract_x
 _atom_site_fract_y
 _atom_site_fract_z
 _atom_site_occupancy
  Be  Be0  1  0.443627  0.338782  0.250001  1
  Be  Be1  1  0.943451  0.161354  0.249999  1
  Be  Be2  1  0.556519  0.660885  0.749999  1
  Be  Be3  1  0.056263  0.838979  0.750001  1
  H  H4  1  0.046060  0.415256  0.249997  1
  H  H5  1  0.546085  0.084969  0.250001  1
  H  H6  1  0.954041  0.585002  0.750001  1
  H  H7  1  0.454636  0.914986  0.749997  1
  H  H8  1  0.740774  0.353163  0.250001  1
  H  H9  1  0.240726  0.147068  0.250000  1
  H  H10  1  0.259311  0.646748  0.750001  1
  H  H11  1  0.759071  0.852764  0.750001  1
  H  H12  1  0.657983  0.468574  0.112472  1
  H  H13  1  0.157779  0.031680  0.387513  1
  H  H14  1  0.342016  0.531304  0.612463  1
  H  H15  1  0.841461  0.968357  0.887505  1
  H  H16  1  0.342016  0.531304  0.887540  1
  H  H17  1  0.841462  0.968355  0.612498  1
  H  H18  1  0.657984  0.468574  0.387530  1
  H  H19  1  0.157780  0.031680  0.112485  1
  H  H20  1  0.002203  0.780523  0.250002  1
  H  H21  1  0.502338  0.719532  0.249997  1
  H  H22  1  0.997716  0.219443  0.749995  1
  H  H23  1  0.497531  0.280216  0.749998  1
  H  H24  1  0.988508  0.626749  0.250001  1
  H  H25  1  0.488419  0.873317  0.250000  1
  H  H26  1  0.011453  0.373195  0.749999  1
  H  H27  1  0.512101  0.126452  0.749999  1
  H  H28  1  0.844047  0.706269  0.107780  1
  H  H29  1  0.344097  0.793605  0.392231  1
  H  H30  1  0.155900  0.293655  0.607765  1
  H  H31  1  0.656080  0.206464  0.892202  1
  H  H32  1  0.155899  0.293654  0.892236  1
  H  H33  1  0.656081  0.206464  0.607799  1
  H  H34  1  0.844047  0.706268  0.392222  1
  H  H35  1  0.344094  0.793606  0.107768  1
  N  N36  1  0.641086  0.411546  0.250001  1
  N  N37  1  0.140982  0.088737  0.249999  1
  N  N38  1  0.358940  0.588326  0.750002  1
  N  N39  1  0.858570  0.911389  0.750002  1
  N  N40  1  0.920279  0.708528  0.250001  1
  N  N41  1  0.420289  0.791491  0.250000  1
  N  N42  1  0.079648  0.291459  0.749999  1
  N  N43  1  0.580017  0.208606  0.749999  1
  F  F44  1  0.849849  0.136329  0.024056  1
  F  F45  1  0.349844  0.363629  0.475844  1
  F  F46  1  0.149874  0.864095  0.524173  1
  F  F47  1  0.650167  0.636047  0.975926  1
  F  F48  1  0.149878  0.864093  0.975829  1
  F  F49  1  0.650167  0.636043  0.524075  1
  F  F50  1  0.849856  0.136333  0.475949  1
  F  F51  1  0.349837  0.363633  0.024163  1
  F  F52  1  0.479630  0.196471  0.249992  1
  F  F53  1  0.979349  0.303696  0.249995  1
  F  F54  1  0.520213  0.803358  0.749994  1
  F  F55  1  0.020804  0.696576  0.750001  1
  F  F56  1  0.088701  0.501788  0.249997  1
  F  F57  1  0.588576  0.998435  0.250008  1
  F  F58  1  0.911568  0.498536  0.749998  1
  F  F59  1  0.412313  0.001657  0.749998  1
