# generated using pymatgen
data_NiBiO3
_symmetry_space_group_name_H-M   'P 1'
_cell_length_a   5.37565652
_cell_length_b   5.73356346
_cell_length_c   7.74435325
_cell_angle_alpha   90.00287862
_cell_angle_beta   90.07289258
_cell_angle_gamma   90.01006072
_symmetry_Int_Tables_number   1
_chemical_formula_structural   NiBiO3
_chemical_formula_sum   'Ni4 Bi4 O12'
_cell_volume   238.69368636
_cell_formula_units_Z   4
loop_
 _symmetry_equiv_pos_site_id
 _symmetry_equiv_pos_as_xyz
  1  'x, y, z'
loop_
 _atom_site_type_symbol
 _atom_site_label
 _atom_site_symmetry_multiplicity
 _atom_site_fract_x
 _atom_site_fract_y
 _atom_site_fract_z
 _atom_site_occupancy
  O  O0  1  0.681998  0.313980  0.559921  1
  O  O1  1  0.318002  0.686020  0.440079  1
  O  O2  1  0.183231  0.186825  0.437534  1
  O  O3  1  0.816769  0.813175  0.562466  1
  O  O4  1  0.316500  0.687191  0.062606  1
  O  O5  1  0.683500  0.312809  0.937394  1
  O  O6  1  0.818255  0.814316  0.940192  1
  O  O7  1  0.181745  0.185684  0.059808  1
  O  O8  1  0.130427  0.442679  0.749863  1
  O  O9  1  0.869573  0.557321  0.250137  1
  O  O10  1  0.630878  0.057073  0.249871  1
  O  O11  1  0.369122  0.942927  0.750129  1
  Ni  Ni12  1  0.000000  0.500000  0.500000  1
  Ni  Ni13  1  0.500000  0.000000  0.500000  1
  Ni  Ni14  1  0.000000  0.500000  0.000000  1
  Ni  Ni15  1  0.500000  0.000000  0.000000  1
  Bi  Bi16  1  0.518708  0.565491  0.748657  1
  Bi  Bi17  1  0.481292  0.434509  0.251343  1
  Bi  Bi18  1  0.018623  0.934369  0.248673  1
  Bi  Bi19  1  0.981377  0.065631  0.751327  1
