# generated using pymatgen
data_In8Cu7Se16
_symmetry_space_group_name_H-M   'P 1'
_cell_length_a   24.48153406
_cell_length_b   8.60686999
_cell_length_c   11.05501185
_cell_angle_alpha   65.26762036
_cell_angle_beta   31.50083800
_cell_angle_gamma   45.28820019
_symmetry_Int_Tables_number   1
_chemical_formula_structural   In8Cu7Se16
_chemical_formula_sum   'In8 Cu7 Se16'
_cell_volume   754.61819019
_cell_formula_units_Z   1
loop_
 _symmetry_equiv_pos_site_id
 _symmetry_equiv_pos_as_xyz
  1  'x, y, z'
loop_
 _atom_site_type_symbol
 _atom_site_label
 _atom_site_symmetry_multiplicity
 _atom_site_fract_x
 _atom_site_fract_y
 _atom_site_fract_z
 _atom_site_occupancy
  In  In0  1  0.996665  0.512933  0.005634  1
  In  In1  1  0.251515  0.507682  0.990150  1
  In  In2  1  0.124746  0.253173  0.500592  1
  In  In3  1  0.503364  0.507700  0.991950  1
  In  In4  1  0.375056  0.254476  0.500539  1
  In  In5  1  0.757457  0.500334  0.985827  1
  In  In6  1  0.632322  0.245977  0.487676  1
  In  In7  1  0.876265  0.255256  0.496891  1
  Cu  Cu8  1  0.247732  0.008859  0.002472  1
  Cu  Cu9  1  0.502415  0.004124  0.992088  1
  Cu  Cu10  1  0.129323  0.753120  0.493537  1
  Cu  Cu11  1  0.747872  0.007368  0.004436  1
  Cu  Cu12  1  0.375462  0.753265  0.499863  1
  Cu  Cu13  1  0.629986  0.748692  0.491136  1
  Cu  Cu14  1  0.873575  0.754646  0.501103  1
  Se  Se15  1  0.114485  0.373235  0.255547  1
  Se  Se16  1  0.000571  0.096327  0.765812  1
  Se  Se17  1  0.132758  0.867518  0.249212  1
  Se  Se18  1  0.370579  0.367293  0.245678  1
  Se  Se19  1  0.254311  0.090970  0.754907  1
  Se  Se20  1  0.381335  0.871688  0.253117  1
  Se  Se21  1  0.234565  0.656386  0.758245  1
  Se  Se22  1  0.617491  0.372652  0.248907  1
  Se  Se23  1  0.502258  0.096505  0.755518  1
  Se  Se24  1  0.632541  0.868339  0.248861  1
  Se  Se25  1  0.491884  0.649986  0.747918  1
  Se  Se26  1  0.869366  0.368120  0.249241  1
  Se  Se27  1  0.754292  0.092823  0.756478  1
  Se  Se28  1  0.890630  0.872111  0.232416  1
  Se  Se29  1  0.739105  0.651919  0.754213  1
  Se  Se30  1  0.993178  0.650085  0.746799  1
