# generated using pymatgen
data_Fe3C9(SO5)2
_symmetry_space_group_name_H-M   'P 1'
_cell_length_a   9.10901784
_cell_length_b   9.58965175
_cell_length_c   10.41716590
_cell_angle_alpha   97.08900606
_cell_angle_beta   91.27991424
_cell_angle_gamma   116.94953988
_symmetry_Int_Tables_number   1
_chemical_formula_structural   Fe3C9(SO5)2
_chemical_formula_sum   'Fe6 C18 S4 O20'
_cell_volume   801.78928398
_cell_formula_units_Z   2
loop_
 _symmetry_equiv_pos_site_id
 _symmetry_equiv_pos_as_xyz
  1  'x, y, z'
loop_
 _atom_site_type_symbol
 _atom_site_label
 _atom_site_symmetry_multiplicity
 _atom_site_fract_x
 _atom_site_fract_y
 _atom_site_fract_z
 _atom_site_occupancy
  Fe  Fe0  1  0.879324  0.610505  0.758430  1
  Fe  Fe1  1  0.686186  0.748790  0.802279  1
  Fe  Fe2  1  0.120676  0.389495  0.241570  1
  Fe  Fe3  1  0.313814  0.251210  0.197721  1
  Fe  Fe4  1  0.416332  0.647069  0.282482  1
  Fe  Fe5  1  0.583668  0.352931  0.717518  1
  C  C6  1  0.995209  0.343625  0.091328  1
  C  C7  1  0.772520  0.915951  0.711779  1
  C  C8  1  0.004791  0.656375  0.908672  1
  C  C9  1  0.591535  0.240210  0.565253  1
  C  C10  1  0.478647  0.721604  0.798642  1
  C  C11  1  0.521353  0.278396  0.201358  1
  C  C12  1  0.235603  0.125618  0.042379  1
  C  C13  1  0.227480  0.084049  0.288221  1
  C  C14  1  0.423842  0.796892  0.187565  1
  C  C15  1  0.408465  0.759790  0.434747  1
  C  C16  1  0.060337  0.528768  0.322075  1
  C  C17  1  0.977643  0.219852  0.308531  1
  C  C18  1  0.764397  0.874382  0.957621  1
  C  C19  1  0.634152  0.706778  0.296262  1
  C  C20  1  0.365848  0.293222  0.703738  1
  C  C21  1  0.022357  0.780148  0.691469  1
  C  C22  1  0.939663  0.471232  0.677925  1
  C  C23  1  0.576158  0.203108  0.812435  1
  S  S24  1  0.664430  0.575678  0.620789  1
  S  S25  1  0.662868  0.541603  0.880342  1
  S  S26  1  0.337132  0.458397  0.119658  1
  S  S27  1  0.335570  0.424322  0.379211  1
  O  O28  1  0.813165  0.949701  0.059061  1
  O  O29  1  0.883982  0.113009  0.353198  1
  O  O30  1  0.593464  0.169722  0.467772  1
  O  O31  1  0.177915  0.979758  0.346894  1
  O  O32  1  0.326198  0.474270  0.978728  1
  O  O33  1  0.655139  0.294803  0.205968  1
  O  O34  1  0.990154  0.390583  0.624812  1
  O  O35  1  0.226652  0.257339  0.693116  1
  O  O36  1  0.080175  0.688452  0.007934  1
  O  O37  1  0.432740  0.892778  0.126849  1
  O  O38  1  0.822085  0.020242  0.653106  1
  O  O39  1  0.567260  0.107222  0.873151  1
  O  O40  1  0.116018  0.886991  0.646802  1
  O  O41  1  0.186835  0.050299  0.940939  1
  O  O42  1  0.773348  0.742661  0.306884  1
  O  O43  1  0.406536  0.830278  0.532228  1
  O  O44  1  0.673802  0.525730  0.021272  1
  O  O45  1  0.009846  0.609417  0.375188  1
  O  O46  1  0.919825  0.311548  0.992066  1
  O  O47  1  0.344861  0.705197  0.794032  1
