# generated using pymatgen
data_CaMoO3
_symmetry_space_group_name_H-M   'P 1'
_cell_length_a   5.53290882
_cell_length_b   5.74760518
_cell_length_c   7.90780227
_cell_angle_alpha   90.59568999
_cell_angle_beta   90.02385069
_cell_angle_gamma   89.96632794
_symmetry_Int_Tables_number   1
_chemical_formula_structural   CaMoO3
_chemical_formula_sum   'Ca4 Mo4 O12'
_cell_volume   251.46216924
_cell_formula_units_Z   4
loop_
 _symmetry_equiv_pos_site_id
 _symmetry_equiv_pos_as_xyz
  1  'x, y, z'
loop_
 _atom_site_type_symbol
 _atom_site_label
 _atom_site_symmetry_multiplicity
 _atom_site_fract_x
 _atom_site_fract_y
 _atom_site_fract_z
 _atom_site_occupancy
  O  O0  1  0.697399  0.309804  0.451366  1
  O  O1  1  0.197284  0.190254  0.548685  1
  O  O2  1  0.804982  0.793591  0.055833  1
  O  O3  1  0.305493  0.706491  0.943979  1
  O  O4  1  0.302601  0.690196  0.548634  1
  O  O5  1  0.802716  0.809746  0.451315  1
  O  O6  1  0.195018  0.206409  0.944167  1
  O  O7  1  0.694507  0.293509  0.056021  1
  O  O8  1  0.098749  0.457656  0.250617  1
  O  O9  1  0.599499  0.042928  0.749056  1
  O  O10  1  0.400501  0.957072  0.250944  1
  O  O11  1  0.901251  0.542344  0.749383  1
  Ca  Ca12  1  0.988814  0.050353  0.253588  1
  Ca  Ca13  1  0.489006  0.449586  0.746520  1
  Ca  Ca14  1  0.510994  0.550414  0.253480  1
  Ca  Ca15  1  0.011186  0.949647  0.746412  1
  Mo  Mo16  1  0.500000  0.000000  -0.000000  1
  Mo  Mo17  1  1.000000  0.500000  -0.000000  1
  Mo  Mo18  1  1.000000  0.500000  0.500000  1
  Mo  Mo19  1  0.500000  1.000000  0.500000  1
