# generated using pymatgen
data_K2YTi(PO4)3
_symmetry_space_group_name_H-M   'P 1'
_cell_length_a   10.35428259
_cell_length_b   10.29939176
_cell_length_c   20.60098900
_cell_angle_alpha   90.05537209
_cell_angle_beta   89.98903663
_cell_angle_gamma   89.94116013
_symmetry_Int_Tables_number   1
_chemical_formula_structural   K2YTi(PO4)3
_chemical_formula_sum   'K16 Y8 Ti8 P24 O96'
_cell_volume   2196.94518721
_cell_formula_units_Z   8
loop_
 _symmetry_equiv_pos_site_id
 _symmetry_equiv_pos_as_xyz
  1  'x, y, z'
loop_
 _atom_site_type_symbol
 _atom_site_label
 _atom_site_symmetry_multiplicity
 _atom_site_fract_x
 _atom_site_fract_y
 _atom_site_fract_z
 _atom_site_occupancy
  K  K0  1  0.076224  0.070875  0.030905  1
  K  K1  1  0.069569  0.072630  0.534333  1
  K  K2  1  0.200845  0.703784  0.398052  1
  K  K3  1  0.200008  0.704230  0.897419  1
  K  K4  1  0.300551  0.300739  0.147055  1
  K  K5  1  0.295438  0.296521  0.646287  1
  K  K6  1  0.425319  0.928416  0.281279  1
  K  K7  1  0.424819  0.932029  0.780955  1
  K  K8  1  0.560158  0.427776  0.464318  1
  K  K9  1  0.565501  0.434253  0.966042  1
  K  K10  1  0.707750  0.800798  0.101260  1
  K  K11  1  0.705340  0.797029  0.600488  1
  K  K12  1  0.792580  0.199526  0.351851  1
  K  K13  1  0.796345  0.199488  0.850394  1
  K  K14  1  0.932571  0.560862  0.715123  1
  K  K15  1  0.934011  0.564857  0.214774  1
  Y  Y16  1  0.081309  0.914388  0.206424  1
  Y  Y17  1  0.083810  0.915321  0.708786  1
  Y  Y18  1  0.144815  0.349657  0.325898  1
  Y  Y19  1  0.144885  0.347655  0.824369  1
  Y  Y20  1  0.356557  0.654088  0.074846  1
  Y  Y21  1  0.416861  0.083310  0.455469  1
  Y  Y22  1  0.417906  0.086982  0.956596  1
  Y  Y23  1  0.911346  0.420930  0.538645  1
  Ti  Ti24  1  0.358578  0.646680  0.572307  1
  Ti  Ti25  1  0.584537  0.586822  0.290281  1
  Ti  Ti26  1  0.584858  0.584357  0.792031  1
  Ti  Ti27  1  0.649044  0.145395  0.178413  1
  Ti  Ti28  1  0.646700  0.139276  0.676875  1
  Ti  Ti29  1  0.853578  0.850842  0.428633  1
  Ti  Ti30  1  0.851495  0.855679  0.928046  1
  Ti  Ti31  1  0.913598  0.414039  0.041460  1
  P  P32  1  0.027218  0.726230  0.056189  1
  P  P33  1  0.046547  0.737450  0.558812  1
  P  P34  1  0.109144  0.033112  0.370838  1
  P  P35  1  0.114782  0.030927  0.873019  1
  P  P36  1  0.241916  0.385673  0.484251  1
  P  P37  1  0.220975  0.379104  0.984764  1
  P  P38  1  0.277428  0.623941  0.235008  1
  P  P39  1  0.280868  0.624602  0.728655  1
  P  P40  1  0.388000  0.970539  0.121335  1
  P  P41  1  0.383169  0.959224  0.617848  1
  P  P42  1  0.472637  0.273665  0.306217  1
  P  P43  1  0.472176  0.271736  0.805901  1
  P  P44  1  0.543753  0.765644  0.930519  1
  P  P45  1  0.542790  0.754997  0.435634  1
  P  P46  1  0.635572  0.457048  0.136206  1
  P  P47  1  0.617901  0.460571  0.637814  1
  P  P48  1  0.740767  0.128616  0.021815  1
  P  P49  1  0.738739  0.115905  0.521030  1
  P  P50  1  0.756751  0.873093  0.273145  1
  P  P51  1  0.759949  0.869965  0.771819  1
  P  P52  1  0.859447  0.547385  0.379846  1
  P  P53  1  0.864678  0.544440  0.886533  1
  P  P54  1  0.956947  0.235718  0.180915  1
  P  P55  1  0.950610  0.230309  0.684974  1
  O  O56  1  0.007853  0.100627  0.163302  1
  O  O57  1  0.002174  0.095713  0.667233  1
  O  O58  1  0.000643  0.940856  0.397192  1
  O  O59  1  0.006673  0.937222  0.899622  1
  O  O60  1  0.008865  0.794738  0.121813  1
  O  O61  1  0.022342  0.832571  0.614624  1
  O  O62  1  0.034060  0.298992  0.236297  1
  O  O63  1  0.015707  0.284919  0.746055  1
  O  O64  1  0.057844  0.173351  0.375102  1
  O  O65  1  0.064127  0.171230  0.878303  1
  O  O66  1  0.073568  0.364769  0.002746  1
  O  O67  1  0.104195  0.352829  0.505233  1
  O  O68  1  0.140832  0.994113  0.301072  1
  O  O69  1  0.146686  0.994514  0.802880  1
  O  O70  1  0.212799  0.757164  0.242599  1
  O  O71  1  0.167132  0.735757  0.031826  1
  O  O72  1  0.209899  0.751144  0.744766  1
  O  O73  1  0.194168  0.734863  0.541245  1
  O  O74  1  0.211058  0.530656  0.281768  1
  O  O75  1  0.212192  0.511029  0.761809  1
  O  O76  1  0.246402  0.434993  0.413683  1
  O  O77  1  0.231263  0.432277  0.914911  1
  O  O78  1  0.227604  0.012574  0.414653  1
  O  O79  1  0.232893  0.006528  0.916182  1
  O  O80  1  0.270897  0.983899  0.664666  1
  O  O81  1  0.266934  0.991998  0.163009  1
  O  O82  1  0.269272  0.572421  0.165068  1
  O  O83  1  0.278051  0.597524  0.653910  1
  O  O84  1  0.287621  0.470229  0.032720  1
  O  O85  1  0.295871  0.495935  0.529872  1
  O  O86  1  0.332012  0.264651  0.282760  1
  O  O87  1  0.332898  0.269857  0.494723  1
  O  O88  1  0.331563  0.261974  0.782684  1
  O  O89  1  0.284372  0.244942  0.991808  1
  O  O90  1  0.350487  0.010929  0.550427  1
  O  O91  1  0.359852  0.006066  0.050728  1
  O  O92  1  0.424028  0.639632  0.253893  1
  O  O93  1  0.422856  0.638730  0.752703  1
  O  O94  1  0.441394  0.830935  0.126623  1
  O  O95  1  0.421688  0.812399  0.614206  1
  O  O96  1  0.464528  0.694341  0.493390  1
  O  O97  1  0.467816  0.701489  0.985881  1
  O  O98  1  0.492690  0.201304  0.370561  1
  O  O99  1  0.493130  0.201987  0.870767  1
  O  O100  1  0.493085  0.066049  0.149228  1
  O  O101  1  0.500674  0.036034  0.647057  1
  O  O102  1  0.492560  0.900477  0.912995  1
  O  O103  1  0.487894  0.888655  0.417570  1
  O  O104  1  0.515738  0.417550  0.314260  1
  O  O105  1  0.513192  0.416480  0.814958  1
  O  O106  1  0.531215  0.535364  0.100978  1
  O  O107  1  0.507889  0.541013  0.605182  1
  O  O108  1  0.526380  0.673753  0.870949  1
  O  O109  1  0.526507  0.660860  0.377012  1
  O  O110  1  0.565720  0.207467  0.256547  1
  O  O111  1  0.561556  0.204164  0.755040  1
  O  O112  1  0.594038  0.311092  0.137866  1
  O  O113  1  0.580639  0.313664  0.636934  1
  O  O114  1  0.604216  0.148673  0.495676  1
  O  O115  1  0.606955  0.163754  0.995612  1
  O  O116  1  0.657666  0.511680  0.205836  1
  O  O117  1  0.641990  0.510229  0.708597  1
  O  O118  1  0.661296  0.756451  0.266618  1
  O  O119  1  0.668991  0.750005  0.765223  1
  O  O120  1  0.687144  0.763903  0.456861  1
  O  O121  1  0.688125  0.773839  0.952393  1
  O  O122  1  0.697756  0.984912  0.230930  1
  O  O123  1  0.698836  0.981210  0.730358  1
  O  O124  1  0.734542  0.083730  0.094050  1
  O  O125  1  0.733922  0.083124  0.595139  1
  O  O126  1  0.762018  0.471292  0.095850  1
  O  O127  1  0.741029  0.486874  0.598619  1
  O  O128  1  0.744620  0.536067  0.331880  1
  O  O129  1  0.739950  0.529010  0.844534  1
  O  O130  1  0.763048  0.916758  0.345707  1
  O  O131  1  0.767245  0.916220  0.843941  1
  O  O132  1  0.794970  0.994099  0.484880  1
  O  O133  1  0.802827  0.018582  0.979751  1
  O  O134  1  0.829843  0.250106  0.014849  1
  O  O135  1  0.831029  0.228745  0.507426  1
  O  O136  1  0.812532  0.227370  0.202959  1
  O  O137  1  0.802277  0.222864  0.701814  1
  O  O138  1  0.818968  0.495727  0.446597  1
  O  O139  1  0.838879  0.490069  0.955838  1
  O  O140  1  0.889793  0.835378  0.246321  1
  O  O141  1  0.893169  0.832898  0.745112  1
  O  O142  1  0.902575  0.692600  0.383202  1
  O  O143  1  0.905383  0.690942  0.888275  1
  O  O144  1  0.933513  0.793809  0.007424  1
  O  O145  1  0.966855  0.788182  0.499373  1
  O  O146  1  0.973462  0.327048  0.121134  1
  O  O147  1  0.973507  0.324664  0.629069  1
  O  O148  1  0.970415  0.468043  0.350669  1
  O  O149  1  0.973016  0.470028  0.852204  1
  O  O150  1  0.984419  0.582121  0.063583  1
  O  O151  1  0.997524  0.602576  0.577107  1
