# generated using pymatgen
data_SiO2
_symmetry_space_group_name_H-M   'P 1'
_cell_length_a   5.05544557
_cell_length_b   5.05544581
_cell_length_c   8.98222615
_cell_angle_alpha   97.02081802
_cell_angle_beta   82.97918206
_cell_angle_gamma   116.03731259
_symmetry_Int_Tables_number   1
_chemical_formula_structural   SiO2
_chemical_formula_sum   'Si3 O6'
_cell_volume   204.11194238
_cell_formula_units_Z   3
loop_
 _symmetry_equiv_pos_site_id
 _symmetry_equiv_pos_as_xyz
  1  'x, y, z'
loop_
 _atom_site_type_symbol
 _atom_site_label
 _atom_site_symmetry_multiplicity
 _atom_site_fract_x
 _atom_site_fract_y
 _atom_site_fract_z
 _atom_site_occupancy
  Si  Si0  1  0.938422  0.398094  0.831683  1
  Si  Si1  1  0.563561  0.563561  0.666667  1
  Si  Si2  1  0.398094  0.938422  0.501650  1
  O  O3  1  0.140952  0.718262  0.412953  1
  O  O4  1  0.282214  0.480172  0.791433  1
  O  O5  1  0.617932  0.860391  0.587996  1
  O  O6  1  0.480172  0.282214  0.541900  1
  O  O7  1  0.860391  0.617932  0.745337  1
  O  O8  1  0.718262  0.140952  0.920381  1
