# generated using pymatgen
data_Mg10Si3(H2O9)2
_symmetry_space_group_name_H-M   'P 1'
_cell_length_a   5.15946688
_cell_length_b   14.15939494
_cell_length_c   8.81713034
_cell_angle_alpha   90.00000000
_cell_angle_beta   90.00000000
_cell_angle_gamma   90.00000000
_symmetry_Int_Tables_number   1
_chemical_formula_structural   Mg10Si3(H2O9)2
_chemical_formula_sum   'Mg20 Si6 H8 O36'
_cell_volume   644.13483303
_cell_formula_units_Z   2
loop_
 _symmetry_equiv_pos_site_id
 _symmetry_equiv_pos_as_xyz
  1  'x, y, z'
loop_
 _atom_site_type_symbol
 _atom_site_label
 _atom_site_symmetry_multiplicity
 _atom_site_fract_x
 _atom_site_fract_y
 _atom_site_fract_z
 _atom_site_occupancy
  Mg  Mg0  1  0.670076  0.326731  0.500000  1
  Mg  Mg1  1  0.329924  0.673269  0.500000  1
  Mg  Mg2  1  0.170076  0.173269  0.000000  1
  Mg  Mg3  1  0.829924  0.826731  0.000000  1
  Mg  Mg4  1  0.658104  0.176112  0.823901  1
  Mg  Mg5  1  0.341896  0.823888  0.823901  1
  Mg  Mg6  1  0.158104  0.323888  0.676099  1
  Mg  Mg7  1  0.841896  0.676112  0.676099  1
  Mg  Mg8  1  0.341896  0.823888  0.176099  1
  Mg  Mg9  1  0.658104  0.176112  0.176099  1
  Mg  Mg10  1  0.841896  0.676112  0.323901  1
  Mg  Mg11  1  0.158104  0.323888  0.323901  1
  Mg  Mg12  1  0.000000  0.000000  0.821192  1
  Mg  Mg13  1  0.500000  0.500000  0.678808  1
  Mg  Mg14  1  0.000000  0.000000  0.178808  1
  Mg  Mg15  1  0.500000  0.500000  0.321192  1
  Mg  Mg16  1  0.000000  0.500000  0.842194  1
  Mg  Mg17  1  0.500000  0.000000  0.657806  1
  Mg  Mg18  1  0.000000  0.500000  0.157806  1
  Mg  Mg19  1  0.500000  0.000000  0.342194  1
  Si  Si20  1  0.000000  0.500000  0.500000  1
  Si  Si21  1  0.500000  0.000000  0.000000  1
  Si  Si22  1  0.986051  0.123555  0.500000  1
  Si  Si23  1  0.013949  0.876445  0.500000  1
  Si  Si24  1  0.486051  0.376445  0.000000  1
  Si  Si25  1  0.513949  0.623555  0.000000  1
  H  H26  1  0.420195  0.193965  0.604636  1
  H  H27  1  0.579805  0.806035  0.604636  1
  H  H28  1  0.920195  0.306035  0.895364  1
  H  H29  1  0.079805  0.693965  0.895364  1
  H  H30  1  0.579805  0.806035  0.395364  1
  H  H31  1  0.420195  0.193965  0.395364  1
  H  H32  1  0.079805  0.693965  0.104636  1
  H  H33  1  0.920195  0.306035  0.104636  1
  O  O34  1  0.831571  0.086485  0.656319  1
  O  O35  1  0.168429  0.913515  0.656319  1
  O  O36  1  0.331571  0.413515  0.843681  1
  O  O37  1  0.668429  0.586485  0.843681  1
  O  O38  1  0.168429  0.913515  0.343681  1
  O  O39  1  0.831571  0.086485  0.343681  1
  O  O40  1  0.668429  0.586485  0.156319  1
  O  O41  1  0.331571  0.413515  0.156319  1
  O  O42  1  0.993833  0.241207  0.500000  1
  O  O43  1  0.006167  0.758793  0.500000  1
  O  O44  1  0.493833  0.258793  0.000000  1
  O  O45  1  0.506167  0.741207  0.000000  1
  O  O46  1  0.292949  0.086154  0.500000  1
  O  O47  1  0.707051  0.913846  0.500000  1
  O  O48  1  0.792949  0.413846  0.000000  1
  O  O49  1  0.207051  0.586154  0.000000  1
  O  O50  1  0.855786  0.426781  0.645237  1
  O  O51  1  0.144214  0.573219  0.645237  1
  O  O52  1  0.355786  0.073219  0.854763  1
  O  O53  1  0.644214  0.926781  0.854763  1
  O  O54  1  0.144214  0.573219  0.354763  1
  O  O55  1  0.855786  0.426781  0.354763  1
  O  O56  1  0.644214  0.926781  0.145237  1
  O  O57  1  0.355786  0.073219  0.145237  1
  O  O58  1  0.484795  0.249889  0.660609  1
  O  O59  1  0.515205  0.750111  0.660609  1
  O  O60  1  0.984795  0.250111  0.839391  1
  O  O61  1  0.015205  0.749889  0.839391  1
  O  O62  1  0.515205  0.750111  0.339391  1
  O  O63  1  0.484795  0.249889  0.339391  1
  O  O64  1  0.015205  0.749889  0.160609  1
  O  O65  1  0.984795  0.250111  0.160609  1
  O  O66  1  0.695569  0.578858  0.500000  1
  O  O67  1  0.304431  0.421142  0.500000  1
  O  O68  1  0.195569  0.921142  0.000000  1
  O  O69  1  0.804431  0.078858  0.000000  1
