# generated using pymatgen
data_K2Ti(Si2O5)3
_symmetry_space_group_name_H-M   'P 1'
_cell_length_a   7.02983440
_cell_length_b   7.34102704
_cell_length_c   7.60844872
_cell_angle_alpha   99.11916345
_cell_angle_beta   105.95129308
_cell_angle_gamma   112.67380848
_symmetry_Int_Tables_number   1
_chemical_formula_structural   K2Ti(Si2O5)3
_chemical_formula_sum   'K2 Ti1 Si6 O15'
_cell_volume   332.51500250
_cell_formula_units_Z   1
loop_
 _symmetry_equiv_pos_site_id
 _symmetry_equiv_pos_as_xyz
  1  'x, y, z'
loop_
 _atom_site_type_symbol
 _atom_site_label
 _atom_site_symmetry_multiplicity
 _atom_site_fract_x
 _atom_site_fract_y
 _atom_site_fract_z
 _atom_site_occupancy
  O  O0  1  0.453767  0.612513  0.183016  1
  O  O1  1  0.546233  0.387487  0.816984  1
  O  O2  1  0.206895  0.639794  0.389528  1
  O  O3  1  0.793105  0.360206  0.610472  1
  O  O4  1  0.877725  0.727493  0.813879  1
  O  O5  1  0.122275  0.272507  0.186121  1
  O  O6  1  0.884323  0.736106  0.351934  1
  O  O7  1  0.115677  0.263894  0.648066  1
  O  O8  1  0.739829  0.901883  0.083301  1
  O  O9  1  0.500000  0.500000  0.500000  1
  O  O10  1  0.297768  0.009711  0.577680  1
  O  O11  1  0.702232  0.990289  0.422320  1
  O  O12  1  0.829428  0.087742  0.811399  1
  O  O13  1  0.170572  0.912258  0.188601  1
  O  O14  1  0.260171  0.098117  0.916699  1
  Si  Si15  1  0.699758  0.813817  0.257806  1
  Si  Si16  1  0.300242  0.186183  0.742194  1
  Si  Si17  1  0.146747  0.832255  0.369230  1
  Si  Si18  1  0.853253  0.167745  0.630770  1
  Si  Si19  1  0.316915  0.497610  0.311887  1
  Si  Si20  1  0.683085  0.502390  0.688113  1
  K  K21  1  0.285539  0.714142  0.820825  1
  K  K22  1  0.714461  0.285858  0.179175  1
  Ti  Ti23  1  0.000000  0.000000  0.000000  1
