# generated using pymatgen
data_LiMn9Se10
_symmetry_space_group_name_H-M   'P 1'
_cell_length_a   7.62895326
_cell_length_b   19.04650481
_cell_length_c   10.07518136
_cell_angle_alpha   19.11173577
_cell_angle_beta   55.38902994
_cell_angle_gamma   59.94418520
_symmetry_Int_Tables_number   1
_chemical_formula_structural   LiMn9Se10
_chemical_formula_sum   'Li1 Mn9 Se10'
_cell_volume   390.98797307
_cell_formula_units_Z   1
loop_
 _symmetry_equiv_pos_site_id
 _symmetry_equiv_pos_as_xyz
  1  'x, y, z'
loop_
 _atom_site_type_symbol
 _atom_site_label
 _atom_site_symmetry_multiplicity
 _atom_site_fract_x
 _atom_site_fract_y
 _atom_site_fract_z
 _atom_site_occupancy
  Li  Li0  1  0.500000  0.800000  0.000000  1
  Mn  Mn1  1  0.000417  0.998890  0.002405  1
  Mn  Mn2  1  0.998533  0.201900  0.997786  1
  Mn  Mn3  1  0.001467  0.398100  0.002214  1
  Mn  Mn4  1  0.499985  0.200688  0.999961  1
  Mn  Mn5  1  0.999583  0.601110  0.997595  1
  Mn  Mn6  1  0.500015  0.399312  0.000039  1
  Mn  Mn7  1  0.000000  0.800000  0.000000  1
  Mn  Mn8  1  0.500025  0.600815  0.999641  1
  Mn  Mn9  1  0.499975  0.999185  0.000359  1
  Se  Se10  1  0.247713  0.102148  0.496635  1
  Se  Se11  1  0.251060  0.300409  0.498673  1
  Se  Se12  1  0.751355  0.102107  0.497325  1
  Se  Se13  1  0.248645  0.497893  0.502675  1
  Se  Se14  1  0.748940  0.299591  0.501327  1
  Se  Se15  1  0.248180  0.699101  0.504716  1
  Se  Se16  1  0.752287  0.497852  0.503365  1
  Se  Se17  1  0.250615  0.900009  0.499771  1
  Se  Se18  1  0.749385  0.699991  0.500229  1
  Se  Se19  1  0.751820  0.900899  0.495284  1
