# generated using pymatgen
data_GdCo9Si4
_symmetry_space_group_name_H-M   'P 1'
_cell_length_a   7.78233302
_cell_length_b   7.78233311
_cell_length_c   8.11797273
_cell_angle_alpha   118.64148024
_cell_angle_beta   118.64148076
_cell_angle_gamma   90.00000318
_symmetry_Int_Tables_number   1
_chemical_formula_structural   GdCo9Si4
_chemical_formula_sum   'Gd2 Co18 Si8'
_cell_volume   361.46084375
_cell_formula_units_Z   2
loop_
 _symmetry_equiv_pos_site_id
 _symmetry_equiv_pos_as_xyz
  1  'x, y, z'
loop_
 _atom_site_type_symbol
 _atom_site_label
 _atom_site_symmetry_multiplicity
 _atom_site_fract_x
 _atom_site_fract_y
 _atom_site_fract_z
 _atom_site_occupancy
  Gd  Gd0  1  0.750000  0.750000  0.500000  1
  Gd  Gd1  1  0.250000  0.250000  0.500000  1
  Co  Co2  1  0.522088  0.227354  1.000000  1
  Co  Co3  1  0.772646  0.522088  0.000000  1
  Co  Co4  1  0.701894  0.437907  0.639801  1
  Co  Co5  1  0.227354  0.477912  1.000000  1
  Co  Co6  1  0.062093  0.798106  0.360199  1
  Co  Co7  1  0.798106  0.298106  0.360199  1
  Co  Co8  1  0.477912  0.772646  0.000000  1
  Co  Co9  1  0.977912  0.727354  1.000000  1
  Co  Co10  1  0.562093  0.062093  0.360199  1
  Co  Co11  1  0.298106  0.562093  0.360199  1
  Co  Co12  1  0.201894  0.701894  0.639801  1
  Co  Co13  1  0.437907  0.937907  0.639801  1
  Co  Co14  1  0.937907  0.201894  0.639801  1
  Co  Co15  1  0.272646  0.977912  0.000000  1
  Co  Co16  1  0.727354  0.022088  1.000000  1
  Co  Co17  1  0.022088  0.272646  0.000000  1
  Co  Co18  1  0.000000  0.000000  0.000000  1
  Co  Co19  1  0.500000  0.500000  0.000000  1
  Si  Si20  1  0.545005  0.684082  0.729087  1
  Si  Si21  1  0.454995  0.315918  0.270913  1
  Si  Si22  1  0.684082  0.184082  0.729087  1
  Si  Si23  1  0.045005  0.545005  0.729087  1
  Si  Si24  1  0.315918  0.815918  0.270913  1
  Si  Si25  1  0.184082  0.045005  0.729087  1
  Si  Si26  1  0.954995  0.454995  0.270913  1
  Si  Si27  1  0.815918  0.954995  0.270913  1
