# generated using pymatgen
data_Na(Ce2Se3)4
_symmetry_space_group_name_H-M   'P 1'
_cell_length_a   23.23537728
_cell_length_b   8.93325275
_cell_length_c   8.93325331
_cell_angle_alpha   90.00000000
_cell_angle_beta   54.78111425
_cell_angle_gamma   54.78111465
_symmetry_Int_Tables_number   1
_chemical_formula_structural   Na(Ce2Se3)4
_chemical_formula_sum   'Na2 Ce16 Se24'
_cell_volume   1072.95493586
_cell_formula_units_Z   2
loop_
 _symmetry_equiv_pos_site_id
 _symmetry_equiv_pos_as_xyz
  1  'x, y, z'
loop_
 _atom_site_type_symbol
 _atom_site_label
 _atom_site_symmetry_multiplicity
 _atom_site_fract_x
 _atom_site_fract_y
 _atom_site_fract_z
 _atom_site_occupancy
  Na  Na0  1  0.416667  0.625000  0.375000  1
  Na  Na1  1  0.916667  0.875000  0.125000  1
  Ce  Ce2  1  0.997503  0.124641  0.755721  1
  Ce  Ce3  1  0.083351  0.624973  0.374973  1
  Ce  Ce4  1  0.166667  0.250000  0.629000  1
  Ce  Ce5  1  0.335830  0.375359  0.248230  1
  Ce  Ce6  1  0.249982  0.875027  0.125027  1
  Ce  Ce7  1  0.335830  0.117151  0.744279  1
  Ce  Ce8  1  0.166667  0.750000  0.871000  1
  Ce  Ce9  1  0.497503  0.255721  0.624641  1
  Ce  Ce10  1  0.583351  0.874973  0.124973  1
  Ce  Ce11  1  0.666667  0.371000  0.250000  1
  Ce  Ce12  1  0.666667  0.129000  0.750000  1
  Ce  Ce13  1  0.497503  0.751770  0.882849  1
  Ce  Ce14  1  0.749982  0.625027  0.375027  1
  Ce  Ce15  1  0.835830  0.244279  0.617151  1
  Ce  Ce16  1  0.997503  0.382849  0.251770  1
  Ce  Ce17  1  0.835830  0.748230  0.875359  1
  Se  Se18  1  0.050559  0.999648  0.348928  1
  Se  Se19  1  0.122128  0.491845  0.996692  1
  Se  Se20  1  0.050559  0.348674  0.499395  1
  Se  Se21  1  0.282774  0.151326  0.151072  1
  Se  Se22  1  0.282774  0.500352  0.000605  1
  Se  Se23  1  0.211205  0.008155  0.863077  1
  Se  Se24  1  0.122128  0.641770  0.636923  1
  Se  Se25  1  0.384245  0.000733  0.346071  1
  Se  Se26  1  0.211205  0.858230  0.503308  1
  Se  Se27  1  0.449089  0.498806  -0.000733  1
  Se  Se28  1  0.384245  0.346533  0.501194  1
  Se  Se29  1  0.622128  0.136923  0.141770  1
  Se  Se30  1  0.622128  0.496692  0.991845  1
  Se  Se31  1  0.550559  0.999395  0.848674  1
  Se  Se32  1  0.449089  0.653929  0.653467  1
  Se  Se33  1  0.711205  0.003308  0.358230  1
  Se  Se34  1  0.550559  0.848928  0.499648  1
  Se  Se35  1  0.782774  0.500605  0.000352  1
  Se  Se36  1  0.711205  0.363077  0.508155  1
  Se  Se37  1  0.949089  0.153467  0.153929  1
  Se  Se38  1  0.949089  0.499267  0.998806  1
  Se  Se39  1  0.884245  0.001194  0.846533  1
  Se  Se40  1  0.782774  0.651072  0.651326  1
  Se  Se41  1  0.884245  0.846071  0.500733  1
