# generated using pymatgen
data_Os6C19SO19
_symmetry_space_group_name_H-M   'P 1'
_cell_length_a   11.24855276
_cell_length_b   11.51449878
_cell_length_c   13.06719720
_cell_angle_alpha   104.53398177
_cell_angle_beta   91.09686117
_cell_angle_gamma   108.98733975
_symmetry_Int_Tables_number   1
_chemical_formula_structural   Os6C19SO19
_chemical_formula_sum   'Os12 C38 S2 O38'
_cell_volume   1539.75982914
_cell_formula_units_Z   2
loop_
 _symmetry_equiv_pos_site_id
 _symmetry_equiv_pos_as_xyz
  1  'x, y, z'
loop_
 _atom_site_type_symbol
 _atom_site_label
 _atom_site_symmetry_multiplicity
 _atom_site_fract_x
 _atom_site_fract_y
 _atom_site_fract_z
 _atom_site_occupancy
  Os  Os0  1  0.054182  0.209779  0.367916  1
  Os  Os1  1  0.785462  0.801204  0.801357  1
  Os  Os2  1  0.198333  0.362691  0.068155  1
  Os  Os3  1  0.624949  0.944040  0.773233  1
  Os  Os4  1  0.828200  0.567786  0.705703  1
  Os  Os5  1  0.375051  0.055960  0.226767  1
  Os  Os6  1  0.687452  0.779932  0.590143  1
  Os  Os7  1  0.945818  0.790221  0.632084  1
  Os  Os8  1  0.312548  0.220068  0.409857  1
  Os  Os9  1  0.171800  0.432214  0.294297  1
  Os  Os10  1  0.214538  0.198796  0.198643  1
  Os  Os11  1  0.801667  0.637309  0.931845  1
  C  C12  1  0.988629  0.558707  0.747731  1
  C  C13  1  0.526693  0.007722  0.695656  1
  C  C14  1  0.011371  0.441293  0.252269  1
  C  C15  1  0.168750  0.505825  0.041318  1
  C  C16  1  0.261166  0.600342  0.283073  1
  C  C17  1  0.281745  0.322941  0.539581  1
  C  C18  1  0.486312  0.258329  0.456755  1
  C  C19  1  0.609476  0.050378  0.906761  1
  C  C20  1  0.156016  0.490286  0.442264  1
  C  C21  1  0.104432  0.809116  0.699916  1
  C  C22  1  0.218094  0.292441  0.921722  1
  C  C23  1  0.390524  0.949622  0.093239  1
  C  C24  1  0.938033  0.937691  0.853083  1
  C  C25  1  0.381508  0.455319  0.105927  1
  C  C26  1  0.716388  0.847094  0.932792  1
  C  C27  1  0.998004  0.259188  0.501726  1
  C  C28  1  0.895568  0.190884  0.300084  1
  C  C29  1  0.479255  0.791985  0.778754  1
  C  C30  1  0.000376  0.961176  0.625766  1
  C  C31  1  0.618492  0.544681  0.894073  1
  C  C32  1  0.981463  0.742132  0.946959  1
  C  C33  1  0.213228  0.925641  0.230471  1
  C  C34  1  0.786772  0.074359  0.769529  1
  C  C35  1  0.831250  0.494175  0.958682  1
  C  C36  1  0.260718  0.069683  0.458535  1
  C  C37  1  0.001996  0.740812  0.498274  1
  C  C38  1  0.738834  0.399658  0.716927  1
  C  C39  1  0.843984  0.509714  0.557736  1
  C  C40  1  0.283612  0.152906  0.067208  1
  C  C41  1  0.061967  0.062309  0.146917  1
  C  C42  1  0.513688  0.741671  0.543245  1
  C  C43  1  0.018537  0.257868  0.053041  1
  C  C44  1  0.473307  0.992278  0.304344  1
  C  C45  1  0.520745  0.208015  0.221246  1
  C  C46  1  0.781906  0.707559  0.078278  1
  C  C47  1  0.718255  0.677059  0.460419  1
  C  C48  1  0.739282  0.930317  0.541465  1
  C  C49  1  0.999624  0.038824  0.374234  1
  S  S50  1  0.368453  0.386554  0.314771  1
  S  S51  1  0.631547  0.613446  0.685229  1
  O  O52  1  0.121119  0.841144  0.226607  1
  O  O53  1  0.967326  0.976834  0.112421  1
  O  O54  1  0.232580  0.255404  0.833837  1
  O  O55  1  0.767420  0.744596  0.166163  1
  O  O56  1  0.409434  0.715643  0.508671  1
  O  O57  1  0.912194  0.197051  0.040516  1
  O  O58  1  0.603025  0.121176  0.985194  1
  O  O59  1  0.082206  0.545698  0.772805  1
  O  O60  1  0.685192  0.295555  0.719761  1
  O  O61  1  0.151129  0.595680  0.029327  1
  O  O62  1  0.681485  0.884870  0.014586  1
  O  O63  1  0.725561  0.617474  0.376066  1
  O  O64  1  0.274439  0.382526  0.623934  1
  O  O65  1  0.533756  0.958153  0.355080  1
  O  O66  1  0.794898  0.168384  0.259232  1
  O  O67  1  0.956747  0.931963  0.373351  1
  O  O68  1  0.488783  0.512363  0.121700  1
  O  O69  1  0.393518  0.706503  0.785001  1
  O  O70  1  0.590566  0.284357  0.491329  1
  O  O71  1  0.878881  0.158856  0.773393  1
  O  O72  1  0.043253  0.068037  0.626649  1
  O  O73  1  0.466244  0.041847  0.644920  1
  O  O74  1  0.033577  0.707180  0.415134  1
  O  O75  1  0.848871  0.404320  0.970673  1
  O  O76  1  0.205102  0.831616  0.740768  1
  O  O77  1  0.966423  0.292820  0.584866  1
  O  O78  1  0.764471  0.019522  0.508515  1
  O  O79  1  0.032674  0.023166  0.887579  1
  O  O80  1  0.318515  0.115130  0.985414  1
  O  O81  1  0.148885  0.542182  0.529695  1
  O  O82  1  0.396975  0.878824  0.014806  1
  O  O83  1  0.917794  0.454302  0.227195  1
  O  O84  1  0.606482  0.293497  0.214999  1
  O  O85  1  0.235529  0.980478  0.491485  1
  O  O86  1  0.851115  0.457818  0.470305  1
  O  O87  1  0.314808  0.704445  0.280239  1
  O  O88  1  0.511217  0.487637  0.878300  1
  O  O89  1  0.087806  0.802949  0.959484  1
