# generated using pymatgen
data_Sr4Ru3O10
_symmetry_space_group_name_H-M   'P 1'
_cell_length_a   5.58404175
_cell_length_b   5.58376074
_cell_length_c   28.93019087
_cell_angle_alpha   90.00000000
_cell_angle_beta   90.00000000
_cell_angle_gamma   90.00000000
_symmetry_Int_Tables_number   1
_chemical_formula_structural   Sr4Ru3O10
_chemical_formula_sum   'Sr16 Ru12 O40'
_cell_volume   902.04199433
_cell_formula_units_Z   4
loop_
 _symmetry_equiv_pos_site_id
 _symmetry_equiv_pos_as_xyz
  1  'x, y, z'
loop_
 _atom_site_type_symbol
 _atom_site_label
 _atom_site_symmetry_multiplicity
 _atom_site_fract_x
 _atom_site_fract_y
 _atom_site_fract_z
 _atom_site_occupancy
  Sr  Sr0  1  0.000000  0.000000  0.703739  1
  Sr  Sr1  1  0.500000  0.500000  0.703739  1
  Sr  Sr2  1  0.000000  0.000000  0.429894  1
  Sr  Sr3  1  0.500000  0.500000  0.570106  1
  Sr  Sr4  1  0.500000  0.000000  0.070102  1
  Sr  Sr5  1  0.000000  0.500000  0.070102  1
  Sr  Sr6  1  0.000000  0.000000  0.296261  1
  Sr  Sr7  1  0.500000  0.000000  0.796330  1
  Sr  Sr8  1  0.500000  0.500000  0.296261  1
  Sr  Sr9  1  0.500000  0.000000  0.929898  1
  Sr  Sr10  1  0.000000  0.500000  0.203670  1
  Sr  Sr11  1  0.000000  0.500000  0.796330  1
  Sr  Sr12  1  0.500000  0.500000  0.429894  1
  Sr  Sr13  1  0.000000  0.500000  0.929898  1
  Sr  Sr14  1  0.500000  0.000000  0.203670  1
  Sr  Sr15  1  0.000000  0.000000  0.570106  1
  Ru  Ru16  1  0.000000  0.000000  0.859629  1
  Ru  Ru17  1  0.500000  0.500000  0.140371  1
  Ru  Ru18  1  0.500000  0.500000  0.000000  1
  Ru  Ru19  1  0.000000  0.000000  0.140371  1
  Ru  Ru20  1  0.500000  0.500000  0.859629  1
  Ru  Ru21  1  0.500000  0.000000  0.640462  1
  Ru  Ru22  1  0.500000  0.000000  0.500000  1
  Ru  Ru23  1  0.000000  0.500000  0.500000  1
  Ru  Ru24  1  0.500000  0.000000  0.359538  1
  Ru  Ru25  1  0.000000  0.500000  0.640462  1
  Ru  Ru26  1  0.000000  0.500000  0.359538  1
  Ru  Ru27  1  0.000000  0.000000  0.000000  1
  O  O28  1  0.698003  0.698015  0.500000  1
  O  O29  1  0.783421  0.783363  0.360533  1
  O  O30  1  0.500000  0.000000  0.710895  1
  O  O31  1  0.716942  0.216933  0.139404  1
  O  O32  1  0.301998  0.198006  0.000000  1
  O  O33  1  0.198002  0.698006  0.000000  1
  O  O34  1  0.216579  0.216637  0.360533  1
  O  O35  1  0.000000  0.000000  0.210798  1
  O  O36  1  0.283058  0.783067  0.860596  1
  O  O37  1  0.000000  0.000000  0.068995  1
  O  O38  1  0.500000  0.500000  0.789202  1
  O  O39  1  0.716942  0.216933  0.860596  1
  O  O40  1  0.000000  0.000000  0.931005  1
  O  O41  1  0.698002  0.801994  0.000000  1
  O  O42  1  0.801997  0.198015  0.500000  1
  O  O43  1  0.283421  0.716637  0.639467  1
  O  O44  1  0.000000  0.000000  0.789202  1
  O  O45  1  0.000000  0.500000  0.289105  1
  O  O46  1  0.783058  0.716933  0.139404  1
  O  O47  1  0.500000  0.000000  0.289105  1
  O  O48  1  0.716579  0.283363  0.639467  1
  O  O49  1  0.283421  0.716637  0.360533  1
  O  O50  1  0.000000  0.500000  0.430967  1
  O  O51  1  0.301997  0.301985  0.500000  1
  O  O52  1  0.500000  0.500000  0.931005  1
  O  O53  1  0.500000  0.500000  0.210798  1
  O  O54  1  0.198003  0.801985  0.500000  1
  O  O55  1  0.216942  0.283067  0.860596  1
  O  O56  1  0.000000  0.500000  0.710895  1
  O  O57  1  0.783058  0.716933  0.860596  1
  O  O58  1  0.500000  0.000000  0.569033  1
  O  O59  1  0.801998  0.301994  0.000000  1
  O  O60  1  0.000000  0.500000  0.569033  1
  O  O61  1  0.500000  0.500000  0.068995  1
  O  O62  1  0.283058  0.783067  0.139404  1
  O  O63  1  0.216942  0.283067  0.139404  1
  O  O64  1  0.783421  0.783363  0.639467  1
  O  O65  1  0.500000  0.000000  0.430967  1
  O  O66  1  0.716579  0.283363  0.360533  1
  O  O67  1  0.216579  0.216637  0.639467  1
