# generated using pymatgen
data_As3H9RhC3(BrO)3
_symmetry_space_group_name_H-M   'P 1'
_cell_length_a   9.23499864
_cell_length_b   9.34493339
_cell_length_c   16.17252453
_cell_angle_alpha   99.53692577
_cell_angle_beta   90.00000000
_cell_angle_gamma   90.00000000
_symmetry_Int_Tables_number   1
_chemical_formula_structural   As3H9RhC3(BrO)3
_chemical_formula_sum   'As12 H36 Rh4 C12 Br12 O12'
_cell_volume   1376.40622015
_cell_formula_units_Z   4
loop_
 _symmetry_equiv_pos_site_id
 _symmetry_equiv_pos_as_xyz
  1  'x, y, z'
loop_
 _atom_site_type_symbol
 _atom_site_label
 _atom_site_symmetry_multiplicity
 _atom_site_fract_x
 _atom_site_fract_y
 _atom_site_fract_z
 _atom_site_occupancy
  As  As0  1  0.143917  0.657979  0.929530  1
  As  As1  1  0.919880  0.330037  0.880236  1
  As  As2  1  0.284271  0.853512  0.474965  1
  As  As3  1  0.580120  0.830037  0.380236  1
  As  As4  1  0.784271  0.646488  0.025035  1
  As  As5  1  0.419880  0.169963  0.619764  1
  As  As6  1  0.215729  0.353512  0.974965  1
  As  As7  1  0.356083  0.157979  0.429530  1
  As  As8  1  0.080120  0.669963  0.119764  1
  As  As9  1  0.643917  0.842021  0.570470  1
  As  As10  1  0.715729  0.146488  0.525035  1
  As  As11  1  0.856083  0.342021  0.070470  1
  H  H12  1  0.262693  0.806600  0.216458  1
  H  H13  1  0.754323  0.606019  0.589011  1
  H  H14  1  0.415376  0.196658  0.014415  1
  H  H15  1  0.745677  0.106019  0.089011  1
  H  H16  1  0.397528  0.414970  0.708083  1
  H  H17  1  0.128323  0.242720  0.369461  1
  H  H18  1  0.102472  0.914970  0.208083  1
  H  H19  1  0.399916  0.272348  0.771558  1
  H  H20  1  0.215298  0.784625  0.810610  1
  H  H21  1  0.237307  0.306600  0.716458  1
  H  H22  1  0.023193  0.802320  0.436970  1
  H  H23  1  0.084624  0.696658  0.514415  1
  H  H24  1  0.737307  0.193400  0.783542  1
  H  H25  1  0.134366  0.642984  0.405490  1
  H  H26  1  0.284702  0.284625  0.310610  1
  H  H27  1  0.899916  0.227652  0.728442  1
  H  H28  1  0.602472  0.585030  0.291917  1
  H  H29  1  0.100084  0.772348  0.271558  1
  H  H30  1  0.897528  0.085030  0.791917  1
  H  H31  1  0.365634  0.142984  0.905490  1
  H  H32  1  0.523193  0.697680  0.063030  1
  H  H33  1  0.871677  0.757280  0.630539  1
  H  H34  1  0.865634  0.357016  0.594510  1
  H  H35  1  0.628323  0.257280  0.130539  1
  H  H36  1  0.976807  0.197680  0.563030  1
  H  H37  1  0.715298  0.715375  0.689390  1
  H  H38  1  0.762693  0.693400  0.283542  1
  H  H39  1  0.584624  0.803342  0.985585  1
  H  H40  1  0.915376  0.303342  0.485585  1
  H  H41  1  0.634366  0.857016  0.094510  1
  H  H42  1  0.371677  0.742720  0.869461  1
  H  H43  1  0.254323  0.893981  0.910989  1
  H  H44  1  0.476807  0.302320  0.936970  1
  H  H45  1  0.245677  0.393981  0.410989  1
  H  H46  1  0.600084  0.727652  0.228442  1
  H  H47  1  0.784702  0.215375  0.189390  1
  Rh  Rh48  1  0.400534  0.912167  0.608197  1
  Rh  Rh49  1  0.099466  0.412167  0.108197  1
  Rh  Rh50  1  0.599466  0.087833  0.391803  1
  Rh  Rh51  1  0.900534  0.587833  0.891803  1
  C  C52  1  0.356004  0.307989  0.715728  1
  C  C53  1  0.739197  0.214572  0.126936  1
  C  C54  1  0.260803  0.785428  0.873064  1
  C  C55  1  0.889899  0.265806  0.544346  1
  C  C56  1  0.610101  0.765806  0.044346  1
  C  C57  1  0.143996  0.807989  0.215728  1
  C  C58  1  0.389899  0.234194  0.955654  1
  C  C59  1  0.760803  0.714572  0.626936  1
  C  C60  1  0.110101  0.734194  0.455654  1
  C  C61  1  0.643996  0.692011  0.284272  1
  C  C62  1  0.239197  0.285428  0.373064  1
  C  C63  1  0.856004  0.192011  0.784272  1
  Br  Br64  1  0.358674  0.469390  0.158090  1
  Br  Br65  1  0.858674  0.030610  0.341910  1
  Br  Br66  1  0.872197  0.860924  0.895519  1
  Br  Br67  1  0.641326  0.530610  0.841910  1
  Br  Br68  1  0.141326  0.969390  0.658090  1
  Br  Br69  1  0.372197  0.639076  0.604481  1
  Br  Br70  1  0.488296  0.037949  0.244756  1
  Br  Br71  1  0.627803  0.360924  0.395519  1
  Br  Br72  1  0.127803  0.139076  0.104481  1
  Br  Br73  1  0.988296  0.462051  0.255244  1
  Br  Br74  1  0.011704  0.537949  0.744756  1
  Br  Br75  1  0.511704  0.962051  0.755244  1
  O  O76  1  0.270670  0.507993  0.927503  1
  O  O77  1  0.729330  0.492007  0.072497  1
  O  O78  1  0.897729  0.737848  0.109264  1
  O  O79  1  0.670584  0.754280  0.462670  1
  O  O80  1  0.229330  0.007993  0.427503  1
  O  O81  1  0.829416  0.254280  0.962670  1
  O  O82  1  0.329416  0.245720  0.537330  1
  O  O83  1  0.602271  0.237848  0.609264  1
  O  O84  1  0.102271  0.262152  0.890736  1
  O  O85  1  0.397729  0.762152  0.390736  1
  O  O86  1  0.170584  0.745720  0.037330  1
  O  O87  1  0.770670  0.992007  0.572497  1
