# generated using pymatgen
data_MgH2(SeO3)2
_symmetry_space_group_name_H-M   'P 1'
_cell_length_a   9.26458426
_cell_length_b   5.32655469
_cell_length_c   5.68938134
_cell_angle_alpha   90.00000000
_cell_angle_beta   90.83906341
_cell_angle_gamma   90.00000000
_symmetry_Int_Tables_number   1
_chemical_formula_structural   MgH2(SeO3)2
_chemical_formula_sum   'Mg2 H4 Se4 O12'
_cell_volume   280.73127559
_cell_formula_units_Z   2
loop_
 _symmetry_equiv_pos_site_id
 _symmetry_equiv_pos_as_xyz
  1  'x, y, z'
loop_
 _atom_site_type_symbol
 _atom_site_label
 _atom_site_symmetry_multiplicity
 _atom_site_fract_x
 _atom_site_fract_y
 _atom_site_fract_z
 _atom_site_occupancy
  Mg  Mg0  1  0.500000  0.500000  0.500000  1
  Mg  Mg1  1  0.000000  0.000000  0.000000  1
  H  H2  1  0.471585  0.954573  0.770170  1
  H  H3  1  0.971585  0.545427  0.270170  1
  H  H4  1  0.528415  0.045427  0.229830  1
  H  H5  1  0.028415  0.454573  0.729830  1
  Se  Se6  1  0.335167  0.680216  0.018424  1
  Se  Se7  1  0.835167  0.819784  0.518424  1
  Se  Se8  1  0.664833  0.319784  0.981576  1
  Se  Se9  1  0.164833  0.180216  0.481576  1
  O  O10  1  0.217091  0.917497  0.047011  1
  O  O11  1  0.717091  0.582503  0.547011  1
  O  O12  1  0.782909  0.082503  0.952989  1
  O  O13  1  0.282909  0.417496  0.452989  1
  O  O14  1  0.469206  0.753171  0.219056  1
  O  O15  1  0.969206  0.746829  0.719056  1
  O  O16  1  0.530794  0.246829  0.780944  1
  O  O17  1  0.030794  0.253171  0.280944  1
  O  O18  1  0.430041  0.778906  0.748836  1
  O  O19  1  0.930041  0.721094  0.248836  1
  O  O20  1  0.569959  0.221094  0.251164  1
  O  O21  1  0.069959  0.278906  0.751164  1
