# generated using pymatgen
data_Sb2Te2O9
_symmetry_space_group_name_H-M   'P 1'
_cell_length_a   5.10277613
_cell_length_b   14.73863195
_cell_length_c   22.72709942
_cell_angle_alpha   110.41218654
_cell_angle_beta   90.00000000
_cell_angle_gamma   90.00000000
_symmetry_Int_Tables_number   1
_chemical_formula_structural   Sb2Te2O9
_chemical_formula_sum   'Sb16 Te16 O72'
_cell_volume   1601.93027267
_cell_formula_units_Z   8
loop_
 _symmetry_equiv_pos_site_id
 _symmetry_equiv_pos_as_xyz
  1  'x, y, z'
loop_
 _atom_site_type_symbol
 _atom_site_label
 _atom_site_symmetry_multiplicity
 _atom_site_fract_x
 _atom_site_fract_y
 _atom_site_fract_z
 _atom_site_occupancy
  Sb  Sb0  1  0.187835  0.992314  0.652383  1
  Sb  Sb1  1  0.631379  0.847964  0.822653  1
  Sb  Sb2  1  0.310732  0.166538  0.448848  1
  Sb  Sb3  1  0.868621  0.347964  0.822653  1
  Sb  Sb4  1  0.279923  0.307159  0.944691  1
  Sb  Sb5  1  0.812165  0.007686  0.347617  1
  Sb  Sb6  1  0.131379  0.652036  0.177347  1
  Sb  Sb7  1  0.368621  0.152036  0.177347  1
  Sb  Sb8  1  0.779923  0.192841  0.055309  1
  Sb  Sb9  1  0.720077  0.692841  0.055309  1
  Sb  Sb10  1  0.312165  0.492314  0.652383  1
  Sb  Sb11  1  0.689268  0.833462  0.551152  1
  Sb  Sb12  1  0.687835  0.507686  0.347617  1
  Sb  Sb13  1  0.189268  0.666538  0.448848  1
  Sb  Sb14  1  0.810732  0.333462  0.551152  1
  Sb  Sb15  1  0.220077  0.807159  0.944691  1
  Te  Te16  1  0.176594  0.576521  0.921652  1
  Te  Te17  1  0.898125  0.190335  0.290539  1
  Te  Te18  1  0.857147  0.111359  0.555479  1
  Te  Te19  1  0.676594  0.923479  0.078348  1
  Te  Te20  1  0.159193  0.407865  0.233783  1
  Te  Te21  1  0.101875  0.809665  0.709461  1
  Te  Te22  1  0.840807  0.592135  0.766217  1
  Te  Te23  1  0.601875  0.690335  0.290539  1
  Te  Te24  1  0.357147  0.388641  0.444521  1
  Te  Te25  1  0.642853  0.611359  0.555479  1
  Te  Te26  1  0.823406  0.423479  0.078348  1
  Te  Te27  1  0.142853  0.888641  0.444521  1
  Te  Te28  1  0.398125  0.309665  0.709461  1
  Te  Te29  1  0.340807  0.907865  0.233783  1
  Te  Te30  1  0.659193  0.092135  0.766217  1
  Te  Te31  1  0.323406  0.076521  0.921652  1
  O  O32  1  0.358120  0.769644  0.220164  1
  O  O33  1  0.593814  0.091574  0.979496  1
  O  O34  1  0.977609  0.732440  0.526570  1
  O  O35  1  0.901167  0.021138  0.078519  1
  O  O36  1  0.633385  0.217645  0.240442  1
  O  O37  1  0.133385  0.282355  0.759558  1
  O  O38  1  0.419303  0.593210  0.617588  1
  O  O39  1  0.967671  0.482668  0.850673  1
  O  O40  1  0.093814  0.408426  0.020504  1
  O  O41  1  0.043685  0.754821  0.405722  1
  O  O42  1  0.641880  0.230356  0.779836  1
  O  O43  1  0.622567  0.305119  0.028475  1
  O  O44  1  0.992435  0.926735  0.266355  1
  O  O45  1  0.115069  0.098343  0.369601  1
  O  O46  1  0.598833  0.521138  0.078519  1
  O  O47  1  0.877433  0.805119  0.028475  1
  O  O48  1  0.998131  0.422131  0.313422  1
  O  O49  1  0.615069  0.401657  0.630399  1
  O  O50  1  0.001869  0.577869  0.686578  1
  O  O51  1  0.507565  0.426735  0.266355  1
  O  O52  1  0.492435  0.573265  0.733645  1
  O  O53  1  0.498131  0.077869  0.686578  1
  O  O54  1  0.604707  0.844463  0.127601  1
  O  O55  1  0.892259  0.899423  0.774543  1
  O  O56  1  0.956315  0.245179  0.594278  1
  O  O57  1  0.104707  0.655537  0.872399  1
  O  O58  1  0.866615  0.717645  0.240442  1
  O  O59  1  0.401167  0.478862  0.921481  1
  O  O60  1  0.456315  0.254821  0.405722  1
  O  O61  1  0.866102  0.919506  0.507608  1
  O  O62  1  0.543685  0.745179  0.594278  1
  O  O63  1  0.892618  0.573030  0.425792  1
  O  O64  1  0.919303  0.906790  0.382412  1
  O  O65  1  0.366615  0.782355  0.759558  1
  O  O66  1  0.384931  0.598343  0.369601  1
  O  O67  1  0.141880  0.269644  0.220164  1
  O  O68  1  0.107741  0.100577  0.225457  1
  O  O69  1  0.501869  0.922131  0.313422  1
  O  O70  1  0.180052  0.410878  0.701156  1
  O  O71  1  0.055469  0.698444  0.110516  1
  O  O72  1  0.895293  0.344463  0.127601  1
  O  O73  1  0.884931  0.901657  0.630399  1
  O  O74  1  0.444531  0.198444  0.110516  1
  O  O75  1  0.122567  0.194881  0.971525  1
  O  O76  1  0.580697  0.406790  0.382412  1
  O  O77  1  0.522391  0.232440  0.526570  1
  O  O78  1  0.319948  0.910878  0.701156  1
  O  O79  1  0.467671  0.017332  0.149327  1
  O  O80  1  0.395293  0.155537  0.872399  1
  O  O81  1  0.906186  0.591574  0.979496  1
  O  O82  1  0.607741  0.399423  0.774543  1
  O  O83  1  0.607382  0.073030  0.425792  1
  O  O84  1  0.133898  0.080494  0.492392  1
  O  O85  1  0.080697  0.093210  0.617588  1
  O  O86  1  0.377433  0.694881  0.971525  1
  O  O87  1  0.392618  0.926970  0.574208  1
  O  O88  1  0.633898  0.419506  0.507608  1
  O  O89  1  0.944531  0.301556  0.889484  1
  O  O90  1  0.406186  0.908426  0.020504  1
  O  O91  1  0.022391  0.267560  0.473430  1
  O  O92  1  0.858120  0.730356  0.779836  1
  O  O93  1  0.680052  0.089122  0.298844  1
  O  O94  1  0.555469  0.801556  0.889484  1
  O  O95  1  0.107382  0.426970  0.574208  1
  O  O96  1  0.477609  0.767560  0.473430  1
  O  O97  1  0.819948  0.589122  0.298844  1
  O  O98  1  0.392259  0.600577  0.225457  1
  O  O99  1  0.032329  0.517332  0.149327  1
  O  O100  1  0.532329  0.982668  0.850673  1
  O  O101  1  0.098833  0.978862  0.921481  1
  O  O102  1  0.366102  0.580494  0.492392  1
  O  O103  1  0.007565  0.073265  0.733645  1
