# generated using pymatgen
data_Ge5(Te4As)2
_symmetry_space_group_name_H-M   'P 1'
_cell_length_a   16.78916232
_cell_length_b   11.09601740
_cell_length_c   7.23708321
_cell_angle_alpha   29.25312593
_cell_angle_beta   54.57815224
_cell_angle_gamma   40.73011448
_symmetry_Int_Tables_number   1
_chemical_formula_structural   Ge5(Te4As)2
_chemical_formula_sum   'Ge5 Te8 As2'
_cell_volume   415.58489156
_cell_formula_units_Z   1
loop_
 _symmetry_equiv_pos_site_id
 _symmetry_equiv_pos_as_xyz
  1  'x, y, z'
loop_
 _atom_site_type_symbol
 _atom_site_label
 _atom_site_symmetry_multiplicity
 _atom_site_fract_x
 _atom_site_fract_y
 _atom_site_fract_z
 _atom_site_occupancy
  Ge  Ge0  1  1.000000  0.000000  -0.000000  1
  Ge  Ge1  1  0.125639  0.499138  0.000035  1
  Ge  Ge2  1  0.253136  0.996850  0.996907  1
  Ge  Ge3  1  0.874360  0.500863  0.999964  1
  Ge  Ge4  1  0.746864  0.003150  0.003092  1
  Te  Te5  1  0.125278  0.998740  0.502650  1
  Te  Te6  1  0.249911  0.500993  0.497391  1
  Te  Te7  1  0.500000  0.500000  0.500000  1
  Te  Te8  1  0.375418  0.998380  0.503226  1
  Te  Te9  1  0.750089  0.499006  0.502609  1
  Te  Te10  1  0.624582  0.001620  0.496773  1
  Te  Te11  1  -0.000000  0.500000  0.500001  1
  Te  Te12  1  0.874722  0.001261  0.497349  1
  As  As13  1  0.375392  0.499331  0.000467  1
  As  As14  1  0.624608  0.500668  0.999534  1
