# generated using pymatgen
data_RhSe2Cl7
_symmetry_space_group_name_H-M   'P 1'
_cell_length_a   8.21869397
_cell_length_b   12.37903815
_cell_length_c   14.34457593
_cell_angle_alpha   90.00000000
_cell_angle_beta   90.00000000
_cell_angle_gamma   96.41230079
_symmetry_Int_Tables_number   1
_chemical_formula_structural   RhSe2Cl7
_chemical_formula_sum   'Rh4 Se8 Cl28'
_cell_volume   1450.28023603
_cell_formula_units_Z   4
loop_
 _symmetry_equiv_pos_site_id
 _symmetry_equiv_pos_as_xyz
  1  'x, y, z'
loop_
 _atom_site_type_symbol
 _atom_site_label
 _atom_site_symmetry_multiplicity
 _atom_site_fract_x
 _atom_site_fract_y
 _atom_site_fract_z
 _atom_site_occupancy
  Rh  Rh0  1  0.042937  0.600298  0.407115  1
  Rh  Rh1  1  0.957063  0.899702  0.907115  1
  Rh  Rh2  1  0.042937  0.100298  0.092885  1
  Rh  Rh3  1  0.957063  0.399702  0.592885  1
  Se  Se4  1  0.226223  0.846993  0.929043  1
  Se  Se5  1  0.773777  0.153007  0.070957  1
  Se  Se6  1  0.774750  0.743505  0.861428  1
  Se  Se7  1  0.226223  0.346993  0.570957  1
  Se  Se8  1  0.225250  0.256495  0.138572  1
  Se  Se9  1  0.774750  0.243505  0.638572  1
  Se  Se10  1  0.773777  0.653007  0.429043  1
  Se  Se11  1  0.225250  0.756495  0.361428  1
  Cl  Cl12  1  0.031737  0.118983  0.256589  1
  Cl  Cl13  1  0.906491  0.106080  0.679070  1
  Cl  Cl14  1  0.334747  0.331822  0.010005  1
  Cl  Cl15  1  0.692620  0.725607  0.299476  1
  Cl  Cl16  1  0.198289  0.699936  0.014872  1
  Cl  Cl17  1  0.968263  0.381017  0.756589  1
  Cl  Cl18  1  0.078407  0.089412  0.926519  1
  Cl  Cl19  1  0.031737  0.618983  0.243411  1
  Cl  Cl20  1  0.921593  0.410588  0.426519  1
  Cl  Cl21  1  0.093509  0.893920  0.320930  1
  Cl  Cl22  1  0.906491  0.606080  0.820930  1
  Cl  Cl23  1  0.307380  0.774393  0.799476  1
  Cl  Cl24  1  0.310021  0.040572  0.106749  1
  Cl  Cl25  1  0.310021  0.540572  0.393251  1
  Cl  Cl26  1  0.801711  0.800064  0.514872  1
  Cl  Cl27  1  0.968263  0.881017  0.743411  1
  Cl  Cl28  1  0.921593  0.910588  0.073481  1
  Cl  Cl29  1  0.801711  0.300063  0.985128  1
  Cl  Cl30  1  0.689979  0.959428  0.893251  1
  Cl  Cl31  1  0.665253  0.168178  0.510005  1
  Cl  Cl32  1  0.689979  0.459428  0.606749  1
  Cl  Cl33  1  0.692620  0.225607  0.200524  1
  Cl  Cl34  1  0.198289  0.199936  0.485128  1
  Cl  Cl35  1  0.665253  0.668178  0.989995  1
  Cl  Cl36  1  0.093509  0.393920  0.179070  1
  Cl  Cl37  1  0.078407  0.589412  0.573481  1
  Cl  Cl38  1  0.334747  0.831822  0.489995  1
  Cl  Cl39  1  0.307380  0.274393  0.700524  1
