# generated using pymatgen
data_Na17Pd15F48
_symmetry_space_group_name_H-M   'P 1'
_cell_length_a   6.84904605
_cell_length_b   6.93360039
_cell_length_c   59.46095998
_cell_angle_alpha   116.91667275
_cell_angle_beta   107.39803680
_cell_angle_gamma   89.86238426
_symmetry_Int_Tables_number   1
_chemical_formula_structural   Na17Pd15F48
_chemical_formula_sum   'Na34 Pd30 F96'
_cell_volume   2373.10763016
_cell_formula_units_Z   2
loop_
 _symmetry_equiv_pos_site_id
 _symmetry_equiv_pos_as_xyz
  1  'x, y, z'
loop_
 _atom_site_type_symbol
 _atom_site_label
 _atom_site_symmetry_multiplicity
 _atom_site_fract_x
 _atom_site_fract_y
 _atom_site_fract_z
 _atom_site_occupancy
  Na  Na0  1  0.497589  0.237851  0.874299  1
  Na  Na1  1  0.491411  0.756502  0.874255  1
  Na  Na2  1  0.000239  0.500250  0.625063  1
  Na  Na3  1  0.001130  0.001662  0.562844  1
  Na  Na4  1  0.499403  0.240469  0.749832  1
  Na  Na5  1  0.500167  0.759333  0.750111  1
  Na  Na6  1  0.998885  0.498475  0.937085  1
  Na  Na7  1  0.996961  0.489648  0.873307  1
  Na  Na8  1  0.499839  0.240701  0.624950  1
  Na  Na9  1  0.500609  0.759895  0.625225  1
  Na  Na10  1  0.998933  0.998442  0.812212  1
  Na  Na11  1  0.999056  0.499731  0.812282  1
  Na  Na12  1  0.000770  0.501251  0.312812  1
  Na  Na13  1  0.999788  0.499718  0.749928  1
  Na  Na14  1  0.508742  0.243685  0.500718  1
  Na  Na15  1  0.502333  0.761795  0.500660  1
  Na  Na16  1  0.999958  -0.000004  0.687483  1
  Na  Na17  1  -0.000012  0.499851  0.687482  1
  Na  Na18  1  0.506242  0.241706  0.375250  1
  Na  Na19  1  0.494716  0.759127  0.374968  1
  Na  Na20  1  0.000945  0.500524  0.562756  1
  Na  Na21  1  0.002973  0.510404  0.501703  1
  Na  Na22  1  0.506009  0.242287  0.250344  1
  Na  Na23  1  0.500666  0.760040  0.250312  1
  Na  Na24  1  0.999291  0.506066  0.999811  1
  Na  Na25  1  0.001048  0.500846  0.437815  1
  Na  Na26  1  0.000537  0.500851  0.375179  1
  Na  Na27  1  0.493858  0.238841  0.124424  1
  Na  Na28  1  0.499190  0.758304  0.124867  1
  Na  Na29  1  0.000492  0.500351  0.250852  1
  Na  Na30  1  0.499269  0.240051  0.999764  1
  Na  Na31  1  0.499837  0.759400  0.000016  1
  Na  Na32  1  0.999665  0.493203  0.124131  1
  Na  Na33  1  0.999493  0.999100  0.062310  1
  Pd  Pd34  1  0.000973  0.002169  0.875300  1
  Pd  Pd35  1  -0.000278  -0.000259  0.749926  1
  Pd  Pd36  1  0.476580  0.741167  0.933551  1
  Pd  Pd37  1  0.524127  0.259498  0.941585  1
  Pd  Pd38  1  -0.000044  0.000184  0.625064  1
  Pd  Pd39  1  0.476125  0.732977  0.808450  1
  Pd  Pd40  1  0.524514  0.267472  0.816634  1
  Pd  Pd41  1  -0.000585  0.998014  0.499735  1
  Pd  Pd42  1  0.999403  0.998972  0.937315  1
  Pd  Pd43  1  0.476587  0.733571  0.683523  1
  Pd  Pd44  1  0.523891  0.266690  0.691541  1
  Pd  Pd45  1  0.000189  0.000307  0.375076  1
  Pd  Pd46  1  0.475787  0.732648  0.558457  1
  Pd  Pd47  1  0.523511  0.267007  0.566483  1
  Pd  Pd48  1  0.000263  0.000569  0.312593  1
  Pd  Pd49  1  0.998407  -0.000589  0.249633  1
  Pd  Pd50  1  0.475727  0.739363  0.433420  1
  Pd  Pd51  1  0.523605  0.259910  0.441497  1
  Pd  Pd52  1  0.001495  0.001844  0.125282  1
  Pd  Pd53  1  0.475415  0.738461  0.308340  1
  Pd  Pd54  1  0.523745  0.260925  0.316512  1
  Pd  Pd55  1  -0.000086  0.998333  0.000003  1
  Pd  Pd56  1  0.000631  0.001287  0.437855  1
  Pd  Pd57  1  0.475667  0.733697  0.183456  1
  Pd  Pd58  1  0.524238  0.266436  0.191496  1
  Pd  Pd59  1  0.476589  0.726827  0.058536  1
  Pd  Pd60  1  0.524274  0.273300  0.066582  1
  Pd  Pd61  1  -0.000049  0.500709  0.187589  1
  Pd  Pd62  1  0.999913  0.999837  0.187341  1
  Pd  Pd63  1  -0.000276  0.498872  0.062257  1
  F  F64  1  0.116844  0.723998  0.983204  1
  F  F65  1  0.116314  0.138948  0.982183  1
  F  F66  1  0.173202  0.721840  0.928632  1
  F  F67  1  0.223575  0.245855  0.938944  1
  F  F68  1  0.121899  0.143987  0.858788  1
  F  F69  1  0.119118  0.727885  0.858972  1
  F  F70  1  0.545254  0.898199  0.972982  1
  F  F71  1  0.176348  0.712956  0.803434  1
  F  F72  1  0.393687  0.574006  0.894232  1
  F  F73  1  0.228707  0.253391  0.813594  1
  F  F74  1  0.609096  0.425693  0.981170  1
  F  F75  1  0.455183  0.104471  0.902356  1
  F  F76  1  0.122802  0.145525  0.733877  1
  F  F77  1  0.120534  0.727542  0.733765  1
  F  F78  1  0.548512  0.894343  0.848082  1
  F  F79  1  0.176217  0.712443  0.678282  1
  F  F80  1  0.394338  0.573044  0.769131  1
  F  F81  1  0.228732  0.252412  0.688379  1
  F  F82  1  0.777140  0.754866  0.936247  1
  F  F83  1  0.608517  0.430596  0.856276  1
  F  F84  1  0.828142  0.279158  0.946622  1
  F  F85  1  0.450354  0.105249  0.777245  1
  F  F86  1  0.122924  0.145851  0.608958  1
  F  F87  1  0.120645  0.727912  0.608829  1
  F  F88  1  0.881868  0.276513  0.891665  1
  F  F89  1  0.882558  0.861998  0.893108  1
  F  F90  1  0.549773  0.894885  0.722826  1
  F  F91  1  0.175419  0.711647  0.553120  1
  F  F92  1  0.393996  0.572682  0.644086  1
  F  F93  1  0.227766  0.252623  0.563383  1
  F  F94  1  0.771902  0.747112  0.811526  1
  F  F95  1  0.605874  0.427126  0.730869  1
  F  F96  1  0.825347  0.288648  0.821968  1
  F  F97  1  0.450351  0.105152  0.652181  1
  F  F98  1  0.118147  0.723216  0.483319  1
  F  F99  1  0.117822  0.138289  0.481942  1
  F  F100  1  0.877151  0.854250  0.766062  1
  F  F101  1  0.879484  0.272266  0.766193  1
  F  F102  1  0.550162  0.894724  0.597792  1
  F  F103  1  0.171767  0.720512  0.428385  1
  F  F104  1  0.391921  0.569858  0.518854  1
  F  F105  1  0.222855  0.245316  0.438763  1
  F  F106  1  0.771265  0.747599  0.686622  1
  F  F107  1  0.605343  0.426607  0.605777  1
  F  F108  1  0.823320  0.287472  0.696695  1
  F  F109  1  0.450314  0.105651  0.526873  1
  F  F110  1  0.116650  0.724075  0.358553  1
  F  F111  1  0.116768  0.137227  0.356847  1
  F  F112  1  0.877060  0.854348  0.641094  1
  F  F113  1  0.879268  0.272254  0.641205  1
  F  F114  1  0.545227  0.895878  0.472662  1
  F  F115  1  0.171233  0.719453  0.303302  1
  F  F116  1  0.390840  0.570661  0.393818  1
  F  F117  1  0.223401  0.246772  0.313854  1
  F  F118  1  0.771541  0.746881  0.561496  1
  F  F119  1  0.606460  0.426036  0.480795  1
  F  F120  1  0.823114  0.287013  0.571542  1
  F  F121  1  0.454918  0.104243  0.401993  1
  F  F122  1  0.112643  0.718036  0.231903  1
  F  F123  1  0.115354  0.138135  0.231715  1
  F  F124  1  0.878195  0.856006  0.516272  1
  F  F125  1  0.881028  0.272296  0.516058  1
  F  F126  1  0.544748  0.894649  0.347781  1
  F  F127  1  0.169027  0.712503  0.178183  1
  F  F128  1  0.389266  0.571944  0.268673  1
  F  F129  1  0.222914  0.254952  0.188925  1
  F  F130  1  0.776348  0.753435  0.436088  1
  F  F131  1  0.608415  0.428909  0.356051  1
  F  F132  1  0.826999  0.278462  0.446386  1
  F  F133  1  0.454284  0.103069  0.276988  1
  F  F134  1  0.112916  0.719669  0.106823  1
  F  F135  1  0.118351  0.145703  0.108501  1
  F  F136  1  0.883429  0.863084  0.393212  1
  F  F137  1  0.883393  0.276226  0.391511  1
  F  F138  1  0.543173  0.894348  0.222970  1
  F  F139  1  0.172566  0.706581  0.053455  1
  F  F140  1  0.390306  0.573284  0.143742  1
  F  F141  1  0.223766  0.262880  0.063947  1
  F  F142  1  0.775843  0.752553  0.310962  1
  F  F143  1  0.609631  0.430233  0.231254  1
  F  F144  1  0.827711  0.279837  0.321530  1
  F  F145  1  0.456845  0.103095  0.152044  1
  F  F146  1  0.884093  0.862112  0.267950  1
  F  F147  1  0.884109  0.275642  0.266623  1
  F  F148  1  0.545608  0.894276  0.097981  1
  F  F149  1  0.391306  0.569534  0.018930  1
  F  F150  1  0.777118  0.745736  0.186051  1
  F  F151  1  0.610861  0.429512  0.106305  1
  F  F152  1  0.830959  0.287500  0.196797  1
  F  F153  1  0.455290  0.108029  0.027236  1
  F  F154  1  0.884515  0.859379  0.142835  1
  F  F155  1  0.887472  0.282673  0.143428  1
  F  F156  1  0.777100  0.737167  0.061198  1
  F  F157  1  0.828415  0.293759  0.071666  1
  F  F158  1  0.880571  0.855129  0.016655  1
  F  F159  1  0.886092  0.279957  0.017939  1
