# generated using pymatgen
data_H2W2O7
_symmetry_space_group_name_H-M   'P 1'
_cell_length_a   7.40259394
_cell_length_b   7.33878288
_cell_length_c   7.40259394
_cell_angle_alpha   60.28474311
_cell_angle_beta   60.33768514
_cell_angle_gamma   60.28474311
_symmetry_Int_Tables_number   1
_chemical_formula_structural   H2W2O7
_chemical_formula_sum   'H4 W4 O14'
_cell_volume   286.31117570
_cell_formula_units_Z   2
loop_
 _symmetry_equiv_pos_site_id
 _symmetry_equiv_pos_as_xyz
  1  'x, y, z'
loop_
 _atom_site_type_symbol
 _atom_site_label
 _atom_site_symmetry_multiplicity
 _atom_site_fract_x
 _atom_site_fract_y
 _atom_site_fract_z
 _atom_site_occupancy
  H  H0  1  0.060195  0.592196  0.255412  1
  H  H1  1  0.518106  0.180509  0.620876  1
  H  H2  1  0.744588  0.407804  0.939805  1
  H  H3  1  0.379124  0.819491  0.481894  1
  W  W4  1  0.046531  0.500000  0.953469  1
  W  W5  1  0.969322  0.014804  0.501070  1
  W  W6  1  0.498930  0.985196  0.030678  1
  W  W7  1  0.046531  0.000000  0.953469  1
  O  O8  1  0.663184  0.074630  0.060761  1
  O  O9  1  0.078478  0.569720  0.672608  1
  O  O10  1  0.078478  0.179194  0.672608  1
  O  O11  1  0.663184  0.701425  0.060761  1
  O  O12  1  0.975931  0.685165  0.153739  1
  O  O13  1  0.632866  0.088093  0.690947  1
  O  O14  1  0.327392  0.820806  0.921522  1
  O  O15  1  0.939239  0.298575  0.336816  1
  O  O16  1  0.939239  0.925370  0.336816  1
  O  O17  1  0.327392  0.430280  0.921522  1
  O  O18  1  0.846261  0.314835  0.024069  1
  O  O19  1  0.309053  0.911907  0.367134  1
  O  O20  1  0.999533  0.852754  0.794958  1
  O  O21  1  0.205042  0.147246  0.000467  1
