# generated using pymatgen
data_Na10Zr6Si7(PO18)2
_symmetry_space_group_name_H-M   'P 1'
_cell_length_a   9.34513074
_cell_length_b   9.33635667
_cell_length_c   28.18249841
_cell_angle_alpha   59.13620122
_cell_angle_beta   59.17157565
_cell_angle_gamma   59.31652702
_symmetry_Int_Tables_number   1
_chemical_formula_structural   Na10Zr6Si7(PO18)2
_chemical_formula_sum   'Na20 Zr12 Si14 P4 O72'
_cell_volume   1707.33199676
_cell_formula_units_Z   2
loop_
 _symmetry_equiv_pos_site_id
 _symmetry_equiv_pos_as_xyz
  1  'x, y, z'
loop_
 _atom_site_type_symbol
 _atom_site_label
 _atom_site_symmetry_multiplicity
 _atom_site_fract_x
 _atom_site_fract_y
 _atom_site_fract_z
 _atom_site_occupancy
  Na  Na0  1  0.395315  0.746492  0.052114  1
  Na  Na1  1  0.294901  0.461908  0.226594  1
  Na  Na2  1  0.752225  0.136438  0.134971  1
  Na  Na3  1  0.255175  0.882365  0.214638  1
  Na  Na4  1  0.652121  0.250719  0.298164  1
  Na  Na5  1  0.791208  0.561388  0.091721  1
  Na  Na6  1  0.361444  0.745602  0.369473  1
  Na  Na7  1  0.991820  0.927191  0.024832  1
  Na  Na8  1  0.750440  0.103262  0.447729  1
  Na  Na9  1  0.477175  0.504502  0.501694  1
  Na  Na10  1  0.254399  0.895000  0.533169  1
  Na  Na11  1  0.628312  0.253970  0.627602  1
  Na  Na12  1  0.896499  0.656259  0.414326  1
  Na  Na13  1  0.397732  0.742640  0.704024  1
  Na  Na14  1  0.752456  0.122621  0.801212  1
  Na  Na15  1  0.430484  0.484321  0.857394  1
  Na  Na16  1  0.251919  0.886699  0.877938  1
  Na  Na17  1  0.617117  0.251798  0.971282  1
  Na  Na18  1  0.862065  0.560113  0.745375  1
  Na  Na19  1  0.993350  0.952600  0.683513  1
  Zr  Zr20  1  0.153916  0.147132  0.044185  1
  Zr  Zr21  1  0.357420  0.355883  0.115875  1
  Zr  Zr22  1  0.146459  0.142665  0.380132  1
  Zr  Zr23  1  0.352208  0.351356  0.453187  1
  Zr  Zr24  1  0.649395  0.648416  0.215923  1
  Zr  Zr25  1  0.148555  0.150401  0.710124  1
  Zr  Zr26  1  0.852458  0.846941  0.284607  1
  Zr  Zr27  1  0.347807  0.359152  0.786394  1
  Zr  Zr28  1  0.645598  0.648529  0.550047  1
  Zr  Zr29  1  0.854916  0.845493  0.616163  1
  Zr  Zr30  1  0.655105  0.646401  0.882029  1
  Zr  Zr31  1  0.853221  0.847522  0.950822  1
  Si  Si32  1  0.043556  0.746871  0.155154  1
  Si  Si33  1  0.465128  0.039910  0.248021  1
  Si  Si34  1  0.755846  0.447618  0.011435  1
  Si  Si35  1  0.251834  0.539176  0.321732  1
  Si  Si36  1  0.544490  0.954615  0.083147  1
  Si  Si37  1  0.046715  0.742836  0.488173  1
  Si  Si38  1  0.460274  0.046181  0.582798  1
  Si  Si39  1  0.746303  0.458250  0.347481  1
  Si  Si40  1  0.248361  0.551437  0.655152  1
  Si  Si41  1  0.535485  0.955375  0.418010  1
  Si  Si42  1  0.048021  0.747613  0.819664  1
  Si  Si43  1  0.458118  0.040285  0.916728  1
  Si  Si44  1  0.747424  0.446679  0.681196  1
  Si  Si45  1  0.253618  0.548992  0.986117  1
  P  P46  1  0.964007  0.245198  0.177283  1
  P  P47  1  0.954515  0.246623  0.513554  1
  P  P48  1  0.539950  0.956619  0.750492  1
  P  P49  1  0.951958  0.249630  0.845275  1
  O  O50  1  0.137368  0.267035  0.161336  1
  O  O51  1  0.293437  0.530110  0.039184  1
  O  O52  1  0.065009  0.923035  0.095625  1
  O  O53  1  0.514906  0.133898  0.089163  1
  O  O54  1  0.221584  0.577355  0.142742  1
  O  O55  1  0.030483  0.762209  0.212638  1
  O  O56  1  0.306196  0.051839  0.310501  1
  O  O57  1  0.426102  0.221145  0.192506  1
  O  O58  1  0.584977  0.431354  0.072265  1
  O  O59  1  0.228373  0.360355  0.333244  1
  O  O60  1  0.075307  0.714467  0.313198  1
  O  O61  1  0.373612  0.985006  0.071789  1
  O  O62  1  0.653943  0.012021  0.247629  1
  O  O63  1  0.120173  0.276209  0.501796  1
  O  O64  1  0.922210  0.269527  0.023986  1
  O  O65  1  0.779998  0.628821  0.999403  1
  O  O66  1  0.421337  0.562819  0.260206  1
  O  O67  1  0.278495  0.515651  0.378821  1
  O  O68  1  0.572415  0.773152  0.139652  1
  O  O69  1  0.056704  0.920895  0.430360  1
  O  O70  1  0.726528  0.928643  0.024990  1
  O  O71  1  0.510595  0.120876  0.431509  1
  O  O72  1  0.230382  0.578696  0.477088  1
  O  O73  1  0.016448  0.776078  0.545439  1
  O  O74  1  0.968787  0.231231  0.123417  1
  O  O75  1  0.798627  0.407250  0.189780  1
  O  O76  1  0.482273  0.869031  0.239775  1
  O  O77  1  0.282038  0.056753  0.641846  1
  O  O78  1  0.947034  0.078887  0.232542  1
  O  O79  1  0.442683  0.223486  0.525722  1
  O  O80  1  0.709509  0.483256  0.292327  1
  O  O81  1  0.573989  0.431017  0.408225  1
  O  O82  1  0.205873  0.373212  0.675486  1
  O  O83  1  0.067717  0.726987  0.650095  1
  O  O84  1  0.865194  0.726071  0.165979  1
  O  O85  1  0.347022  0.983559  0.419048  1
  O  O86  1  0.626702  0.009796  0.597949  1
  O  O87  1  0.117827  0.287321  0.828945  1
  O  O88  1  0.917009  0.283614  0.359140  1
  O  O89  1  0.762556  0.640934  0.335966  1
  O  O90  1  0.412387  0.569333  0.592041  1
  O  O91  1  0.298126  0.527977  0.707477  1
  O  O92  1  0.581326  0.766853  0.472776  1
  O  O93  1  0.073055  0.918384  0.758694  1
  O  O94  1  0.702928  0.945235  0.356636  1
  O  O95  1  0.499897  0.114202  0.765764  1
  O  O96  1  0.229990  0.577525  0.811268  1
  O  O97  1  0.016897  0.788396  0.874636  1
  O  O98  1  0.975312  0.217183  0.461504  1
  O  O99  1  0.782248  0.405803  0.525340  1
  O  O100  1  0.495335  0.871945  0.571752  1
  O  O101  1  0.286542  0.043200  0.976616  1
  O  O102  1  0.935729  0.081508  0.571734  1
  O  O103  1  0.428866  0.222256  0.860317  1
  O  O104  1  0.702350  0.474133  0.627938  1
  O  O105  1  0.582527  0.419635  0.744369  1
  O  O106  1  0.224926  0.368604  0.001184  1
  O  O107  1  0.083537  0.731121  0.974703  1
  O  O108  1  0.875399  0.703500  0.500766  1
  O  O109  1  0.381412  0.987268  0.737967  1
  O  O110  1  0.634296  0.014639  0.924048  1
  O  O111  1  0.917191  0.267754  0.692583  1
  O  O112  1  0.772873  0.626971  0.669186  1
  O  O113  1  0.424945  0.567445  0.923404  1
  O  O114  1  0.567408  0.778836  0.802527  1
  O  O115  1  0.712393  0.944273  0.695814  1
  O  O116  1  0.972389  0.212274  0.794007  1
  O  O117  1  0.781581  0.414289  0.852035  1
  O  O118  1  0.498836  0.872745  0.900829  1
  O  O119  1  0.935260  0.090569  0.903379  1
  O  O120  1  0.721754  0.475742  0.955070  1
  O  O121  1  0.876933  0.715519  0.829223  1
