# generated using pymatgen
data_Co2H34N12Cl3O10
_symmetry_space_group_name_H-M   'P 1'
_cell_length_a   6.99019630
_cell_length_b   8.90920937
_cell_length_c   17.65706441
_cell_angle_alpha   90.00000000
_cell_angle_beta   90.00000000
_cell_angle_gamma   90.00000000
_symmetry_Int_Tables_number   1
_chemical_formula_structural   Co2H34N12Cl3O10
_chemical_formula_sum   'Co4 H68 N24 Cl6 O20'
_cell_volume   1099.63116103
_cell_formula_units_Z   2
loop_
 _symmetry_equiv_pos_site_id
 _symmetry_equiv_pos_as_xyz
  1  'x, y, z'
loop_
 _atom_site_type_symbol
 _atom_site_label
 _atom_site_symmetry_multiplicity
 _atom_site_fract_x
 _atom_site_fract_y
 _atom_site_fract_z
 _atom_site_occupancy
  Co  Co0  1  0.500000  0.650119  0.393407  1
  Co  Co1  1  0.500000  0.349881  0.606593  1
  Co  Co2  1  0.000000  0.849881  0.893407  1
  Co  Co3  1  0.000000  0.150119  0.106593  1
  H  H4  1  0.223661  0.471935  0.376749  1
  H  H5  1  0.276339  0.028065  0.876749  1
  H  H6  1  0.300895  0.112024  0.184449  1
  H  H7  1  0.114583  0.637705  0.119754  1
  H  H8  1  0.791808  0.686020  0.474891  1
  H  H9  1  0.000000  0.588793  0.840796  1
  H  H10  1  0.285989  0.323723  0.087435  1
  H  H11  1  0.276339  0.971935  0.123251  1
  H  H12  1  0.723661  0.971935  0.123251  1
  H  H13  1  0.348480  0.469491  0.296940  1
  H  H14  1  0.699105  0.112024  0.184449  1
  H  H15  1  0.208192  0.313980  0.525109  1
  H  H16  1  0.617217  0.798443  0.279890  1
  H  H17  1  0.851177  0.667748  0.989016  1
  H  H18  1  0.291808  0.186020  0.025109  1
  H  H19  1  0.648823  0.832252  0.489016  1
  H  H20  1  0.351177  0.167748  0.510984  1
  H  H21  1  0.614583  0.862295  0.619754  1
  H  H22  1  0.776339  0.528065  0.623251  1
  H  H23  1  0.699105  0.887976  0.815551  1
  H  H24  1  0.117217  0.298443  0.220110  1
  H  H25  1  0.148823  0.332252  0.010984  1
  H  H26  1  0.848480  0.030509  0.796940  1
  H  H27  1  0.500000  0.088793  0.659204  1
  H  H28  1  0.348480  0.530509  0.703060  1
  H  H29  1  0.614583  0.137705  0.380246  1
  H  H30  1  0.223661  0.528065  0.623251  1
  H  H31  1  0.848480  0.969491  0.203060  1
  H  H32  1  0.885417  0.362295  0.880246  1
  H  H33  1  0.291808  0.813980  0.974891  1
  H  H34  1  0.791808  0.313980  0.525109  1
  H  H35  1  0.199105  0.612024  0.315551  1
  H  H36  1  0.285989  0.676277  0.912565  1
  H  H37  1  0.800895  0.612024  0.315551  1
  H  H38  1  0.351177  0.832252  0.489016  1
  H  H39  1  0.214011  0.176277  0.587435  1
  H  H40  1  0.617217  0.201557  0.720110  1
  H  H41  1  0.714011  0.323723  0.087435  1
  H  H42  1  0.117217  0.701557  0.779890  1
  H  H43  1  0.385417  0.862295  0.619754  1
  H  H44  1  0.708192  0.813980  0.974891  1
  H  H45  1  0.785989  0.823723  0.412565  1
  H  H46  1  0.382783  0.798443  0.279890  1
  H  H47  1  0.500000  0.911207  0.340796  1
  H  H48  1  0.723661  0.028065  0.876749  1
  H  H49  1  0.651520  0.530509  0.703060  1
  H  H50  1  0.776339  0.471935  0.376749  1
  H  H51  1  0.882783  0.701557  0.779890  1
  H  H52  1  0.714011  0.676277  0.912565  1
  H  H53  1  0.851177  0.332252  0.010984  1
  H  H54  1  0.882783  0.298443  0.220110  1
  H  H55  1  0.885417  0.637705  0.119754  1
  H  H56  1  0.648823  0.167748  0.510984  1
  H  H57  1  0.148823  0.667748  0.989016  1
  H  H58  1  0.151520  0.969491  0.203060  1
  H  H59  1  0.708192  0.186020  0.025109  1
  H  H60  1  0.114583  0.362295  0.880246  1
  H  H61  1  0.785989  0.176277  0.587435  1
  H  H62  1  0.214011  0.823723  0.412565  1
  H  H63  1  0.151520  0.030509  0.796940  1
  H  H64  1  0.199105  0.387976  0.684449  1
  H  H65  1  0.385417  0.137705  0.380246  1
  H  H66  1  0.000000  0.411207  0.159204  1
  H  H67  1  0.208192  0.686020  0.474891  1
  H  H68  1  0.300895  0.887976  0.815551  1
  H  H69  1  0.800895  0.387976  0.684449  1
  H  H70  1  0.651520  0.469491  0.296940  1
  H  H71  1  0.382783  0.201557  0.720110  1
  N  N72  1  0.798750  0.738897  0.948239  1
  N  N73  1  0.201250  0.261103  0.051761  1
  N  N74  1  0.798750  0.261103  0.051761  1
  N  N75  1  0.500000  0.335667  0.872174  1
  N  N76  1  0.796919  0.038645  0.160790  1
  N  N77  1  0.000000  0.164333  0.372174  1
  N  N78  1  0.000000  0.835667  0.627826  1
  N  N79  1  0.703081  0.538645  0.339210  1
  N  N80  1  0.703081  0.461355  0.660790  1
  N  N81  1  0.298750  0.761103  0.448239  1
  N  N82  1  0.000000  0.306758  0.185210  1
  N  N83  1  0.298750  0.238897  0.551761  1
  N  N84  1  0.203081  0.038645  0.160790  1
  N  N85  1  0.000000  0.693242  0.814790  1
  N  N86  1  0.701250  0.238897  0.551761  1
  N  N87  1  0.296919  0.461355  0.660790  1
  N  N88  1  0.701250  0.761103  0.448239  1
  N  N89  1  0.296919  0.538645  0.339210  1
  N  N90  1  0.500000  0.193242  0.685210  1
  N  N91  1  0.500000  0.664333  0.127826  1
  N  N92  1  0.201250  0.738897  0.948239  1
  N  N93  1  0.796919  0.961355  0.839210  1
  N  N94  1  0.500000  0.806758  0.314790  1
  N  N95  1  0.203081  0.961355  0.839210  1
  Cl  Cl96  1  0.000000  0.188505  0.708725  1
  Cl  Cl97  1  0.500000  0.311495  0.208725  1
  Cl  Cl98  1  0.500000  0.688505  0.791275  1
  Cl  Cl99  1  0.500000  0.000000  0.000000  1
  Cl  Cl100  1  0.000000  0.811495  0.291275  1
  Cl  Cl101  1  0.000000  0.500000  0.500000  1
  O  O102  1  0.500000  0.413300  0.931090  1
  O  O103  1  0.342759  0.294455  0.841133  1
  O  O104  1  0.657241  0.705545  0.158867  1
  O  O105  1  0.000000  0.984097  0.036930  1
  O  O106  1  0.000000  0.015903  0.963070  1
  O  O107  1  0.500000  0.089717  0.403068  1
  O  O108  1  0.842759  0.794455  0.658867  1
  O  O109  1  0.842759  0.205545  0.341133  1
  O  O110  1  0.500000  0.586700  0.068910  1
  O  O111  1  0.657241  0.294455  0.841133  1
  O  O112  1  0.500000  0.910283  0.596932  1
  O  O113  1  0.000000  0.410283  0.903068  1
  O  O114  1  0.000000  0.913300  0.568910  1
  O  O115  1  0.000000  0.589717  0.096932  1
  O  O116  1  0.000000  0.086700  0.431090  1
  O  O117  1  0.157241  0.794455  0.658867  1
  O  O118  1  0.342759  0.705545  0.158867  1
  O  O119  1  0.500000  0.484097  0.463070  1
  O  O120  1  0.500000  0.515903  0.536930  1
  O  O121  1  0.157241  0.205545  0.341133  1
