# generated using pymatgen
data_Cs2As8S13
_symmetry_space_group_name_H-M   'P 1'
_cell_length_a   12.21050278
_cell_length_b   18.93173684
_cell_length_c   23.77544894
_cell_angle_alpha   90.00000000
_cell_angle_beta   90.00000000
_cell_angle_gamma   90.00000000
_symmetry_Int_Tables_number   1
_chemical_formula_structural   Cs2As8S13
_chemical_formula_sum   'Cs16 As64 S104'
_cell_volume   5496.07603154
_cell_formula_units_Z   8
loop_
 _symmetry_equiv_pos_site_id
 _symmetry_equiv_pos_as_xyz
  1  'x, y, z'
loop_
 _atom_site_type_symbol
 _atom_site_label
 _atom_site_symmetry_multiplicity
 _atom_site_fract_x
 _atom_site_fract_y
 _atom_site_fract_z
 _atom_site_occupancy
  Cs  Cs0  1  0.951745  0.803474  0.632859  1
  Cs  Cs1  1  0.451745  0.303474  0.867141  1
  Cs  Cs2  1  0.045488  0.702891  0.378601  1
  Cs  Cs3  1  0.045488  0.297109  0.121399  1
  Cs  Cs4  1  0.954512  0.297109  0.621399  1
  Cs  Cs5  1  0.454512  0.202891  0.621399  1
  Cs  Cs6  1  0.454512  0.797109  0.878601  1
  Cs  Cs7  1  0.451745  0.696526  0.632859  1
  Cs  Cs8  1  0.545488  0.202891  0.121399  1
  Cs  Cs9  1  0.548255  0.696526  0.132859  1
  Cs  Cs10  1  0.048255  0.803474  0.132859  1
  Cs  Cs11  1  0.548255  0.303474  0.367141  1
  Cs  Cs12  1  0.951745  0.196526  0.867141  1
  Cs  Cs13  1  0.954512  0.702891  0.878601  1
  Cs  Cs14  1  0.545488  0.797109  0.378601  1
  Cs  Cs15  1  0.048255  0.196526  0.367141  1
  As  As16  1  0.649489  0.917086  0.560159  1
  As  As17  1  0.344825  0.579238  0.966783  1
  As  As18  1  0.623006  0.970865  0.062079  1
  As  As19  1  0.916013  0.070528  0.191034  1
  As  As20  1  0.344825  0.420762  0.533217  1
  As  As21  1  0.198356  0.438490  0.302064  1
  As  As22  1  0.583987  0.429472  0.691034  1
  As  As23  1  0.850511  0.417086  0.439841  1
  As  As24  1  0.416013  0.429472  0.191034  1
  As  As25  1  0.876994  0.529135  0.562079  1
  As  As26  1  0.844825  0.920762  0.966783  1
  As  As27  1  0.278376  0.416308  0.674347  1
  As  As28  1  0.583987  0.570528  0.808966  1
  As  As29  1  0.405217  0.088709  0.290472  1
  As  As30  1  0.126440  0.909343  0.962410  1
  As  As31  1  0.301644  0.938490  0.697936  1
  As  As32  1  0.301644  0.061510  0.802064  1
  As  As33  1  0.405217  0.911291  0.209528  1
  As  As34  1  0.155175  0.079238  0.033217  1
  As  As35  1  0.801644  0.561510  0.697936  1
  As  As36  1  0.594783  0.088709  0.790472  1
  As  As37  1  0.778376  0.916308  0.825653  1
  As  As38  1  0.221624  0.916308  0.325653  1
  As  As39  1  0.655175  0.420762  0.033217  1
  As  As40  1  0.876994  0.470865  0.937921  1
  As  As41  1  0.698356  0.061510  0.302064  1
  As  As42  1  0.123006  0.529135  0.062079  1
  As  As43  1  0.905217  0.588709  0.209528  1
  As  As44  1  0.623006  0.029135  0.437921  1
  As  As45  1  0.721624  0.416308  0.174347  1
  As  As46  1  0.376994  0.970865  0.562079  1
  As  As47  1  0.155175  0.920762  0.466783  1
  As  As48  1  0.916013  0.929472  0.308966  1
  As  As49  1  0.373560  0.409343  0.037590  1
  As  As50  1  0.721624  0.583692  0.325653  1
  As  As51  1  0.594783  0.911291  0.709528  1
  As  As52  1  0.278376  0.583692  0.825653  1
  As  As53  1  0.123006  0.470865  0.437921  1
  As  As54  1  0.126440  0.090657  0.537590  1
  As  As55  1  0.655175  0.579238  0.466783  1
  As  As56  1  0.626440  0.409343  0.537590  1
  As  As57  1  0.873560  0.909343  0.462410  1
  As  As58  1  0.373560  0.590657  0.462410  1
  As  As59  1  0.094783  0.588709  0.709528  1
  As  As60  1  0.198356  0.561510  0.197936  1
  As  As61  1  0.873560  0.090657  0.037590  1
  As  As62  1  0.844825  0.079238  0.533217  1
  As  As63  1  0.094783  0.411291  0.790472  1
  As  As64  1  0.801644  0.438490  0.802064  1
  As  As65  1  0.850511  0.582914  0.060158  1
  As  As66  1  0.083987  0.929472  0.808966  1
  As  As67  1  0.698356  0.938490  0.197936  1
  As  As68  1  0.778376  0.083692  0.674347  1
  As  As69  1  0.350511  0.082914  0.439841  1
  As  As70  1  0.149489  0.582914  0.560159  1
  As  As71  1  0.149489  0.417086  0.939841  1
  As  As72  1  0.416013  0.570528  0.308966  1
  As  As73  1  0.626440  0.590657  0.962410  1
  As  As74  1  0.905217  0.411291  0.290472  1
  As  As75  1  0.649489  0.082914  0.939841  1
  As  As76  1  0.350511  0.917086  0.060158  1
  As  As77  1  0.221624  0.083692  0.174347  1
  As  As78  1  0.376994  0.029135  0.937921  1
  As  As79  1  0.083987  0.070528  0.691034  1
  S  S80  1  0.482706  0.006123  0.632040  1
  S  S81  1  0.929931  0.993454  0.909338  1
  S  S82  1  0.252220  0.150542  0.096666  1
  S  S83  1  0.168882  0.859675  0.875713  1
  S  S84  1  0.983820  0.160997  0.510979  1
  S  S85  1  0.746971  0.165507  0.993268  1
  S  S86  1  0.983820  0.839003  0.989021  1
  S  S87  1  0.825438  0.665177  0.275579  1
  S  S88  1  0.747151  0.101208  0.388961  1
  S  S89  1  0.482706  0.993877  0.867960  1
  S  S90  1  0.487068  0.116282  0.979418  1
  S  S91  1  0.069145  0.133989  0.216249  1
  S  S92  1  0.982706  0.506123  0.867960  1
  S  S93  1  0.017294  0.493877  0.132040  1
  S  S94  1  0.987068  0.616282  0.520582  1
  S  S95  1  0.930855  0.866011  0.783751  1
  S  S96  1  0.016180  0.839003  0.489021  1
  S  S97  1  0.016180  0.160997  0.010979  1
  S  S98  1  0.247151  0.398792  0.388961  1
  S  S99  1  0.929931  0.006546  0.590662  1
  S  S100  1  0.663390  0.157578  0.862735  1
  S  S101  1  0.569874  0.141838  0.270548  1
  S  S102  1  0.252849  0.101208  0.888961  1
  S  S103  1  0.017294  0.506123  0.367960  1
  S  S104  1  0.570069  0.493454  0.090662  1
  S  S105  1  0.246971  0.665507  0.506732  1
  S  S106  1  0.253029  0.834493  0.006732  1
  S  S107  1  0.987068  0.383718  0.979418  1
  S  S108  1  0.246971  0.334493  0.993268  1
  S  S109  1  0.825438  0.334823  0.224421  1
  S  S110  1  0.429931  0.506546  0.909338  1
  S  S111  1  0.166579  0.134857  0.762799  1
  S  S112  1  0.487068  0.883718  0.520582  1
  S  S113  1  0.331118  0.359675  0.124287  1
  S  S114  1  0.930855  0.133989  0.716249  1
  S  S115  1  0.752220  0.650542  0.403334  1
  S  S116  1  0.752849  0.601208  0.611039  1
  S  S117  1  0.070069  0.993454  0.409338  1
  S  S118  1  0.333421  0.634857  0.237201  1
  S  S119  1  0.430126  0.858162  0.729452  1
  S  S120  1  0.069145  0.866011  0.283751  1
  S  S121  1  0.668882  0.359675  0.624287  1
  S  S122  1  0.753029  0.665507  0.006732  1
  S  S123  1  0.069874  0.641838  0.229452  1
  S  S124  1  0.836610  0.342422  0.362735  1
  S  S125  1  0.168882  0.140325  0.624287  1
  S  S126  1  0.174562  0.665177  0.775579  1
  S  S127  1  0.663390  0.842422  0.637265  1
  S  S128  1  0.836610  0.657578  0.137265  1
  S  S129  1  0.666579  0.634857  0.737201  1
  S  S130  1  0.569145  0.633989  0.283751  1
  S  S131  1  0.747151  0.898792  0.111039  1
  S  S132  1  0.331118  0.640325  0.375713  1
  S  S133  1  0.430855  0.633989  0.783751  1
  S  S134  1  0.516180  0.660997  0.489021  1
  S  S135  1  0.516180  0.339003  0.010979  1
  S  S136  1  0.483820  0.339003  0.510979  1
  S  S137  1  0.752220  0.349458  0.096666  1
  S  S138  1  0.833421  0.134857  0.262799  1
  S  S139  1  0.674562  0.165177  0.724421  1
  S  S140  1  0.569145  0.366011  0.216249  1
  S  S141  1  0.747780  0.849458  0.903334  1
  S  S142  1  0.336610  0.157578  0.362735  1
  S  S143  1  0.833421  0.865143  0.237201  1
  S  S144  1  0.666579  0.365143  0.762799  1
  S  S145  1  0.746971  0.834493  0.506732  1
  S  S146  1  0.166579  0.865143  0.737201  1
  S  S147  1  0.674562  0.834823  0.775579  1
  S  S148  1  0.517294  0.006123  0.132040  1
  S  S149  1  0.070069  0.006546  0.090662  1
  S  S150  1  0.752849  0.398792  0.888961  1
  S  S151  1  0.252220  0.849458  0.403334  1
  S  S152  1  0.930126  0.641838  0.729452  1
  S  S153  1  0.570069  0.506546  0.409338  1
  S  S154  1  0.174562  0.334823  0.724421  1
  S  S155  1  0.668882  0.640325  0.875713  1
  S  S156  1  0.325438  0.165177  0.224421  1
  S  S157  1  0.012932  0.616282  0.020582  1
  S  S158  1  0.430855  0.366011  0.716249  1
  S  S159  1  0.069874  0.358162  0.270548  1
  S  S160  1  0.831118  0.859675  0.375713  1
  S  S161  1  0.517294  0.993877  0.367960  1
  S  S162  1  0.247780  0.650542  0.903334  1
  S  S163  1  0.252849  0.898792  0.611039  1
  S  S164  1  0.247780  0.349458  0.596666  1
  S  S165  1  0.429931  0.493454  0.590662  1
  S  S166  1  0.012932  0.383718  0.479418  1
  S  S167  1  0.333421  0.365143  0.262799  1
  S  S168  1  0.163390  0.342422  0.862735  1
  S  S169  1  0.430126  0.141838  0.770548  1
  S  S170  1  0.512932  0.116282  0.479418  1
  S  S171  1  0.831118  0.140325  0.124287  1
  S  S172  1  0.325438  0.834823  0.275579  1
  S  S173  1  0.253029  0.165507  0.493268  1
  S  S174  1  0.747780  0.150542  0.596666  1
  S  S175  1  0.483820  0.660997  0.989021  1
  S  S176  1  0.569874  0.858162  0.229452  1
  S  S177  1  0.247151  0.601208  0.111039  1
  S  S178  1  0.930126  0.358162  0.770548  1
  S  S179  1  0.163390  0.657578  0.637265  1
  S  S180  1  0.753029  0.334493  0.493268  1
  S  S181  1  0.336610  0.842422  0.137265  1
  S  S182  1  0.512932  0.883718  0.020582  1
  S  S183  1  0.982706  0.493877  0.632040  1
