# generated using pymatgen
data_Sb5IO7
_symmetry_space_group_name_H-M   'P 1'
_cell_length_a   7.38576784
_cell_length_b   12.30845572
_cell_length_c   13.28712681
_cell_angle_alpha   90.00000000
_cell_angle_beta   90.00000000
_cell_angle_gamma   96.68492034
_symmetry_Int_Tables_number   1
_chemical_formula_structural   Sb5IO7
_chemical_formula_sum   'Sb20 I4 O28'
_cell_volume   1199.68599373
_cell_formula_units_Z   4
loop_
 _symmetry_equiv_pos_site_id
 _symmetry_equiv_pos_as_xyz
  1  'x, y, z'
loop_
 _atom_site_type_symbol
 _atom_site_label
 _atom_site_symmetry_multiplicity
 _atom_site_fract_x
 _atom_site_fract_y
 _atom_site_fract_z
 _atom_site_occupancy
  Sb  Sb0  1  0.347238  0.502024  0.496874  1
  Sb  Sb1  1  0.935968  0.832088  0.299442  1
  Sb  Sb2  1  0.894446  0.231984  0.739127  1
  Sb  Sb3  1  0.772248  0.445952  0.488448  1
  Sb  Sb4  1  0.009478  0.551553  0.743854  1
  Sb  Sb5  1  0.498118  0.038569  0.758644  1
  Sb  Sb6  1  0.370478  0.778079  0.696975  1
  Sb  Sb7  1  0.509478  0.051553  0.256146  1
  Sb  Sb8  1  0.998118  0.538569  0.241356  1
  Sb  Sb9  1  0.394446  0.731984  0.260873  1
  Sb  Sb10  1  0.605763  0.733819  0.918260  1
  Sb  Sb11  1  0.870478  0.278079  0.303025  1
  Sb  Sb12  1  0.884087  0.400992  0.991024  1
  Sb  Sb13  1  0.105763  0.233819  0.081740  1
  Sb  Sb14  1  0.272248  0.945952  0.511552  1
  Sb  Sb15  1  0.384087  0.900992  0.008976  1
  Sb  Sb16  1  0.435968  0.332088  0.700558  1
  Sb  Sb17  1  0.688864  0.136922  0.013253  1
  Sb  Sb18  1  0.188864  0.636922  0.986747  1
  Sb  Sb19  1  0.847238  0.002024  0.503126  1
  I  I20  1  0.887612  0.836732  0.037991  1
  I  I21  1  0.244973  0.261828  0.494697  1
  I  I22  1  0.744973  0.761828  0.505303  1
  I  I23  1  0.387612  0.336732  0.962009  1
  O  O24  1  0.484209  0.971607  0.623243  1
  O  O25  1  0.952659  0.106046  0.018861  1
  O  O26  1  0.330780  0.774435  0.121635  1
  O  O27  1  0.064467  0.499981  0.894981  1
  O  O28  1  0.666010  0.970228  0.332276  1
  O  O29  1  0.260257  0.581318  0.263959  1
  O  O30  1  0.572659  0.508200  0.411446  1
  O  O31  1  0.210322  0.800276  0.580670  1
  O  O32  1  0.072659  0.008200  0.588554  1
  O  O33  1  0.870817  0.663239  0.247522  1
  O  O34  1  0.197069  0.806978  0.324137  1
  O  O35  1  0.710322  0.300276  0.419330  1
  O  O36  1  0.370817  0.163239  0.752478  1
  O  O37  1  0.697069  0.306978  0.675863  1
  O  O38  1  0.522980  0.462430  0.601268  1
  O  O39  1  0.830780  0.274435  0.878365  1
  O  O40  1  0.182906  0.683770  0.778784  1
  O  O41  1  0.564347  0.028925  0.909992  1
  O  O42  1  0.452659  0.606046  0.981139  1
  O  O43  1  0.842217  0.401225  0.202610  1
  O  O44  1  0.682906  0.183770  0.221216  1
  O  O45  1  0.064347  0.528925  0.090008  1
  O  O46  1  0.564467  0.999981  0.105019  1
  O  O47  1  0.984209  0.471607  0.376757  1
  O  O48  1  0.760257  0.081318  0.736041  1
  O  O49  1  0.022979  0.962430  0.398732  1
  O  O50  1  0.342217  0.901225  0.797390  1
  O  O51  1  0.166010  0.470228  0.667724  1
