# generated using pymatgen
data_Ca5ThF14
_symmetry_space_group_name_H-M   'P 1'
_cell_length_a   3.97481300
_cell_length_b   4.00624840
_cell_length_c   24.34353831
_cell_angle_alpha   59.22877180
_cell_angle_beta   59.60050839
_cell_angle_gamma   58.42302056
_symmetry_Int_Tables_number   1
_chemical_formula_structural   Ca5ThF14
_chemical_formula_sum   'Ca5 Th1 F14'
_cell_volume   268.32442745
_cell_formula_units_Z   1
loop_
 _symmetry_equiv_pos_site_id
 _symmetry_equiv_pos_as_xyz
  1  'x, y, z'
loop_
 _atom_site_type_symbol
 _atom_site_label
 _atom_site_symmetry_multiplicity
 _atom_site_fract_x
 _atom_site_fract_y
 _atom_site_fract_z
 _atom_site_occupancy
  Ca  Ca0  1  0.972753  0.024798  0.005186  1
  Ca  Ca1  1  0.989453  0.068429  0.485199  1
  Ca  Ca2  1  0.917458  0.049098  0.168921  1
  Ca  Ca3  1  0.950213  0.060145  0.326945  1
  Ca  Ca4  1  0.005367  0.018919  0.844299  1
  Th  Th5  1  0.002635  0.036455  0.665604  1
  F  F6  1  0.674116  0.791191  0.128811  1
  F  F7  1  0.174515  0.300914  0.208216  1
  F  F8  1  0.240008  0.304329  0.529333  1
  F  F9  1  0.696121  0.808050  0.286886  1
  F  F10  1  0.206938  0.317071  0.365158  1
  F  F11  1  0.238795  0.253815  0.732049  1
  F  F12  1  0.734401  0.818401  0.444909  1
  F  F13  1  0.408028  0.447615  0.617948  1
  F  F14  1  0.254076  0.272704  0.882405  1
  F  F15  1  0.766631  0.814162  0.598435  1
  F  F16  1  0.601169  0.621636  0.712181  1
  F  F17  1  0.768816  0.782137  0.795947  1
  F  F18  1  0.391896  0.437236  0.965405  1
  F  F19  1  0.566612  0.612896  0.042830  1
