# generated using pymatgen
data_NaPO3
_symmetry_space_group_name_H-M   'P 1'
_cell_length_a   7.26138783
_cell_length_b   9.66287227
_cell_length_c   9.66287208
_cell_angle_alpha   81.88398532
_cell_angle_beta   67.93016302
_cell_angle_gamma   67.93015790
_symmetry_Int_Tables_number   1
_chemical_formula_structural   NaPO3
_chemical_formula_sum   'Na8 P8 O24'
_cell_volume   582.28460736
_cell_formula_units_Z   8
loop_
 _symmetry_equiv_pos_site_id
 _symmetry_equiv_pos_as_xyz
  1  'x, y, z'
loop_
 _atom_site_type_symbol
 _atom_site_label
 _atom_site_symmetry_multiplicity
 _atom_site_fract_x
 _atom_site_fract_y
 _atom_site_fract_z
 _atom_site_occupancy
  Na  Na0  1  0.244825  0.569780  0.213307  1
  Na  Na1  1  0.755175  0.430220  0.786693  1
  Na  Na2  1  0.685395  0.786693  0.069780  1
  Na  Na3  1  0.458132  0.286693  0.569780  1
  Na  Na4  1  0.027912  0.930220  0.286693  1
  Na  Na5  1  0.541868  0.713307  0.430220  1
  Na  Na6  1  0.314605  0.213307  0.930220  1
  Na  Na7  1  0.972088  0.069780  0.713307  1
  P  P8  1  0.755891  0.411623  0.184789  1
  P  P9  1  0.059320  0.684789  0.588377  1
  P  P10  1  0.940680  0.315211  0.411623  1
  P  P11  1  0.647697  0.911623  0.684789  1
  P  P12  1  0.244109  0.588377  0.815211  1
  P  P13  1  0.667514  0.184789  0.088377  1
  P  P14  1  0.332486  0.815211  0.911623  1
  P  P15  1  0.352303  0.088377  0.315211  1
  O  O16  1  0.852363  0.293532  0.577271  1
  O  O17  1  0.570366  0.077271  0.706468  1
  O  O18  1  0.723165  0.206468  0.922729  1
  O  O19  1  0.031783  0.657622  0.930095  1
  O  O20  1  0.810595  0.069905  0.157622  1
  O  O21  1  0.437869  0.160807  0.147080  1
  O  O22  1  0.968217  0.342378  0.069905  1
  O  O23  1  0.901325  0.852920  0.660807  1
  O  O24  1  0.380500  0.157622  0.430095  1
  O  O25  1  0.619500  0.842378  0.569905  1
  O  O26  1  0.354105  0.422729  0.793532  1
  O  O27  1  0.562131  0.839193  0.852920  1
  O  O28  1  0.745755  0.339193  0.352920  1
  O  O29  1  0.254245  0.660807  0.647080  1
  O  O30  1  0.961877  0.569905  0.657622  1
  O  O31  1  0.276835  0.793532  0.077271  1
  O  O32  1  0.415051  0.647080  0.839193  1
  O  O33  1  0.584949  0.352920  0.160807  1
  O  O34  1  0.429634  0.922729  0.293532  1
  O  O35  1  0.147637  0.706468  0.422729  1
  O  O36  1  0.189405  0.930095  0.842378  1
  O  O37  1  0.098675  0.147080  0.339193  1
  O  O38  1  0.038123  0.430095  0.342378  1
  O  O39  1  0.645895  0.577271  0.206468  1
