# generated using pymatgen
data_Ba2EuCu3O7
_symmetry_space_group_name_H-M   'P 1'
_cell_length_a   3.85432060
_cell_length_b   3.94799941
_cell_length_c   11.78208026
_cell_angle_alpha   90.00007619
_cell_angle_beta   89.99996416
_cell_angle_gamma   90.00017698
_symmetry_Int_Tables_number   1
_chemical_formula_structural   Ba2EuCu3O7
_chemical_formula_sum   'Ba2 Eu1 Cu3 O7'
_cell_volume   179.28621227
_cell_formula_units_Z   1
loop_
 _symmetry_equiv_pos_site_id
 _symmetry_equiv_pos_as_xyz
  1  'x, y, z'
loop_
 _atom_site_type_symbol
 _atom_site_label
 _atom_site_symmetry_multiplicity
 _atom_site_fract_x
 _atom_site_fract_y
 _atom_site_fract_z
 _atom_site_occupancy
  Eu  Eu0  1  0.499999  0.500000  0.500016  1
  Ba  Ba1  1  0.499999  0.500000  0.818594  1
  Ba  Ba2  1  0.499999  0.499999  0.181382  1
  Cu  Cu3  1  0.000001  0.000001  0.649567  1
  Cu  Cu4  1  0.000001  0.000001  0.000003  1
  Cu  Cu5  1  1.000000  0.000002  0.350442  1
  O  O6  1  0.000000  0.499999  0.370971  1
  O  O7  1  0.000001  0.999999  0.158419  1
  O  O8  1  0.500000  0.000001  0.373663  1
  O  O9  1  0.500000  -0.000001  0.626336  1
  O  O10  1  0.999999  0.500000  0.629019  1
  O  O11  1  -0.000000  0.000000  0.841589  1
  O  O12  1  0.000001  0.500000  0.999998  1
