# generated using pymatgen
data_VS2
_symmetry_space_group_name_H-M   'P 1'
_cell_length_a   2.38683806
_cell_length_b   3.27411750
_cell_length_c   24.18051339
_cell_angle_alpha   86.27328529
_cell_angle_beta   86.37571973
_cell_angle_gamma   44.51397572
_symmetry_Int_Tables_number   1
_chemical_formula_structural   VS2
_chemical_formula_sum   'V1 S2'
_cell_volume   132.16204735
_cell_formula_units_Z   1
loop_
 _symmetry_equiv_pos_site_id
 _symmetry_equiv_pos_as_xyz
  1  'x, y, z'
loop_
 _atom_site_type_symbol
 _atom_site_label
 _atom_site_symmetry_multiplicity
 _atom_site_fract_x
 _atom_site_fract_y
 _atom_site_fract_z
 _atom_site_occupancy
  V  V0  1  0.507655  0.508198  0.496148  1
  S  S1  1  0.430715  0.932173  0.190916  1
  S  S2  1  0.524342  0.076849  0.810690  1
