# generated using pymatgen
data_K2LiNb6(PO8)3
_symmetry_space_group_name_H-M   'P 1'
_cell_length_a   8.54512260
_cell_length_b   8.53132219
_cell_length_c   8.54204002
_cell_angle_alpha   104.17415351
_cell_angle_beta   104.07953490
_cell_angle_gamma   104.19523372
_symmetry_Int_Tables_number   1
_chemical_formula_structural   K2LiNb6(PO8)3
_chemical_formula_sum   'K2 Li1 Nb6 P3 O24'
_cell_volume   554.01767785
_cell_formula_units_Z   1
loop_
 _symmetry_equiv_pos_site_id
 _symmetry_equiv_pos_as_xyz
  1  'x, y, z'
loop_
 _atom_site_type_symbol
 _atom_site_label
 _atom_site_symmetry_multiplicity
 _atom_site_fract_x
 _atom_site_fract_y
 _atom_site_fract_z
 _atom_site_occupancy
  K  K0  1  0.405821  0.694991  0.089170  1
  K  K1  1  0.911292  0.304643  0.594182  1
  Li  Li2  1  0.577046  0.579139  0.578996  1
  Nb  Nb3  1  0.038235  0.353859  0.159850  1
  Nb  Nb4  1  0.163809  0.040586  0.357623  1
  Nb  Nb5  1  0.652554  0.971362  0.846270  1
  Nb  Nb6  1  0.356961  0.160580  0.038761  1
  Nb  Nb7  1  0.849666  0.655520  0.973343  1
  Nb  Nb8  1  0.973010  0.848699  0.652917  1
  P  P9  1  0.275393  0.723777  0.499842  1
  P  P10  1  0.499664  0.275905  0.724481  1
  P  P11  1  0.723772  0.499676  0.276181  1
  O  O12  1  0.028050  0.975058  0.499798  1
  O  O13  1  0.153383  0.001511  0.847393  1
  O  O14  1  0.002445  0.847253  0.153561  1
  O  O15  1  0.133034  0.709905  0.582372  1
  O  O16  1  0.064916  0.206121  0.314108  1
  O  O17  1  0.288792  0.866365  0.417564  1
  O  O18  1  0.236528  0.552802  0.357089  1
  O  O19  1  0.449065  0.753868  0.633367  1
  O  O20  1  0.206491  0.314412  0.065709  1
  O  O21  1  0.419564  0.291123  0.868025  1
  O  O22  1  0.358412  0.234424  0.552316  1
  O  O23  1  0.309606  0.062971  0.202786  1
  O  O24  1  0.496345  0.024139  0.971172  1
  O  O25  1  0.683293  0.790236  0.927773  1
  O  O26  1  0.634344  0.448344  0.751052  1
  O  O27  1  0.584340  0.135009  0.712098  1
  O  O28  1  0.793463  0.929412  0.687863  1
  O  O29  1  0.550618  0.359402  0.234832  1
  O  O30  1  0.753053  0.632098  0.450653  1
  O  O31  1  0.708952  0.583087  0.134065  1
  O  O32  1  0.926867  0.682926  0.789894  1
  O  O33  1  0.867085  0.418953  0.292138  1
  O  O34  1  0.847236  0.153688  0.000506  1
  O  O35  1  0.972895  0.498152  0.026252  1
