# generated using pymatgen
data_K4Nb2Si8O23
_symmetry_space_group_name_H-M   'P 1'
_cell_length_a   7.84626175
_cell_length_b   11.09070286
_cell_length_c   32.77515098
_cell_angle_alpha   92.99628021
_cell_angle_beta   94.77158541
_cell_angle_gamma   103.64279900
_symmetry_Int_Tables_number   1
_chemical_formula_structural   K4Nb2Si8O23
_chemical_formula_sum   'K20 Nb10 Si40 O115'
_cell_volume   2754.41266423
_cell_formula_units_Z   5
loop_
 _symmetry_equiv_pos_site_id
 _symmetry_equiv_pos_as_xyz
  1  'x, y, z'
loop_
 _atom_site_type_symbol
 _atom_site_label
 _atom_site_symmetry_multiplicity
 _atom_site_fract_x
 _atom_site_fract_y
 _atom_site_fract_z
 _atom_site_occupancy
  K  K0  1  0.024359  0.144345  0.263139  1
  K  K1  1  0.618733  0.134259  0.665158  1
  K  K2  1  0.173354  0.475975  0.057278  1
  K  K3  1  0.244081  0.141425  0.066182  1
  K  K4  1  0.244418  0.527431  0.544361  1
  K  K5  1  0.842999  0.146862  0.466295  1
  K  K6  1  0.001888  0.493314  0.255115  1
  K  K7  1  0.639488  0.526994  0.145072  1
  K  K8  1  0.998112  0.506686  0.744885  1
  K  K9  1  0.398266  0.513370  0.345731  1
  K  K10  1  0.826646  0.524025  0.942722  1
  K  K11  1  0.381267  0.865741  0.334842  1
  K  K12  1  0.755919  0.858575  0.933818  1
  K  K13  1  0.157001  0.853138  0.533705  1
  K  K14  1  0.755582  0.472569  0.455639  1
  K  K15  1  0.433877  0.144602  0.865522  1
  K  K16  1  0.601734  0.486630  0.654269  1
  K  K17  1  0.975641  0.855655  0.736861  1
  K  K18  1  0.566123  0.855398  0.134478  1
  K  K19  1  0.360512  0.473006  0.854928  1
  Nb  Nb20  1  0.500157  0.705865  0.245939  1
  Nb  Nb21  1  0.900238  0.294742  0.354795  1
  Nb  Nb22  1  0.867041  0.676422  0.841898  1
  Nb  Nb23  1  0.132959  0.323578  0.158102  1
  Nb  Nb24  1  0.678180  0.688607  0.041674  1
  Nb  Nb25  1  0.321820  0.311393  0.958326  1
  Nb  Nb26  1  0.733697  0.326828  0.557904  1
  Nb  Nb27  1  0.099762  0.705258  0.645205  1
  Nb  Nb28  1  0.499843  0.294135  0.754061  1
  Nb  Nb29  1  0.266303  0.673172  0.442096  1
  Si  Si30  1  0.079597  0.801936  0.096830  1
  Si  Si31  1  0.151357  0.005615  0.168364  1
  Si  Si32  1  0.101216  0.221207  0.698109  1
  Si  Si33  1  0.842322  0.359321  0.835136  1
  Si  Si34  1  0.920403  0.198064  0.903170  1
  Si  Si35  1  0.905507  0.201972  0.994423  1
  Si  Si36  1  0.481720  0.193267  0.389364  1
  Si  Si37  1  0.080069  0.204242  0.788849  1
  Si  Si38  1  0.327989  0.622832  0.966513  1
  Si  Si39  1  0.246160  0.992595  0.433782  1
  Si  Si40  1  0.671665  0.793906  0.496158  1
  Si  Si41  1  0.898784  0.778793  0.301891  1
  Si  Si42  1  0.501132  0.782836  0.701427  1
  Si  Si43  1  0.313197  0.220042  0.595098  1
  Si  Si44  1  0.526685  0.600976  0.763170  1
  Si  Si45  1  0.919931  0.795758  0.211151  1
  Si  Si46  1  0.473315  0.399024  0.236830  1
  Si  Si47  1  0.931414  0.987328  0.367797  1
  Si  Si48  1  0.068586  0.012672  0.632203  1
  Si  Si49  1  0.474561  0.014281  0.230281  1
  Si  Si50  1  0.272757  0.778302  0.896521  1
  Si  Si51  1  0.750227  0.641332  0.566232  1
  Si  Si52  1  0.498868  0.217164  0.298573  1
  Si  Si53  1  0.919174  0.601470  0.365507  1
  Si  Si54  1  0.157678  0.640679  0.164864  1
  Si  Si55  1  0.848643  0.994385  0.831636  1
  Si  Si56  1  0.249773  0.358668  0.433768  1
  Si  Si57  1  0.080826  0.398530  0.634493  1
  Si  Si58  1  0.672011  0.377168  0.033487  1
  Si  Si59  1  0.753840  0.007405  0.566218  1
  Si  Si60  1  0.328335  0.206094  0.503842  1
  Si  Si61  1  0.525439  0.985719  0.769719  1
  Si  Si62  1  0.290771  0.771142  0.805398  1
  Si  Si63  1  0.518280  0.806733  0.610636  1
  Si  Si64  1  0.709229  0.228858  0.194602  1
  Si  Si65  1  0.658879  0.004258  0.035737  1
  Si  Si66  1  0.686803  0.779958  0.404902  1
  Si  Si67  1  0.094493  0.798028  0.005577  1
  Si  Si68  1  0.727243  0.221698  0.103479  1
  Si  Si69  1  0.341121  0.995742  0.964263  1
  O  O70  1  0.055468  0.321916  0.408612  1
  O  O71  1  0.238418  0.849925  0.440092  1
  O  O72  1  0.402651  0.180432  0.340370  1
  O  O73  1  0.068078  0.360001  0.322252  1
  O  O74  1  0.663585  0.094790  0.216724  1
  O  O75  1  0.290655  0.760629  0.693821  1
  O  O76  1  0.510713  0.626514  0.074706  1
  O  O77  1  0.261156  0.090780  0.619616  1
  O  O78  1  0.401006  0.678028  0.785573  1
  O  O79  1  0.764492  0.816849  0.453427  1
  O  O80  1  0.116546  0.627790  0.388615  1
  O  O81  1  0.127262  0.265037  0.909941  1
  O  O82  1  0.328785  0.660114  0.918088  1
  O  O83  1  0.369570  0.798311  0.854134  1
  O  O84  1  0.709345  0.239371  0.306179  1
  O  O85  1  0.289912  0.241573  0.797020  1
  O  O86  1  0.761582  0.150075  0.559908  1
  O  O87  1  0.881476  0.059002  0.878817  1
  O  O88  1  0.280775  0.379739  0.211755  1
  O  O89  1  0.207204  0.322081  0.611582  1
  O  O90  1  0.228094  0.299827  0.479182  1
  O  O91  1  0.818476  0.455622  0.363944  1
  O  O92  1  0.690239  0.766425  0.294241  1
  O  O93  1  0.940124  0.650160  0.318743  1
  O  O94  1  0.556807  0.657328  0.717487  1
  O  O95  1  0.328261  0.649887  0.278540  1
  O  O96  1  0.995590  0.936203  0.195582  1
  O  O97  1  0.401866  0.101761  0.263929  1
  O  O98  1  0.083232  0.712699  0.799522  1
  O  O99  1  0.749628  0.524781  0.030250  1
  O  O100  1  0.338364  0.506753  0.438966  1
  O  O101  1  0.461567  0.736859  0.489961  1
  O  O102  1  0.339924  0.130746  0.949576  1
  O  O103  1  0.628147  0.092909  0.075061  1
  O  O104  1  0.996498  0.103726  0.664966  1
  O  O105  1  0.630430  0.201689  0.145866  1
  O  O106  1  0.899453  0.374444  0.523206  1
  O  O107  1  0.371853  0.907091  0.924939  1
  O  O108  1  0.792796  0.677919  0.388418  1
  O  O109  1  0.826510  0.169232  0.945705  1
  O  O110  1  0.336415  0.905210  0.783276  1
  O  O111  1  0.812672  0.308798  0.012722  1
  O  O112  1  0.580417  0.543709  0.240951  1
  O  O113  1  0.419583  0.456291  0.759049  1
  O  O114  1  0.671739  0.350113  0.721460  1
  O  O115  1  0.308169  0.768790  0.603288  1
  O  O116  1  0.937377  0.985595  0.589154  1
  O  O117  1  0.173490  0.830768  0.054295  1
  O  O118  1  0.059876  0.349840  0.681257  1
  O  O119  1  0.710088  0.758427  0.202980  1
  O  O120  1  0.659805  0.016987  0.812219  1
  O  O121  1  0.923336  0.114362  0.347545  1
  O  O122  1  0.073532  0.493467  0.154117  1
  O  O123  1  0.511853  0.112486  0.750220  1
  O  O124  1  0.671215  0.339886  0.081912  1
  O  O125  1  0.407732  0.054403  0.406694  1
  O  O126  1  0.348013  0.671907  0.191667  1
  O  O127  1  0.250372  0.475219  0.969750  1
  O  O128  1  0.691831  0.231210  0.396712  1
  O  O129  1  0.004410  0.063797  0.804418  1
  O  O130  1  0.598994  0.321972  0.214427  1
  O  O131  1  0.301964  0.356685  0.123397  1
  O  O132  1  0.810446  0.284923  0.877777  1
  O  O133  1  0.661636  0.493247  0.561034  1
  O  O134  1  0.883454  0.372210  0.611385  1
  O  O135  1  0.944532  0.678084  0.591388  1
  O  O136  1  0.273529  0.066568  0.479516  1
  O  O137  1  0.719225  0.620261  0.788245  1
  O  O138  1  0.771906  0.700173  0.520818  1
  O  O139  1  0.885021  0.751708  0.999649  1
  O  O140  1  0.187328  0.691202  0.987278  1
  O  O141  1  0.872738  0.734963  0.090059  1
  O  O142  1  0.076664  0.885638  0.652455  1
  O  O143  1  0.007372  0.693208  0.187847  1
  O  O144  1  0.660076  0.869254  0.050424  1
  O  O145  1  0.443193  0.342672  0.282513  1
  O  O146  1  0.002848  0.196103  0.740113  1
  O  O147  1  0.926468  0.506533  0.845883  1
  O  O148  1  0.597349  0.819568  0.659630  1
  O  O149  1  0.997152  0.803897  0.259887  1
  O  O150  1  0.340195  0.983013  0.187781  1
  O  O151  1  0.916768  0.287301  0.200478  1
  O  O152  1  0.118524  0.940998  0.121183  1
  O  O153  1  0.521822  0.273845  0.600713  1
  O  O154  1  0.726471  0.933432  0.520484  1
  O  O155  1  0.528059  0.672145  0.987926  1
  O  O156  1  0.489287  0.373486  0.925294  1
  O  O157  1  0.847410  0.851010  0.832216  1
  O  O158  1  0.189554  0.715077  0.122223  1
  O  O159  1  0.598134  0.898239  0.736071  1
  O  O160  1  0.003502  0.896274  0.335034  1
  O  O161  1  0.605460  0.703396  0.587958  1
  O  O162  1  0.152590  0.148990  0.167784  1
  O  O163  1  0.471941  0.327855  0.012074  1
  O  O164  1  0.061144  0.752503  0.889045  1
  O  O165  1  0.235508  0.183151  0.546573  1
  O  O166  1  0.062623  0.014405  0.410846  1
  O  O167  1  0.488147  0.887514  0.249780  1
  O  O168  1  0.698036  0.643315  0.876603  1
  O  O169  1  0.309761  0.233575  0.705759  1
  O  O170  1  0.394540  0.296604  0.412042  1
  O  O171  1  0.592268  0.945597  0.593306  1
  O  O172  1  0.844670  0.072297  0.017906  1
  O  O173  1  0.100547  0.625556  0.476794  1
  O  O174  1  0.155330  0.927703  0.982094  1
  O  O175  1  0.738844  0.909220  0.380384  1
  O  O176  1  0.500000  0.000000  0.000000  1
  O  O177  1  0.651987  0.328093  0.808333  1
  O  O178  1  0.538433  0.263141  0.510039  1
  O  O179  1  0.992628  0.306792  0.812153  1
  O  O180  1  0.931922  0.639999  0.677748  1
  O  O181  1  0.114979  0.248292  0.000351  1
  O  O182  1  0.181524  0.544378  0.636056  1
  O  O183  1  0.478178  0.726155  0.399287  1
  O  O184  1  0.938856  0.247497  0.110955  1
