# generated using pymatgen
data_Mn2InC10ClO10
_symmetry_space_group_name_H-M   'P 1'
_cell_length_a   8.83493038
_cell_length_b   9.96468672
_cell_length_c   10.48312197
_cell_angle_alpha   116.73603478
_cell_angle_beta   91.70655519
_cell_angle_gamma   93.31623977
_symmetry_Int_Tables_number   1
_chemical_formula_structural   Mn2InC10ClO10
_chemical_formula_sum   'Mn4 In2 C20 Cl2 O20'
_cell_volume   821.24318021
_cell_formula_units_Z   2
loop_
 _symmetry_equiv_pos_site_id
 _symmetry_equiv_pos_as_xyz
  1  'x, y, z'
loop_
 _atom_site_type_symbol
 _atom_site_label
 _atom_site_symmetry_multiplicity
 _atom_site_fract_x
 _atom_site_fract_y
 _atom_site_fract_z
 _atom_site_occupancy
  Mn  Mn0  1  0.760050  0.758673  0.594689  1
  Mn  Mn1  1  0.244955  0.722665  0.075327  1
  Mn  Mn2  1  0.239950  0.241327  0.405311  1
  Mn  Mn3  1  0.755045  0.277335  0.924673  1
  In  In4  1  0.152940  0.004462  0.148331  1
  In  In5  1  0.847060  0.995538  0.851669  1
  C  C6  1  0.565521  0.821768  0.637989  1
  C  C7  1  0.306580  0.396421  0.576862  1
  C  C8  1  0.964476  0.720646  0.574778  1
  C  C9  1  0.693420  0.603579  0.423138  1
  C  C10  1  0.606542  0.213261  0.010516  1
  C  C11  1  0.114577  0.672786  0.916920  1
  C  C12  1  0.434479  0.178232  0.362011  1
  C  C13  1  0.378158  0.786583  0.236045  1
  C  C14  1  0.732302  0.640829  0.689558  1
  C  C15  1  0.393458  0.786739  0.989484  1
  C  C16  1  0.267698  0.359171  0.310442  1
  C  C17  1  0.621842  0.213417  0.763955  1
  C  C18  1  0.913396  0.279981  0.813326  1
  C  C19  1  0.035524  0.279354  0.425222  1
  C  C20  1  0.885423  0.327214  0.083080  1
  C  C21  1  0.086604  0.720019  0.186674  1
  C  C22  1  0.705016  0.471756  0.995540  1
  C  C23  1  0.294984  0.528244  0.004460  1
  C  C24  1  0.205785  0.101437  0.475672  1
  C  C25  1  0.794215  0.898563  0.524328  1
  Cl  Cl26  1  0.854108  0.955551  0.082491  1
  Cl  Cl27  1  0.145892  0.044449  0.917509  1
  O  O28  1  0.646775  0.503589  0.315884  1
  O  O29  1  0.328751  0.404976  0.952887  1
  O  O30  1  0.290438  0.438968  0.259095  1
  O  O31  1  0.039396  0.636222  0.812540  1
  O  O32  1  0.960604  0.363778  0.187460  1
  O  O33  1  0.353225  0.496411  0.684116  1
  O  O34  1  0.443319  0.858205  0.660073  1
  O  O35  1  0.709562  0.561032  0.740905  1
  O  O36  1  0.089916  0.694015  0.556239  1
  O  O37  1  0.671249  0.595024  0.047113  1
  O  O38  1  0.910084  0.305985  0.443761  1
  O  O39  1  0.556681  0.141795  0.339927  1
  O  O40  1  0.814378  0.985347  0.480320  1
  O  O41  1  0.460561  0.821929  0.335638  1
  O  O42  1  0.489094  0.824720  0.936573  1
  O  O43  1  0.011919  0.283071  0.743489  1
  O  O44  1  0.510906  0.175280  0.063427  1
  O  O45  1  0.185622  0.014653  0.519680  1
  O  O46  1  0.539439  0.178071  0.664362  1
  O  O47  1  0.988081  0.716929  0.256511  1
