# generated using pymatgen
data_FeSiO3
_symmetry_space_group_name_H-M   'P 1'
_cell_length_a   6.78252342
_cell_length_b   7.53881616
_cell_length_c   20.89394729
_cell_angle_alpha   84.02021313
_cell_angle_beta   81.30658602
_cell_angle_gamma   84.17981391
_symmetry_Int_Tables_number   1
_chemical_formula_structural   FeSiO3
_chemical_formula_sum   'Fe18 Si18 O54'
_cell_volume   1046.33847292
_cell_formula_units_Z   18
loop_
 _symmetry_equiv_pos_site_id
 _symmetry_equiv_pos_as_xyz
  1  'x, y, z'
loop_
 _atom_site_type_symbol
 _atom_site_label
 _atom_site_symmetry_multiplicity
 _atom_site_fract_x
 _atom_site_fract_y
 _atom_site_fract_z
 _atom_site_occupancy
  Fe  Fe0  1  0.146055  0.320727  0.649225  1
  Fe  Fe1  1  0.793640  0.695762  0.512900  1
  Fe  Fe2  1  0.206360  0.304238  0.487100  1
  Fe  Fe3  1  0.380870  0.205072  0.339111  1
  Fe  Fe4  1  0.209607  0.604524  0.882811  1
  Fe  Fe5  1  0.619130  0.794928  0.660889  1
  Fe  Fe6  1  0.882472  0.353132  0.968059  1
  Fe  Fe7  1  0.028303  0.352295  0.803773  1
  Fe  Fe8  1  0.949798  0.036296  0.580606  1
  Fe  Fe9  1  0.293351  0.904100  0.111433  1
  Fe  Fe10  1  0.803343  0.057818  0.739849  1
  Fe  Fe11  1  0.853945  0.679273  0.350775  1
  Fe  Fe12  1  0.706649  0.095900  0.888567  1
  Fe  Fe13  1  0.971697  0.647705  0.196227  1
  Fe  Fe14  1  0.196657  0.942182  0.260151  1
  Fe  Fe15  1  0.117528  0.646868  0.031941  1
  Fe  Fe16  1  0.050202  0.963704  0.419394  1
  Fe  Fe17  1  0.790393  0.395476  0.117189  1
  Si  Si18  1  0.540775  0.437527  0.793858  1
  Si  Si19  1  0.819818  0.992853  0.088940  1
  Si  Si20  1  0.336245  0.594334  0.353942  1
  Si  Si21  1  0.263133  0.295812  0.134516  1
  Si  Si22  1  0.231661  0.685322  0.551740  1
  Si  Si23  1  0.104492  0.718079  0.693456  1
  Si  Si24  1  0.895508  0.281921  0.306544  1
  Si  Si25  1  0.768339  0.314678  0.448260  1
  Si  Si26  1  0.736867  0.704188  0.865484  1
  Si  Si27  1  0.374148  0.268870  0.984510  1
  Si  Si28  1  0.180182  0.007147  0.911060  1
  Si  Si29  1  0.491870  0.155784  0.567992  1
  Si  Si30  1  0.663755  0.405666  0.646058  1
  Si  Si31  1  0.705282  0.018456  0.238236  1
  Si  Si32  1  0.508130  0.844216  0.432008  1
  Si  Si33  1  0.459225  0.562473  0.206142  1
  Si  Si34  1  0.294718  0.981544  0.761764  1
  Si  Si35  1  0.625852  0.731130  0.015490  1
  O  O36  1  0.953972  0.484189  0.284441  1
  O  O37  1  0.254693  0.124712  0.571744  1
  O  O38  1  0.949433  0.179260  0.476084  1
  O  O39  1  0.745307  0.875288  0.428256  1
  O  O40  1  0.680600  0.919657  0.040574  1
  O  O41  1  0.564063  0.493135  0.714294  1
  O  O42  1  0.215453  0.786366  0.750542  1
  O  O43  1  0.314333  0.979724  0.839327  1
  O  O44  1  0.398586  0.708724  0.051474  1
  O  O45  1  0.083357  0.453852  0.125256  1
  O  O46  1  0.351198  0.015786  0.421309  1
  O  O47  1  0.283104  0.410161  0.397388  1
  O  O48  1  0.082180  0.139354  0.325449  1
  O  O49  1  0.850183  0.249169  0.647707  1
  O  O50  1  0.518567  0.693915  0.376950  1
  O  O51  1  0.050567  0.820740  0.523916  1
  O  O52  1  0.169608  0.482338  0.556422  1
  O  O53  1  0.199861  0.429288  0.970779  1
  O  O54  1  0.046028  0.515811  0.715559  1
  O  O55  1  0.573220  0.619374  0.828416  1
  O  O56  1  0.995013  0.158836  0.899417  1
  O  O57  1  0.685667  0.020276  0.160673  1
  O  O58  1  0.284726  0.726136  0.197549  1
  O  O59  1  0.272929  0.723136  0.625597  1
  O  O60  1  0.727071  0.276864  0.374403  1
  O  O61  1  0.687427  0.597291  0.176253  1
  O  O62  1  0.715274  0.273864  0.802451  1
  O  O63  1  0.916643  0.546148  0.874744  1
  O  O64  1  0.619503  0.762409  0.936551  1
  O  O65  1  0.380497  0.237591  0.063449  1
  O  O66  1  0.441415  0.726564  0.502815  1
  O  O67  1  0.520111  0.985939  0.722100  1
  O  O68  1  0.716896  0.589839  0.602612  1
  O  O69  1  0.601414  0.291276  0.948526  1
  O  O70  1  0.558585  0.273436  0.497185  1
  O  O71  1  0.917820  0.860646  0.674551  1
  O  O72  1  0.479889  0.014061  0.277900  1
  O  O73  1  0.426780  0.380626  0.171584  1
  O  O74  1  0.872410  0.860020  0.260747  1
  O  O75  1  0.481433  0.306085  0.623050  1
  O  O76  1  0.874581  0.193149  0.059152  1
  O  O77  1  0.798058  0.895862  0.828318  1
  O  O78  1  0.319400  0.080343  0.959426  1
  O  O79  1  0.149817  0.750831  0.352293  1
  O  O80  1  0.435937  0.506865  0.285706  1
  O  O81  1  0.125419  0.806851  0.940848  1
  O  O82  1  0.648802  0.984214  0.578691  1
  O  O83  1  0.830392  0.517662  0.443578  1
  O  O84  1  0.201942  0.104138  0.171682  1
  O  O85  1  0.784547  0.213634  0.249458  1
  O  O86  1  0.800139  0.570712  0.029221  1
  O  O87  1  0.312573  0.402709  0.823747  1
  O  O88  1  0.127590  0.139980  0.739253  1
  O  O89  1  0.004987  0.841164  0.100583  1
