# generated using pymatgen
data_CsUV3O11
_symmetry_space_group_name_H-M   'P 1'
_cell_length_a   6.90933358
_cell_length_b   12.06167851
_cell_length_c   12.64290793
_cell_angle_alpha   106.64439119
_cell_angle_beta   90.00000000
_cell_angle_gamma   90.00000000
_symmetry_Int_Tables_number   1
_chemical_formula_structural   CsUV3O11
_chemical_formula_sum   'Cs4 U4 V12 O44'
_cell_volume   1009.49030461
_cell_formula_units_Z   4
loop_
 _symmetry_equiv_pos_site_id
 _symmetry_equiv_pos_as_xyz
  1  'x, y, z'
loop_
 _atom_site_type_symbol
 _atom_site_label
 _atom_site_symmetry_multiplicity
 _atom_site_fract_x
 _atom_site_fract_y
 _atom_site_fract_z
 _atom_site_occupancy
  Cs  Cs0  1  0.734061  0.882431  0.551758  1
  Cs  Cs1  1  0.765939  0.382431  0.551758  1
  Cs  Cs2  1  0.265939  0.117569  0.448242  1
  Cs  Cs3  1  0.234061  0.617569  0.448242  1
  U  U4  1  0.497736  0.195645  0.815252  1
  U  U5  1  0.502264  0.804355  0.184748  1
  U  U6  1  0.002264  0.695645  0.815252  1
  U  U7  1  0.997736  0.304355  0.184748  1
  V  V8  1  0.250559  0.931661  0.769270  1
  V  V9  1  0.749441  0.068339  0.230730  1
  V  V10  1  0.249441  0.431661  0.769270  1
  V  V11  1  0.495034  0.317216  0.228678  1
  V  V12  1  0.750724  0.958714  0.859250  1
  V  V13  1  0.995034  0.182784  0.771322  1
  V  V14  1  0.250724  0.541286  0.140750  1
  V  V15  1  0.004966  0.817216  0.228678  1
  V  V16  1  0.749276  0.458714  0.859250  1
  V  V17  1  0.504966  0.682784  0.771322  1
  V  V18  1  0.249276  0.041286  0.140750  1
  V  V19  1  0.750559  0.568339  0.230730  1
  O  O20  1  0.005459  0.739850  0.963666  1
  O  O21  1  0.494541  0.239850  0.963666  1
  O  O22  1  0.808105  0.705559  0.194350  1
  O  O23  1  0.007424  0.350001  0.335699  1
  O  O24  1  0.018768  0.856296  0.364215  1
  O  O25  1  0.252023  0.500791  0.007356  1
  O  O26  1  0.746675  0.110496  0.366404  1
  O  O27  1  0.191711  0.090318  0.803778  1
  O  O28  1  0.807431  0.299229  0.815884  1
  O  O29  1  0.497566  0.599842  0.192530  1
  O  O30  1  0.307431  0.200771  0.184116  1
  O  O31  1  0.492576  0.850001  0.335699  1
  O  O32  1  0.002516  0.513167  0.191221  1
  O  O33  1  0.502516  0.986833  0.808779  1
  O  O34  1  0.692696  0.591389  0.813394  1
  O  O35  1  0.692569  0.799229  0.815884  1
  O  O36  1  0.002434  0.099842  0.192530  1
  O  O37  1  0.307304  0.408611  0.186606  1
  O  O38  1  0.191895  0.294441  0.805650  1
  O  O39  1  0.497484  0.013167  0.191221  1
  O  O40  1  0.246675  0.389504  0.633596  1
  O  O41  1  0.502434  0.400158  0.807470  1
  O  O42  1  0.192696  0.908611  0.186606  1
  O  O43  1  0.997484  0.486833  0.808779  1
  O  O44  1  0.507424  0.149999  0.664301  1
  O  O45  1  0.752023  0.999209  0.992644  1
  O  O46  1  0.753325  0.610496  0.366404  1
  O  O47  1  0.192569  0.700771  0.184116  1
  O  O48  1  0.505459  0.760150  0.036334  1
  O  O49  1  0.994541  0.260150  0.036334  1
  O  O50  1  0.253325  0.889504  0.633596  1
  O  O51  1  0.247977  0.000791  0.007356  1
  O  O52  1  0.808289  0.909682  0.196222  1
  O  O53  1  0.981232  0.143704  0.635785  1
  O  O54  1  0.807304  0.091389  0.813394  1
  O  O55  1  0.308289  0.590318  0.803778  1
  O  O56  1  0.691711  0.409682  0.196222  1
  O  O57  1  0.992576  0.649999  0.664301  1
  O  O58  1  0.691895  0.205559  0.194350  1
  O  O59  1  0.747977  0.499209  0.992644  1
  O  O60  1  0.308105  0.794441  0.805650  1
  O  O61  1  0.518768  0.643704  0.635785  1
  O  O62  1  0.997566  0.900158  0.807470  1
  O  O63  1  0.481232  0.356296  0.364215  1
