# generated using pymatgen
data_LiB13C2
_symmetry_space_group_name_H-M   'P 1'
_cell_length_a   5.67727518
_cell_length_b   7.32315016
_cell_length_c   7.29086105
_cell_angle_alpha   66.78051758
_cell_angle_beta   67.34124013
_cell_angle_gamma   67.38637655
_symmetry_Int_Tables_number   1
_chemical_formula_structural   LiB13C2
_chemical_formula_sum   'Li2 B26 C4'
_cell_volume   247.20727038
_cell_formula_units_Z   2
loop_
 _symmetry_equiv_pos_site_id
 _symmetry_equiv_pos_as_xyz
  1  'x, y, z'
loop_
 _atom_site_type_symbol
 _atom_site_label
 _atom_site_symmetry_multiplicity
 _atom_site_fract_x
 _atom_site_fract_y
 _atom_site_fract_z
 _atom_site_occupancy
  Li  Li0  1  0.755692  0.938796  0.560169  1
  Li  Li1  1  0.252573  0.068969  0.430292  1
  B  B2  1  0.666591  0.320513  0.346638  1
  B  B3  1  0.823470  0.480250  0.378767  1
  B  B4  1  0.182457  0.121841  0.022308  1
  B  B5  1  0.176393  0.518514  0.624632  1
  B  B6  1  0.909804  0.090121  0.772531  1
  B  B7  1  0.271949  0.727131  0.411503  1
  B  B8  1  0.681276  0.519395  0.626326  1
  B  B9  1  0.677259  0.122774  0.022175  1
  B  B10  1  0.409067  0.270810  0.591126  1
  B  B11  1  0.333723  0.677237  0.656885  1
  B  B12  1  0.427187  0.394742  0.752909  1
  B  B13  1  0.591514  0.727616  0.412075  1
  B  B14  1  0.819255  0.877326  0.980935  1
  B  B15  1  0.834939  0.153272  0.181209  1
  B  B16  1  0.318701  0.478998  0.376887  1
  B  B17  1  0.751734  0.614051  0.888639  1
  B  B18  1  0.772117  0.908513  0.230585  1
  B  B19  1  0.167143  0.845062  0.821727  1
  B  B20  1  0.928159  0.249956  0.898179  1
  B  B21  1  0.729135  0.271538  0.592231  1
  B  B22  1  0.230133  0.089671  0.772362  1
  B  B23  1  0.073529  0.749325  0.104799  1
  B  B24  1  0.325056  0.876320  0.981163  1
  B  B25  1  0.573656  0.602843  0.250353  1
  B  B26  1  0.247927  0.387572  0.112652  1
  B  B27  1  0.092480  0.908357  0.230823  1
  C  C28  1  0.116900  0.511136  0.250841  1
  C  C29  1  0.383185  0.246037  0.992298  1
  C  C30  1  0.618965  0.752192  0.011613  1
  C  C31  1  0.882723  0.488040  0.751689  1
