# generated using pymatgen
data_Ba5Er8Zn4O21
_symmetry_space_group_name_H-M   'P 1'
_cell_length_a   5.72258848
_cell_length_b   10.17599884
_cell_length_c   10.17599885
_cell_angle_alpha   85.46531554
_cell_angle_beta   73.66931612
_cell_angle_gamma   73.66931615
_symmetry_Int_Tables_number   1
_chemical_formula_structural   Ba5Er8Zn4O21
_chemical_formula_sum   'Ba5 Er8 Zn4 O21'
_cell_volume   545.72862903
_cell_formula_units_Z   1
loop_
 _symmetry_equiv_pos_site_id
 _symmetry_equiv_pos_as_xyz
  1  'x, y, z'
loop_
 _atom_site_type_symbol
 _atom_site_label
 _atom_site_symmetry_multiplicity
 _atom_site_fract_x
 _atom_site_fract_y
 _atom_site_fract_z
 _atom_site_occupancy
  O  O0  1  0.100400  0.892150  0.405345  1
  O  O1  1  0.505744  0.594655  0.892150  1
  O  O2  1  0.992550  0.405345  0.107850  1
  O  O3  1  0.397894  0.107850  0.594655  1
  O  O4  1  0.899600  0.107850  0.594655  1
  O  O5  1  0.494256  0.405345  0.107850  1
  O  O6  1  0.007450  0.594655  0.892150  1
  O  O7  1  0.602106  0.892150  0.405345  1
  O  O8  1  0.926520  0.870860  0.774261  1
  O  O9  1  0.700781  0.225739  0.870860  1
  O  O10  1  0.797380  0.774261  0.129140  1
  O  O11  1  0.571641  0.129140  0.225739  1
  O  O12  1  0.073480  0.129140  0.225739  1
  O  O13  1  0.299219  0.774261  0.129140  1
  O  O14  1  0.202620  0.225739  0.870860  1
  O  O15  1  0.428359  0.870860  0.774261  1
  O  O16  1  0.371017  0.667789  0.590177  1
  O  O17  1  0.500000  0.000000  0.000000  1
  O  O18  1  0.628983  0.332211  0.409823  1
  O  O19  1  0.038806  0.590177  0.332211  1
  O  O20  1  0.961194  0.409823  0.667789  1
  Zn  Zn21  1  0.959411  0.790662  0.290516  1
  Zn  Zn22  1  0.249927  0.709484  0.790662  1
  Zn  Zn23  1  0.750073  0.290516  0.209338  1
  Zn  Zn24  1  0.040589  0.209338  0.709484  1
  Ba  Ba25  1  0.464507  0.395565  0.675420  1
  Ba  Ba26  1  0.139927  0.324580  0.395565  1
  Ba  Ba27  1  0.860073  0.675420  0.604435  1
  Ba  Ba28  1  0.535493  0.604435  0.324580  1
  Ba  Ba29  1  0.000000  0.000000  0.000000  1
  Er  Er30  1  0.588762  0.052873  0.769603  1
  Er  Er31  1  0.358365  0.230397  0.052873  1
  Er  Er32  1  0.641635  0.769603  0.947127  1
  Er  Er33  1  0.411238  0.947127  0.230397  1
  Er  Er34  1  0.752481  0.079342  0.415696  1
  Er  Er35  1  0.168177  0.584304  0.079342  1
  Er  Er36  1  0.831823  0.415696  0.920658  1
  Er  Er37  1  0.247519  0.920658  0.584304  1
