# generated using pymatgen
data_SrH2Br2O
_symmetry_space_group_name_H-M   'P 1'
_cell_length_a   11.59126360
_cell_length_b   4.33614570
_cell_length_c   9.35180386
_cell_angle_alpha   90.00000000
_cell_angle_beta   90.00000000
_cell_angle_gamma   90.00000000
_symmetry_Int_Tables_number   1
_chemical_formula_structural   SrH2Br2O
_chemical_formula_sum   'Sr4 H8 Br8 O4'
_cell_volume   470.03482763
_cell_formula_units_Z   4
loop_
 _symmetry_equiv_pos_site_id
 _symmetry_equiv_pos_as_xyz
  1  'x, y, z'
loop_
 _atom_site_type_symbol
 _atom_site_label
 _atom_site_symmetry_multiplicity
 _atom_site_fract_x
 _atom_site_fract_y
 _atom_site_fract_z
 _atom_site_occupancy
  Sr  Sr0  1  0.688744  0.250000  0.386996  1
  Sr  Sr1  1  0.188744  0.250000  0.113004  1
  Sr  Sr2  1  0.311256  0.750000  0.613004  1
  Sr  Sr3  1  0.811256  0.750000  0.886996  1
  H  H4  1  0.878654  0.750000  0.306061  1
  H  H5  1  0.378654  0.750000  0.193939  1
  H  H6  1  0.121346  0.250000  0.693939  1
  H  H7  1  0.621346  0.250000  0.806061  1
  H  H8  1  0.877879  0.750000  0.472598  1
  H  H9  1  0.377879  0.750000  0.027402  1
  H  H10  1  0.122121  0.250000  0.527402  1
  H  H11  1  0.622121  0.250000  0.972598  1
  Br  Br12  1  0.600552  0.750000  0.613185  1
  Br  Br13  1  0.100552  0.750000  0.886815  1
  Br  Br14  1  0.399448  0.250000  0.386815  1
  Br  Br15  1  0.899448  0.250000  0.113185  1
  Br  Br16  1  0.615904  0.750000  0.153831  1
  Br  Br17  1  0.115904  0.750000  0.346169  1
  Br  Br18  1  0.384096  0.250000  0.846169  1
  Br  Br19  1  0.884096  0.250000  0.653831  1
  O  O20  1  0.826468  0.750000  0.389126  1
  O  O21  1  0.326468  0.750000  0.110874  1
  O  O22  1  0.173532  0.250000  0.610874  1
  O  O23  1  0.673532  0.250000  0.889126  1
