# generated using pymatgen
data_CaMg3(CO3)4
_symmetry_space_group_name_H-M   'P 1'
_cell_length_a   6.14443520
_cell_length_b   6.14443519
_cell_length_c   6.14443520
_cell_angle_alpha   102.95625215
_cell_angle_beta   102.95625206
_cell_angle_gamma   102.95625203
_symmetry_Int_Tables_number   1
_chemical_formula_structural   CaMg3(CO3)4
_chemical_formula_sum   'Ca1 Mg3 C4 O12'
_cell_volume   210.91495491
_cell_formula_units_Z   1
loop_
 _symmetry_equiv_pos_site_id
 _symmetry_equiv_pos_as_xyz
  1  'x, y, z'
loop_
 _atom_site_type_symbol
 _atom_site_label
 _atom_site_symmetry_multiplicity
 _atom_site_fract_x
 _atom_site_fract_y
 _atom_site_fract_z
 _atom_site_occupancy
  C  C0  1  0.043349  0.500000  0.956651  1
  C  C1  1  0.500000  0.956651  0.043349  1
  C  C2  1  0.956651  0.043349  0.500000  1
  C  C3  1  0.500000  0.500000  0.500000  1
  O  O4  1  0.191519  0.380646  0.974973  1
  O  O5  1  0.808481  0.025027  0.619354  1
  O  O6  1  0.619354  0.808481  0.025027  1
  O  O7  1  0.025027  0.619354  0.808481  1
  O  O8  1  0.365033  0.634967  0.500000  1
  O  O9  1  0.500000  0.365033  0.634967  1
  O  O10  1  0.634967  0.500000  0.365033  1
  O  O11  1  0.092098  0.907902  0.500000  1
  O  O12  1  0.500000  0.092098  0.907902  1
  O  O13  1  0.907902  0.500000  0.092098  1
  O  O14  1  0.974973  0.191519  0.380646  1
  O  O15  1  0.380646  0.974973  0.191519  1
  Mg  Mg16  1  0.457459  0.000000  0.542541  1
  Mg  Mg17  1  0.000000  0.542541  0.457459  1
  Mg  Mg18  1  0.542541  0.457459  0.000000  1
  Ca  Ca19  1  0.000000  0.000000  0.000000  1
