# generated using pymatgen
data_Nb5P7O30
_symmetry_space_group_name_H-M   'P 1'
_cell_length_a   8.87519686
_cell_length_b   8.93350430
_cell_length_c   15.89140003
_cell_angle_alpha   91.58790383
_cell_angle_beta   106.11292385
_cell_angle_gamma   90.03299310
_symmetry_Int_Tables_number   1
_chemical_formula_structural   Nb5P7O30
_chemical_formula_sum   'Nb10 P14 O60'
_cell_volume   1209.96942100
_cell_formula_units_Z   2
loop_
 _symmetry_equiv_pos_site_id
 _symmetry_equiv_pos_as_xyz
  1  'x, y, z'
loop_
 _atom_site_type_symbol
 _atom_site_label
 _atom_site_symmetry_multiplicity
 _atom_site_fract_x
 _atom_site_fract_y
 _atom_site_fract_z
 _atom_site_occupancy
  Nb  Nb0  1  0.206399  0.962639  0.904439  1
  Nb  Nb1  1  0.794476  0.038957  0.095448  1
  Nb  Nb2  1  0.299190  0.538728  0.094868  1
  Nb  Nb3  1  0.918637  0.554229  0.326354  1
  Nb  Nb4  1  0.592592  0.946434  0.672588  1
  Nb  Nb5  1  0.404565  0.053288  0.326788  1
  Nb  Nb6  1  0.699661  0.462668  0.904550  1
  Nb  Nb7  1  0.499451  0.500247  0.499653  1
  Nb  Nb8  1  -0.000275  0.001364  0.499898  1
  Nb  Nb9  1  0.079462  0.446695  0.673516  1
  P  P10  1  0.251938  0.409413  0.289019  1
  P  P11  1  0.320240  0.231512  0.594976  1
  P  P12  1  0.552167  0.104152  0.881460  1
  P  P13  1  0.678264  0.769983  0.404592  1
  P  P14  1  0.447422  0.896621  0.118026  1
  P  P15  1  0.028214  0.251118  -0.000479  1
  P  P16  1  0.972172  0.750181  0.000393  1
  P  P17  1  0.035591  0.908147  0.289023  1
  P  P18  1  0.725805  0.269094  0.404691  1
  P  P19  1  0.330007  0.605222  0.881377  1
  P  P20  1  0.272662  0.730246  0.595233  1
  P  P21  1  0.746035  0.590742  0.710305  1
  P  P22  1  0.962803  0.090556  0.711072  1
  P  P23  1  0.666372  0.396756  0.117145  1
  O  O24  1  0.203460  0.927479  0.283379  1
  O  O25  1  0.339075  0.932551  0.025889  1
  O  O26  1  0.710740  0.496347  0.784693  1
  O  O27  1  0.423617  0.725691  0.131673  1
  O  O28  1  0.896392  0.333963  0.933922  1
  O  O29  1  0.614138  0.660458  0.460961  1
  O  O30  1  0.729365  0.679177  0.333992  1
  O  O31  1  0.896411  0.863435  0.051338  1
  O  O32  1  0.378878  0.088009  0.886607  1
  O  O33  1  0.609211  0.914779  0.567214  1
  O  O34  1  0.978770  0.024886  0.622511  1
  O  O35  1  0.176189  0.148877  0.533675  1
  O  O36  1  0.289853  0.501949  0.214835  1
  O  O37  1  0.414954  -0.003674  0.187586  1
  O  O38  1  0.103678  0.137974  0.948423  1
  O  O39  1  0.074775  -0.003514  0.784800  1
  O  O40  1  0.269781  0.323682  0.665073  1
  O  O41  1  0.710371  0.754677  0.725654  1
  O  O42  1  0.580674  0.004428  0.810541  1
  O  O43  1  0.356740  0.474982  0.377331  1
  O  O44  1  0.705639  0.226364  0.131145  1
  O  O45  1  0.919465  0.571728  0.715572  1
  O  O46  1  0.960602  0.412913  0.568486  1
  O  O47  1  0.821192  0.855340  0.465521  1
  O  O48  1  0.849426  0.162749  0.460806  1
  O  O49  1  0.385735  0.339227  0.538695  1
  O  O50  1  0.685656  0.433946  0.025819  1
  O  O51  1  0.228245  0.504377  0.812201  1
  O  O52  1  0.077871  0.429644  0.282585  1
  O  O53  1  0.603596  0.175732  0.335724  1
  O  O54  1  0.766720  0.496782  0.187447  1
  O  O55  1  0.577664  0.274369  0.867546  1
  O  O56  1  0.035358  0.589419  0.432562  1
  O  O57  1  0.448561  0.124657  0.640631  1
  O  O58  1  0.984009  0.744857  0.272833  1
  O  O59  1  0.153167  0.841022  0.540190  1
  O  O60  1  0.923963  0.003744  0.215707  1
  O  O61  1  0.961596  0.168791  0.065733  1
  O  O62  1  0.397036  0.818613  0.665188  1
  O  O63  1  0.644785  0.353905  0.466456  1
  O  O64  1  0.488504  0.414302  0.112286  1
  O  O65  1  0.507904  0.586183  0.886349  1
  O  O66  1  0.844058  0.639132  0.949175  1
  O  O67  1  0.039998  0.830761  0.934467  1
  O  O68  1  0.641226  0.524722  0.621930  1
  O  O69  1  0.620607  0.915321  0.112888  1
  O  O70  1  0.021925  0.972640  0.378130  1
  O  O71  1  0.285591  0.244069  0.274384  1
  O  O72  1  0.188754  0.626661  0.642230  1
  O  O73  1  0.547039  0.873257  0.357915  1
  O  O74  1  0.351240  0.644797  0.532361  1
  O  O75  1  0.012490  0.254944  0.726033  1
  O  O76  1  0.291730  0.775258  0.865852  1
  O  O77  1  0.806283  0.374606  0.356923  1
  O  O78  1  0.392664  0.088052  0.432804  1
  O  O79  1  0.156910  0.360951  0.051180  1
  O  O80  1  0.662735  0.066267  0.973021  1
  O  O81  1  0.102288  0.666734  0.067281  1
  O  O82  1  0.309661  0.570845  0.973028  1
  O  O83  1  0.795966  0.070371  0.718400  1
