# generated using pymatgen
data_BBr
_symmetry_space_group_name_H-M   'P 1'
_cell_length_a   9.94469165
_cell_length_b   10.09141759
_cell_length_c   10.01771336
_cell_angle_alpha   87.29719464
_cell_angle_beta   85.73712037
_cell_angle_gamma   86.54771381
_symmetry_Int_Tables_number   1
_chemical_formula_structural   BBr
_chemical_formula_sum   'B18 Br18'
_cell_volume   999.81713645
_cell_formula_units_Z   18
loop_
 _symmetry_equiv_pos_site_id
 _symmetry_equiv_pos_as_xyz
  1  'x, y, z'
loop_
 _atom_site_type_symbol
 _atom_site_label
 _atom_site_symmetry_multiplicity
 _atom_site_fract_x
 _atom_site_fract_y
 _atom_site_fract_z
 _atom_site_occupancy
  B  B0  1  0.128756  0.258372  0.265390  1
  B  B1  1  0.200240  0.408463  0.210589  1
  B  B2  1  0.209511  0.201208  0.409385  1
  B  B3  1  0.259832  0.263746  0.128556  1
  B  B4  1  0.266397  0.130527  0.256947  1
  B  B5  1  0.239327  0.369638  0.376580  1
  B  B6  1  0.377194  0.240762  0.367298  1
  B  B7  1  0.371181  0.375509  0.239319  1
  B  B8  1  0.413113  0.210350  0.196774  1
  B  B9  1  0.592717  0.789513  0.797751  1
  B  B10  1  0.632043  0.623592  0.760152  1
  B  B11  1  0.631546  0.757803  0.628823  1
  B  B12  1  0.762069  0.623160  0.623072  1
  B  B13  1  0.742163  0.734337  0.870067  1
  B  B14  1  0.740350  0.865866  0.737467  1
  B  B15  1  0.802598  0.788985  0.588963  1
  B  B16  1  0.803123  0.588346  0.789457  1
  B  B17  1  0.877189  0.738642  0.738806  1
  Br  Br18  1  0.117719  0.566422  0.136940  1
  Br  Br19  1  0.064309  0.764224  0.762936  1
  Br  Br20  1  0.134738  0.118605  0.569102  1
  Br  Br21  1  0.205406  0.496556  0.513740  1
  Br  Br22  1  0.235386  0.244362  0.941634  1
  Br  Br23  1  0.250324  0.944170  0.231650  1
  Br  Br24  1  0.430293  0.866018  0.880977  1
  Br  Br25  1  0.498148  0.510966  0.204967  1
  Br  Br26  1  0.513508  0.205208  0.492227  1
  Br  Br27  1  0.499459  0.797320  0.499291  1
  Br  Br28  1  0.502203  0.489868  0.795325  1
  Br  Br29  1  0.574299  0.136106  0.111609  1
  Br  Br30  1  0.758450  0.053842  0.755622  1
  Br  Br31  1  0.763207  0.755682  0.058106  1
  Br  Br32  1  0.792747  0.492513  0.489155  1
  Br  Br33  1  0.940684  0.231426  0.247450  1
  Br  Br34  1  0.884987  0.430259  0.863988  1
  Br  Br35  1  0.883984  0.865434  0.429184  1
