# generated using pymatgen
data_Sr2CoTeO6
_symmetry_space_group_name_H-M   'P 1'
_cell_length_a   5.68777800
_cell_length_b   5.72201190
_cell_length_c   8.01482084
_cell_angle_alpha   89.84835677
_cell_angle_beta   90.00000000
_cell_angle_gamma   90.00000000
_symmetry_Int_Tables_number   1
_chemical_formula_structural   Sr2CoTeO6
_chemical_formula_sum   'Sr4 Co2 Te2 O12'
_cell_volume   260.84570605
_cell_formula_units_Z   2
loop_
 _symmetry_equiv_pos_site_id
 _symmetry_equiv_pos_as_xyz
  1  'x, y, z'
loop_
 _atom_site_type_symbol
 _atom_site_label
 _atom_site_symmetry_multiplicity
 _atom_site_fract_x
 _atom_site_fract_y
 _atom_site_fract_z
 _atom_site_occupancy
  Sr  Sr0  1  0.485760  0.495526  0.749989  1
  Sr  Sr1  1  0.014240  0.995526  0.249989  1
  Sr  Sr2  1  0.514240  0.504474  0.250011  1
  Sr  Sr3  1  0.985760  0.004474  0.750011  1
  Co  Co4  1  0.000000  0.500000  0.000000  1
  Co  Co5  1  0.500000  0.000000  0.500000  1
  Te  Te6  1  0.500000  0.000000  0.000000  1
  Te  Te7  1  0.000000  0.500000  0.500000  1
  O  O8  1  0.222186  0.242702  0.532683  1
  O  O9  1  0.740735  0.280015  0.534374  1
  O  O10  1  0.759265  0.780015  0.034374  1
  O  O11  1  0.991656  0.436979  0.260179  1
  O  O12  1  0.240735  0.219985  0.965626  1
  O  O13  1  0.722186  0.257298  0.967317  1
  O  O14  1  0.777814  0.757298  0.467317  1
  O  O15  1  0.277814  0.742702  0.032683  1
  O  O16  1  0.508344  0.936979  0.760179  1
  O  O17  1  0.008344  0.563021  0.739821  1
  O  O18  1  0.259265  0.719985  0.465626  1
  O  O19  1  0.491656  0.063021  0.239821  1
