# generated using pymatgen
data_LiMn4(PO4)3
_symmetry_space_group_name_H-M   'P 1'
_cell_length_a   7.48459344
_cell_length_b   7.80435109
_cell_length_c   9.95770653
_cell_angle_alpha   112.39539419
_cell_angle_beta   109.80755499
_cell_angle_gamma   94.48871643
_symmetry_Int_Tables_number   1
_chemical_formula_structural   LiMn4(PO4)3
_chemical_formula_sum   'Li2 Mn8 P6 O24'
_cell_volume   491.37887672
_cell_formula_units_Z   2
loop_
 _symmetry_equiv_pos_site_id
 _symmetry_equiv_pos_as_xyz
  1  'x, y, z'
loop_
 _atom_site_type_symbol
 _atom_site_label
 _atom_site_symmetry_multiplicity
 _atom_site_fract_x
 _atom_site_fract_y
 _atom_site_fract_z
 _atom_site_occupancy
  Li  Li0  1  0.305940  0.156831  0.340115  1
  Li  Li1  1  0.694060  0.843169  0.659885  1
  Mn  Mn2  1  0.249975  0.908970  0.913409  1
  Mn  Mn3  1  0.313969  0.597495  0.281617  1
  Mn  Mn4  1  0.686031  0.402505  0.718383  1
  Mn  Mn5  1  0.996207  0.215943  0.549969  1
  Mn  Mn6  1  0.277124  0.514001  0.918451  1
  Mn  Mn7  1  0.750025  0.091030  0.086591  1
  Mn  Mn8  1  0.722876  0.485999  0.081549  1
  Mn  Mn9  1  0.003793  0.784057  0.450031  1
  P  P10  1  0.996854  0.774536  0.087065  1
  P  P11  1  0.688341  0.446930  0.397882  1
  P  P12  1  0.578718  0.877178  0.253080  1
  P  P13  1  0.003146  0.225464  0.912935  1
  P  P14  1  0.421282  0.122822  0.746920  1
  P  P15  1  0.311659  0.553070  0.602118  1
  O  O16  1  0.231856  0.645546  0.486357  1
  O  O17  1  0.534915  0.653476  0.153815  1
  O  O18  1  0.146881  0.739439  0.009509  1
  O  O19  1  0.463632  0.031801  0.866079  1
  O  O20  1  0.770976  0.667539  0.488596  1
  O  O21  1  0.992890  0.009463  0.839835  1
  O  O22  1  0.199526  0.050913  0.632463  1
  O  O23  1  0.236612  0.625157  0.739484  1
  O  O24  1  0.229024  0.332461  0.511404  1
  O  O25  1  0.437604  0.908221  0.336270  1
  O  O26  1  0.040006  0.696103  0.217614  1
  O  O27  1  0.007110  0.990537  0.160165  1
  O  O28  1  0.463406  0.393508  0.332625  1
  O  O29  1  0.208367  0.348258  0.038791  1
  O  O30  1  0.800474  0.949087  0.367537  1
  O  O31  1  0.791633  0.651742  0.961209  1
  O  O32  1  0.536594  0.606492  0.667375  1
  O  O33  1  0.853119  0.260561  0.990491  1
  O  O34  1  0.763388  0.374843  0.260516  1
  O  O35  1  0.959994  0.303897  0.782386  1
  O  O36  1  0.562396  0.091779  0.663730  1
  O  O37  1  0.536368  0.968199  0.133921  1
  O  O38  1  0.465085  0.346524  0.846185  1
  O  O39  1  0.768144  0.354454  0.513643  1
