# generated using pymatgen
data_K2PdC4(SN)4
_symmetry_space_group_name_H-M   'P 1'
_cell_length_a   4.36429453
_cell_length_b   11.20516397
_cell_length_c   13.22270462
_cell_angle_alpha   90.00000000
_cell_angle_beta   90.00000000
_cell_angle_gamma   98.15965449
_symmetry_Int_Tables_number   1
_chemical_formula_structural   K2PdC4(SN)4
_chemical_formula_sum   'K4 Pd2 C8 S8 N8'
_cell_volume   640.07894720
_cell_formula_units_Z   2
loop_
 _symmetry_equiv_pos_site_id
 _symmetry_equiv_pos_as_xyz
  1  'x, y, z'
loop_
 _atom_site_type_symbol
 _atom_site_label
 _atom_site_symmetry_multiplicity
 _atom_site_fract_x
 _atom_site_fract_y
 _atom_site_fract_z
 _atom_site_occupancy
  K  K0  1  0.690710  0.030042  0.354674  1
  K  K1  1  0.690710  0.530042  0.145326  1
  K  K2  1  0.309290  0.469958  0.854674  1
  K  K3  1  0.309290  0.969958  0.645326  1
  Pd  Pd4  1  0.000000  0.000000  0.000000  1
  Pd  Pd5  1  0.000000  0.500000  0.500000  1
  C  C6  1  0.788061  0.204681  0.845565  1
  C  C7  1  0.970991  0.727453  0.924634  1
  C  C8  1  0.970991  0.227453  0.575366  1
  C  C9  1  0.788061  0.704681  0.654435  1
  C  C10  1  0.211939  0.295319  0.345565  1
  C  C11  1  0.029009  0.272547  0.075366  1
  C  C12  1  0.211939  0.795319  0.154435  1
  C  C13  1  0.029009  0.772547  0.424634  1
  S  S14  1  0.125564  0.433982  0.335207  1
  S  S15  1  0.225565  0.350049  0.591816  1
  S  S16  1  0.225565  0.850049  0.908184  1
  S  S17  1  0.774435  0.649951  0.408184  1
  S  S18  1  0.874436  0.066018  0.835207  1
  S  S19  1  0.774435  0.149951  0.091816  1
  S  S20  1  0.125564  0.933982  0.164793  1
  S  S21  1  0.874436  0.566018  0.664793  1
  N  N22  1  0.800791  0.135966  0.564669  1
  N  N23  1  0.726094  0.803724  0.651767  1
  N  N24  1  0.273906  0.196276  0.348233  1
  N  N25  1  0.800791  0.635966  0.935331  1
  N  N26  1  0.273906  0.696276  0.151767  1
  N  N27  1  0.726094  0.303724  0.848233  1
  N  N28  1  0.199209  0.364034  0.064669  1
  N  N29  1  0.199209  0.864034  0.435331  1
