# generated using pymatgen
data_Ru(CO)4
_symmetry_space_group_name_H-M   'P 1'
_cell_length_a   5.87399989
_cell_length_b   7.11272432
_cell_length_c   8.48835168
_cell_angle_alpha   114.72286963
_cell_angle_beta   110.27184697
_cell_angle_gamma   90.01369443
_symmetry_Int_Tables_number   1
_chemical_formula_structural   Ru(CO)4
_chemical_formula_sum   'Ru2 C8 O8'
_cell_volume   297.76835922
_cell_formula_units_Z   2
loop_
 _symmetry_equiv_pos_site_id
 _symmetry_equiv_pos_as_xyz
  1  'x, y, z'
loop_
 _atom_site_type_symbol
 _atom_site_label
 _atom_site_symmetry_multiplicity
 _atom_site_fract_x
 _atom_site_fract_y
 _atom_site_fract_z
 _atom_site_occupancy
  Ru  Ru0  1  0.002322  0.997051  0.998702  1
  Ru  Ru1  1  0.504431  0.002600  0.003317  1
  C  C2  1  0.378629  0.766137  0.753883  1
  C  C3  1  0.446581  0.195748  0.890615  1
  C  C4  1  0.945326  0.692092  0.886779  1
  C  C5  1  0.556817  0.809630  0.115512  1
  C  C6  1  0.054966  0.302015  0.113132  1
  C  C7  1  0.876789  0.985474  0.749608  1
  C  C8  1  0.629333  0.238156  0.253042  1
  C  C9  1  0.123685  0.008066  0.246611  1
  O  O10  1  0.700640  0.378274  0.401991  1
  O  O11  1  0.586048  0.695020  0.183043  1
  O  O12  1  0.083392  0.484054  0.182351  1
  O  O13  1  0.408556  0.309651  0.822317  1
  O  O14  1  0.194125  0.015621  0.395089  1
  O  O15  1  0.906014  0.510025  0.818791  1
  O  O16  1  0.798821  0.977275  0.600905  1
  O  O17  1  0.300875  0.627514  0.604136  1
