# generated using pymatgen
data_SrAl2(SiO4)2
_symmetry_space_group_name_H-M   'P 1'
_cell_length_a   10.49889550
_cell_length_b   9.46037171
_cell_length_c   9.46037213
_cell_angle_alpha   80.86621914
_cell_angle_beta   78.84266877
_cell_angle_gamma   78.84266667
_symmetry_Int_Tables_number   1
_chemical_formula_structural   SrAl2(SiO4)2
_chemical_formula_sum   'Sr4 Al8 Si8 O32'
_cell_volume   897.24334832
_cell_formula_units_Z   4
loop_
 _symmetry_equiv_pos_site_id
 _symmetry_equiv_pos_as_xyz
  1  'x, y, z'
loop_
 _atom_site_type_symbol
 _atom_site_label
 _atom_site_symmetry_multiplicity
 _atom_site_fract_x
 _atom_site_fract_y
 _atom_site_fract_z
 _atom_site_occupancy
  Sr  Sr0  1  0.278870  0.052435  0.318648  1
  Sr  Sr1  1  0.721130  0.947565  0.681352  1
  Sr  Sr2  1  0.221130  0.681352  0.947565  1
  Sr  Sr3  1  0.778870  0.318648  0.052435  1
  Al  Al4  1  0.110343  0.110286  0.058006  1
  Al  Al5  1  0.926429  0.711283  0.444581  1
  Al  Al6  1  0.389657  0.941994  0.889714  1
  Al  Al7  1  0.426429  0.444581  0.711283  1
  Al  Al8  1  0.610343  0.058006  0.110286  1
  Al  Al9  1  0.073571  0.288717  0.555419  1
  Al  Al10  1  0.889657  0.889714  0.941994  1
  Al  Al11  1  0.573571  0.555419  0.288717  1
  Si  Si12  1  0.376127  0.232454  0.988748  1
  Si  Si13  1  0.623873  0.767546  0.011252  1
  Si  Si14  1  0.079937  0.456410  0.253257  1
  Si  Si15  1  0.920063  0.543590  0.746743  1
  Si  Si16  1  0.123873  0.011252  0.767546  1
  Si  Si17  1  0.876127  0.988748  0.232454  1
  Si  Si18  1  0.420063  0.746743  0.543590  1
  Si  Si19  1  0.579937  0.253257  0.456410  1
  O  O20  1  0.873171  0.689829  0.629429  1
  O  O21  1  0.076177  0.129824  0.883829  1
  O  O22  1  0.465031  0.350793  0.565910  1
  O  O23  1  0.626829  0.370571  0.310171  1
  O  O24  1  0.300574  0.835277  0.468685  1
  O  O25  1  0.390377  0.393010  0.895399  1
  O  O26  1  0.034969  0.434090  0.649207  1
  O  O27  1  0.318186  0.867608  0.068776  1
  O  O28  1  0.576177  0.883829  0.129824  1
  O  O29  1  0.463666  0.187836  0.122266  1
  O  O30  1  0.534969  0.649207  0.434090  1
  O  O31  1  0.724653  0.070126  0.219306  1
  O  O32  1  0.373171  0.629429  0.689829  1
  O  O33  1  0.036334  0.877734  0.812164  1
  O  O34  1  0.109623  0.104601  0.606990  1
  O  O35  1  0.224653  0.219306  0.070126  1
  O  O36  1  0.699426  0.164723  0.531315  1
  O  O37  1  0.965031  0.565910  0.350793  1
  O  O38  1  0.890377  0.895399  0.393010  1
  O  O39  1  0.126829  0.310171  0.370571  1
  O  O40  1  0.536334  0.812164  0.877734  1
  O  O41  1  0.423823  0.116171  0.870176  1
  O  O42  1  0.775347  0.780694  0.929874  1
  O  O43  1  0.275347  0.929874  0.780694  1
  O  O44  1  0.199426  0.531315  0.164723  1
  O  O45  1  0.923823  0.870176  0.116171  1
  O  O46  1  0.609623  0.606990  0.104601  1
  O  O47  1  0.818186  0.068776  0.867608  1
  O  O48  1  0.681814  0.132392  0.931224  1
  O  O49  1  0.800574  0.468685  0.835277  1
  O  O50  1  0.963666  0.122266  0.187836  1
  O  O51  1  0.181814  0.931224  0.132392  1
