# generated using pymatgen
data_Na3Sm7Cl24
_symmetry_space_group_name_H-M   'P 1'
_cell_length_a   7.54720025
_cell_length_b   7.54720047
_cell_length_c   16.79658994
_cell_angle_alpha   90.00000000
_cell_angle_beta   90.00000000
_cell_angle_gamma   119.99999903
_symmetry_Int_Tables_number   1
_chemical_formula_structural   Na3Sm7Cl24
_chemical_formula_sum   'Na3 Sm7 Cl24'
_cell_volume   828.55914497
_cell_formula_units_Z   1
loop_
 _symmetry_equiv_pos_site_id
 _symmetry_equiv_pos_as_xyz
  1  'x, y, z'
loop_
 _atom_site_type_symbol
 _atom_site_label
 _atom_site_symmetry_multiplicity
 _atom_site_fract_x
 _atom_site_fract_y
 _atom_site_fract_z
 _atom_site_occupancy
  Na  Na0  1  0.333333  0.666667  0.812500  1
  Na  Na1  1  0.000000  0.000000  0.701876  1
  Na  Na2  1  0.000000  0.000000  0.923124  1
  Sm  Sm3  1  0.333333  0.666667  0.065545  1
  Sm  Sm4  1  0.333333  0.666667  0.312500  1
  Sm  Sm5  1  0.333333  0.666667  0.559455  1
  Sm  Sm6  1  0.666667  0.333333  0.189251  1
  Sm  Sm7  1  0.666667  0.333333  0.435749  1
  Sm  Sm8  1  0.666667  0.333333  0.686984  1
  Sm  Sm9  1  0.666667  0.333333  0.938016  1
  Cl  Cl10  1  0.306091  0.911938  0.189054  1
  Cl  Cl11  1  0.306091  0.911938  0.435946  1
  Cl  Cl12  1  0.313613  0.919265  0.680347  1
  Cl  Cl13  1  0.313613  0.919265  0.944653  1
  Cl  Cl14  1  0.088062  0.394153  0.189054  1
  Cl  Cl15  1  0.088062  0.394153  0.435946  1
  Cl  Cl16  1  0.080735  0.394348  0.680347  1
  Cl  Cl17  1  0.080735  0.394348  0.944653  1
  Cl  Cl18  1  0.393486  0.304082  0.066117  1
  Cl  Cl19  1  0.392268  0.305109  0.312500  1
  Cl  Cl20  1  0.393486  0.304082  0.558883  1
  Cl  Cl21  1  0.382340  0.276816  0.812500  1
  Cl  Cl22  1  0.605847  0.693909  0.189054  1
  Cl  Cl23  1  0.605847  0.693909  0.435946  1
  Cl  Cl24  1  0.605652  0.686387  0.680347  1
  Cl  Cl25  1  0.605652  0.686387  0.944653  1
  Cl  Cl26  1  0.910596  0.606514  0.066117  1
  Cl  Cl27  1  0.912841  0.607732  0.312500  1
  Cl  Cl28  1  0.910596  0.606514  0.558883  1
  Cl  Cl29  1  0.894475  0.617660  0.812500  1
  Cl  Cl30  1  0.695918  0.089404  0.066117  1
  Cl  Cl31  1  0.694891  0.087159  0.312500  1
  Cl  Cl32  1  0.695918  0.089404  0.558883  1
  Cl  Cl33  1  0.723184  0.105525  0.812500  1
