# generated using pymatgen
data_Al2CoO4
_symmetry_space_group_name_H-M   'P 1'
_cell_length_a   5.78422476
_cell_length_b   5.78422485
_cell_length_c   23.14935973
_cell_angle_alpha   60.01780711
_cell_angle_beta   60.01780662
_cell_angle_gamma   60.00000126
_symmetry_Int_Tables_number   1
_chemical_formula_structural   Al2CoO4
_chemical_formula_sum   'Al16 Co8 O32'
_cell_volume   547.81151250
_cell_formula_units_Z   8
loop_
 _symmetry_equiv_pos_site_id
 _symmetry_equiv_pos_as_xyz
  1  'x, y, z'
loop_
 _atom_site_type_symbol
 _atom_site_label
 _atom_site_symmetry_multiplicity
 _atom_site_fract_x
 _atom_site_fract_y
 _atom_site_fract_z
 _atom_site_occupancy
  Al  Al0  1  0.247840  0.247840  0.064120  1
  Al  Al1  1  0.121849  0.626717  0.156179  1
  Al  Al2  1  0.626717  0.121849  0.156179  1
  Al  Al3  1  0.626717  0.626717  0.156179  1
  Al  Al4  1  0.124326  0.624966  0.406435  1
  Al  Al5  1  0.624966  0.124326  0.406435  1
  Al  Al6  1  0.624229  0.624229  0.281828  1
  Al  Al7  1  0.624966  0.624966  0.406435  1
  Al  Al8  1  0.124176  0.624042  0.656935  1
  Al  Al9  1  0.624042  0.124176  0.656935  1
  Al  Al10  1  0.624389  0.624389  0.531708  1
  Al  Al11  1  0.624042  0.624042  0.656935  1
  Al  Al12  1  0.121750  0.627943  0.905591  1
  Al  Al13  1  0.627943  0.121750  0.905591  1
  Al  Al14  1  0.624583  0.624583  0.781562  1
  Al  Al15  1  0.627943  0.627943  0.905591  1
  Co  Co16  1  0.002979  0.002979  0.997766  1
  Co  Co17  1  0.251896  0.251896  0.311078  1
  Co  Co18  1  0.627579  0.627579  0.029316  1
  Co  Co19  1  0.000155  0.000155  0.249884  1
  Co  Co20  1  0.249604  0.249604  0.562797  1
  Co  Co21  1  0.246489  0.246489  0.815133  1
  Co  Co22  1  0.999302  0.999302  0.500523  1
  Co  Co23  1  0.001091  0.001091  0.749181  1
  O  O24  1  0.367769  0.367769  0.100525  1
  O  O25  1  0.394366  0.394366  0.204226  1
  O  O26  1  0.367769  0.862364  0.100525  1
  O  O27  1  0.862364  0.367769  0.100525  1
  O  O28  1  0.389142  0.389142  0.347200  1
  O  O29  1  0.419168  0.858486  0.215965  1
  O  O30  1  0.861357  0.861357  0.103982  1
  O  O31  1  0.389787  0.389787  0.457660  1
  O  O32  1  0.858486  0.419168  0.215965  1
  O  O33  1  0.389142  0.832916  0.347200  1
  O  O34  1  0.832916  0.389142  0.347200  1
  O  O35  1  0.858486  0.858486  0.215965  1
  O  O36  1  0.389120  0.389120  0.597711  1
  O  O37  1  0.418472  0.860473  0.465146  1
  O  O38  1  0.860473  0.418472  0.465146  1
  O  O39  1  0.387857  0.387857  0.709107  1
  O  O40  1  0.389120  0.830916  0.597711  1
  O  O41  1  0.860702  0.860702  0.354473  1
  O  O42  1  0.830916  0.389120  0.597711  1
  O  O43  1  0.860473  0.860473  0.465146  1
  O  O44  1  0.390976  0.390976  0.848046  1
  O  O45  1  0.418822  0.860176  0.715206  1
  O  O46  1  0.376956  0.376956  0.967283  1
  O  O47  1  0.390976  0.825865  0.848046  1
  O  O48  1  0.860176  0.418822  0.715206  1
  O  O49  1  0.860279  0.860279  0.604791  1
  O  O50  1  0.825865  0.390976  0.848046  1
  O  O51  1  0.860176  0.860176  0.715206  1
  O  O52  1  0.413700  0.875658  0.958746  1
  O  O53  1  0.875658  0.413700  0.958746  1
  O  O54  1  0.863298  0.863298  0.852526  1
  O  O55  1  0.875658  0.875658  0.958746  1
