# generated using pymatgen
data_Nb25S48
_symmetry_space_group_name_H-M   'P 1'
_cell_length_a   13.19039361
_cell_length_b   45.47024623
_cell_length_c   25.52293397
_cell_angle_alpha   13.44472157
_cell_angle_beta   25.93049708
_cell_angle_gamma   25.52049760
_symmetry_Int_Tables_number   1
_chemical_formula_structural   Nb25S48
_chemical_formula_sum   'Nb25 S48'
_cell_volume   1497.26358644
_cell_formula_units_Z   1
loop_
 _symmetry_equiv_pos_site_id
 _symmetry_equiv_pos_as_xyz
  1  'x, y, z'
loop_
 _atom_site_type_symbol
 _atom_site_label
 _atom_site_symmetry_multiplicity
 _atom_site_fract_x
 _atom_site_fract_y
 _atom_site_fract_z
 _atom_site_occupancy
  Nb  Nb0  1  0.006159  -0.000997  0.999731  1
  Nb  Nb1  1  0.502912  0.001000  0.997198  1
  Nb  Nb2  1  0.413278  0.163257  0.007947  1
  Nb  Nb3  1  0.338230  0.333121  -0.000653  1
  Nb  Nb4  1  0.915907  0.164807  0.004673  1
  Nb  Nb5  1  0.414878  0.168457  0.497975  1
  Nb  Nb6  1  0.243306  0.500996  0.997643  1
  Nb  Nb7  1  0.839686  0.330986  0.000719  1
  Nb  Nb8  1  0.339944  0.337411  0.490078  1
  Nb  Nb9  1  0.176381  0.665032  -0.001233  1
  Nb  Nb10  1  0.912581  0.169788  0.497589  1
  Nb  Nb11  1  0.742222  0.503268  -0.000541  1
  Nb  Nb12  1  0.240699  0.500363  0.504811  1
  Nb  Nb13  1  0.074879  0.831886  0.008136  1
  Nb  Nb14  1  0.833115  0.336148  0.495292  1
  Nb  Nb15  1  0.668520  0.666501  -0.000227  1
  Nb  Nb16  1  0.165589  0.667117  0.501622  1
  Nb  Nb17  1  0.747283  0.498528  0.505428  1
  Nb  Nb18  1  0.578301  0.833916  0.002672  1
  Nb  Nb19  1  0.255931  0.666646  0.591598  1
  Nb  Nb20  1  0.079510  0.831434  0.501604  1
  Nb  Nb21  1  0.663362  0.666412  0.498723  1
  Nb  Nb22  1  0.581328  0.829705  0.508579  1
  Nb  Nb23  1  0.503811  0.997945  0.502612  1
  Nb  Nb24  1  0.009529  0.996977  0.500836  1
  S  S25  1  0.299364  0.997452  0.292933  1
  S  S26  1  0.377876  0.997719  0.377857  1
  S  S27  1  0.210898  0.166865  0.292411  1
  S  S28  1  0.786549  0.003354  0.288371  1
  S  S29  1  0.292611  0.165271  0.376334  1
  S  S30  1  0.881329  0.994822  0.379692  1
  S  S31  1  0.123207  0.330533  0.296849  1
  S  S32  1  0.294812  0.999251  0.792726  1
  S  S33  1  0.713657  0.162968  0.297399  1
  S  S34  1  0.209354  0.336803  0.366304  1
  S  S35  1  0.377574  0.003708  0.867405  1
  S  S36  1  0.795033  0.166325  0.372660  1
  S  S37  1  0.036747  0.500446  0.295253  1
  S  S38  1  0.209691  0.170018  0.787502  1
  S  S39  1  0.796057  0.002996  0.785776  1
  S  S40  1  0.628746  0.335155  0.287679  1
  S  S41  1  0.121531  0.500009  0.376349  1
  S  S42  1  0.293833  0.165798  0.874016  1
  S  S43  1  0.709622  0.334469  0.372968  1
  S  S44  1  0.873966  0.001796  0.873491  1
  S  S45  1  0.131030  0.330607  0.794259  1
  S  S46  1  0.713603  0.165364  0.793282  1
  S  S47  1  0.534418  0.499015  0.299017  1
  S  S48  1  0.208682  0.331516  0.878437  1
  S  S49  1  0.031442  0.665798  0.380562  1
  S  S50  1  0.791936  0.167714  0.871799  1
  S  S51  1  0.621465  0.499964  0.376386  1
  S  S52  1  0.044363  0.500132  0.794097  1
  S  S53  1  0.457425  0.666386  0.295397  1
  S  S54  1  0.626600  0.333848  0.791611  1
  S  S55  1  0.127092  0.502344  0.872543  1
  S  S56  1  0.712496  0.330747  0.878375  1
  S  S57  1  0.541773  0.666160  0.379004  1
  S  S58  1  0.554736  0.488604  0.802465  1
  S  S59  1  0.377591  0.844292  0.268390  1
  S  S60  1  0.961425  0.667390  0.288800  1
  S  S61  1  0.044276  0.665652  0.872273  1
  S  S62  1  0.617028  0.500893  0.873058  1
  S  S63  1  0.452437  0.830556  0.379378  1
  S  S64  1  0.458136  0.666951  0.791724  1
  S  S65  1  0.877763  0.832217  0.295200  1
  S  S66  1  0.537134  0.666728  0.878177  1
  S  S67  1  0.961673  0.831727  0.379222  1
  S  S68  1  0.368589  0.834908  0.794889  1
  S  S69  1  0.928095  0.667419  0.801907  1
  S  S70  1  0.454513  0.832415  0.878083  1
  S  S71  1  0.872385  0.832647  0.796424  1
  S  S72  1  0.954604  0.833363  0.875784  1
