# generated using pymatgen
data_LiDy(PO3)4
_symmetry_space_group_name_H-M   'P 1'
_cell_length_a   7.13198666
_cell_length_b   8.97875992
_cell_length_c   8.96468117
_cell_angle_alpha   65.50639907
_cell_angle_beta   66.56037493
_cell_angle_gamma   66.59932021
_symmetry_Int_Tables_number   1
_chemical_formula_structural   LiDy(PO3)4
_chemical_formula_sum   'Li2 Dy2 P8 O24'
_cell_volume   460.37952690
_cell_formula_units_Z   2
loop_
 _symmetry_equiv_pos_site_id
 _symmetry_equiv_pos_as_xyz
  1  'x, y, z'
loop_
 _atom_site_type_symbol
 _atom_site_label
 _atom_site_symmetry_multiplicity
 _atom_site_fract_x
 _atom_site_fract_y
 _atom_site_fract_z
 _atom_site_occupancy
  Li  Li0  1  0.206815  0.750000  0.250000  1
  Li  Li1  1  0.793185  0.250000  0.750000  1
  O  O2  1  0.258739  0.523156  0.726141  1
  O  O3  1  0.508036  0.976844  0.773859  1
  O  O4  1  0.741261  0.476844  0.273859  1
  O  O5  1  0.491964  0.023156  0.226141  1
  O  O6  1  0.345765  0.727016  0.416886  1
  O  O7  1  0.489667  0.772984  0.083114  1
  O  O8  1  0.654235  0.272984  0.583114  1
  O  O9  1  0.510333  0.227016  0.916886  1
  O  O10  1  0.100237  0.184276  0.038548  1
  O  O11  1  0.323061  0.315724  0.461452  1
  O  O12  1  0.899763  0.815724  0.961452  1
  O  O13  1  0.676939  0.684276  0.538548  1
  O  O14  1  0.937794  0.928950  0.204419  1
  O  O15  1  0.071164  0.571050  0.295581  1
  O  O16  1  0.062206  0.071050  0.795581  1
  O  O17  1  0.928836  0.428950  0.704419  1
  O  O18  1  0.833762  0.153116  0.337585  1
  O  O19  1  0.324463  0.346884  0.162415  1
  O  O20  1  0.166238  0.846884  0.662415  1
  O  O21  1  0.675537  0.653116  0.837585  1
  O  O22  1  0.717367  0.232388  0.078342  1
  O  O23  1  0.028097  0.267612  0.421658  1
  O  O24  1  0.282633  0.767612  0.921658  1
  O  O25  1  0.971903  0.732388  0.578342  1
  P  P26  1  0.204847  0.693394  0.597164  1
  P  P27  1  0.495404  0.806606  0.902836  1
  P  P28  1  0.795153  0.306606  0.402836  1
  P  P29  1  0.504596  0.193394  0.097164  1
  P  P30  1  0.811863  0.616338  0.657662  1
  P  P31  1  0.085863  0.883662  0.842338  1
  P  P32  1  0.188137  0.383662  0.342338  1
  P  P33  1  0.914137  0.116338  0.157662  1
  Dy  Dy34  1  0.703942  0.750000  0.250000  1
  Dy  Dy35  1  0.296058  0.250000  0.750000  1
