# generated using pymatgen
data_K2PtN4(ClO4)2
_symmetry_space_group_name_H-M   'P 1'
_cell_length_a   7.60145121
_cell_length_b   8.79722391
_cell_length_c   9.76146107
_cell_angle_alpha   90.00000000
_cell_angle_beta   90.00000000
_cell_angle_gamma   108.26430635
_symmetry_Int_Tables_number   1
_chemical_formula_structural   K2PtN4(ClO4)2
_chemical_formula_sum   'K4 Pt2 N8 Cl4 O16'
_cell_volume   619.87946498
_cell_formula_units_Z   2
loop_
 _symmetry_equiv_pos_site_id
 _symmetry_equiv_pos_as_xyz
  1  'x, y, z'
loop_
 _atom_site_type_symbol
 _atom_site_label
 _atom_site_symmetry_multiplicity
 _atom_site_fract_x
 _atom_site_fract_y
 _atom_site_fract_z
 _atom_site_occupancy
  K  K0  1  0.159061  0.833436  0.546749  1
  K  K1  1  0.659061  0.333436  0.953251  1
  K  K2  1  0.840939  0.166564  0.453251  1
  K  K3  1  0.340939  0.666564  0.046749  1
  Pt  Pt4  1  0.000000  0.000000  0.000000  1
  Pt  Pt5  1  0.500000  0.500000  0.500000  1
  N  N6  1  0.612270  0.753463  0.473345  1
  N  N7  1  0.613952  0.462353  0.303530  1
  N  N8  1  0.886048  0.037647  0.803530  1
  N  N9  1  0.113952  0.962353  0.196470  1
  N  N10  1  0.887730  0.746537  0.973345  1
  N  N11  1  0.387730  0.246537  0.526655  1
  N  N12  1  0.112270  0.253463  0.026655  1
  N  N13  1  0.386048  0.537647  0.696470  1
  Cl  Cl14  1  0.776830  0.496747  0.608226  1
  Cl  Cl15  1  0.723170  0.003253  0.108226  1
  Cl  Cl16  1  0.276830  0.996747  0.891774  1
  Cl  Cl17  1  0.223170  0.503253  0.391774  1
  O  O18  1  0.729111  0.678352  0.015116  1
  O  O19  1  0.517025  0.828875  0.419385  1
  O  O20  1  0.513387  0.450520  0.201487  1
  O  O21  1  0.229111  0.178352  0.484884  1
  O  O22  1  0.013387  0.950520  0.298513  1
  O  O23  1  0.229480  0.551322  0.704187  1
  O  O24  1  0.270520  0.948678  0.204187  1
  O  O25  1  0.986613  0.049480  0.701487  1
  O  O26  1  0.982975  0.671125  0.919385  1
  O  O27  1  0.486613  0.549480  0.798513  1
  O  O28  1  0.729480  0.051322  0.795813  1
  O  O29  1  0.017025  0.328875  0.080615  1
  O  O30  1  0.770889  0.821648  0.515116  1
  O  O31  1  0.270889  0.321648  0.984884  1
  O  O32  1  0.770520  0.448678  0.295813  1
  O  O33  1  0.482975  0.171125  0.580615  1
