# generated using pymatgen
data_Te7WCl5O
_symmetry_space_group_name_H-M   'P 1'
_cell_length_a   7.78057187
_cell_length_b   8.36184195
_cell_length_c   26.85154694
_cell_angle_alpha   89.99942612
_cell_angle_beta   89.99996612
_cell_angle_gamma   90.00000288
_symmetry_Int_Tables_number   1
_chemical_formula_structural   Te7WCl5O
_chemical_formula_sum   'Te28 W4 Cl20 O4'
_cell_volume   1746.95928785
_cell_formula_units_Z   4
loop_
 _symmetry_equiv_pos_site_id
 _symmetry_equiv_pos_as_xyz
  1  'x, y, z'
loop_
 _atom_site_type_symbol
 _atom_site_label
 _atom_site_symmetry_multiplicity
 _atom_site_fract_x
 _atom_site_fract_y
 _atom_site_fract_z
 _atom_site_occupancy
  Te  Te0  1  0.957378  0.273372  0.931173  1
  Te  Te1  1  0.912397  0.781351  0.415635  1
  Te  Te2  1  0.412395  0.781353  0.084367  1
  Te  Te3  1  0.087625  0.218660  0.584409  1
  Te  Te4  1  0.042629  0.273380  0.431227  1
  Te  Te5  1  0.589873  0.060431  0.639963  1
  Te  Te6  1  0.542628  0.726622  0.431227  1
  Te  Te7  1  0.542628  0.273378  0.068773  1
  Te  Te8  1  0.089867  0.060428  0.860036  1
  Te  Te9  1  0.912397  0.218649  0.084365  1
  Te  Te10  1  0.910105  0.939541  0.139920  1
  Te  Te11  1  0.457380  0.273371  0.568826  1
  Te  Te12  1  0.957378  0.726628  0.568827  1
  Te  Te13  1  0.587627  0.781341  0.584410  1
  Te  Te14  1  0.587627  0.218659  0.915590  1
  Te  Te15  1  0.410096  0.939540  0.360080  1
  Te  Te16  1  0.410098  0.060459  0.139921  1
  Te  Te17  1  0.042630  0.726620  0.068773  1
  Te  Te18  1  0.457379  0.726629  0.931174  1
  Te  Te19  1  0.499989  0.999998  0.500013  1
  Te  Te20  1  0.589873  0.939569  0.860037  1
  Te  Te21  1  0.089867  0.939571  0.639964  1
  Te  Te22  1  0.412395  0.218647  0.415633  1
  Te  Te23  1  0.087625  0.781341  0.915591  1
  Te  Te24  1  0.999989  0.999998  0.999987  1
  Te  Te25  1  0.910105  0.060459  0.360080  1
  Te  Te26  1  0.999989  0.000002  0.500013  1
  Te  Te27  1  0.499989  0.000001  0.999987  1
  W  W28  1  0.777329  0.500000  0.750000  1
  W  W29  1  0.222614  0.500000  0.250000  1
  W  W30  1  0.723162  0.500000  0.250000  1
  W  W31  1  0.276850  0.500000  0.750000  1
  Cl  Cl32  1  0.739237  0.554609  0.161955  1
  Cl  Cl33  1  0.758767  0.782493  0.733497  1
  Cl  Cl34  1  0.241286  0.217516  0.266509  1
  Cl  Cl35  1  0.749977  0.515063  0.999982  1
  Cl  Cl36  1  0.260753  0.554594  0.661957  1
  Cl  Cl37  1  0.258859  0.782476  0.766503  1
  Cl  Cl38  1  0.739237  0.445391  0.338045  1
  Cl  Cl39  1  0.239336  0.445389  0.161953  1
  Cl  Cl40  1  0.249981  0.515063  0.500014  1
  Cl  Cl41  1  0.741190  0.217532  0.233491  1
  Cl  Cl42  1  0.749977  0.484937  0.500018  1
  Cl  Cl43  1  0.760663  0.554597  0.838046  1
  Cl  Cl44  1  0.758767  0.217507  0.766503  1
  Cl  Cl45  1  0.760664  0.445403  0.661954  1
  Cl  Cl46  1  0.260753  0.445405  0.838043  1
  Cl  Cl47  1  0.241286  0.782484  0.233491  1
  Cl  Cl48  1  0.741190  0.782469  0.266509  1
  Cl  Cl49  1  0.249981  0.484937  0.999986  1
  Cl  Cl50  1  0.258858  0.217523  0.733498  1
  Cl  Cl51  1  0.239336  0.554611  0.338047  1
  O  O52  1  0.983596  0.500000  0.250000  1
  O  O53  1  0.516804  0.500000  0.750000  1
  O  O54  1  0.016424  0.500000  0.750000  1
  O  O55  1  0.483162  0.500000  0.250000  1
