# generated using pymatgen
data_K2SiH4(NO)2
_symmetry_space_group_name_H-M   'P 1'
_cell_length_a   6.80212914
_cell_length_b   10.20395775
_cell_length_c   7.64133792
_cell_angle_alpha   90.00000000
_cell_angle_beta   91.81119936
_cell_angle_gamma   90.00000000
_symmetry_Int_Tables_number   1
_chemical_formula_structural   K2SiH4(NO)2
_chemical_formula_sum   'K8 Si4 H16 N8 O8'
_cell_volume   530.10988630
_cell_formula_units_Z   4
loop_
 _symmetry_equiv_pos_site_id
 _symmetry_equiv_pos_as_xyz
  1  'x, y, z'
loop_
 _atom_site_type_symbol
 _atom_site_label
 _atom_site_symmetry_multiplicity
 _atom_site_fract_x
 _atom_site_fract_y
 _atom_site_fract_z
 _atom_site_occupancy
  K  K0  1  0.347599  0.436065  0.157096  1
  K  K1  1  0.652401  0.936065  0.342904  1
  K  K2  1  0.652401  0.563935  0.842904  1
  K  K3  1  0.347599  0.063935  0.657096  1
  K  K4  1  0.342484  0.804116  0.979690  1
  K  K5  1  0.657516  0.304116  0.520310  1
  K  K6  1  0.657516  0.195884  0.020310  1
  K  K7  1  0.342484  0.695884  0.479690  1
  Si  Si8  1  0.784248  0.573488  0.258220  1
  Si  Si9  1  0.215752  0.073488  0.241780  1
  Si  Si10  1  0.215752  0.426512  0.741780  1
  Si  Si11  1  0.784248  0.926512  0.758220  1
  H  H12  1  0.955230  0.120787  0.436574  1
  H  H13  1  0.044770  0.620787  0.063426  1
  H  H14  1  0.044770  0.879213  0.563426  1
  H  H15  1  0.955230  0.379213  0.936574  1
  H  H16  1  0.953377  0.227996  0.274168  1
  H  H17  1  0.046623  0.727996  0.225832  1
  H  H18  1  0.046623  0.772004  0.725832  1
  H  H19  1  0.953377  0.272004  0.774168  1
  H  H20  1  0.237323  0.181666  0.962494  1
  H  H21  1  0.762677  0.681666  0.537506  1
  H  H22  1  0.762677  0.818334  0.037506  1
  H  H23  1  0.237323  0.318334  0.462494  1
  H  H24  1  0.099195  0.049248  0.938089  1
  H  H25  1  0.900805  0.549248  0.561911  1
  H  H26  1  0.900805  0.950752  0.061911  1
  H  H27  1  0.099195  0.450752  0.438089  1
  N  N28  1  0.020693  0.868839  0.694595  1
  N  N29  1  0.979307  0.368839  0.805405  1
  N  N30  1  0.979307  0.131161  0.305405  1
  N  N31  1  0.020693  0.631161  0.194595  1
  N  N32  1  0.214644  0.088286  0.009510  1
  N  N33  1  0.785356  0.588286  0.490490  1
  N  N34  1  0.785356  0.911714  0.990490  1
  N  N35  1  0.214644  0.411714  0.509510  1
  O  O36  1  0.395758  0.166223  0.313290  1
  O  O37  1  0.604242  0.666223  0.186710  1
  O  O38  1  0.604242  0.833777  0.686710  1
  O  O39  1  0.395758  0.333777  0.813290  1
  O  O40  1  0.229143  0.921340  0.302797  1
  O  O41  1  0.770857  0.421340  0.197203  1
  O  O42  1  0.770857  0.078660  0.697203  1
  O  O43  1  0.229143  0.578660  0.802797  1
