# generated using pymatgen
data_Ba(H2O3)2
_symmetry_space_group_name_H-M   'P 1'
_cell_length_a   5.38129332
_cell_length_b   5.98727472
_cell_length_c   8.34050782
_cell_angle_alpha   85.56191431
_cell_angle_beta   91.82536267
_cell_angle_gamma   110.91998232
_symmetry_Int_Tables_number   1
_chemical_formula_structural   Ba(H2O3)2
_chemical_formula_sum   'Ba2 H8 O12'
_cell_volume   250.25558648
_cell_formula_units_Z   2
loop_
 _symmetry_equiv_pos_site_id
 _symmetry_equiv_pos_as_xyz
  1  'x, y, z'
loop_
 _atom_site_type_symbol
 _atom_site_label
 _atom_site_symmetry_multiplicity
 _atom_site_fract_x
 _atom_site_fract_y
 _atom_site_fract_z
 _atom_site_occupancy
  Ba  Ba0  1  0.840293  0.850222  0.785821  1
  Ba  Ba1  1  0.163514  0.228968  0.219565  1
  H  H2  1  0.340438  0.753971  0.051507  1
  H  H3  1  0.238616  0.531619  0.635276  1
  H  H4  1  0.730117  0.282898  0.731131  1
  H  H5  1  0.664795  0.258525  0.407674  1
  H  H6  1  0.842707  0.657385  0.152067  1
  H  H7  1  0.570127  0.452038  0.480264  1
  H  H8  1  0.425643  0.723125  0.499286  1
  H  H9  1  0.634177  0.347885  -0.023017  1
  O  O10  1  0.271312  0.014320  0.577214  1
  O  O11  1  0.839643  0.239312  0.950569  1
  O  O12  1  0.822301  0.021006  0.469343  1
  O  O13  1  0.193980  0.829505  0.050323  1
  O  O14  1  0.411920  0.052477  0.713557  1
  O  O15  1  0.905783  0.360692  0.785608  1
  O  O16  1  0.613197  -0.053910  0.363903  1
  O  O17  1  0.035823  0.698486  0.194231  1
  O  O18  1  0.413859  0.592140  0.585625  1
  O  O19  1  0.485586  0.425107  0.961119  1
  O  O20  1  0.653174  0.416843  0.384721  1
  O  O21  1  0.561525  0.632306  0.065257  1
