# generated using pymatgen
data_Al3P3H9C3NO14
_symmetry_space_group_name_H-M   'P 1'
_cell_length_a   9.13377819
_cell_length_b   9.13377819
_cell_length_c   8.78460417
_cell_angle_alpha   85.79784335
_cell_angle_beta   94.20215665
_cell_angle_gamma   92.25249811
_symmetry_Int_Tables_number   1
_chemical_formula_structural   Al3P3H9C3NO14
_chemical_formula_sum   'Al6 P6 H18 C6 N2 O28'
_cell_volume   728.50420095
_cell_formula_units_Z   2
loop_
 _symmetry_equiv_pos_site_id
 _symmetry_equiv_pos_as_xyz
  1  'x, y, z'
loop_
 _atom_site_type_symbol
 _atom_site_label
 _atom_site_symmetry_multiplicity
 _atom_site_fract_x
 _atom_site_fract_y
 _atom_site_fract_z
 _atom_site_occupancy
  Al  Al0  1  0.398009  0.562151  0.707619  1
  Al  Al1  1  0.437849  0.601991  0.207619  1
  Al  Al2  1  0.918429  0.816119  0.918644  1
  Al  Al3  1  0.183881  0.081571  0.418644  1
  Al  Al4  1  0.890024  0.325938  0.908180  1
  Al  Al5  1  0.674062  0.109976  0.408180  1
  P  P6  1  0.669747  0.578844  0.957201  1
  P  P7  1  0.421156  0.330253  0.457201  1
  P  P8  1  0.159650  0.561836  0.958180  1
  P  P9  1  0.438164  0.840350  0.458180  1
  P  P10  1  0.919254  0.054073  0.175751  1
  P  P11  1  0.945927  0.080746  0.675751  1
  H  H12  1  0.693497  0.200068  0.727586  1
  H  H13  1  0.799932  0.306503  0.227586  1
  H  H14  1  0.622319  0.328851  0.806365  1
  H  H15  1  0.671149  0.377681  0.306365  1
  H  H16  1  0.598709  0.952458  0.108961  1
  H  H17  1  0.047542  0.401291  0.608961  1
  H  H18  1  0.367055  0.271883  0.907715  1
  H  H19  1  0.728117  0.632945  0.407715  1
  H  H20  1  0.216979  0.144660  0.934607  1
  H  H21  1  0.855340  0.783021  0.434607  1
  H  H22  1  0.313524  0.220565  0.096255  1
  H  H23  1  0.779435  0.686476  0.596255  1
  H  H24  1  0.308591  0.924101  0.844386  1
  H  H25  1  0.075899  0.691409  0.344386  1
  H  H26  1  0.455012  0.032849  0.764844  1
  H  H27  1  0.967151  0.544988  0.264844  1
  H  H28  1  0.496235  0.878386  0.894663  1
  H  H29  1  0.121614  0.503765  0.394663  1
  C  C30  1  0.324611  0.181518  0.983450  1
  C  C31  1  0.818482  0.675389  0.483450  1
  C  C32  1  0.420838  0.968443  0.867640  1
  C  C33  1  0.031557  0.579162  0.367640  1
  C  C34  1  0.525138  0.044431  0.112282  1
  C  C35  1  0.955569  0.474862  0.612282  1
  N  N36  1  0.425115  0.060698  0.996176  1
  N  N37  1  0.939302  0.574885  0.496176  1
  O  O38  1  0.536945  0.127260  0.222518  1
  O  O39  1  0.872740  0.463055  0.722518  1
  O  O40  1  0.890520  0.202950  0.087407  1
  O  O41  1  0.797050  0.109480  0.587407  1
  O  O42  1  0.068227  0.419779  0.974784  1
  O  O43  1  0.580221  0.931773  0.474784  1
  O  O44  1  0.775833  0.456560  0.005718  1
  O  O45  1  0.543440  0.224167  0.505718  1
  O  O46  1  0.378536  0.410301  0.595676  1
  O  O47  1  0.589699  0.621464  0.095676  1
  O  O48  1  0.276017  0.572953  0.094669  1
  O  O49  1  0.427047  0.723983  0.594669  1
  O  O50  1  0.946350  0.922353  0.750317  1
  O  O51  1  0.077647  0.053650  0.250317  1
  O  O52  1  0.551729  0.521381  0.835925  1
  O  O53  1  0.478619  0.448271  0.335925  1
  O  O54  1  0.906272  0.924866  0.071089  1
  O  O55  1  0.075134  0.093728  0.571089  1
  O  O56  1  0.747917  0.718876  0.890192  1
  O  O57  1  0.281124  0.252083  0.390192  1
  O  O58  1  0.064462  0.697734  0.953501  1
  O  O59  1  0.302266  0.935538  0.453501  1
  O  O60  1  0.241061  0.569186  0.808363  1
  O  O61  1  0.430814  0.758939  0.308363  1
  O  O62  1  0.809349  0.025443  0.298663  1
  O  O63  1  0.974557  0.190651  0.798663  1
  O  O64  1  0.689337  0.246929  0.825872  1
  O  O65  1  0.753071  0.310663  0.325872  1
