# generated using pymatgen
data_Ca(H8O5)2
_symmetry_space_group_name_H-M   'P 1'
_cell_length_a   6.07179831
_cell_length_b   6.37536246
_cell_length_c   11.37700870
_cell_angle_alpha   92.14751861
_cell_angle_beta   90.11049635
_cell_angle_gamma   88.52234752
_symmetry_Int_Tables_number   1
_chemical_formula_structural   Ca(H8O5)2
_chemical_formula_sum   'Ca2 H32 O20'
_cell_volume   439.94717360
_cell_formula_units_Z   2
loop_
 _symmetry_equiv_pos_site_id
 _symmetry_equiv_pos_as_xyz
  1  'x, y, z'
loop_
 _atom_site_type_symbol
 _atom_site_label
 _atom_site_symmetry_multiplicity
 _atom_site_fract_x
 _atom_site_fract_y
 _atom_site_fract_z
 _atom_site_occupancy
  Ca  Ca0  1  0.004777  0.997456  0.515223  1
  Ca  Ca1  1  0.998918  0.996419  0.999845  1
  H  H2  1  0.261328  0.378590  0.388252  1
  H  H3  1  0.013314  0.324933  0.337732  1
  H  H4  1  0.914592  0.627487  0.317989  1
  H  H5  1  0.700686  0.619894  0.399588  1
  H  H6  1  0.591942  0.038535  0.387072  1
  H  H7  1  0.620859  0.282635  0.403418  1
  H  H8  1  0.311122  0.905659  0.299788  1
  H  H9  1  0.376326  0.723540  0.395554  1
  H  H10  1  0.704262  0.359408  0.889186  1
  H  H11  1  0.919372  0.352780  0.803510  1
  H  H12  1  0.046371  0.577372  0.912339  1
  H  H13  1  0.292197  0.623236  0.898717  1
  H  H14  1  0.266284  0.146471  0.803079  1
  H  H15  1  0.377402  0.275303  0.908563  1
  H  H16  1  0.632485  0.698226  0.893170  1
  H  H17  1  0.574465  0.929760  0.858665  1
  H  H18  1  0.840171  0.740852  0.715989  1
  H  H19  1  0.723513  0.623001  0.607910  1
  H  H20  1  0.026359  0.455861  0.624126  1
  H  H21  1  0.269886  0.383507  0.601080  1
  H  H22  1  0.373394  0.732335  0.612955  1
  H  H23  1  0.458173  0.963536  0.630951  1
  H  H24  1  0.716795  0.163595  0.719064  1
  H  H25  1  0.620014  0.269285  0.604742  1
  H  H26  1  0.296452  0.590802  0.102825  1
  H  H27  1  0.159254  0.717178  0.203454  1
  H  H28  1  0.982728  0.424636  0.124028  1
  H  H29  1  0.733285  0.374417  0.105037  1
  H  H30  1  0.736960  0.877471  0.204850  1
  H  H31  1  0.630632  0.739562  0.096498  1
  H  H32  1  0.258685  0.164214  0.217268  1
  H  H33  1  0.443505  0.034922  0.137762  1
  O  O34  1  0.491175  0.499624  0.435953  1
  O  O35  1  0.513788  0.496908  0.936530  1
  O  O36  1  0.500387  0.496556  0.567630  1
  O  O37  1  0.522822  0.533480  0.066785  1
  O  O38  1  0.161179  0.269295  0.352052  1
  O  O39  1  0.829659  0.711799  0.375553  1
  O  O40  1  0.706745  0.144989  0.387967  1
  O  O41  1  0.302358  0.865205  0.382329  1
  O  O42  1  0.826809  0.263260  0.849721  1
  O  O43  1  0.139763  0.686696  0.883885  1
  O  O44  1  0.307947  0.136350  0.885807  1
  O  O45  1  0.701980  0.833208  0.866606  1
  O  O46  1  0.867257  0.690130  0.633588  1
  O  O47  1  0.120528  0.324410  0.619375  1
  O  O48  1  0.321444  0.881075  0.632524  1
  O  O49  1  0.680939  0.131178  0.635023  1
  O  O50  1  0.134474  0.638206  0.129705  1
  O  O51  1  0.882541  0.303468  0.116433  1
  O  O52  1  0.697343  0.885869  0.121458  1
  O  O53  1  0.283310  0.051995  0.155214  1
