# generated using pymatgen
data_CdI2
_symmetry_space_group_name_H-M   'P 1'
_cell_length_a   4.33655359
_cell_length_b   4.33655387
_cell_length_c   184.03396008
_cell_angle_alpha   90.00000000
_cell_angle_beta   90.00000000
_cell_angle_gamma   119.99999797
_symmetry_Int_Tables_number   1
_chemical_formula_structural   CdI2
_chemical_formula_sum   'Cd25 I50'
_cell_volume   2997.21622576
_cell_formula_units_Z   25
loop_
 _symmetry_equiv_pos_site_id
 _symmetry_equiv_pos_as_xyz
  1  'x, y, z'
loop_
 _atom_site_type_symbol
 _atom_site_label
 _atom_site_symmetry_multiplicity
 _atom_site_fract_x
 _atom_site_fract_y
 _atom_site_fract_z
 _atom_site_occupancy
  Cd  Cd0  1  0.333333  0.666667  0.970000  1
  Cd  Cd1  1  0.666667  0.333333  0.649992  1
  Cd  Cd2  1  0.666667  0.333333  0.570004  1
  Cd  Cd3  1  0.333333  0.666667  0.770004  1
  Cd  Cd4  1  0.333333  0.666667  0.370001  1
  Cd  Cd5  1  0.666667  0.333333  0.409999  1
  Cd  Cd6  1  0.666667  0.333333  0.330007  1
  Cd  Cd7  1  0.666667  0.333333  0.009999  1
  Cd  Cd8  1  0.333333  0.666667  0.530010  1
  Cd  Cd9  1  0.333333  0.666667  0.289995  1
  Cd  Cd10  1  0.666667  0.333333  0.170003  1
  Cd  Cd11  1  0.666667  0.333333  0.730008  1
  Cd  Cd12  1  0.666667  0.333333  0.810002  1
  Cd  Cd13  1  0.666667  0.333333  0.089998  1
  Cd  Cd14  1  0.333333  0.666667  0.930010  1
  Cd  Cd15  1  0.333333  0.666667  0.610001  1
  Cd  Cd16  1  0.333333  0.666667  0.689996  1
  Cd  Cd17  1  0.333333  0.666667  0.049993  1
  Cd  Cd18  1  0.333333  0.666667  0.130010  1
  Cd  Cd19  1  0.666667  0.333333  0.889996  1
  Cd  Cd20  1  0.666667  0.333333  0.489999  1
  Cd  Cd21  1  0.666667  0.333333  0.249993  1
  Cd  Cd22  1  0.333333  0.666667  0.449993  1
  Cd  Cd23  1  0.333333  0.666667  0.849995  1
  Cd  Cd24  1  0.333333  0.666667  0.210000  1
  I  I25  1  0.000000  0.000000  0.120631  1
  I  I26  1  0.000000  0.000000  0.520631  1
  I  I27  1  0.000000  0.000000  0.360624  1
  I  I28  1  0.000000  0.000000  0.240611  1
  I  I29  1  0.000000  0.000000  0.200613  1
  I  I30  1  0.000000  0.000000  0.560618  1
  I  I31  1  0.000000  0.000000  0.480609  1
  I  I32  1  0.000000  0.000000  0.880606  1
  I  I33  1  0.333333  0.666667  0.899379  1
  I  I34  1  0.000000  0.000000  0.840610  1
  I  I35  1  0.000000  0.000000  0.640609  1
  I  I36  1  0.000000  0.000000  0.720634  1
  I  I37  1  0.666667  0.333333  0.979374  1
  I  I38  1  0.000000  0.000000  0.680631  1
  I  I39  1  0.333333  0.666667  0.579379  1
  I  I40  1  0.333333  0.666667  0.019379  1
  I  I41  1  0.333333  0.666667  0.659366  1
  I  I42  1  0.666667  0.333333  0.139391  1
  I  I43  1  0.333333  0.666667  0.739388  1
  I  I44  1  0.000000  0.000000  0.600626  1
  I  I45  1  0.333333  0.666667  0.819390  1
  I  I46  1  0.000000  0.000000  0.920633  1
  I  I47  1  0.666667  0.333333  0.699376  1
  I  I48  1  0.000000  0.000000  0.400631  1
  I  I49  1  0.666667  0.333333  0.299368  1
  I  I50  1  0.666667  0.333333  0.219379  1
  I  I51  1  0.000000  0.000000  0.800624  1
  I  I52  1  0.000000  0.000000  0.320628  1
  I  I53  1  0.666667  0.333333  0.059370  1
  I  I54  1  0.666667  0.333333  0.619378  1
  I  I55  1  0.333333  0.666667  0.179386  1
  I  I56  1  0.000000  0.000000  0.280616  1
  I  I57  1  0.666667  0.333333  0.859376  1
  I  I58  1  0.333333  0.666667  0.099376  1
  I  I59  1  0.000000  0.000000  0.080617  1
  I  I60  1  0.666667  0.333333  0.939384  1
  I  I61  1  0.000000  0.000000  0.000633  1
  I  I62  1  0.333333  0.666667  0.419383  1
  I  I63  1  0.000000  0.000000  0.960619  1
  I  I64  1  0.000000  0.000000  0.160619  1
  I  I65  1  0.666667  0.333333  0.779382  1
  I  I66  1  0.666667  0.333333  0.459372  1
  I  I67  1  0.333333  0.666667  0.259362  1
  I  I68  1  0.000000  0.000000  0.040613  1
  I  I69  1  0.666667  0.333333  0.379380  1
  I  I70  1  0.000000  0.000000  0.760619  1
  I  I71  1  0.333333  0.666667  0.499383  1
  I  I72  1  0.666667  0.333333  0.539388  1
  I  I73  1  0.333333  0.666667  0.339386  1
  I  I74  1  0.000000  0.000000  0.440611  1
