# generated using pymatgen
data_Na27Ca3Al5(P2O7)12
_symmetry_space_group_name_H-M   'P 1'
_cell_length_a   15.16375247
_cell_length_b   15.16853413
_cell_length_c   15.16655550
_cell_angle_alpha   115.87141013
_cell_angle_beta   115.86012789
_cell_angle_gamma   115.85696840
_symmetry_Int_Tables_number   1
_chemical_formula_structural   Na27Ca3Al5(P2O7)12
_chemical_formula_sum   'Na27 Ca3 Al5 P24 O84'
_cell_volume   1789.45610069
_cell_formula_units_Z   1
loop_
 _symmetry_equiv_pos_site_id
 _symmetry_equiv_pos_as_xyz
  1  'x, y, z'
loop_
 _atom_site_type_symbol
 _atom_site_label
 _atom_site_symmetry_multiplicity
 _atom_site_fract_x
 _atom_site_fract_y
 _atom_site_fract_z
 _atom_site_occupancy
  Na  Na0  1  0.074386  0.647716  0.832453  1
  Na  Na1  1  0.116878  0.827553  0.540748  1
  Na  Na2  1  0.175440  0.464260  0.886126  1
  Na  Na3  1  0.347658  0.893261  0.845404  1
  Na  Na4  1  0.171772  0.930425  0.354566  1
  Na  Na5  1  0.105546  0.155219  0.652264  1
  Na  Na6  1  0.156189  0.650583  0.103283  1
  Na  Na7  1  0.370180  0.564266  0.634934  1
  Na  Na8  1  0.676839  0.949260  0.904513  1
  Na  Na9  1  0.050945  0.096051  0.323484  1
  Na  Na10  1  0.350274  0.167889  0.926647  1
  Na  Na11  1  0.365659  0.629433  0.435095  1
  Na  Na12  1  0.097120  0.324142  0.049962  1
  Na  Na13  1  0.456489  0.878197  0.169029  1
  Na  Na14  1  0.434677  0.365289  0.628740  1
  Na  Na15  1  0.563017  0.634075  0.369299  1
  Na  Na16  1  0.906643  0.678525  0.950565  1
  Na  Na17  1  0.634426  0.370061  0.563515  1
  Na  Na18  1  0.642715  0.827671  0.068959  1
  Na  Na19  1  0.951741  0.905692  0.678059  1
  Na  Na20  1  0.322171  0.048429  0.094716  1
  Na  Na21  1  0.629652  0.435916  0.366194  1
  Na  Na22  1  0.848306  0.350562  0.894709  1
  Na  Na23  1  0.896690  0.847533  0.352278  1
  Na  Na24  1  0.831357  0.072483  0.647067  1
  Na  Na25  1  0.647707  0.102047  0.153085  1
  Na  Na26  1  0.931544  0.354926  0.172318  1
  Ca  Ca27  1  0.536404  0.113683  0.824638  1
  Ca  Ca28  1  0.833591  0.547066  0.124571  1
  Ca  Ca29  1  0.879592  0.170391  0.459760  1
  Al  Al30  1  0.500749  0.999176  0.497616  1
  Al  Al31  1  0.497679  0.499536  0.999574  1
  Al  Al32  1  0.000923  0.000276  0.000113  1
  Al  Al33  1  0.499976  0.499322  0.499276  1
  Al  Al34  1  0.002413  0.503157  0.503989  1
  P  P35  1  0.063457  0.775546  0.697800  1
  P  P36  1  0.303399  0.677595  0.834599  1
  P  P37  1  0.224161  0.301776  0.936244  1
  P  P38  1  0.259685  0.706570  0.553595  1
  P  P39  1  0.165951  0.696653  0.322654  1
  P  P40  1  0.292757  0.446516  0.739765  1
  P  P41  1  0.301681  0.936240  0.224331  1
  P  P42  1  0.139587  0.304931  0.280292  1
  P  P43  1  0.322642  0.166244  0.696407  1
  P  P44  1  0.445131  0.739742  0.292243  1
  P  P45  1  0.695114  0.719760  0.860347  1
  P  P46  1  0.719707  0.860290  0.695096  1
  P  P47  1  0.280873  0.139291  0.305187  1
  P  P48  1  0.305198  0.280873  0.139315  1
  P  P49  1  0.552547  0.259259  0.706112  1
  P  P50  1  0.676761  0.833595  0.303128  1
  P  P51  1  0.860649  0.694882  0.719150  1
  P  P52  1  0.697477  0.062445  0.774380  1
  P  P53  1  0.706244  0.553393  0.258949  1
  P  P54  1  0.833349  0.303521  0.677024  1
  P  P55  1  0.740559  0.293302  0.446737  1
  P  P56  1  0.774120  0.697592  0.062401  1
  P  P57  1  0.696747  0.323342  0.167031  1
  P  P58  1  0.937182  0.225474  0.302046  1
  O  O59  1  0.111810  0.897894  0.713710  1
  O  O60  1  0.178053  0.838632  0.847712  1
  O  O61  1  0.022463  0.655812  0.568553  1
  O  O62  1  0.238910  0.630235  0.878524  1
  O  O63  1  0.101426  0.285338  0.887768  1
  O  O64  1  0.198416  0.644110  0.704288  1
  O  O65  1  0.114461  0.755558  0.363850  1
  O  O66  1  0.094835  0.561042  0.453192  1
  O  O67  1  0.320234  0.857181  0.665180  1
  O  O68  1  0.466197  0.846330  0.969856  1
  O  O69  1  0.142441  0.333993  0.679174  1
  O  O70  1  0.152050  0.822130  0.161936  1
  O  O71  1  0.024589  0.533084  0.152238  1
  O  O72  1  0.343884  0.430689  0.977158  1
  O  O73  1  0.318940  0.575337  0.763382  1
  O  O74  1  0.161710  0.152282  0.822093  1
  O  O75  1  0.236137  0.681490  0.424351  1
  O  O76  1  0.375852  0.716268  0.627908  1
  O  O77  1  0.294715  0.802019  0.356069  1
  O  O78  1  0.100640  0.320581  0.368384  1
  O  O79  1  0.438764  0.545783  0.904265  1
  O  O80  1  0.284027  0.371878  0.624334  1
  O  O81  1  0.285682  0.888444  0.102063  1
  O  O82  1  0.102738  0.353352  0.216617  1
  O  O83  1  0.430766  0.977549  0.344370  1
  O  O84  1  0.356570  0.295170  0.802824  1
  O  O85  1  0.154039  0.028591  0.534067  1
  O  O86  1  0.646759  0.783409  0.897227  1
  O  O87  1  0.046557  0.137628  0.164226  1
  O  O88  1  0.631567  0.899525  0.679864  1
  O  O89  1  0.315316  0.425818  0.419557  1
  O  O90  1  0.547679  0.905304  0.440978  1
  O  O91  1  0.336326  0.683502  0.145908  1
  O  O92  1  0.373488  0.625467  0.285644  1
  O  O93  1  0.372315  0.121877  0.760705  1
  O  O94  1  0.679581  0.631553  0.899363  1
  O  O95  1  0.216747  0.103218  0.353625  1
  O  O96  1  0.574225  0.580449  0.684680  1
  O  O97  1  0.425400  0.237642  0.681962  1
  O  O98  1  0.580383  0.684741  0.574622  1
  O  O99  1  0.835437  0.953110  0.862385  1
  O  O100  1  0.138080  0.164641  0.047319  1
  O  O101  1  0.862432  0.835794  0.953416  1
  O  O102  1  0.164338  0.047078  0.138105  1
  O  O103  1  0.419290  0.315362  0.425922  1
  O  O104  1  0.576314  0.764334  0.319199  1
  O  O105  1  0.425579  0.419413  0.315346  1
  O  O106  1  0.783151  0.896812  0.646473  1
  O  O107  1  0.321283  0.368727  0.101338  1
  O  O108  1  0.637220  0.885855  0.244712  1
  O  O109  1  0.629879  0.376718  0.718294  1
  O  O110  1  0.662422  0.316507  0.856260  1
  O  O111  1  0.453688  0.094719  0.562630  1
  O  O112  1  0.684604  0.574458  0.580603  1
  O  O113  1  0.368790  0.101485  0.321620  1
  O  O114  1  0.952582  0.861883  0.835352  1
  O  O115  1  0.353975  0.217095  0.103678  1
  O  O116  1  0.847751  0.973854  0.465965  1
  O  O117  1  0.644779  0.705311  0.198138  1
  O  O118  1  0.568043  0.024567  0.658549  1
  O  O119  1  0.896312  0.646198  0.782990  1
  O  O120  1  0.711432  0.112226  0.897006  1
  O  O121  1  0.717045  0.628625  0.375765  1
  O  O122  1  0.560557  0.452039  0.093698  1
  O  O123  1  0.898582  0.678781  0.631154  1
  O  O124  1  0.704760  0.197262  0.644156  1
  O  O125  1  0.624320  0.283174  0.371191  1
  O  O126  1  0.762755  0.318509  0.575067  1
  O  O127  1  0.839060  0.847882  0.178046  1
  O  O128  1  0.681681  0.424513  0.236698  1
  O  O129  1  0.658228  0.568188  0.024359  1
  O  O130  1  0.969770  0.464955  0.845905  1
  O  O131  1  0.847702  0.178107  0.839265  1
  O  O132  1  0.852711  0.659898  0.312172  1
  O  O133  1  0.534450  0.152753  0.024778  1
  O  O134  1  0.687676  0.147383  0.339701  1
  O  O135  1  0.905503  0.439300  0.547133  1
  O  O136  1  0.878327  0.239443  0.628764  1
  O  O137  1  0.802753  0.355670  0.294168  1
  O  O138  1  0.896611  0.711411  0.111843  1
  O  O139  1  0.755595  0.365961  0.115067  1
  O  O140  1  0.975451  0.341853  0.431223  1
  O  O141  1  0.822113  0.161321  0.152046  1
  O  O142  1  0.887958  0.103018  0.287889  1
