# generated using pymatgen
data_Zn(HO)2
_symmetry_space_group_name_H-M   'P 1'
_cell_length_a   5.45917428
_cell_length_b   6.37971902
_cell_length_c   5.97194199
_cell_angle_alpha   90.00000000
_cell_angle_beta   90.00000000
_cell_angle_gamma   90.00000000
_symmetry_Int_Tables_number   1
_chemical_formula_structural   Zn(HO)2
_chemical_formula_sum   'Zn4 H8 O8'
_cell_volume   207.99078361
_cell_formula_units_Z   4
loop_
 _symmetry_equiv_pos_site_id
 _symmetry_equiv_pos_as_xyz
  1  'x, y, z'
loop_
 _atom_site_type_symbol
 _atom_site_label
 _atom_site_symmetry_multiplicity
 _atom_site_fract_x
 _atom_site_fract_y
 _atom_site_fract_z
 _atom_site_occupancy
  Zn  Zn0  1  0.866796  0.539113  0.204302  1
  Zn  Zn1  1  0.633204  0.460887  0.704302  1
  Zn  Zn2  1  0.366796  0.960887  0.795698  1
  Zn  Zn3  1  0.133204  0.039113  0.295698  1
  H  H4  1  0.416548  0.470654  0.349738  1
  H  H5  1  0.083452  0.529346  0.849738  1
  H  H6  1  0.916548  0.029346  0.650262  1
  H  H7  1  0.583452  0.970654  0.150262  1
  H  H8  1  0.934333  0.848295  0.976386  1
  H  H9  1  0.565667  0.151705  0.476386  1
  H  H10  1  0.434333  0.651705  0.023614  1
  H  H11  1  0.065667  0.348295  0.523614  1
  O  O12  1  0.567189  0.549553  0.386055  1
  O  O13  1  0.932811  0.450447  0.886055  1
  O  O14  1  0.067189  0.950447  0.613945  1
  O  O15  1  0.432811  0.049553  0.113945  1
  O  O16  1  0.898335  0.850957  0.136806  1
  O  O17  1  0.601665  0.149043  0.636806  1
  O  O18  1  0.398335  0.649043  0.863194  1
  O  O19  1  0.101665  0.350957  0.363194  1
