# generated using pymatgen
data_Ca2AlH10BrO8
_symmetry_space_group_name_H-M   'P 1'
_cell_length_a   9.02709293
_cell_length_b   9.00796088
_cell_length_c   17.96214962
_cell_angle_alpha   37.37409053
_cell_angle_beta   37.30409547
_cell_angle_gamma   37.53175541
_symmetry_Int_Tables_number   1
_chemical_formula_structural   Ca2AlH10BrO8
_chemical_formula_sum   'Ca4 Al2 H20 Br2 O16'
_cell_volume   483.21031158
_cell_formula_units_Z   2
loop_
 _symmetry_equiv_pos_site_id
 _symmetry_equiv_pos_as_xyz
  1  'x, y, z'
loop_
 _atom_site_type_symbol
 _atom_site_label
 _atom_site_symmetry_multiplicity
 _atom_site_fract_x
 _atom_site_fract_y
 _atom_site_fract_z
 _atom_site_occupancy
  Ca  Ca0  1  0.308467  0.307334  0.154128  1
  Ca  Ca1  1  0.309306  0.307765  0.653643  1
  Ca  Ca2  1  0.691533  0.692666  0.345872  1
  Ca  Ca3  1  0.690694  0.692235  0.846357  1
  Al  Al4  1  0.999742  0.999678  0.000032  1
  Al  Al5  1  0.000258  0.000322  0.499968  1
  H  H6  1  0.273419  0.292131  0.004413  1
  H  H7  1  0.285558  0.014307  0.136985  1
  H  H8  1  0.214756  0.731637  0.139491  1
  H  H9  1  0.269874  0.222869  0.365540  1
  H  H10  1  0.732348  0.272733  0.109882  1
  H  H11  1  0.012027  0.263352  0.649639  1
  H  H12  1  0.266269  0.296220  0.505728  1
  H  H13  1  0.267652  0.727267  0.390118  1
  H  H14  1  0.730126  0.777131  0.134460  1
  H  H15  1  0.785244  0.268363  0.360509  1
  H  H16  1  0.222174  0.732628  0.634889  1
  H  H17  1  0.276234  0.216907  0.865716  1
  H  H18  1  0.729042  0.268759  0.613514  1
  H  H19  1  0.714442  0.985693  0.363015  1
  H  H20  1  0.726581  0.707869  0.495587  1
  H  H21  1  0.270958  0.731241  0.886486  1
  H  H22  1  0.723766  0.783093  0.634284  1
  H  H23  1  0.777826  0.267372  0.865111  1
  H  H24  1  0.733731  0.703780  0.994272  1
  H  H25  1  0.987973  0.736648  0.850361  1
  Br  Br26  1  0.500000  0.500000  0.250000  1
  Br  Br27  1  0.500000  0.500000  0.750000  1
  O  O28  1  0.220711  0.205628  0.100860  1
  O  O29  1  0.098600  0.730818  0.145109  1
  O  O30  1  0.289785  0.100031  0.365084  1
  O  O31  1  0.729586  0.289042  0.050326  1
  O  O32  1  0.201383  0.220815  0.602724  1
  O  O33  1  0.270414  0.710958  0.449674  1
  O  O34  1  0.710215  0.899969  0.134916  1
  O  O35  1  0.901400  0.269182  0.354891  1
  O  O36  1  0.097806  0.732062  0.645916  1
  O  O37  1  0.289889  0.098732  0.865223  1
  O  O38  1  0.732270  0.290559  0.549620  1
  O  O39  1  0.779289  0.794372  0.399140  1
  O  O40  1  0.267730  0.709441  0.950380  1
  O  O41  1  0.710111  0.901268  0.634777  1
  O  O42  1  0.902194  0.267938  0.854084  1
  O  O43  1  0.798617  0.779185  0.897276  1
