# generated using pymatgen
data_Al(HO)3
_symmetry_space_group_name_H-M   'P 1'
_cell_length_a   5.18606289
_cell_length_b   5.13341722
_cell_length_c   4.85976841
_cell_angle_alpha   89.20851054
_cell_angle_beta   90.23874231
_cell_angle_gamma   121.50436721
_symmetry_Int_Tables_number   1
_chemical_formula_structural   Al(HO)3
_chemical_formula_sum   'Al2 H6 O6'
_cell_volume   110.29636351
_cell_formula_units_Z   2
loop_
 _symmetry_equiv_pos_site_id
 _symmetry_equiv_pos_as_xyz
  1  'x, y, z'
loop_
 _atom_site_type_symbol
 _atom_site_label
 _atom_site_symmetry_multiplicity
 _atom_site_fract_x
 _atom_site_fract_y
 _atom_site_fract_z
 _atom_site_occupancy
  Al  Al0  1  0.348354  0.680575  0.986917  1
  Al  Al1  1  0.680513  0.356450  0.987793  1
  H  H2  1  0.604870  0.019959  0.587065  1
  H  H3  1  0.206098  0.212690  0.723222  1
  H  H4  1  0.009568  0.586575  0.589260  1
  H  H5  1  0.213728  0.988209  0.283025  1
  H  H6  1  0.568308  0.570608  0.395022  1
  H  H7  1  0.965912  0.169644  0.179070  1
  O  O8  1  0.644772  0.023294  0.784094  1
  O  O9  1  0.395053  0.400459  0.766992  1
  O  O10  1  0.018067  0.653307  0.777777  1
  O  O11  1  0.397236  0.006241  0.212821  1
  O  O12  1  0.644284  0.643128  0.206494  1
  O  O13  1  0.007968  0.376881  0.203255  1
