# generated using pymatgen
data_CaAl2Si2(H2O5)2
_symmetry_space_group_name_H-M   'P 1'
_cell_length_a   5.58774945
_cell_length_b   5.58774945
_cell_length_c   14.21333180
_cell_angle_alpha   90.00000000
_cell_angle_beta   90.00000000
_cell_angle_gamma   64.48284037
_symmetry_Int_Tables_number   1
_chemical_formula_structural   CaAl2Si2(H2O5)2
_chemical_formula_sum   'Ca2 Al4 Si4 H8 O20'
_cell_volume   400.49392216
_cell_formula_units_Z   2
loop_
 _symmetry_equiv_pos_site_id
 _symmetry_equiv_pos_as_xyz
  1  'x, y, z'
loop_
 _atom_site_type_symbol
 _atom_site_label
 _atom_site_symmetry_multiplicity
 _atom_site_fract_x
 _atom_site_fract_y
 _atom_site_fract_z
 _atom_site_occupancy
  Ca  Ca0  1  0.088431  0.088431  0.250000  1
  Ca  Ca1  1  0.911569  0.911569  0.750000  1
  Al  Al2  1  0.000000  0.500000  0.500000  1
  Al  Al3  1  0.500000  0.000000  0.500000  1
  Al  Al4  1  0.000000  0.500000  0.000000  1
  Al  Al5  1  0.500000  0.000000  0.000000  1
  Si  Si6  1  0.735056  0.735056  0.352348  1
  Si  Si7  1  0.264944  0.264944  0.647652  1
  Si  Si8  1  0.735056  0.735056  0.147652  1
  Si  Si9  1  0.264944  0.264944  0.852348  1
  H  H10  1  0.426962  0.426962  0.306377  1
  H  H11  1  0.573038  0.573038  0.693623  1
  H  H12  1  0.426962  0.426962  0.193623  1
  H  H13  1  0.573038  0.573038  0.806377  1
  H  H14  1  0.286511  0.286511  0.388865  1
  H  H15  1  0.713489  0.713489  0.611135  1
  H  H16  1  0.286511  0.286511  0.111135  1
  H  H17  1  0.713489  0.713489  0.888865  1
  O  O18  1  0.820264  0.820264  0.250000  1
  O  O19  1  0.179736  0.179736  0.750000  1
  O  O20  1  0.881964  0.416262  0.371420  1
  O  O21  1  0.583738  0.118036  0.628580  1
  O  O22  1  0.881964  0.416262  0.128580  1
  O  O23  1  0.583738  0.118036  0.871420  1
  O  O24  1  0.118036  0.583738  0.628580  1
  O  O25  1  0.416262  0.881964  0.371420  1
  O  O26  1  0.118036  0.583738  0.871420  1
  O  O27  1  0.416262  0.881964  0.128580  1
  O  O28  1  0.850680  0.850680  0.440408  1
  O  O29  1  0.149320  0.149320  0.559592  1
  O  O30  1  0.850680  0.850680  0.059592  1
  O  O31  1  0.149320  0.149320  0.940408  1
  O  O32  1  0.346417  0.346417  0.444594  1
  O  O33  1  0.653583  0.653583  0.555406  1
  O  O34  1  0.346417  0.346417  0.055406  1
  O  O35  1  0.653583  0.653583  0.944594  1
  O  O36  1  0.367455  0.367455  0.250000  1
  O  O37  1  0.632545  0.632545  0.750000  1
