# generated using pymatgen
data_Na4MnAl3Si3O16
_symmetry_space_group_name_H-M   'P 1'
_cell_length_a   9.26924543
_cell_length_b   9.16289355
_cell_length_c   9.21392331
_cell_angle_alpha   89.97985319
_cell_angle_beta   89.99964872
_cell_angle_gamma   90.00007499
_symmetry_Int_Tables_number   1
_chemical_formula_structural   Na4MnAl3Si3O16
_chemical_formula_sum   'Na8 Mn2 Al6 Si6 O32'
_cell_volume   782.56710606
_cell_formula_units_Z   2
loop_
 _symmetry_equiv_pos_site_id
 _symmetry_equiv_pos_as_xyz
  1  'x, y, z'
loop_
 _atom_site_type_symbol
 _atom_site_label
 _atom_site_symmetry_multiplicity
 _atom_site_fract_x
 _atom_site_fract_y
 _atom_site_fract_z
 _atom_site_occupancy
  Na  Na0  1  0.225441  0.226921  0.227845  1
  Na  Na1  1  0.225442  0.773079  0.772153  1
  Na  Na2  1  0.273780  0.275048  0.723286  1
  Na  Na3  1  0.273779  0.724953  0.276714  1
  Na  Na4  1  0.729189  0.271414  0.272070  1
  Na  Na5  1  0.729189  0.728586  0.727929  1
  Na  Na6  1  0.779027  0.223220  0.776507  1
  Na  Na7  1  0.779028  0.776781  0.223492  1
  Mn  Mn8  1  0.970217  0.000004  0.000019  1
  Mn  Mn9  1  0.519324  0.499993  0.500000  1
  Al  Al10  1  0.998127  0.249354  0.499183  1
  Al  Al11  1  0.998127  0.750647  0.500817  1
  Al  Al12  1  0.250490  0.500000  -0.000001  1
  Al  Al13  1  0.498276  0.999469  0.749321  1
  Al  Al14  1  0.498277  0.000532  0.250679  1
  Al  Al15  1  0.750554  0.500000  0.000000  1
  Si  Si16  1  0.001163  0.500053  0.248857  1
  Si  Si17  1  0.001164  0.499947  0.751143  1
  Si  Si18  1  0.248725  0.000001  0.500000  1
  Si  Si19  1  0.500212  0.749720  0.001281  1
  Si  Si20  1  0.500212  0.250281  0.998720  1
  Si  Si21  1  0.746749  0.000000  0.499999  1
  O  O22  1  0.036631  0.643772  0.348014  1
  O  O23  1  0.036631  0.356228  0.651986  1
  O  O24  1  0.147907  0.463910  0.156037  1
  O  O25  1  0.147907  0.536091  0.843963  1
  O  O26  1  0.151294  0.143892  0.462745  1
  O  O27  1  0.151293  0.856107  0.537256  1
  O  O28  1  0.342972  0.035274  0.645951  1
  O  O29  1  0.342972  0.964725  0.354049  1
  O  O30  1  0.357220  0.347477  0.960807  1
  O  O31  1  0.357220  0.652523  0.039194  1
  O  O32  1  0.419201  0.354826  0.505172  1
  O  O33  1  0.419201  0.645177  0.494828  1
  O  O34  1  0.460050  0.153998  0.143079  1
  O  O35  1  0.460050  0.846002  0.856920  1
  O  O36  1  0.537083  0.154381  0.853618  1
  O  O37  1  0.537083  0.845619  0.146382  1
  O  O38  1  0.619813  0.496644  0.356966  1
  O  O39  1  0.619810  0.503356  0.643031  1
  O  O40  1  0.645514  0.344784  0.035511  1
  O  O41  1  0.645515  0.655216  0.964488  1
  O  O42  1  0.648493  0.038954  0.358452  1
  O  O43  1  0.648493  0.961046  0.641550  1
  O  O44  1  0.843618  0.145089  0.537198  1
  O  O45  1  0.843618  0.854911  0.462803  1
  O  O46  1  0.860826  0.460903  0.850382  1
  O  O47  1  0.860826  0.539098  0.149617  1
  O  O48  1  0.868459  0.958846  0.862939  1
  O  O49  1  0.868464  0.041151  0.137050  1
  O  O50  1  0.963918  0.353376  0.343158  1
  O  O51  1  0.963919  0.646624  0.656842  1
  O  O52  1  0.070652  0.138482  0.959158  1
  O  O53  1  0.070650  0.861519  0.040838  1
