# generated using pymatgen
data_Cs4Sb14S23
_symmetry_space_group_name_H-M   'P 1'
_cell_length_a   12.24768176
_cell_length_b   14.39536801
_cell_length_c   15.08294576
_cell_angle_alpha   93.56289930
_cell_angle_beta   94.56028437
_cell_angle_gamma   110.06878904
_symmetry_Int_Tables_number   1
_chemical_formula_structural   Cs4Sb14S23
_chemical_formula_sum   'Cs8 Sb28 S46'
_cell_volume   2478.51468390
_cell_formula_units_Z   2
loop_
 _symmetry_equiv_pos_site_id
 _symmetry_equiv_pos_as_xyz
  1  'x, y, z'
loop_
 _atom_site_type_symbol
 _atom_site_label
 _atom_site_symmetry_multiplicity
 _atom_site_fract_x
 _atom_site_fract_y
 _atom_site_fract_z
 _atom_site_occupancy
  Cs  Cs0  1  0.356377  0.266863  0.021163  1
  Cs  Cs1  1  0.840508  0.240232  0.007514  1
  Cs  Cs2  1  0.643623  0.733137  0.978838  1
  Cs  Cs3  1  0.245610  0.972484  0.718438  1
  Cs  Cs4  1  0.261606  0.004906  0.431319  1
  Cs  Cs5  1  0.738393  0.995094  0.568675  1
  Cs  Cs6  1  0.754388  0.027517  0.281555  1
  Cs  Cs7  1  0.159492  0.759768  0.992487  1
  Sb  Sb8  1  0.605969  0.613887  0.289527  1
  Sb  Sb9  1  0.415307  0.706135  0.714588  1
  Sb  Sb10  1  0.585862  0.234754  0.780666  1
  Sb  Sb11  1  0.910226  0.773930  0.226404  1
  Sb  Sb12  1  0.394548  0.027899  0.193132  1
  Sb  Sb13  1  0.089775  0.226073  0.773599  1
  Sb  Sb14  1  0.088921  0.304575  0.279326  1
  Sb  Sb15  1  0.414138  0.765249  0.219335  1
  Sb  Sb16  1  0.890283  0.372359  0.706812  1
  Sb  Sb17  1  0.884524  0.389041  0.408441  1
  Sb  Sb18  1  0.764672  0.473742  0.119078  1
  Sb  Sb19  1  0.109718  0.627640  0.293188  1
  Sb  Sb20  1  0.110544  0.044003  0.194937  1
  Sb  Sb21  1  0.619736  0.621212  0.587828  1
  Sb  Sb22  1  0.404796  0.716993  0.459570  1
  Sb  Sb23  1  0.584693  0.293863  0.285414  1
  Sb  Sb24  1  0.903816  0.717247  0.467058  1
  Sb  Sb25  1  0.115481  0.610963  0.591558  1
  Sb  Sb26  1  0.235328  0.526258  0.880922  1
  Sb  Sb27  1  0.889455  0.955997  0.805063  1
  Sb  Sb28  1  0.745093  0.522752  0.884403  1
  Sb  Sb29  1  0.394029  0.386112  0.710473  1
  Sb  Sb30  1  0.605452  0.972101  0.806867  1
  Sb  Sb31  1  0.380262  0.378785  0.412173  1
  Sb  Sb32  1  0.595202  0.283005  0.540430  1
  Sb  Sb33  1  0.096186  0.282756  0.532942  1
  Sb  Sb34  1  0.911078  0.695425  0.720674  1
  Sb  Sb35  1  0.254909  0.477248  0.115599  1
  S  S36  1  0.384018  0.257296  0.527797  1
  S  S37  1  0.408138  0.548241  0.575093  1
  S  S38  1  0.627698  0.744411  0.722821  1
  S  S39  1  0.885374  0.256185  0.516456  1
  S  S40  1  0.557435  0.166243  0.151017  1
  S  S41  1  0.903472  0.537371  0.575855  1
  S  S42  1  0.421143  0.503462  0.849951  1
  S  S43  1  0.919866  0.823835  0.614443  1
  S  S44  1  0.615978  0.742697  0.472203  1
  S  S45  1  0.766368  0.978971  0.924064  1
  S  S46  1  0.442566  0.833757  0.848982  1
  S  S47  1  0.578856  0.496537  0.150048  1
  S  S48  1  0.119557  0.716224  0.737212  1
  S  S49  1  0.934552  0.866974  0.378411  1
  S  S50  1  0.897854  0.575132  0.298796  1
  S  S51  1  0.452806  0.867754  0.368391  1
  S  S52  1  0.856378  0.618912  0.038757  1
  S  S53  1  0.465472  0.906792  0.118350  1
  S  S54  1  0.614188  0.767652  0.208909  1
  S  S55  1  0.411952  0.826460  0.602313  1
  S  S56  1  0.350010  0.621596  0.034720  1
  S  S57  1  0.143621  0.381088  0.961243  1
  S  S58  1  0.065455  0.133032  0.621591  1
  S  S59  1  0.588046  0.173538  0.397687  1
  S  S60  1  0.061307  0.182206  0.137805  1
  S  S61  1  0.882441  0.207994  0.775608  1
  S  S62  1  0.921529  0.919087  0.136468  1
  S  S63  1  0.096530  0.462631  0.424144  1
  S  S64  1  0.102146  0.424868  0.701204  1
  S  S65  1  0.938692  0.817793  0.862195  1
  S  S66  1  0.078470  0.080913  0.863531  1
  S  S67  1  0.385812  0.232349  0.791093  1
  S  S68  1  0.233632  0.021029  0.075936  1
  S  S69  1  0.605795  0.432843  0.705360  1
  S  S70  1  0.547194  0.132246  0.631611  1
  S  S71  1  0.591860  0.451756  0.424908  1
  S  S72  1  0.534529  0.093209  0.881649  1
  S  S73  1  0.114631  0.743817  0.483544  1
  S  S74  1  0.080133  0.176165  0.385558  1
  S  S75  1  0.078942  0.513148  0.149711  1
  S  S76  1  0.117560  0.792007  0.224392  1
  S  S77  1  0.394203  0.567155  0.294639  1
  S  S78  1  0.649989  0.378404  0.965280  1
  S  S79  1  0.921058  0.486853  0.850290  1
  S  S80  1  0.372301  0.255589  0.277178  1
  S  S81  1  0.880444  0.283777  0.262789  1
