# generated using pymatgen
data_KMg2As2H31O23
_symmetry_space_group_name_H-M   'P 1'
_cell_length_a   15.89570575
_cell_length_b   8.37163208
_cell_length_c   8.49967387
_cell_angle_alpha   88.24645736
_cell_angle_beta   85.28015412
_cell_angle_gamma   89.88803962
_symmetry_Int_Tables_number   1
_chemical_formula_structural   KMg2As2H31O23
_chemical_formula_sum   'K2 Mg4 As4 H62 O46'
_cell_volume   1126.71349190
_cell_formula_units_Z   2
loop_
 _symmetry_equiv_pos_site_id
 _symmetry_equiv_pos_as_xyz
  1  'x, y, z'
loop_
 _atom_site_type_symbol
 _atom_site_label
 _atom_site_symmetry_multiplicity
 _atom_site_fract_x
 _atom_site_fract_y
 _atom_site_fract_z
 _atom_site_occupancy
  K  K0  1  0.313829  0.609062  0.722705  1
  K  K1  1  0.686171  0.390938  0.277295  1
  Mg  Mg2  1  0.000000  0.500000  0.500000  1
  Mg  Mg3  1  0.377779  0.452606  0.159756  1
  Mg  Mg4  1  0.500000  0.500000  0.500000  1
  Mg  Mg5  1  0.622220  0.547394  0.840244  1
  As  As6  1  0.387015  0.802285  0.105828  1
  As  As7  1  0.085676  0.133516  0.959125  1
  As  As8  1  0.914324  0.866484  0.040875  1
  As  As9  1  0.612985  0.197715  0.894172  1
  H  H10  1  0.000000  0.000000  0.000000  1
  H  H11  1  0.053458  0.310851  0.186929  1
  H  H12  1  0.919597  0.234161  0.356767  1
  H  H13  1  0.080403  0.765839  0.643233  1
  H  H14  1  0.070087  -0.033012  0.521015  1
  H  H15  1  0.828507  0.650768  0.410452  1
  H  H16  1  0.079068  0.949878  0.339097  1
  H  H17  1  0.044110  0.259909  0.667706  1
  H  H18  1  0.209979  0.241563  0.254420  1
  H  H19  1  0.080111  0.569543  0.838760  1
  H  H20  1  0.109700  0.611647  0.003484  1
  H  H21  1  0.282661  0.015357  0.785754  1
  H  H22  1  0.123980  0.257345  0.462801  1
  H  H23  1  0.200822  0.811868  0.413594  1
  H  H24  1  0.195012  0.843276  0.043233  1
  H  H25  1  0.241590  0.231361  0.315100  1
  H  H26  1  0.336894  0.993460  0.288433  1
  H  H27  1  0.191342  0.855463  0.652270  1
  H  H28  1  0.145509  0.767883  0.809156  1
  H  H29  1  0.262341  0.300435  0.821702  1
  H  H30  1  0.337859  0.310122  0.685869  1
  H  H31  1  0.290265  0.726774  0.390178  1
  H  H32  1  0.208304  0.981121  0.150644  1
  H  H33  1  0.393234  0.250063  0.925155  1
  H  H34  1  0.352482  0.138024  0.073216  1
  H  H35  1  0.316166  0.955968  0.804919  1
  H  H36  1  0.527523  0.678441  0.279262  1
  H  H37  1  0.399826  0.978062  0.551181  1
  H  H38  1  0.464812  0.927824  0.825124  1
  H  H39  1  0.451700  0.037675  0.392114  1
  H  H40  1  0.500000  0.000000  0.000000  1
  H  H41  1  0.508057  0.219063  0.288707  1
  H  H42  1  0.371361  0.223388  0.421928  1
  H  H43  1  0.628639  0.776612  0.578072  1
  H  H44  1  0.491943  0.780937  0.711293  1
  H  H45  1  0.548300  0.962325  0.607886  1
  H  H46  1  0.535188  0.072176  0.174876  1
  H  H47  1  0.600174  0.021938  0.448819  1
  H  H48  1  0.472477  0.321559  0.720738  1
  H  H49  1  0.683834  0.044032  0.195081  1
  H  H50  1  0.647518  0.861976  0.926784  1
  H  H51  1  0.606766  0.749937  0.074845  1
  H  H52  1  0.791696  0.018879  0.849356  1
  H  H53  1  0.709735  0.273226  0.609822  1
  H  H54  1  0.662141  0.689878  0.314131  1
  H  H55  1  0.737659  0.699565  0.178298  1
  H  H56  1  0.854491  0.232117  0.190844  1
  H  H57  1  0.808658  0.144537  0.347730  1
  H  H58  1  0.663106  0.006540  0.711567  1
  H  H59  1  0.758410  0.768639  0.684900  1
  H  H60  1  0.804988  0.156724  0.956767  1
  H  H61  1  0.799178  0.188132  0.586406  1
  H  H62  1  0.876020  0.742655  0.537199  1
  H  H63  1  0.717339  0.984643  0.214246  1
  H  H64  1  0.890300  0.388353  0.996516  1
  H  H65  1  0.919889  0.430457  0.161240  1
  H  H66  1  0.790021  0.758437  0.745580  1
  H  H67  1  0.955890  0.740091  0.332294  1
  H  H68  1  0.920932  0.050122  0.660903  1
  H  H69  1  0.171493  0.349232  0.589548  1
  H  H70  1  0.929913  0.033012  0.478985  1
  H  H71  1  0.946542  0.689149  0.813071  1
  O  O72  1  0.116751  0.344854  0.538930  1
  O  O73  1  -0.006695  0.218524  0.734808  1
  O  O74  1  0.999716  0.413508  0.282832  1
  O  O75  1  0.903913  0.776179  0.861402  1
  O  O76  1  0.007332  0.284613  0.889184  1
  O  O77  1  0.131349  0.596482  0.894029  1
  O  O78  1  0.966294  0.294468  0.409650  1
  O  O79  1  0.106927  -0.004546  0.427011  1
  O  O80  1  0.459556  0.889355  0.716503  1
  O  O81  1  0.162605  0.926328  0.100934  1
  O  O82  1  0.142068  0.860541  0.729528  1
  O  O83  1  0.380804  0.677531  0.273267  1
  O  O84  1  0.323344  0.979505  0.176703  1
  O  O85  1  0.272556  0.294093  0.707287  1
  O  O86  1  0.292983  0.716519  0.007745  1
  O  O87  1  0.393556  0.030843  0.448071  1
  O  O88  1  0.633340  0.663907  0.622440  1
  O  O89  1  0.361817  0.249760  0.027662  1
  O  O90  1  0.462791  0.533013  0.979509  1
  O  O91  1  0.712630  0.454697  -0.032671  1
  O  O92  1  0.542474  0.629686  0.676419  1
  O  O93  1  0.570604  0.632107  0.342852  1
  O  O94  1  0.241807  0.748278  0.469594  1
  O  O95  1  0.758193  0.251722  0.530406  1
  O  O96  1  0.429396  0.367893  0.657148  1
  O  O97  1  0.457526  0.370314  0.323581  1
  O  O98  1  0.287370  0.545303  0.032671  1
  O  O99  1  0.537209  0.466987  0.020491  1
  O  O100  1  0.638183  0.750240  -0.027662  1
  O  O101  1  0.366660  0.336093  0.377560  1
  O  O102  1  0.606444  0.969157  0.551929  1
  O  O103  1  0.707017  0.283481  -0.007745  1
  O  O104  1  0.727444  0.705907  0.292713  1
  O  O105  1  0.676656  0.020495  0.823297  1
  O  O106  1  0.619196  0.322469  0.726733  1
  O  O107  1  0.857932  0.139459  0.270472  1
  O  O108  1  0.837395  0.073672  0.899066  1
  O  O109  1  0.540444  0.110645  0.283497  1
  O  O110  1  0.893073  0.004546  0.572989  1
  O  O111  1  0.033706  0.705532  0.590350  1
  O  O112  1  0.868651  0.403518  0.105971  1
  O  O113  1  0.992668  0.715387  0.110816  1
  O  O114  1  0.096087  0.223821  0.138598  1
  O  O115  1  0.000284  0.586492  0.717168  1
  O  O116  1  0.006695  0.781476  0.265192  1
  O  O117  1  0.883249  0.655146  0.461070  1
