# generated using pymatgen
data_K(MoO2)4
_symmetry_space_group_name_H-M   'P 1'
_cell_length_a   6.43560422
_cell_length_b   10.49953541
_cell_length_c   10.50884728
_cell_angle_alpha   90.03170676
_cell_angle_beta   90.00000000
_cell_angle_gamma   90.00000000
_symmetry_Int_Tables_number   1
_chemical_formula_structural   K(MoO2)4
_chemical_formula_sum   'K4 Mo16 O32'
_cell_volume   710.09168070
_cell_formula_units_Z   4
loop_
 _symmetry_equiv_pos_site_id
 _symmetry_equiv_pos_as_xyz
  1  'x, y, z'
loop_
 _atom_site_type_symbol
 _atom_site_label
 _atom_site_symmetry_multiplicity
 _atom_site_fract_x
 _atom_site_fract_y
 _atom_site_fract_z
 _atom_site_occupancy
  O  O0  1  0.127588  0.792852  0.414513  1
  O  O1  1  0.127588  0.707148  0.085487  1
  O  O2  1  0.872412  0.207148  0.585487  1
  O  O3  1  0.872412  0.292852  0.914513  1
  O  O4  1  0.362878  0.208198  0.586111  1
  O  O5  1  0.362878  0.291802  0.913889  1
  O  O6  1  0.637122  0.791802  0.413889  1
  O  O7  1  0.637122  0.708198  0.086111  1
  O  O8  1  0.118257  0.051359  0.406164  1
  O  O9  1  0.118257  0.448642  0.093836  1
  O  O10  1  0.881743  0.948642  0.593836  1
  O  O11  1  0.881743  0.551358  0.906164  1
  O  O12  1  0.375151  0.942780  0.606341  1
  O  O13  1  0.375151  0.557220  0.893659  1
  O  O14  1  0.624849  0.057220  0.393659  1
  O  O15  1  0.624849  0.442780  0.106341  1
  O  O16  1  0.128104  0.084824  0.792789  1
  O  O17  1  0.128104  0.415176  0.707211  1
  O  O18  1  0.871896  0.915176  0.207211  1
  O  O19  1  0.871896  0.584824  0.292789  1
  O  O20  1  0.625288  0.106552  0.056866  1
  O  O21  1  0.625288  0.393448  0.443134  1
  O  O22  1  0.374712  0.893448  0.943134  1
  O  O23  1  0.374712  0.606552  0.556866  1
  O  O24  1  0.118610  0.094007  0.051071  1
  O  O25  1  0.118610  0.405993  0.448929  1
  O  O26  1  0.881390  0.905993  0.948929  1
  O  O27  1  0.881390  0.594007  0.551071  1
  O  O28  1  0.637573  0.085516  0.791761  1
  O  O29  1  0.637573  0.414484  0.708239  1
  O  O30  1  0.362427  0.914484  0.208239  1
  O  O31  1  0.362427  0.585516  0.291761  1
  K  K32  1  0.863849  0.250000  0.250000  1
  K  K33  1  0.136151  0.750000  0.750000  1
  K  K34  1  0.367400  0.250000  0.250000  1
  K  K35  1  0.632600  0.750000  0.750000  1
  Mo  Mo36  1  0.380670  0.922548  0.405576  1
  Mo  Mo37  1  0.380670  0.577452  0.094424  1
  Mo  Mo38  1  0.619330  0.077452  0.594424  1
  Mo  Mo39  1  0.619330  0.422548  0.905576  1
  Mo  Mo40  1  0.127674  0.082528  0.603276  1
  Mo  Mo41  1  0.127674  0.417472  0.896724  1
  Mo  Mo42  1  0.872326  0.917472  0.396724  1
  Mo  Mo43  1  0.872326  0.582528  0.103276  1
  Mo  Mo44  1  0.618912  0.594292  0.422390  1
  Mo  Mo45  1  0.618912  0.905708  0.077610  1
  Mo  Mo46  1  0.381088  0.405708  0.577610  1
  Mo  Mo47  1  0.381088  0.094292  0.922390  1
  Mo  Mo48  1  0.127162  0.603185  0.417282  1
  Mo  Mo49  1  0.127162  0.896815  0.082718  1
  Mo  Mo50  1  0.872838  0.396815  0.582718  1
  Mo  Mo51  1  0.872838  0.103185  0.917282  1
