# generated using pymatgen
data_SnPSe3
_symmetry_space_group_name_H-M   'P 1'
_cell_length_a   7.77469512
_cell_length_b   7.72581255
_cell_length_c   10.57647729
_cell_angle_alpha   90.00000000
_cell_angle_beta   107.53065389
_cell_angle_gamma   90.00000000
_symmetry_Int_Tables_number   1
_chemical_formula_structural   SnPSe3
_chemical_formula_sum   'Sn4 P4 Se12'
_cell_volume   605.77974504
_cell_formula_units_Z   4
loop_
 _symmetry_equiv_pos_site_id
 _symmetry_equiv_pos_as_xyz
  1  'x, y, z'
loop_
 _atom_site_type_symbol
 _atom_site_label
 _atom_site_symmetry_multiplicity
 _atom_site_fract_x
 _atom_site_fract_y
 _atom_site_fract_z
 _atom_site_occupancy
  Sn  Sn0  1  0.021058  0.878702  0.250214  1
  Sn  Sn1  1  0.478942  0.378702  0.249786  1
  Sn  Sn2  1  0.521058  0.621298  0.750214  1
  Sn  Sn3  1  0.978942  0.121298  0.749786  1
  P  P4  1  0.029100  0.631595  0.052382  1
  P  P5  1  0.470900  0.131595  0.447618  1
  P  P6  1  0.529100  0.868405  0.552382  1
  P  P7  1  0.970900  0.368405  0.947618  1
  Se  Se8  1  0.212900  0.331010  0.665587  1
  Se  Se9  1  0.169475  0.187069  0.078704  1
  Se  Se10  1  0.184890  0.214827  0.451523  1
  Se  Se11  1  0.315110  0.714827  0.048477  1
  Se  Se12  1  0.330525  0.687069  0.421296  1
  Se  Se13  1  0.287100  0.831010  0.834413  1
  Se  Se14  1  0.712900  0.168990  0.165587  1
  Se  Se15  1  0.669475  0.312931  0.578704  1
  Se  Se16  1  0.684890  0.285173  0.951523  1
  Se  Se17  1  0.815110  0.785173  0.548477  1
  Se  Se18  1  0.830525  0.812931  0.921296  1
  Se  Se19  1  0.787100  0.668990  0.334413  1
