# generated using pymatgen
data_NaAlSi2H2O7
_symmetry_space_group_name_H-M   'P 1'
_cell_length_a   12.04855359
_cell_length_b   12.04836330
_cell_length_c   12.03500849
_cell_angle_alpha   110.38514244
_cell_angle_beta   108.61883648
_cell_angle_gamma   109.46359594
_symmetry_Int_Tables_number   1
_chemical_formula_structural   NaAlSi2H2O7
_chemical_formula_sum   'Na8 Al8 Si16 H16 O56'
_cell_volume   1343.75696650
_cell_formula_units_Z   8
loop_
 _symmetry_equiv_pos_site_id
 _symmetry_equiv_pos_as_xyz
  1  'x, y, z'
loop_
 _atom_site_type_symbol
 _atom_site_label
 _atom_site_symmetry_multiplicity
 _atom_site_fract_x
 _atom_site_fract_y
 _atom_site_fract_z
 _atom_site_occupancy
  Na  Na0  1  0.089510  0.261920  0.829077  1
  Na  Na1  1  0.067309  0.317242  0.249855  1
  Na  Na2  1  0.432201  0.759377  0.670215  1
  Na  Na3  1  0.425876  0.175760  0.749986  1
  Na  Na4  1  0.574124  0.824240  0.250014  1
  Na  Na5  1  0.567799  0.240623  0.329785  1
  Na  Na6  1  0.932691  0.682758  0.750145  1
  Na  Na7  1  0.910490  0.738080  0.170923  1
  Al  Al8  1  0.215919  0.750511  0.774259  1
  Al  Al9  1  0.023772  0.058372  0.274242  1
  Al  Al10  1  0.273218  0.573003  0.034072  1
  Al  Al11  1  0.538978  0.739263  0.465884  1
  Al  Al12  1  0.461022  0.260737  0.534116  1
  Al  Al13  1  0.726782  0.426997  0.965928  1
  Al  Al14  1  0.976228  0.941628  0.725758  1
  Al  Al15  1  0.784081  0.249489  0.225741  1
  Si  Si16  1  0.083751  0.795982  0.542324  1
  Si  Si17  1  0.025519  0.463004  0.735500  1
  Si  Si18  1  0.212143  0.966939  0.432684  1
  Si  Si19  1  0.465721  0.720466  0.932745  1
  Si  Si20  1  0.261776  0.713836  0.315036  1
  Si  Si21  1  0.253661  0.041471  0.957668  1
  Si  Si22  1  0.601203  0.553227  0.815047  1
  Si  Si23  1  0.272564  0.209987  0.235532  1
  Si  Si24  1  0.727436  0.790013  0.764468  1
  Si  Si25  1  0.398797  0.446773  0.184953  1
  Si  Si26  1  0.746339  0.958529  0.042332  1
  Si  Si27  1  0.738224  0.286164  0.684964  1
  Si  Si28  1  0.534279  0.279534  0.067255  1
  Si  Si29  1  0.787857  0.033061  0.567316  1
  Si  Si30  1  0.974481  0.536996  0.264500  1
  Si  Si31  1  0.916249  0.204018  0.457676  1
  H  H32  1  0.050084  0.806922  0.022869  1
  H  H33  1  0.352121  0.914375  0.667388  1
  H  H34  1  0.215405  0.472155  0.522363  1
  H  H35  1  0.331383  0.336231  0.871030  1
  H  H36  1  0.106545  0.292600  0.055588  1
  H  H37  1  0.465096  0.959957  0.628872  1
  H  H38  1  0.247267  0.184761  0.832654  1
  H  H39  1  0.235606  0.550458  0.443866  1
  H  H40  1  0.764394  0.449542  0.556134  1
  H  H41  1  0.752733  0.815239  0.167346  1
  H  H42  1  0.534904  0.040043  0.371128  1
  H  H43  1  0.893455  0.707400  0.944412  1
  H  H44  1  0.668617  0.663769  0.128970  1
  H  H45  1  0.784595  0.527845  0.477637  1
  H  H46  1  0.647879  0.085625  0.332612  1
  H  H47  1  0.949916  0.193078  0.977131  1
  O  O48  1  0.209447  0.881651  0.890105  1
  O  O49  1  0.074461  0.598356  0.723202  1
  O  O50  1  0.085826  0.961130  0.323191  1
  O  O51  1  0.123153  0.481976  0.877230  1
  O  O52  1  0.169484  0.932707  0.539186  1
  O  O53  1  0.198261  0.770823  0.631290  1
  O  O54  1  0.015829  0.334801  0.614412  1
  O  O55  1  0.981024  0.710813  0.973970  1
  O  O56  1  0.139491  0.066983  0.868722  1
  O  O57  1  0.130604  0.582905  0.289880  1
  O  O58  1  0.008504  0.180704  0.390132  1
  O  O59  1  0.362075  0.737343  0.823269  1
  O  O60  1  0.234368  0.843596  0.348716  1
  O  O61  1  0.274968  0.243038  0.794129  1
  O  O62  1  0.448891  0.980653  0.705805  1
  O  O63  1  0.263207  0.493574  0.474354  1
  O  O64  1  0.280825  0.676462  0.183174  1
  O  O65  1  0.505098  0.614207  0.848858  1
  O  O66  1  0.391272  0.750389  0.449774  1
  O  O67  1  0.124923  0.148807  0.223263  1
  O  O68  1  0.393437  0.130391  0.960729  1
  O  O69  1  0.349036  0.113986  0.523791  1
  O  O70  1  0.720383  0.901390  0.885582  1
  O  O71  1  0.604743  0.746006  0.622692  1
  O  O72  1  0.506702  0.402191  0.683308  1
  O  O73  1  0.293333  0.340846  0.210405  1
  O  O74  1  0.300277  0.441310  0.050197  1
  O  O75  1  0.409718  0.674612  0.023773  1
  O  O76  1  0.590282  0.325388  0.976227  1
  O  O77  1  0.699723  0.558690  0.949803  1
  O  O78  1  0.706667  0.659154  0.789595  1
  O  O79  1  0.493298  0.597809  0.316692  1
  O  O80  1  0.395257  0.253994  0.377308  1
  O  O81  1  0.279617  0.098610  0.114418  1
  O  O82  1  0.650964  0.886014  0.476209  1
  O  O83  1  0.606563  0.869609  0.039271  1
  O  O84  1  0.875077  0.851193  0.776737  1
  O  O85  1  0.608728  0.249611  0.550226  1
  O  O86  1  0.494902  0.385793  0.151142  1
  O  O87  1  0.719175  0.323538  0.816826  1
  O  O88  1  0.736793  0.506426  0.525646  1
  O  O89  1  0.551109  0.019347  0.294195  1
  O  O90  1  0.725032  0.756962  0.205871  1
  O  O91  1  0.765632  0.156404  0.651284  1
  O  O92  1  0.637925  0.262657  0.176731  1
  O  O93  1  0.991496  0.819296  0.609868  1
  O  O94  1  0.869396  0.417095  0.710121  1
  O  O95  1  0.860509  0.933017  0.131278  1
  O  O96  1  0.018976  0.289187  0.026030  1
  O  O97  1  0.984171  0.665199  0.385588  1
  O  O98  1  0.801739  0.229177  0.368710  1
  O  O99  1  0.830516  0.067293  0.460814  1
  O  O100  1  0.876847  0.518024  0.122770  1
  O  O101  1  0.914174  0.038870  0.676809  1
  O  O102  1  0.925539  0.401644  0.276798  1
  O  O103  1  0.790553  0.118349  0.109895  1
