# generated using pymatgen
data_Ti8Cu3S16
_symmetry_space_group_name_H-M   'P 1'
_cell_length_a   13.65343949
_cell_length_b   5.90553772
_cell_length_c   9.00944071
_cell_angle_alpha   89.97984503
_cell_angle_beta   40.73553891
_cell_angle_gamma   90.00000000
_symmetry_Int_Tables_number   1
_chemical_formula_structural   Ti8Cu3S16
_chemical_formula_sum   'Ti8 Cu3 S16'
_cell_volume   474.05137456
_cell_formula_units_Z   1
loop_
 _symmetry_equiv_pos_site_id
 _symmetry_equiv_pos_as_xyz
  1  'x, y, z'
loop_
 _atom_site_type_symbol
 _atom_site_label
 _atom_site_symmetry_multiplicity
 _atom_site_fract_x
 _atom_site_fract_y
 _atom_site_fract_z
 _atom_site_occupancy
  Ti  Ti0  1  0.002319  0.007169  0.995362  1
  Ti  Ti1  1  0.121118  0.499322  0.008912  1
  Ti  Ti2  1  0.250000  0.000000  0.000000  1
  Ti  Ti3  1  0.378882  0.500678  0.991088  1
  Ti  Ti4  1  0.497681  0.992831  0.004638  1
  Ti  Ti5  1  0.630030  0.500678  0.991088  1
  Ti  Ti6  1  0.750000  0.000000  0.000000  1
  Ti  Ti7  1  0.869970  0.499322  0.008912  1
  Cu  Cu8  1  0.121815  0.500000  0.500000  1
  Cu  Cu9  1  0.378185  0.500000  0.500000  1
  Cu  Cu10  1  0.750000  0.000000  0.500000  1
  S  S11  1  0.002095  0.835921  0.245374  1
  S  S12  1  0.128243  0.332756  0.245684  1
  S  S13  1  0.252114  0.831232  0.244539  1
  S  S14  1  0.122755  0.668174  0.754489  1
  S  S15  1  0.377245  0.331826  0.245511  1
  S  S16  1  0.247886  0.168768  0.755461  1
  S  S17  1  0.503347  0.831232  0.244539  1
  S  S18  1  0.371757  0.667244  0.754316  1
  S  S19  1  0.626073  0.332756  0.245684  1
  S  S20  1  0.752531  0.835921  0.245374  1
  S  S21  1  0.497905  0.164079  0.754626  1
  S  S22  1  0.625174  0.664795  0.749652  1
  S  S23  1  0.874826  0.335205  0.250348  1
  S  S24  1  0.747469  0.164079  0.754626  1
  S  S25  1  0.873927  0.667244  0.754316  1
  S  S26  1  -0.003347  0.168768  0.755461  1
