# generated using pymatgen
data_Mg5(AlSe4)2
_symmetry_space_group_name_H-M   'P 1'
_cell_length_a   9.76059010
_cell_length_b   9.86034530
_cell_length_c   17.07383375
_cell_angle_alpha   94.15741045
_cell_angle_beta   91.95213676
_cell_angle_gamma   86.19574466
_symmetry_Int_Tables_number   1
_chemical_formula_structural   Mg5(AlSe4)2
_chemical_formula_sum   'Mg20 Al8 Se32'
_cell_volume   1634.59144193
_cell_formula_units_Z   4
loop_
 _symmetry_equiv_pos_site_id
 _symmetry_equiv_pos_as_xyz
  1  'x, y, z'
loop_
 _atom_site_type_symbol
 _atom_site_label
 _atom_site_symmetry_multiplicity
 _atom_site_fract_x
 _atom_site_fract_y
 _atom_site_fract_z
 _atom_site_occupancy
  Mg  Mg0  1  0.028371  0.012823  0.972709  1
  Mg  Mg1  1  0.896924  0.933521  0.165975  1
  Mg  Mg2  1  0.874788  0.001832  0.701407  1
  Mg  Mg3  1  0.590952  0.014498  0.280250  1
  Mg  Mg4  1  0.483524  0.041376  0.802629  1
  Mg  Mg5  1  0.499856  0.026606  0.009527  1
  Mg  Mg6  1  0.401399  0.088384  0.483286  1
  Mg  Mg7  1  0.566892  0.707531  0.153873  1
  Mg  Mg8  1  0.568388  0.801375  0.605847  1
  Mg  Mg9  1  0.552195  0.474774  0.352692  1
  Mg  Mg10  1  0.532113  0.500857  0.758202  1
  Mg  Mg11  1  0.426851  0.469273  0.535141  1
  Mg  Mg12  1  0.437255  0.475777  0.967709  1
  Mg  Mg13  1  0.039292  0.499412  0.491969  1
  Mg  Mg14  1  0.101178  0.129339  0.293551  1
  Mg  Mg15  1  0.878765  0.536936  0.981607  1
  Mg  Mg16  1  0.040744  0.469918  0.299773  1
  Mg  Mg17  1  0.081611  0.543614  0.762959  1
  Mg  Mg18  1  0.989261  0.297019  0.155700  1
  Mg  Mg19  1  0.025344  0.226399  0.590166  1
  Al  Al20  1  0.819720  0.259292  0.373027  1
  Al  Al21  1  0.798340  0.276842  0.851890  1
  Al  Al22  1  0.737313  0.259831  0.596098  1
  Al  Al23  1  0.662466  0.322044  0.117514  1
  Al  Al24  1  0.386123  0.797596  0.888159  1
  Al  Al25  1  0.307376  0.771312  0.361557  1
  Al  Al26  1  0.203900  0.856119  0.639902  1
  Al  Al27  1  0.174788  0.775050  0.096717  1
  Se  Se28  1  0.082615  0.736788  0.276745  1
  Se  Se29  1  0.405938  0.823361  0.723671  1
  Se  Se30  1  0.146903  0.018037  0.141135  1
  Se  Se31  1  0.120455  0.073507  0.692397  1
  Se  Se32  1  0.280860  0.525557  0.403931  1
  Se  Se33  1  0.310787  0.571330  0.841890  1
  Se  Se34  1  0.052116  0.235444  0.442155  1
  Se  Se35  1  0.012771  0.390956  0.867454  1
  Se  Se36  1  0.439077  0.286067  0.060530  1
  Se  Se37  1  0.364148  0.257274  0.603968  1
  Se  Se38  1  0.207742  0.585365  0.179380  1
  Se  Se39  1  0.183031  0.450959  0.622774  1
  Se  Se40  1  0.340099  0.022902  0.338971  1
  Se  Se41  1  0.271679  0.022003  0.912831  1
  Se  Se42  1  0.389467  0.721864  0.033308  1
  Se  Se43  1  0.333791  0.840161  0.514815  1
  Se  Se44  1  0.612034  0.262384  0.457093  1
  Se  Se45  1  0.844878  0.203938  0.039263  1
  Se  Se46  1  0.774962  0.534244  0.127443  1
  Se  Se47  1  0.631284  0.543991  0.623097  1
  Se  Se48  1  0.866117  0.009666  0.321880  1
  Se  Se49  1  0.867571  0.040040  0.851768  1
  Se  Se50  1  0.531280  0.717541  0.305488  1
  Se  Se51  1  0.614207  0.871069  0.895127  1
  Se  Se52  1  0.963535  0.778464  0.023154  1
  Se  Se53  1  0.013489  0.709040  0.648084  1
  Se  Se54  1  0.635942  0.947205  0.135404  1
  Se  Se55  1  0.721529  0.987517  0.576395  1
  Se  Se56  1  0.832648  0.517891  0.391656  1
  Se  Se57  1  0.663097  0.489174  0.899065  1
  Se  Se58  1  0.633310  0.277432  0.255638  1
  Se  Se59  1  0.618908  0.238482  0.745155  1
