# generated using pymatgen
data_Gd6Ta4Al43
_symmetry_space_group_name_H-M   'P 1'
_cell_length_a   10.91499707
_cell_length_b   10.91499683
_cell_length_c   17.26109006
_cell_angle_alpha   90.00000000
_cell_angle_beta   90.00000000
_cell_angle_gamma   120.00000077
_symmetry_Int_Tables_number   1
_chemical_formula_structural   Gd6Ta4Al43
_chemical_formula_sum   'Gd12 Ta8 Al86'
_cell_volume   1780.92686013
_cell_formula_units_Z   2
loop_
 _symmetry_equiv_pos_site_id
 _symmetry_equiv_pos_as_xyz
  1  'x, y, z'
loop_
 _atom_site_type_symbol
 _atom_site_label
 _atom_site_symmetry_multiplicity
 _atom_site_fract_x
 _atom_site_fract_y
 _atom_site_fract_z
 _atom_site_occupancy
  Gd  Gd0  1  0.529977  0.000000  0.094896  1
  Gd  Gd1  1  0.529977  0.529977  0.594896  1
  Gd  Gd2  1  0.529977  0.529977  0.905104  1
  Gd  Gd3  1  0.470023  0.000000  0.905104  1
  Gd  Gd4  1  0.470023  0.470023  0.405104  1
  Gd  Gd5  1  0.000000  0.470023  0.594896  1
  Gd  Gd6  1  0.470023  0.470023  0.094896  1
  Gd  Gd7  1  0.470023  0.000000  0.594896  1
  Gd  Gd8  1  0.000000  0.529977  0.094896  1
  Gd  Gd9  1  0.529977  0.000000  0.405104  1
  Gd  Gd10  1  0.000000  0.529977  0.405104  1
  Gd  Gd11  1  0.000000  0.470023  0.905104  1
  Ta  Ta12  1  0.727828  0.000000  0.250000  1
  Ta  Ta13  1  0.727828  0.727828  0.750000  1
  Ta  Ta14  1  0.272172  0.000000  0.750000  1
  Ta  Ta15  1  0.000000  0.727828  0.250000  1
  Ta  Ta16  1  0.000000  0.000000  0.000000  1
  Ta  Ta17  1  0.272172  0.272172  0.250000  1
  Ta  Ta18  1  0.000000  0.272172  0.750000  1
  Ta  Ta19  1  0.000000  0.000000  0.500000  1
  Al  Al20  1  0.763044  0.604916  0.336852  1
  Al  Al21  1  0.236956  0.841873  0.336852  1
  Al  Al22  1  0.753164  0.246836  0.500000  1
  Al  Al23  1  0.553714  0.404357  0.250000  1
  Al  Al24  1  0.745131  0.745131  0.030171  1
  Al  Al25  1  0.493671  0.246836  0.500000  1
  Al  Al26  1  0.236956  0.841873  0.163148  1
  Al  Al27  1  0.850644  0.404357  0.750000  1
  Al  Al28  1  0.395084  0.236956  0.836852  1
  Al  Al29  1  0.753164  0.506329  0.500000  1
  Al  Al30  1  0.158688  0.000000  0.615347  1
  Al  Al31  1  0.604916  0.841873  0.836852  1
  Al  Al32  1  0.841312  0.000000  0.384653  1
  Al  Al33  1  0.745131  0.000000  0.530171  1
  Al  Al34  1  0.604916  0.763044  0.336852  1
  Al  Al35  1  0.000000  0.158688  0.884653  1
  Al  Al36  1  0.000000  0.254869  0.030171  1
  Al  Al37  1  0.246836  0.753164  0.500000  1
  Al  Al38  1  0.763044  0.158127  0.663148  1
  Al  Al39  1  0.333333  0.666667  0.374380  1
  Al  Al40  1  0.148795  0.000000  0.250000  1
  Al  Al41  1  0.604916  0.763044  0.163148  1
  Al  Al42  1  0.158688  0.000000  0.884653  1
  Al  Al43  1  0.333333  0.666667  0.874380  1
  Al  Al44  1  0.149356  0.595643  0.250000  1
  Al  Al45  1  0.841312  0.000000  0.115347  1
  Al  Al46  1  0.763044  0.158127  0.836852  1
  Al  Al47  1  0.604916  0.841873  0.663148  1
  Al  Al48  1  0.493671  0.246836  0.000000  1
  Al  Al49  1  0.841873  0.236956  0.163148  1
  Al  Al50  1  0.000000  0.158688  0.615347  1
  Al  Al51  1  0.254869  0.254869  0.530171  1
  Al  Al52  1  0.745131  0.000000  0.969829  1
  Al  Al53  1  0.753164  0.246836  0.000000  1
  Al  Al54  1  0.753164  0.506329  0.000000  1
  Al  Al55  1  0.446286  0.850644  0.250000  1
  Al  Al56  1  0.000000  0.745131  0.969829  1
  Al  Al57  1  0.395084  0.236956  0.663148  1
  Al  Al58  1  0.000000  0.254869  0.469829  1
  Al  Al59  1  0.506329  0.753164  0.000000  1
  Al  Al60  1  0.333333  0.666667  0.125620  1
  Al  Al61  1  0.404357  0.850644  0.750000  1
  Al  Al62  1  0.246836  0.493671  0.500000  1
  Al  Al63  1  0.254869  0.000000  0.469829  1
  Al  Al64  1  0.000000  0.841312  0.115347  1
  Al  Al65  1  0.158688  0.158688  0.384653  1
  Al  Al66  1  0.246836  0.753164  0.000000  1
  Al  Al67  1  0.595643  0.149356  0.250000  1
  Al  Al68  1  0.395084  0.158127  0.163148  1
  Al  Al69  1  0.149356  0.553714  0.750000  1
  Al  Al70  1  0.158127  0.395084  0.163148  1
  Al  Al71  1  0.553714  0.149356  0.750000  1
  Al  Al72  1  0.395084  0.158127  0.336852  1
  Al  Al73  1  0.158127  0.763044  0.836852  1
  Al  Al74  1  0.841873  0.604916  0.836852  1
  Al  Al75  1  0.841873  0.236956  0.336852  1
  Al  Al76  1  0.158127  0.395084  0.336852  1
  Al  Al77  1  0.666667  0.333333  0.374380  1
  Al  Al78  1  0.666667  0.333333  0.125620  1
  Al  Al79  1  0.236956  0.395084  0.663148  1
  Al  Al80  1  0.745131  0.745131  0.469829  1
  Al  Al81  1  0.000000  0.745131  0.530171  1
  Al  Al82  1  0.850644  0.446286  0.250000  1
  Al  Al83  1  0.666667  0.333333  0.874380  1
  Al  Al84  1  0.841312  0.841312  0.884653  1
  Al  Al85  1  0.841312  0.841312  0.615347  1
  Al  Al86  1  0.666667  0.333333  0.625620  1
  Al  Al87  1  0.246836  0.493671  0.000000  1
  Al  Al88  1  0.404357  0.553714  0.250000  1
  Al  Al89  1  0.236956  0.395084  0.836852  1
  Al  Al90  1  0.148795  0.148795  0.750000  1
  Al  Al91  1  0.851205  0.000000  0.750000  1
  Al  Al92  1  0.763044  0.604916  0.163148  1
  Al  Al93  1  0.841873  0.604916  0.663148  1
  Al  Al94  1  0.333333  0.666667  0.625620  1
  Al  Al95  1  0.158127  0.763044  0.663148  1
  Al  Al96  1  0.254869  0.000000  0.030171  1
  Al  Al97  1  0.595643  0.446286  0.750000  1
  Al  Al98  1  0.158688  0.158688  0.115347  1
  Al  Al99  1  0.000000  0.851205  0.750000  1
  Al  Al100  1  0.000000  0.841312  0.384653  1
  Al  Al101  1  0.000000  0.148795  0.250000  1
  Al  Al102  1  0.254869  0.254869  0.969829  1
  Al  Al103  1  0.506329  0.753164  0.500000  1
  Al  Al104  1  0.446286  0.595643  0.750000  1
  Al  Al105  1  0.851205  0.851205  0.250000  1
