# generated using pymatgen
data_BHO2
_symmetry_space_group_name_H-M   'P 1'
_cell_length_a   8.12298488
_cell_length_b   9.81677566
_cell_length_c   6.46626833
_cell_angle_alpha   90.00001080
_cell_angle_beta   90.00001983
_cell_angle_gamma   90.00000848
_symmetry_Int_Tables_number   1
_chemical_formula_structural   BHO2
_chemical_formula_sum   'B12 H12 O24'
_cell_volume   515.63006702
_cell_formula_units_Z   12
loop_
 _symmetry_equiv_pos_site_id
 _symmetry_equiv_pos_as_xyz
  1  'x, y, z'
loop_
 _atom_site_type_symbol
 _atom_site_label
 _atom_site_symmetry_multiplicity
 _atom_site_fract_x
 _atom_site_fract_y
 _atom_site_fract_z
 _atom_site_occupancy
  B  B0  1  0.499899  0.673816  0.250000  1
  B  B1  1  0.000101  0.173816  0.250000  1
  B  B2  1  0.500101  0.326184  0.750000  1
  B  B3  1  0.999899  0.826185  0.750000  1
  B  B4  1  0.498617  0.917865  0.250000  1
  B  B5  1  0.001383  0.417865  0.250000  1
  B  B6  1  0.501383  0.082135  0.750000  1
  B  B7  1  0.998617  0.582135  0.750000  1
  B  B8  1  0.244291  0.794642  0.250000  1
  B  B9  1  0.255709  0.294642  0.250000  1
  B  B10  1  0.755710  0.205358  0.750000  1
  B  B11  1  0.744291  0.705358  0.750000  1
  H  H12  1  0.524100  0.470257  0.250000  1
  H  H13  1  0.975900  0.970257  0.250000  1
  H  H14  1  0.475900  0.529743  0.750000  1
  H  H15  1  0.024100  0.029743  0.750000  1
  H  H16  1  0.698304  0.040020  0.250000  1
  H  H17  1  0.801696  0.540020  0.250000  1
  H  H18  1  0.301696  0.959980  0.750000  1
  H  H19  1  0.198304  0.459980  0.750000  1
  H  H20  1  0.023339  0.707120  0.250000  1
  H  H21  1  0.476661  0.207120  0.250000  1
  H  H22  1  0.976661  0.292880  0.750000  1
  H  H23  1  0.523339  0.792880  0.750000  1
  O  O24  1  0.589117  0.555632  0.250000  1
  O  O25  1  0.910883  0.055632  0.250000  1
  O  O26  1  0.410883  0.444368  0.750000  1
  O  O27  1  0.089117  0.944368  0.750000  1
  O  O28  1  0.586449  0.796150  0.250000  1
  O  O29  1  0.913551  0.296150  0.250000  1
  O  O30  1  0.413552  0.203850  0.750000  1
  O  O31  1  0.086449  0.703850  0.750000  1
  O  O32  1  0.575563  0.041897  0.250000  1
  O  O33  1  0.924437  0.541898  0.250000  1
  O  O34  1  0.424437  0.958102  0.750000  1
  O  O35  1  0.075563  0.458103  0.750000  1
  O  O36  1  0.330034  0.672790  0.250000  1
  O  O37  1  0.169966  0.172790  0.250000  1
  O  O38  1  0.669966  0.327210  0.750000  1
  O  O39  1  0.830033  0.827210  0.750000  1
  O  O40  1  0.328894  0.916291  0.250000  1
  O  O41  1  0.171106  0.416291  0.250000  1
  O  O42  1  0.671106  0.083709  0.750000  1
  O  O43  1  0.828894  0.583709  0.750000  1
  O  O44  1  0.075616  0.798602  0.250000  1
  O  O45  1  0.424384  0.298602  0.250000  1
  O  O46  1  0.924384  0.201398  0.750000  1
  O  O47  1  0.575616  0.701398  0.750000  1
