# generated using pymatgen
data_Cr(OF)2
_symmetry_space_group_name_H-M   'P 1'
_cell_length_a   5.16167141
_cell_length_b   6.08096805
_cell_length_c   9.19874454
_cell_angle_alpha   91.82155697
_cell_angle_beta   90.00000000
_cell_angle_gamma   90.00000000
_symmetry_Int_Tables_number   1
_chemical_formula_structural   Cr(OF)2
_chemical_formula_sum   'Cr4 O8 F8'
_cell_volume   288.58391248
_cell_formula_units_Z   4
loop_
 _symmetry_equiv_pos_site_id
 _symmetry_equiv_pos_as_xyz
  1  'x, y, z'
loop_
 _atom_site_type_symbol
 _atom_site_label
 _atom_site_symmetry_multiplicity
 _atom_site_fract_x
 _atom_site_fract_y
 _atom_site_fract_z
 _atom_site_occupancy
  Cr  Cr0  1  0.935459  0.309053  0.622246  1
  Cr  Cr1  1  0.435459  0.690947  0.877754  1
  Cr  Cr2  1  0.564541  0.309053  0.122246  1
  Cr  Cr3  1  0.064541  0.690947  0.377754  1
  O  O4  1  0.898879  0.883434  0.313461  1
  O  O5  1  0.398879  0.116566  0.186539  1
  O  O6  1  0.601121  0.883434  0.813461  1
  O  O7  1  0.101121  0.116566  0.686539  1
  O  O8  1  0.182431  0.803627  0.940988  1
  O  O9  1  0.817569  0.196373  0.059012  1
  O  O10  1  0.317569  0.803627  0.440988  1
  O  O11  1  0.682431  0.196373  0.559012  1
  F  F12  1  0.133647  0.354627  0.458632  1
  F  F13  1  0.176628  0.551580  0.216972  1
  F  F14  1  0.823372  0.448420  0.783028  1
  F  F15  1  0.366353  0.354627  0.958632  1
  F  F16  1  0.633647  0.645373  0.041368  1
  F  F17  1  0.866353  0.645373  0.541368  1
  F  F18  1  0.323372  0.551580  0.716972  1
  F  F19  1  0.676628  0.448420  0.283028  1
