# generated using pymatgen
data_Co(IO3)2
_symmetry_space_group_name_H-M   'P 1'
_cell_length_a   10.90932132
_cell_length_b   11.01342018
_cell_length_c   5.45393449
_cell_angle_alpha   90.03869174
_cell_angle_beta   89.97744009
_cell_angle_gamma   120.55000784
_symmetry_Int_Tables_number   1
_chemical_formula_structural   Co(IO3)2
_chemical_formula_sum   'Co4 I8 O24'
_cell_volume   564.32156424
_cell_formula_units_Z   4
loop_
 _symmetry_equiv_pos_site_id
 _symmetry_equiv_pos_as_xyz
  1  'x, y, z'
loop_
 _atom_site_type_symbol
 _atom_site_label
 _atom_site_symmetry_multiplicity
 _atom_site_fract_x
 _atom_site_fract_y
 _atom_site_fract_z
 _atom_site_occupancy
  Co  Co0  1  0.004233  0.509425  0.570924  1
  Co  Co1  1  0.003064  0.005123  0.571381  1
  Co  Co2  1  0.500049  0.994044  0.071800  1
  Co  Co3  1  0.492486  0.490872  0.071853  1
  I  I4  1  0.151475  0.835413  0.962948  1
  I  I5  1  0.145815  0.332156  0.963242  1
  I  I6  1  0.351011  0.666865  0.463177  1
  I  I7  1  0.685786  0.836680  0.995008  1
  I  I8  1  0.351447  0.165688  0.463785  1
  I  I9  1  0.813121  0.659931  0.493088  1
  I  I10  1  0.684374  0.338738  0.991321  1
  I  I11  1  0.816861  0.163807  0.493670  1
  O  O12  1  0.153162  0.977085  0.779468  1
  O  O13  1  0.023537  0.679100  0.785312  1
  O  O14  1  0.181924  0.649008  0.362489  1
  O  O15  1  0.321586  0.855806  0.862551  1
  O  O16  1  0.147492  0.475457  0.787221  1
  O  O17  1  0.019341  0.175959  0.781453  1
  O  O18  1  0.480216  0.822602  0.285212  1
  O  O19  1  0.345576  0.522441  0.282565  1
  O  O20  1  0.180365  0.141348  0.359236  1
  O  O21  1  0.315878  0.353674  0.859300  1
  O  O22  1  0.637412  0.957426  0.849400  1
  O  O23  1  0.542045  0.670496  0.867541  1
  O  O24  1  0.476754  0.322006  0.282002  1
  O  O25  1  0.353527  0.024818  0.284916  1
  O  O26  1  0.669124  0.635413  0.282417  1
  O  O27  1  0.827198  0.857764  0.780607  1
  O  O28  1  0.629091  0.454652  0.845621  1
  O  O29  1  0.547290  0.170507  0.859743  1
  O  O30  1  0.953227  0.827082  0.362837  1
  O  O31  1  0.865680  0.542627  0.345069  1
  O  O32  1  0.675531  0.140385  0.277747  1
  O  O33  1  0.828343  0.366216  0.779215  1
  O  O34  1  0.957966  0.330966  0.364928  1
  O  O35  1  0.867614  0.044221  0.349003  1
