# generated using pymatgen
data_Ba5Tm8Zn4O21
_symmetry_space_group_name_H-M   'P 1'
_cell_length_a   5.70175949
_cell_length_b   10.13600005
_cell_length_c   10.13600004
_cell_angle_alpha   85.46266079
_cell_angle_beta   73.66441306
_cell_angle_gamma   73.66441303
_symmetry_Int_Tables_number   1
_chemical_formula_structural   Ba5Tm8Zn4O21
_chemical_formula_sum   'Ba5 Tm8 Zn4 O21'
_cell_volume   539.44906203
_cell_formula_units_Z   1
loop_
 _symmetry_equiv_pos_site_id
 _symmetry_equiv_pos_as_xyz
  1  'x, y, z'
loop_
 _atom_site_type_symbol
 _atom_site_label
 _atom_site_symmetry_multiplicity
 _atom_site_fract_x
 _atom_site_fract_y
 _atom_site_fract_z
 _atom_site_occupancy
  O  O0  1  0.100863  0.892901  0.405136  1
  O  O1  1  0.505999  0.594864  0.892901  1
  O  O2  1  0.993764  0.405136  0.107099  1
  O  O3  1  0.398900  0.107099  0.594864  1
  O  O4  1  0.899137  0.107099  0.594864  1
  O  O5  1  0.494001  0.405136  0.107099  1
  O  O6  1  0.006236  0.594864  0.892901  1
  O  O7  1  0.601100  0.892901  0.405136  1
  O  O8  1  0.925647  0.871524  0.774174  1
  O  O9  1  0.699821  0.225826  0.871524  1
  O  O10  1  0.797171  0.774174  0.128476  1
  O  O11  1  0.571345  0.128476  0.225826  1
  O  O12  1  0.074353  0.128476  0.225826  1
  O  O13  1  0.300179  0.774174  0.128476  1
  O  O14  1  0.202829  0.225826  0.871524  1
  O  O15  1  0.428655  0.871524  0.774174  1
  O  O16  1  0.370399  0.669412  0.589790  1
  O  O17  1  0.500000  0.000000  0.000000  1
  O  O18  1  0.629601  0.330588  0.410210  1
  O  O19  1  0.039811  0.589790  0.330588  1
  O  O20  1  0.960189  0.410210  0.669412  1
  Zn  Zn21  1  0.959479  0.791171  0.289870  1
  Zn  Zn22  1  0.249350  0.710130  0.791171  1
  Zn  Zn23  1  0.750650  0.289870  0.208829  1
  Zn  Zn24  1  0.040521  0.208829  0.710130  1
  Ba  Ba25  1  0.463965  0.395756  0.676314  1
  Ba  Ba26  1  0.140279  0.323686  0.395756  1
  Ba  Ba27  1  0.859721  0.676314  0.604244  1
  Ba  Ba28  1  0.536035  0.604244  0.323686  1
  Ba  Ba29  1  0.000000  0.000000  0.000000  1
  Tm  Tm30  1  0.588712  0.052689  0.769886  1
  Tm  Tm31  1  0.358598  0.230114  0.052689  1
  Tm  Tm32  1  0.641402  0.769886  0.947311  1
  Tm  Tm33  1  0.411288  0.947311  0.230114  1
  Tm  Tm34  1  0.752375  0.079195  0.416055  1
  Tm  Tm35  1  0.168430  0.583945  0.079195  1
  Tm  Tm36  1  0.831570  0.416055  0.920805  1
  Tm  Tm37  1  0.247625  0.920805  0.583945  1
