# generated using pymatgen
data_H2O
_symmetry_space_group_name_H-M   'P 1'
_cell_length_a   5.00349503
_cell_length_b   5.00349463
_cell_length_c   5.50229329
_cell_angle_alpha   90.00000000
_cell_angle_beta   90.00000000
_cell_angle_gamma   131.78596148
_symmetry_Int_Tables_number   1
_chemical_formula_structural   H2O
_chemical_formula_sum   'H8 O4'
_cell_volume   102.71158496
_cell_formula_units_Z   4
loop_
 _symmetry_equiv_pos_site_id
 _symmetry_equiv_pos_as_xyz
  1  'x, y, z'
loop_
 _atom_site_type_symbol
 _atom_site_label
 _atom_site_symmetry_multiplicity
 _atom_site_fract_x
 _atom_site_fract_y
 _atom_site_fract_z
 _atom_site_occupancy
  H  H0  1  0.030201  0.433996  0.569139  1
  H  H1  1  0.566004  0.969799  0.569139  1
  H  H2  1  0.322553  0.677447  0.898164  1
  H  H3  1  0.549888  0.450112  0.976603  1
  H  H4  1  0.450112  0.549888  0.476603  1
  H  H5  1  0.677447  0.322553  0.398164  1
  H  H6  1  0.433996  0.030201  0.069139  1
  H  H7  1  0.969799  0.566004  0.069139  1
  O  O8  1  0.270068  0.729932  0.055935  1
  O  O9  1  0.373510  0.626490  0.601019  1
  O  O10  1  0.729932  0.270068  0.555935  1
  O  O11  1  0.626490  0.373510  0.101019  1
