# generated using pymatgen
data_Ce9GdO20
_symmetry_space_group_name_H-M   'P 1'
_cell_length_a   7.72216879
_cell_length_b   19.31317206
_cell_length_c   10.21923703
_cell_angle_alpha   19.09548105
_cell_angle_beta   55.48103164
_cell_angle_gamma   59.99467841
_symmetry_Int_Tables_number   1
_chemical_formula_structural   Ce9GdO20
_chemical_formula_sum   'Ce9 Gd1 O20'
_cell_volume   407.25147330
_cell_formula_units_Z   1
loop_
 _symmetry_equiv_pos_site_id
 _symmetry_equiv_pos_as_xyz
  1  'x, y, z'
loop_
 _atom_site_type_symbol
 _atom_site_label
 _atom_site_symmetry_multiplicity
 _atom_site_fract_x
 _atom_site_fract_y
 _atom_site_fract_z
 _atom_site_occupancy
  Ce  Ce0  1  0.999935  0.199597  -0.000042  1
  Ce  Ce1  1  0.000033  0.400610  -0.000029  1
  Ce  Ce2  1  0.500000  0.000000  0.000000  1
  Ce  Ce3  1  0.501156  0.199579  0.999781  1
  Ce  Ce4  1  0.000065  0.800403  0.000042  1
  Ce  Ce5  1  0.498493  0.398635  0.003313  1
  Ce  Ce6  1  0.501507  0.601365  0.996687  1
  Ce  Ce7  1  0.498844  0.800421  0.000219  1
  Ce  Ce8  1  0.999967  0.599390  0.000029  1
  Gd  Gd9  1  0.000000  0.000000  0.000000  1
  O  O10  1  0.125109  0.149833  0.250084  1
  O  O11  1  0.126496  0.353005  0.243310  1
  O  O12  1  0.378316  0.050316  0.747988  1
  O  O13  1  0.125144  0.550188  0.249749  1
  O  O14  1  0.624998  0.149969  0.250020  1
  O  O15  1  0.125901  0.748048  0.251949  1
  O  O16  1  0.375117  0.250414  0.749193  1
  O  O17  1  0.624766  0.350300  0.249544  1
  O  O18  1  0.375436  0.449811  0.750085  1
  O  O19  1  0.624564  0.550189  0.249915  1
  O  O20  1  0.125847  0.949596  0.252142  1
  O  O21  1  0.874153  0.050404  0.747858  1
  O  O22  1  0.375234  0.649700  0.750456  1
  O  O23  1  0.624883  0.749586  0.250807  1
  O  O24  1  0.874099  0.251952  0.748051  1
  O  O25  1  0.874856  0.449812  0.750251  1
  O  O26  1  0.375002  0.850031  0.749980  1
  O  O27  1  0.621684  0.949684  0.252012  1
  O  O28  1  0.873504  0.646995  0.756690  1
  O  O29  1  0.874891  0.850167  0.749916  1
