# generated using pymatgen
data_Eu3Sb4S9
_symmetry_space_group_name_H-M   'P 1'
_cell_length_a   4.02217890
_cell_length_b   16.47576436
_cell_length_c   23.75153946
_cell_angle_alpha   90.00000000
_cell_angle_beta   90.00000000
_cell_angle_gamma   90.00000000
_symmetry_Int_Tables_number   1
_chemical_formula_structural   Eu3Sb4S9
_chemical_formula_sum   'Eu12 Sb16 S36'
_cell_volume   1573.97822220
_cell_formula_units_Z   4
loop_
 _symmetry_equiv_pos_site_id
 _symmetry_equiv_pos_as_xyz
  1  'x, y, z'
loop_
 _atom_site_type_symbol
 _atom_site_label
 _atom_site_symmetry_multiplicity
 _atom_site_fract_x
 _atom_site_fract_y
 _atom_site_fract_z
 _atom_site_occupancy
  Eu  Eu0  1  0.250000  0.822433  0.177807  1
  Eu  Eu1  1  0.750000  0.177567  0.822193  1
  Eu  Eu2  1  0.750000  0.447274  0.766469  1
  Eu  Eu3  1  0.250000  0.622905  0.053690  1
  Eu  Eu4  1  0.750000  0.377095  0.946310  1
  Eu  Eu5  1  0.250000  0.322433  0.322193  1
  Eu  Eu6  1  0.250000  0.122905  0.446310  1
  Eu  Eu7  1  0.750000  0.677567  0.677807  1
  Eu  Eu8  1  0.250000  0.552726  0.233531  1
  Eu  Eu9  1  0.250000  0.052726  0.266469  1
  Eu  Eu10  1  0.750000  0.947274  0.733531  1
  Eu  Eu11  1  0.750000  0.877095  0.553690  1
  Sb  Sb12  1  0.250000  0.972949  0.895625  1
  Sb  Sb13  1  0.750000  0.527051  0.395625  1
  Sb  Sb14  1  0.250000  0.090635  0.607113  1
  Sb  Sb15  1  0.750000  0.834443  0.005982  1
  Sb  Sb16  1  0.750000  0.409365  0.107113  1
  Sb  Sb17  1  0.750000  0.241368  0.174269  1
  Sb  Sb18  1  0.250000  0.165557  0.994018  1
  Sb  Sb19  1  0.250000  0.590635  0.892887  1
  Sb  Sb20  1  0.750000  0.909365  0.392887  1
  Sb  Sb21  1  0.250000  0.472949  0.604375  1
  Sb  Sb22  1  0.250000  0.758632  0.825731  1
  Sb  Sb23  1  0.250000  0.665557  0.505982  1
  Sb  Sb24  1  0.250000  0.258632  0.674269  1
  Sb  Sb25  1  0.750000  0.741368  0.325731  1
  Sb  Sb26  1  0.750000  0.334443  0.494018  1
  Sb  Sb27  1  0.750000  0.027051  0.104375  1
  S  S28  1  0.750000  0.060950  0.933139  1
  S  S29  1  0.750000  0.957316  0.196939  1
  S  S30  1  0.250000  0.755575  0.964684  1
  S  S31  1  0.250000  0.249474  0.907605  1
  S  S32  1  0.250000  0.136145  0.153095  1
  S  S33  1  0.750000  0.633852  0.804606  1
  S  S34  1  0.250000  0.636145  0.346905  1
  S  S35  1  0.250000  0.439050  0.433139  1
  S  S36  1  0.250000  0.799837  0.725952  1
  S  S37  1  0.250000  0.255575  0.535316  1
  S  S38  1  0.750000  0.200163  0.274048  1
  S  S39  1  0.250000  0.042684  0.803061  1
  S  S40  1  0.250000  0.366148  0.195394  1
  S  S41  1  0.750000  0.863855  0.846905  1
  S  S42  1  0.750000  0.553085  0.137306  1
  S  S43  1  0.750000  0.700163  0.225952  1
  S  S44  1  0.750000  0.244425  0.035316  1
  S  S45  1  0.250000  0.749474  0.592395  1
  S  S46  1  0.250000  0.939050  0.066861  1
  S  S47  1  0.750000  0.250526  0.407606  1
  S  S48  1  0.750000  0.560950  0.566861  1
  S  S49  1  0.750000  0.363855  0.653095  1
  S  S50  1  0.250000  0.946915  0.637306  1
  S  S51  1  0.750000  0.750526  0.092395  1
  S  S52  1  0.750000  0.133852  0.695394  1
  S  S53  1  0.750000  0.560964  0.964796  1
  S  S54  1  0.250000  0.542684  0.696939  1
  S  S55  1  0.750000  0.060964  0.535204  1
  S  S56  1  0.250000  0.866148  0.304606  1
  S  S57  1  0.250000  0.939036  0.464796  1
  S  S58  1  0.250000  0.439036  0.035204  1
  S  S59  1  0.250000  0.299837  0.774048  1
  S  S60  1  0.250000  0.446915  0.862694  1
  S  S61  1  0.750000  0.457316  0.303061  1
  S  S62  1  0.750000  0.744425  0.464684  1
  S  S63  1  0.750000  0.053085  0.362694  1
