# generated using pymatgen
data_Ce6S4BrN3
_symmetry_space_group_name_H-M   'P 1'
_cell_length_a   3.98287566
_cell_length_b   11.39943119
_cell_length_c   27.14546977
_cell_angle_alpha   90.00000000
_cell_angle_beta   90.00000000
_cell_angle_gamma   90.00000000
_symmetry_Int_Tables_number   1
_chemical_formula_structural   Ce6S4BrN3
_chemical_formula_sum   'Ce24 S16 Br4 N12'
_cell_volume   1232.47265337
_cell_formula_units_Z   4
loop_
 _symmetry_equiv_pos_site_id
 _symmetry_equiv_pos_as_xyz
  1  'x, y, z'
loop_
 _atom_site_type_symbol
 _atom_site_label
 _atom_site_symmetry_multiplicity
 _atom_site_fract_x
 _atom_site_fract_y
 _atom_site_fract_z
 _atom_site_occupancy
  Ce  Ce0  1  0.750000  0.253945  0.827442  1
  Ce  Ce1  1  0.750000  0.755449  0.935408  1
  Ce  Ce2  1  0.750000  0.102236  0.964037  1
  Ce  Ce3  1  0.250000  0.873058  0.782566  1
  Ce  Ce4  1  0.750000  0.558613  0.808649  1
  Ce  Ce5  1  0.750000  0.058613  0.691351  1
  Ce  Ce6  1  0.250000  0.941387  0.308649  1
  Ce  Ce7  1  0.250000  0.244551  0.064592  1
  Ce  Ce8  1  0.750000  0.056736  0.422512  1
  Ce  Ce9  1  0.250000  0.943264  0.577488  1
  Ce  Ce10  1  0.750000  0.556736  0.077488  1
  Ce  Ce11  1  0.250000  0.397764  0.464037  1
  Ce  Ce12  1  0.250000  0.897764  0.035963  1
  Ce  Ce13  1  0.250000  0.443264  0.922512  1
  Ce  Ce14  1  0.250000  0.441387  0.191351  1
  Ce  Ce15  1  0.750000  0.126942  0.217434  1
  Ce  Ce16  1  0.750000  0.753945  0.672558  1
  Ce  Ce17  1  0.250000  0.746055  0.172558  1
  Ce  Ce18  1  0.250000  0.744551  0.435408  1
  Ce  Ce19  1  0.750000  0.602236  0.535963  1
  Ce  Ce20  1  0.750000  0.626942  0.282566  1
  Ce  Ce21  1  0.250000  0.373058  0.717434  1
  Ce  Ce22  1  0.750000  0.255449  0.564592  1
  Ce  Ce23  1  0.250000  0.246055  0.327442  1
  S  S24  1  0.750000  0.314080  0.136227  1
  S  S25  1  0.750000  0.295171  0.398517  1
  S  S26  1  0.250000  0.136553  0.764219  1
  S  S27  1  0.750000  0.854128  0.496607  1
  S  S28  1  0.250000  0.204829  0.898517  1
  S  S29  1  0.250000  0.645872  0.996607  1
  S  S30  1  0.250000  0.685920  0.863773  1
  S  S31  1  0.250000  0.704829  0.601483  1
  S  S32  1  0.750000  0.863447  0.235781  1
  S  S33  1  0.750000  0.354128  0.003393  1
  S  S34  1  0.250000  0.145872  0.503393  1
  S  S35  1  0.250000  0.185920  0.636227  1
  S  S36  1  0.250000  0.636553  0.735781  1
  S  S37  1  0.750000  0.814080  0.363773  1
  S  S38  1  0.750000  0.795171  0.101483  1
  S  S39  1  0.750000  0.363447  0.264219  1
  Br  Br40  1  0.250000  0.037160  0.137419  1
  Br  Br41  1  0.250000  0.537160  0.362581  1
  Br  Br42  1  0.750000  0.462840  0.637419  1
  Br  Br43  1  0.750000  0.962840  0.862581  1
  N  N44  1  0.750000  0.934610  0.625788  1
  N  N45  1  0.250000  0.065390  0.374212  1
  N  N46  1  0.250000  0.565390  0.125788  1
  N  N47  1  0.750000  0.405266  0.513156  1
  N  N48  1  0.250000  0.612886  0.237241  1
  N  N49  1  0.750000  0.434610  0.874212  1
  N  N50  1  0.750000  0.387114  0.762759  1
  N  N51  1  0.750000  0.905266  0.986844  1
  N  N52  1  0.250000  0.594734  0.486844  1
  N  N53  1  0.250000  0.112886  0.262759  1
  N  N54  1  0.250000  0.094734  0.013156  1
  N  N55  1  0.750000  0.887114  0.737241  1
