# generated using pymatgen
data_DyH9C5(NO4)2
_symmetry_space_group_name_H-M   'P 1'
_cell_length_a   6.70454741
_cell_length_b   6.70454741
_cell_length_c   6.65374700
_cell_angle_alpha   73.93474016
_cell_angle_beta   106.06525984
_cell_angle_gamma   114.98751181
_symmetry_Int_Tables_number   1
_chemical_formula_structural   DyH9C5(NO4)2
_chemical_formula_sum   'Dy1 H9 C5 N2 O8'
_cell_volume   256.08622884
_cell_formula_units_Z   1
loop_
 _symmetry_equiv_pos_site_id
 _symmetry_equiv_pos_as_xyz
  1  'x, y, z'
loop_
 _atom_site_type_symbol
 _atom_site_label
 _atom_site_symmetry_multiplicity
 _atom_site_fract_x
 _atom_site_fract_y
 _atom_site_fract_z
 _atom_site_occupancy
  Dy  Dy0  1  0.998434  0.998434  0.000000  1
  H  H1  1  0.183730  0.654173  0.417266  1
  H  H2  1  0.654173  0.183730  0.582734  1
  H  H3  1  0.475855  0.740488  0.523096  1
  H  H4  1  0.740488  0.475855  0.476904  1
  H  H5  1  0.835975  0.461988  0.873739  1
  H  H6  1  0.461988  0.835975  0.126261  1
  H  H7  1  0.083649  0.083649  0.500000  1
  H  H8  1  0.445611  0.465431  0.803416  1
  H  H9  1  0.465431  0.445611  0.196584  1
  C  C10  1  0.940388  0.467308  0.035763  1
  C  C11  1  0.467308  0.940388  0.964237  1
  C  C12  1  0.930872  0.930872  0.500000  1
  C  C13  1  0.286893  0.470127  0.700492  1
  C  C14  1  0.470127  0.286893  0.299508  1
  N  N15  1  0.314755  0.636448  0.535813  1
  N  N16  1  0.636448  0.314755  0.464187  1
  O  O17  1  0.009598  0.310974  0.126039  1
  O  O18  1  0.310974  0.009598  0.873961  1
  O  O19  1  0.980774  0.635262  0.117193  1
  O  O20  1  0.635262  0.980774  0.882807  1
  O  O21  1  0.842110  0.854190  0.665915  1
  O  O22  1  0.854190  0.842110  0.334085  1
  O  O23  1  0.100518  0.327745  0.741532  1
  O  O24  1  0.327745  0.100518  0.258468  1
