# generated using pymatgen
data_LiLa2SbO6
_symmetry_space_group_name_H-M   'P 1'
_cell_length_a   5.65883290
_cell_length_b   5.83693228
_cell_length_c   8.05799965
_cell_angle_alpha   90.00000000
_cell_angle_beta   90.39995238
_cell_angle_gamma   90.00000000
_symmetry_Int_Tables_number   1
_chemical_formula_structural   LiLa2SbO6
_chemical_formula_sum   'Li2 La4 Sb2 O12'
_cell_volume   266.15105251
_cell_formula_units_Z   2
loop_
 _symmetry_equiv_pos_site_id
 _symmetry_equiv_pos_as_xyz
  1  'x, y, z'
loop_
 _atom_site_type_symbol
 _atom_site_label
 _atom_site_symmetry_multiplicity
 _atom_site_fract_x
 _atom_site_fract_y
 _atom_site_fract_z
 _atom_site_occupancy
  Li  Li0  1  0.000000  0.500000  0.000000  1
  Li  Li1  1  0.500000  0.000000  0.500000  1
  O  O2  1  0.097873  0.533567  0.739516  1
  O  O3  1  0.402127  0.033567  0.760484  1
  O  O4  1  0.902127  0.466433  0.260484  1
  O  O5  1  0.597873  0.966433  0.239516  1
  O  O6  1  0.811394  0.216037  0.554686  1
  O  O7  1  0.688606  0.716037  0.945314  1
  O  O8  1  0.213709  0.808094  0.048382  1
  O  O9  1  0.286291  0.308094  0.451618  1
  O  O10  1  0.786291  0.191906  0.951618  1
  O  O11  1  0.713709  0.691906  0.548382  1
  O  O12  1  0.311394  0.283963  0.054686  1
  O  O13  1  0.188606  0.783963  0.445314  1
  Sb  Sb14  1  0.000000  0.500000  0.500000  1
  Sb  Sb15  1  0.500000  0.000000  0.000000  1
  La  La16  1  0.013483  0.052170  0.248843  1
  La  La17  1  0.486517  0.552170  0.251157  1
  La  La18  1  0.986517  0.947830  0.751157  1
  La  La19  1  0.513483  0.447830  0.748843  1
