# generated using pymatgen
data_K2U2O7
_symmetry_space_group_name_H-M   'P 1'
_cell_length_a   7.18808439
_cell_length_b   14.38678828
_cell_length_c   20.84003286
_cell_angle_alpha   21.67386599
_cell_angle_beta   28.94225972
_cell_angle_gamma   32.34866959
_symmetry_Int_Tables_number   1
_chemical_formula_structural   K2U2O7
_chemical_formula_sum   'K4 U4 O14'
_cell_volume   379.12254282
_cell_formula_units_Z   2
loop_
 _symmetry_equiv_pos_site_id
 _symmetry_equiv_pos_as_xyz
  1  'x, y, z'
loop_
 _atom_site_type_symbol
 _atom_site_label
 _atom_site_symmetry_multiplicity
 _atom_site_fract_x
 _atom_site_fract_y
 _atom_site_fract_z
 _atom_site_occupancy
  K  K0  1  0.493780  0.127739  0.242868  1
  K  K1  1  0.483869  0.609701  0.262534  1
  K  K2  1  0.506220  0.372261  0.757132  1
  K  K3  1  0.516131  0.890299  0.737466  1
  U  U4  1  0.969080  0.966812  0.029853  1
  U  U5  1  0.030920  0.533188  0.970147  1
  U  U6  1  0.000000  0.250000  0.500000  1
  U  U7  1  0.000000  0.750000  0.500000  1
  O  O8  1  0.076521  0.003533  0.060881  1
  O  O9  1  0.221901  0.115311  0.191133  1
  O  O10  1  0.126016  0.560337  0.011999  1
  O  O11  1  0.418084  0.515953  0.191439  1
  O  O12  1  0.043382  0.280710  0.557871  1
  O  O13  1  0.956618  0.219290  0.442129  1
  O  O14  1  0.622148  0.627687  0.365814  1
  O  O15  1  0.119209  0.740805  0.558860  1
  O  O16  1  0.880791  0.759195  0.441140  1
  O  O17  1  0.778099  0.384689  0.808867  1
  O  O18  1  0.377852  0.872313  0.634186  1
  O  O19  1  0.923479  0.496467  0.939119  1
  O  O20  1  0.581916  0.984047  0.808561  1
  O  O21  1  0.873984  0.939663  0.988001  1
