# generated using pymatgen
data_Sm6InCo2
_symmetry_space_group_name_H-M   'P 1'
_cell_length_a   8.54934420
_cell_length_b   8.54934431
_cell_length_c   8.54934368
_cell_angle_alpha   107.18630201
_cell_angle_beta   108.85596382
_cell_angle_gamma   112.41609960
_symmetry_Int_Tables_number   1
_chemical_formula_structural   Sm6InCo2
_chemical_formula_sum   'Sm12 In2 Co4'
_cell_volume   479.97979069
_cell_formula_units_Z   2
loop_
 _symmetry_equiv_pos_site_id
 _symmetry_equiv_pos_as_xyz
  1  'x, y, z'
loop_
 _atom_site_type_symbol
 _atom_site_label
 _atom_site_symmetry_multiplicity
 _atom_site_fract_x
 _atom_site_fract_y
 _atom_site_fract_z
 _atom_site_occupancy
  Sm  Sm0  1  0.188324  0.509177  0.320853  1
  Sm  Sm1  1  0.028166  0.212766  0.815400  1
  Sm  Sm2  1  0.707844  0.732068  0.439912  1
  Sm  Sm3  1  0.811676  0.490823  0.679147  1
  Sm  Sm4  1  0.811676  0.132529  0.320853  1
  Sm  Sm5  1  0.602634  0.787234  0.815400  1
  Sm  Sm6  1  0.292156  0.267932  0.560088  1
  Sm  Sm7  1  0.971834  0.787234  0.184600  1
  Sm  Sm8  1  0.292156  0.732068  0.024224  1
  Sm  Sm9  1  0.397366  0.212766  0.184600  1
  Sm  Sm10  1  0.707844  0.267932  0.975776  1
  Sm  Sm11  1  0.188324  0.867471  0.679147  1
  In  In12  1  0.500000  0.000000  0.500000  1
  In  In13  1  0.500000  0.500000  0.000000  1
  Co  Co14  1  0.853697  0.500000  0.353697  1
  Co  Co15  1  1.000000  0.109968  0.109968  1
  Co  Co16  1  0.000000  0.890032  0.890032  1
  Co  Co17  1  0.146303  0.500000  0.646303  1
