# generated using pymatgen
data_Ba10Mg3ZrTa6O30
_symmetry_space_group_name_H-M   'P 1'
_cell_length_a   5.88524702
_cell_length_b   5.88524716
_cell_length_c   59.15431921
_cell_angle_alpha   60.16865020
_cell_angle_beta   60.16864929
_cell_angle_gamma   60.00000263
_symmetry_Int_Tables_number   1
_chemical_formula_structural   Ba10Mg3ZrTa6O30
_chemical_formula_sum   'Ba20 Mg6 Zr2 Ta12 O60'
_cell_volume   1452.45692207
_cell_formula_units_Z   2
loop_
 _symmetry_equiv_pos_site_id
 _symmetry_equiv_pos_as_xyz
  1  'x, y, z'
loop_
 _atom_site_type_symbol
 _atom_site_label
 _atom_site_symmetry_multiplicity
 _atom_site_fract_x
 _atom_site_fract_y
 _atom_site_fract_z
 _atom_site_occupancy
  Ba  Ba0  1  0.254356  0.254356  0.023693  1
  Ba  Ba1  1  0.250820  0.250820  0.124754  1
  Ba  Ba2  1  0.246407  0.246407  0.226078  1
  Ba  Ba3  1  0.753593  0.753593  0.073922  1
  Ba  Ba4  1  0.236020  0.236020  0.329194  1
  Ba  Ba5  1  0.749180  0.749180  0.175246  1
  Ba  Ba6  1  0.231433  0.231433  0.430570  1
  Ba  Ba7  1  0.745644  0.745644  0.276307  1
  Ba  Ba8  1  0.724067  0.724067  0.382780  1
  Ba  Ba9  1  0.244879  0.244879  0.526536  1
  Ba  Ba10  1  0.249789  0.249789  0.625063  1
  Ba  Ba11  1  0.740775  0.740775  0.477768  1
  Ba  Ba12  1  0.748782  0.748782  0.575365  1
  Ba  Ba13  1  0.251218  0.251218  0.724635  1
  Ba  Ba14  1  0.259225  0.259225  0.822232  1
  Ba  Ba15  1  0.750211  0.750211  0.674937  1
  Ba  Ba16  1  0.275933  0.275933  0.917220  1
  Ba  Ba17  1  0.755121  0.755121  0.773464  1
  Ba  Ba18  1  0.768567  0.768567  0.869430  1
  Ba  Ba19  1  0.763980  0.763980  0.970806  1
  Mg  Mg20  1  0.980262  0.980262  0.405921  1
  Mg  Mg21  1  0.994810  0.994810  0.501557  1
  Mg  Mg22  1  0.999519  0.999519  0.600144  1
  Mg  Mg23  1  0.000481  0.000481  0.699856  1
  Mg  Mg24  1  0.005190  0.005190  0.798443  1
  Mg  Mg25  1  0.019738  0.019738  0.894079  1
  Zr  Zr26  1  0.001400  0.001400  0.099580  1
  Zr  Zr27  1  0.998600  0.998600  0.200420  1
  Ta  Ta28  1  0.004355  0.004355  0.998694  1
  Ta  Ta29  1  0.503143  0.503143  0.049057  1
  Ta  Ta30  1  0.995645  0.995645  0.301306  1
  Ta  Ta31  1  0.500000  0.500000  0.150000  1
  Ta  Ta32  1  0.496857  0.496857  0.250943  1
  Ta  Ta33  1  0.491091  0.491091  0.352673  1
  Ta  Ta34  1  0.493327  0.493327  0.452002  1
  Ta  Ta35  1  0.498304  0.498304  0.550509  1
  Ta  Ta36  1  0.500000  0.500000  0.650000  1
  Ta  Ta37  1  0.501696  0.501696  0.749491  1
  Ta  Ta38  1  0.506673  0.506673  0.847998  1
  Ta  Ta39  1  0.508909  0.508909  0.947327  1
  O  O40  1  0.259542  0.259542  0.073750  1
  O  O41  1  0.245591  0.748381  0.025765  1
  O  O42  1  0.259542  0.743418  0.073750  1
  O  O43  1  0.748381  0.245591  0.025765  1
  O  O44  1  0.743418  0.259542  0.073750  1
  O  O45  1  0.748381  0.748381  0.025765  1
  O  O46  1  0.255613  0.255613  0.174525  1
  O  O47  1  0.256475  0.744387  0.125475  1
  O  O48  1  0.255613  0.743525  0.174525  1
  O  O49  1  0.744387  0.256475  0.125475  1
  O  O50  1  0.743525  0.255613  0.174525  1
  O  O51  1  0.744387  0.744387  0.125475  1
  O  O52  1  0.251619  0.251619  0.274235  1
  O  O53  1  0.256582  0.740458  0.226250  1
  O  O54  1  0.740458  0.256582  0.226250  1
  O  O55  1  0.251619  0.754409  0.274235  1
  O  O56  1  0.754409  0.251619  0.274235  1
  O  O57  1  0.740458  0.740458  0.226250  1
  O  O58  1  0.269033  0.269033  0.370580  1
  O  O59  1  0.259109  0.763093  0.321470  1
  O  O60  1  0.763093  0.259109  0.321470  1
  O  O61  1  0.269033  0.756136  0.370580  1
  O  O62  1  0.756136  0.269033  0.370580  1
  O  O63  1  0.763093  0.763093  0.321470  1
  O  O64  1  0.259843  0.259843  0.473282  1
  O  O65  1  0.267383  0.744927  0.424276  1
  O  O66  1  0.744927  0.267383  0.424276  1
  O  O67  1  0.259843  0.747493  0.473282  1
  O  O68  1  0.747493  0.259843  0.473282  1
  O  O69  1  0.744927  0.744927  0.424276  1
  O  O70  1  0.258729  0.258729  0.573884  1
  O  O71  1  0.261070  0.742218  0.525449  1
  O  O72  1  0.258729  0.743699  0.573884  1
  O  O73  1  0.742218  0.261070  0.525449  1
  O  O74  1  0.743699  0.258729  0.573884  1
  O  O75  1  0.742218  0.742218  0.525449  1
  O  O76  1  0.258330  0.741498  0.625867  1
  O  O77  1  0.258502  0.258502  0.674133  1
  O  O78  1  0.741498  0.258330  0.625867  1
  O  O79  1  0.258502  0.741670  0.674133  1
  O  O80  1  0.741670  0.258502  0.674133  1
  O  O81  1  0.741498  0.741498  0.625867  1
  O  O82  1  0.257782  0.257782  0.774551  1
  O  O83  1  0.256301  0.741271  0.726116  1
  O  O84  1  0.741271  0.256301  0.726116  1
  O  O85  1  0.257782  0.738930  0.774551  1
  O  O86  1  0.738930  0.257782  0.774551  1
  O  O87  1  0.741271  0.741271  0.726116  1
  O  O88  1  0.252507  0.740157  0.826718  1
  O  O89  1  0.255073  0.255073  0.875724  1
  O  O90  1  0.255073  0.732617  0.875724  1
  O  O91  1  0.740157  0.252507  0.826718  1
  O  O92  1  0.740157  0.740157  0.826718  1
  O  O93  1  0.732617  0.255073  0.875724  1
  O  O94  1  0.243864  0.730967  0.929420  1
  O  O95  1  0.236907  0.236907  0.978530  1
  O  O96  1  0.730967  0.243864  0.929420  1
  O  O97  1  0.236907  0.740891  0.978530  1
  O  O98  1  0.740891  0.236907  0.978530  1
  O  O99  1  0.730967  0.730967  0.929420  1
