# generated using pymatgen
data_SbS5N5Cl6
_symmetry_space_group_name_H-M   'P 1'
_cell_length_a   7.58727722
_cell_length_b   10.02253332
_cell_length_c   25.18932445
_cell_angle_alpha   86.73204673
_cell_angle_beta   81.33801342
_cell_angle_gamma   67.75852535
_symmetry_Int_Tables_number   1
_chemical_formula_structural   SbS5N5Cl6
_chemical_formula_sum   'Sb4 S20 N20 Cl24'
_cell_volume   1752.74938416
_cell_formula_units_Z   4
loop_
 _symmetry_equiv_pos_site_id
 _symmetry_equiv_pos_as_xyz
  1  'x, y, z'
loop_
 _atom_site_type_symbol
 _atom_site_label
 _atom_site_symmetry_multiplicity
 _atom_site_fract_x
 _atom_site_fract_y
 _atom_site_fract_z
 _atom_site_occupancy
  Sb  Sb0  1  0.778406  0.322486  0.122800  1
  Sb  Sb1  1  0.850892  0.177514  0.622800  1
  Sb  Sb2  1  0.651206  0.822486  0.377200  1
  Sb  Sb3  1  0.223692  0.677514  0.877200  1
  S  S4  1  0.997920  0.762938  0.190100  1
  S  S5  1  0.923250  0.589137  0.715320  1
  S  S6  1  0.614690  0.048473  0.880209  1
  S  S7  1  0.543372  0.951527  0.119791  1
  S  S8  1  0.436210  0.795959  0.037566  1
  S  S9  1  0.946774  0.193831  0.424925  1
  S  S10  1  0.982169  0.704041  0.537566  1
  S  S11  1  0.227707  0.410863  0.284680  1
  S  S12  1  0.565531  0.806169  0.575075  1
  S  S13  1  0.413163  0.451528  0.380209  1
  S  S14  1  0.269735  0.204041  0.962434  1
  S  S15  1  0.388570  0.089137  0.784680  1
  S  S16  1  0.950958  0.237062  0.809900  1
  S  S17  1  0.510858  0.737062  0.690100  1
  S  S18  1  0.890605  0.306169  0.924925  1
  S  S19  1  0.938020  0.262938  0.309900  1
  S  S20  1  0.121699  0.693831  0.075075  1
  S  S21  1  0.262387  0.910863  0.215320  1
  S  S22  1  0.223776  0.295959  0.462434  1
  S  S23  1  0.244900  0.548473  0.619791  1
  N  N24  1  0.111081  0.556034  0.674072  1
  N  N25  1  0.173315  0.166880  0.806521  1
  N  N26  1  0.115013  0.236247  0.923534  1
  N  N27  1  0.274794  0.763753  0.076466  1
  N  N28  1  0.090195  0.333120  0.306521  1
  N  N29  1  0.535153  0.056034  0.825928  1
  N  N30  1  0.346818  0.380876  0.433048  1
  N  N31  1  0.788547  0.736247  0.576466  1
  N  N32  1  0.729836  0.666880  0.693479  1
  N  N33  1  0.417115  0.943966  0.174072  1
  N  N34  1  0.341187  0.443966  0.325928  1
  N  N35  1  0.838480  0.294480  0.867522  1
  N  N36  1  0.146715  0.833120  0.193479  1
  N  N37  1  0.882959  0.205520  0.367522  1
  N  N38  1  0.456001  0.794480  0.632478  1
  N  N39  1  0.000481  0.705520  0.132478  1
  N  N40  1  0.529866  0.880876  0.066952  1
  N  N41  1  0.477695  0.119124  0.933048  1
  N  N42  1  0.160743  0.619124  0.566952  1
  N  N43  1  0.101260  0.263753  0.423534  1
  Cl  Cl44  1  0.067148  0.297125  0.158560  1
  Cl  Cl45  1  0.380257  0.532737  0.949474  1
  Cl  Cl46  1  0.493566  0.346735  0.085378  1
  Cl  Cl47  1  0.524444  0.037184  0.324059  1
  Cl  Cl48  1  0.626868  0.325421  0.694570  1
  Cl  Cl49  1  0.598503  0.537184  0.175941  1
  Cl  Cl50  1  0.955598  0.106342  0.068778  1
  Cl  Cl51  1  0.522833  0.702875  0.841440  1
  Cl  Cl52  1  0.590301  0.153265  0.585378  1
  Cl  Cl53  1  0.925679  0.653265  0.914622  1
  Cl  Cl54  1  0.885688  0.962816  0.675941  1
  Cl  Cl55  1  0.328944  0.846735  0.414622  1
  Cl  Cl56  1  0.702289  0.174579  0.194570  1
  Cl  Cl57  1  0.975707  0.797125  0.341440  1
  Cl  Cl58  1  0.079731  0.032737  0.550526  1
  Cl  Cl59  1  0.130719  0.893658  0.931222  1
  Cl  Cl60  1  0.071438  0.825421  0.805430  1
  Cl  Cl61  1  0.646859  0.674579  0.305430  1
  Cl  Cl62  1  0.114273  0.202875  0.658560  1
  Cl  Cl63  1  0.311628  0.462816  0.824059  1
  Cl  Cl64  1  0.662995  0.967263  0.449474  1
  Cl  Cl65  1  0.774376  0.606342  0.431222  1
  Cl  Cl66  1  0.811941  0.393658  0.568778  1
  Cl  Cl67  1  0.862469  0.467263  0.050526  1
