# generated using pymatgen
data_Co5Te4Cl4O11
_symmetry_space_group_name_H-M   'P 1'
_cell_length_a   8.51699718
_cell_length_b   10.42077644
_cell_length_c   10.35157066
_cell_angle_alpha   110.52693453
_cell_angle_beta   97.23879926
_cell_angle_gamma   97.87379382
_symmetry_Int_Tables_number   1
_chemical_formula_structural   Co5Te4Cl4O11
_chemical_formula_sum   'Co10 Te8 Cl8 O22'
_cell_volume   837.16200722
_cell_formula_units_Z   2
loop_
 _symmetry_equiv_pos_site_id
 _symmetry_equiv_pos_as_xyz
  1  'x, y, z'
loop_
 _atom_site_type_symbol
 _atom_site_label
 _atom_site_symmetry_multiplicity
 _atom_site_fract_x
 _atom_site_fract_y
 _atom_site_fract_z
 _atom_site_occupancy
  Co  Co0  1  0.605506  0.000741  0.299005  1
  Co  Co1  1  0.394494  0.999259  0.700995  1
  Co  Co2  1  0.363752  0.814105  0.922110  1
  Co  Co3  1  0.400537  0.239641  0.548550  1
  Co  Co4  1  0.636248  0.185895  0.077890  1
  Co  Co5  1  0.585259  0.401191  0.880871  1
  Co  Co6  1  0.599463  0.760359  0.451450  1
  Co  Co7  1  0.407951  0.430321  0.343176  1
  Co  Co8  1  0.414741  0.598809  0.119129  1
  Co  Co9  1  0.592049  0.569679  0.656824  1
  Te  Te10  1  0.223549  0.457579  0.789845  1
  Te  Te11  1  0.283365  0.215541  0.996875  1
  Te  Te12  1  0.785497  0.329299  0.441538  1
  Te  Te13  1  0.716635  0.784459  0.003125  1
  Te  Te14  1  0.259498  0.879057  0.323358  1
  Te  Te15  1  0.776451  0.542421  0.210155  1
  Te  Te16  1  0.214503  0.670701  0.558462  1
  Te  Te17  1  0.740502  0.120943  0.676642  1
  Cl  Cl18  1  0.180986  0.125928  0.656505  1
  Cl  Cl19  1  0.197946  0.290018  0.400309  1
  Cl  Cl20  1  0.183103  0.930430  0.046710  1
  Cl  Cl21  1  0.802054  0.709982  0.599691  1
  Cl  Cl22  1  0.817921  0.486382  0.798185  1
  Cl  Cl23  1  0.819014  0.874072  0.343495  1
  Cl  Cl24  1  0.816897  0.069570  0.953290  1
  Cl  Cl25  1  0.182079  0.513618  0.201815  1
  O  O26  1  0.843896  0.448971  0.334146  1
  O  O27  1  0.555703  0.203267  0.720005  1
  O  O28  1  0.580709  0.382613  0.484720  1
  O  O29  1  0.597461  0.944678  0.606914  1
  O  O30  1  0.633789  0.619793  0.045621  1
  O  O31  1  0.402539  0.055322  0.393086  1
  O  O32  1  0.271453  0.852773  0.498262  1
  O  O33  1  0.444297  0.796733  0.279995  1
  O  O34  1  0.700979  0.371938  0.052390  1
  O  O35  1  0.426952  0.276540  0.169727  1
  O  O36  1  0.728547  0.147227  0.501738  1
  O  O37  1  0.300467  0.823395  0.731946  1
  O  O38  1  0.699533  0.176605  0.268054  1
  O  O39  1  0.366211  0.380207  0.954379  1
  O  O40  1  0.299021  0.628062  0.947610  1
  O  O41  1  0.576051  0.569760  0.280356  1
  O  O42  1  0.156104  0.551029  0.665854  1
  O  O43  1  0.419291  0.617387  0.515280  1
  O  O44  1  0.573048  0.723460  0.830273  1
  O  O45  1  0.567053  0.896632  0.082026  1
  O  O46  1  0.432947  0.103368  0.917974  1
  O  O47  1  0.423949  0.430240  0.719644  1
