# generated using pymatgen
data_UTa2O7
_symmetry_space_group_name_H-M   'P 1'
_cell_length_a   7.44549888
_cell_length_b   7.44549866
_cell_length_c   7.48781008
_cell_angle_alpha   59.81183040
_cell_angle_beta   59.81183141
_cell_angle_gamma   59.35636313
_symmetry_Int_Tables_number   1
_chemical_formula_structural   UTa2O7
_chemical_formula_sum   'U2 Ta4 O14'
_cell_volume   291.23336825
_cell_formula_units_Z   2
loop_
 _symmetry_equiv_pos_site_id
 _symmetry_equiv_pos_as_xyz
  1  'x, y, z'
loop_
 _atom_site_type_symbol
 _atom_site_label
 _atom_site_symmetry_multiplicity
 _atom_site_fract_x
 _atom_site_fract_y
 _atom_site_fract_z
 _atom_site_occupancy
  U  U0  1  0.625000  0.625000  0.125000  1
  U  U1  1  0.625000  0.625000  0.625000  1
  Ta  Ta2  1  0.125000  0.125000  0.125000  1
  Ta  Ta3  1  0.125000  0.125000  0.625000  1
  Ta  Ta4  1  0.125000  0.625000  0.125000  1
  Ta  Ta5  1  0.625000  0.125000  0.125000  1
  O  O6  1  0.069872  0.069872  0.430128  1
  O  O7  1  0.041001  0.448140  0.068764  1
  O  O8  1  0.041001  0.448140  0.442095  1
  O  O9  1  0.448140  0.041001  0.068764  1
  O  O10  1  0.446327  0.446327  0.053673  1
  O  O11  1  0.208999  0.801860  0.181236  1
  O  O12  1  0.180128  0.180128  0.819872  1
  O  O13  1  0.448140  0.041001  0.442095  1
  O  O14  1  0.801860  0.208999  0.181236  1
  O  O15  1  0.208999  0.801860  0.807905  1
  O  O16  1  0.538120  0.538120  0.461880  1
  O  O17  1  0.801860  0.208999  0.807905  1
  O  O18  1  0.803673  0.803673  0.196327  1
  O  O19  1  0.711880  0.711880  0.788120  1
