# generated using pymatgen
data_Na3NO2
_symmetry_space_group_name_H-M   'P 1'
_cell_length_a   9.13828823
_cell_length_b   6.41013803
_cell_length_c   6.33403224
_cell_angle_alpha   60.39197094
_cell_angle_beta   46.12151946
_cell_angle_gamma   44.53683060
_symmetry_Int_Tables_number   1
_chemical_formula_structural   Na3NO2
_chemical_formula_sum   'Na6 N2 O4'
_cell_volume   187.57713993
_cell_formula_units_Z   2
loop_
 _symmetry_equiv_pos_site_id
 _symmetry_equiv_pos_as_xyz
  1  'x, y, z'
loop_
 _atom_site_type_symbol
 _atom_site_label
 _atom_site_symmetry_multiplicity
 _atom_site_fract_x
 _atom_site_fract_y
 _atom_site_fract_z
 _atom_site_occupancy
  Na  Na0  1  0.244753  0.008301  0.050385  1
  Na  Na1  1  0.253800  0.500000  0.023098  1
  Na  Na2  1  0.753054  0.991699  0.050385  1
  Na  Na3  1  0.746200  0.500000  0.030698  1
  Na  Na4  1  0.246946  0.008301  0.548192  1
  Na  Na5  1  0.755247  0.991699  0.548192  1
  N  N6  1  0.171078  0.500000  0.677858  1
  N  N7  1  0.828922  0.500000  0.520014  1
  O  O8  1  0.000000  1.000000  0.052767  1
  O  O9  1  0.500000  1.000000  0.052767  1
  O  O10  1  0.636977  0.500000  0.748195  1
  O  O11  1  0.363023  0.500000  0.522150  1
