# generated using pymatgen
data_Sm2PbS4
_symmetry_space_group_name_H-M   'P 1'
_cell_length_a   7.46772667
_cell_length_b   7.46772594
_cell_length_c   7.46772671
_cell_angle_alpha   109.40221984
_cell_angle_beta   109.40221779
_cell_angle_gamma   109.60931004
_symmetry_Int_Tables_number   1
_chemical_formula_structural   Sm2PbS4
_chemical_formula_sum   'Sm4 Pb2 S8'
_cell_volume   320.58369623
_cell_formula_units_Z   2
loop_
 _symmetry_equiv_pos_site_id
 _symmetry_equiv_pos_as_xyz
  1  'x, y, z'
loop_
 _atom_site_type_symbol
 _atom_site_label
 _atom_site_symmetry_multiplicity
 _atom_site_fract_x
 _atom_site_fract_y
 _atom_site_fract_z
 _atom_site_occupancy
  Sm  Sm0  1  0.119217  0.750000  0.869217  1
  Sm  Sm1  1  0.250000  0.619217  0.369217  1
  Sm  Sm2  1  0.380783  0.250000  0.630783  1
  Sm  Sm3  1  0.750000  0.880783  0.130783  1
  Pb  Pb4  1  0.625000  0.375000  0.250000  1
  Pb  Pb5  1  0.875000  0.125000  0.750000  1
  S  S6  1  0.011656  0.858015  0.496532  1
  S  S7  1  0.141985  0.138517  0.153641  1
  S  S8  1  0.358015  0.511656  0.996532  1
  S  S9  1  0.638517  0.641985  0.653641  1
  S  S10  1  0.488344  0.984876  0.846359  1
  S  S11  1  0.484876  0.988344  0.346359  1
  S  S12  1  0.861483  0.515124  0.003468  1
  S  S13  1  0.015124  0.361483  0.503468  1
