# generated using pymatgen
data_CeErS3
_symmetry_space_group_name_H-M   'P 1'
_cell_length_a   3.95232435
_cell_length_b   16.46592656
_cell_length_c   21.16864609
_cell_angle_alpha   90.00000000
_cell_angle_beta   90.00000000
_cell_angle_gamma   90.00000000
_symmetry_Int_Tables_number   1
_chemical_formula_structural   CeErS3
_chemical_formula_sum   'Ce12 Er12 S36'
_cell_volume   1377.62759760
_cell_formula_units_Z   12
loop_
 _symmetry_equiv_pos_site_id
 _symmetry_equiv_pos_as_xyz
  1  'x, y, z'
loop_
 _atom_site_type_symbol
 _atom_site_label
 _atom_site_symmetry_multiplicity
 _atom_site_fract_x
 _atom_site_fract_y
 _atom_site_fract_z
 _atom_site_occupancy
  Ce  Ce0  1  0.750000  0.336434  0.745259  1
  Ce  Ce1  1  0.750000  0.836434  0.754741  1
  Ce  Ce2  1  0.750000  0.670213  0.912908  1
  Ce  Ce3  1  0.250000  0.695726  0.578091  1
  Ce  Ce4  1  0.250000  0.195726  0.921909  1
  Ce  Ce5  1  0.750000  0.304274  0.421909  1
  Ce  Ce6  1  0.750000  0.804274  0.078091  1
  Ce  Ce7  1  0.250000  0.163566  0.245259  1
  Ce  Ce8  1  0.750000  0.170213  0.587092  1
  Ce  Ce9  1  0.250000  0.663566  0.254741  1
  Ce  Ce10  1  0.250000  0.329787  0.087092  1
  Ce  Ce11  1  0.250000  0.829787  0.412908  1
  Er  Er12  1  0.750000  0.055753  0.069919  1
  Er  Er13  1  0.250000  0.066145  0.420885  1
  Er  Er14  1  0.250000  0.444247  0.569919  1
  Er  Er15  1  0.750000  0.933855  0.579115  1
  Er  Er16  1  0.250000  0.595215  0.748477  1
  Er  Er17  1  0.750000  0.433855  0.920885  1
  Er  Er18  1  0.750000  0.404785  0.251523  1
  Er  Er19  1  0.250000  0.944247  0.930081  1
  Er  Er20  1  0.750000  0.555753  0.430081  1
  Er  Er21  1  0.750000  0.904785  0.248477  1
  Er  Er22  1  0.250000  0.566145  0.079115  1
  Er  Er23  1  0.250000  0.095215  0.751523  1
  S  S24  1  0.250000  0.961678  0.318214  1
  S  S25  1  0.750000  0.289499  0.984004  1
  S  S26  1  0.250000  0.938682  0.059168  1
  S  S27  1  0.250000  0.944785  0.804601  1
  S  S28  1  0.250000  0.545302  0.947260  1
  S  S29  1  0.750000  0.270703  0.178001  1
  S  S30  1  0.750000  0.840013  0.935577  1
  S  S31  1  0.750000  0.454698  0.052740  1
  S  S32  1  0.750000  0.679832  0.682612  1
  S  S33  1  0.250000  0.210501  0.484004  1
  S  S34  1  0.750000  0.055215  0.195399  1
  S  S35  1  0.250000  0.045302  0.552740  1
  S  S36  1  0.750000  0.146989  0.350911  1
  S  S37  1  0.750000  0.061318  0.940832  1
  S  S38  1  0.250000  0.710501  0.015996  1
  S  S39  1  0.750000  0.789499  0.515996  1
  S  S40  1  0.750000  0.555215  0.304601  1
  S  S41  1  0.250000  0.444785  0.695399  1
  S  S42  1  0.250000  0.461678  0.181786  1
  S  S43  1  0.250000  0.229297  0.678001  1
  S  S44  1  0.250000  0.729297  0.821999  1
  S  S45  1  0.250000  0.853011  0.649089  1
  S  S46  1  0.250000  0.159987  0.064423  1
  S  S47  1  0.750000  0.646989  0.149089  1
  S  S48  1  0.250000  0.320168  0.317388  1
  S  S49  1  0.750000  0.770703  0.321999  1
  S  S50  1  0.250000  0.820168  0.182612  1
  S  S51  1  0.750000  0.340013  0.564423  1
  S  S52  1  0.750000  0.038322  0.681786  1
  S  S53  1  0.250000  0.659987  0.435577  1
  S  S54  1  0.750000  0.954698  0.447260  1
  S  S55  1  0.250000  0.438682  0.440832  1
  S  S56  1  0.750000  0.538322  0.818214  1
  S  S57  1  0.750000  0.179832  0.817388  1
  S  S58  1  0.750000  0.561318  0.559168  1
  S  S59  1  0.250000  0.353011  0.850911  1
