# generated using pymatgen
data_BaCo2(PO4)2
_symmetry_space_group_name_H-M   'P 1'
_cell_length_a   8.55626793
_cell_length_b   8.51741402
_cell_length_c   8.52983922
_cell_angle_alpha   32.47948861
_cell_angle_beta   33.13344871
_cell_angle_gamma   33.19386064
_symmetry_Int_Tables_number   1
_chemical_formula_structural   BaCo2(PO4)2
_chemical_formula_sum   'Ba1 Co2 P2 O8'
_cell_volume   163.46315623
_cell_formula_units_Z   1
loop_
 _symmetry_equiv_pos_site_id
 _symmetry_equiv_pos_as_xyz
  1  'x, y, z'
loop_
 _atom_site_type_symbol
 _atom_site_label
 _atom_site_symmetry_multiplicity
 _atom_site_fract_x
 _atom_site_fract_y
 _atom_site_fract_z
 _atom_site_occupancy
  Ba  Ba0  1  0.000028  0.999974  0.999988  1
  Co  Co1  1  0.149170  0.177582  0.178314  1
  Co  Co2  1  0.850868  0.822399  0.821672  1
  P  P3  1  0.571046  0.575655  0.572101  1
  P  P4  1  0.428997  0.424301  0.427896  1
  O  O5  1  0.149198  0.429406  0.762659  1
  O  O6  1  0.635400  0.633886  0.639327  1
  O  O7  1  0.364624  0.366058  0.360711  1
  O  O8  1  0.444900  0.755899  0.150679  1
  O  O9  1  0.850742  0.570655  0.237349  1
  O  O10  1  0.243564  0.862120  0.553996  1
  O  O11  1  0.756368  0.137932  0.446042  1
  O  O12  1  0.555096  0.244132  0.849266  1
