# generated using pymatgen
data_GdTi2CdO6F
_symmetry_space_group_name_H-M   'P 1'
_cell_length_a   7.24135139
_cell_length_b   7.24135110
_cell_length_c   7.40155362
_cell_angle_alpha   59.26542388
_cell_angle_beta   59.26542525
_cell_angle_gamma   59.03277762
_symmetry_Int_Tables_number   1
_chemical_formula_structural   GdTi2CdO6F
_chemical_formula_sum   'Gd2 Ti4 Cd2 O12 F2'
_cell_volume   269.35841904
_cell_formula_units_Z   2
loop_
 _symmetry_equiv_pos_site_id
 _symmetry_equiv_pos_as_xyz
  1  'x, y, z'
loop_
 _atom_site_type_symbol
 _atom_site_label
 _atom_site_symmetry_multiplicity
 _atom_site_fract_x
 _atom_site_fract_y
 _atom_site_fract_z
 _atom_site_occupancy
  Gd  Gd0  1  0.000000  0.000000  0.000000  1
  Gd  Gd1  1  0.000000  0.000000  0.500000  1
  Ti  Ti2  1  0.500000  0.500000  0.500000  1
  Ti  Ti3  1  0.500000  0.500000  0.000000  1
  Ti  Ti4  1  0.500000  0.000000  0.500000  1
  Ti  Ti5  1  0.000000  0.500000  0.500000  1
  Cd  Cd6  1  0.000000  0.500000  0.000000  1
  Cd  Cd7  1  0.500000  0.000000  0.000000  1
  O  O8  1  0.169165  0.584898  0.173846  1
  O  O9  1  0.166118  0.166118  0.583882  1
  O  O10  1  0.169165  0.584898  0.572091  1
  O  O11  1  0.584898  0.169165  0.173846  1
  O  O12  1  0.576468  0.576468  0.173532  1
  O  O13  1  0.584898  0.169165  0.572091  1
  O  O14  1  0.423532  0.423532  0.826468  1
  O  O15  1  0.415102  0.830835  0.427909  1
  O  O16  1  0.415102  0.830835  0.826154  1
  O  O17  1  0.830835  0.415102  0.427909  1
  O  O18  1  0.830835  0.415102  0.826154  1
  O  O19  1  0.833882  0.833882  0.416118  1
  F  F20  1  0.122651  0.122651  0.127349  1
  F  F21  1  0.877349  0.877349  0.872651  1
