# generated using pymatgen
data_P(W3O10)2
_symmetry_space_group_name_H-M   'P 1'
_cell_length_a   5.39198448
_cell_length_b   6.67225496
_cell_length_c   42.98333947
_cell_angle_alpha   90.00000000
_cell_angle_beta   90.00000000
_cell_angle_gamma   90.00000000
_symmetry_Int_Tables_number   1
_chemical_formula_structural   P(W3O10)2
_chemical_formula_sum   'P4 W24 O80'
_cell_volume   1546.39850240
_cell_formula_units_Z   4
loop_
 _symmetry_equiv_pos_site_id
 _symmetry_equiv_pos_as_xyz
  1  'x, y, z'
loop_
 _atom_site_type_symbol
 _atom_site_label
 _atom_site_symmetry_multiplicity
 _atom_site_fract_x
 _atom_site_fract_y
 _atom_site_fract_z
 _atom_site_occupancy
  P  P0  1  0.736962  0.883661  0.223913  1
  P  P1  1  0.263038  0.383661  0.276087  1
  P  P2  1  0.763038  0.116339  0.723913  1
  P  P3  1  0.236962  0.616339  0.776087  1
  W  W4  1  0.246017  0.906893  0.126468  1
  W  W5  1  0.257631  0.738537  0.336315  1
  W  W6  1  0.757040  0.085339  0.518053  1
  W  W7  1  0.746017  0.593107  0.873532  1
  W  W8  1  0.754517  0.076819  0.300143  1
  W  W9  1  0.242960  0.585339  0.981947  1
  W  W10  1  0.745483  0.923181  0.800143  1
  W  W11  1  0.755649  0.745298  0.445938  1
  W  W12  1  0.742369  0.238537  0.163685  1
  W  W13  1  0.744351  0.254702  0.945938  1
  W  W14  1  0.258372  0.075052  0.409645  1
  W  W15  1  0.741628  0.575052  0.090355  1
  W  W16  1  0.758372  0.424948  0.590355  1
  W  W17  1  0.244351  0.245299  0.054062  1
  W  W18  1  0.757631  0.761463  0.663685  1
  W  W19  1  0.255649  0.754702  0.554062  1
  W  W20  1  0.245483  0.576819  0.199857  1
  W  W21  1  0.257040  0.414661  0.481947  1
  W  W22  1  0.253983  0.093107  0.626468  1
  W  W23  1  0.742960  0.914661  0.018053  1
  W  W24  1  0.254517  0.423181  0.699857  1
  W  W25  1  0.242369  0.261463  0.836315  1
  W  W26  1  0.753983  0.406893  0.373532  1
  W  W27  1  0.241628  0.924948  0.909645  1
  O  O28  1  0.754905  0.915992  0.481476  1
  O  O29  1  0.246090  0.574248  0.296154  1
  O  O30  1  0.979880  0.572852  0.687490  1
  O  O31  1  0.543019  0.932851  0.423319  1
  O  O32  1  0.479880  0.927148  0.312510  1
  O  O33  1  0.048642  0.239475  0.283556  1
  O  O34  1  0.746090  0.925752  0.703846  1
  O  O35  1  0.548642  0.260525  0.716444  1
  O  O36  1  0.982740  0.718061  0.780379  1
  O  O37  1  0.451358  0.760525  0.783556  1
  O  O38  1  0.740192  0.743574  0.055106  1
  O  O39  1  0.739803  0.055096  0.758424  1
  O  O40  1  0.956981  0.067149  0.923319  1
  O  O41  1  0.522278  0.108139  0.816729  1
  O  O42  1  0.257368  0.910027  0.370249  1
  O  O43  1  0.482740  0.781939  0.219621  1
  O  O44  1  0.958193  0.725524  0.997759  1
  O  O45  1  0.526241  0.778009  0.892190  1
  O  O46  1  0.745870  0.423707  0.908089  1
  O  O47  1  0.528153  0.442870  0.965680  1
  O  O48  1  0.753910  0.074248  0.203846  1
  O  O49  1  0.017260  0.218061  0.719621  1
  O  O50  1  0.026241  0.721991  0.107810  1
  O  O51  1  0.458193  0.774476  0.002241  1
  O  O52  1  0.029634  0.734860  0.886876  1
  O  O53  1  0.254130  0.923707  0.591911  1
  O  O54  1  0.971847  0.557130  0.465680  1
  O  O55  1  0.529634  0.765140  0.113125  1
  O  O56  1  0.463332  0.094288  0.150360  1
  O  O57  1  0.022278  0.391861  0.183271  1
  O  O58  1  0.741589  0.760952  0.834976  1
  O  O59  1  0.245870  0.076293  0.091911  1
  O  O60  1  0.259808  0.243574  0.444894  1
  O  O61  1  0.458478  0.113312  0.928514  1
  O  O62  1  0.470870  0.603629  0.460691  1
  O  O63  1  0.534369  0.942350  0.645314  1
  O  O64  1  0.970366  0.234860  0.613124  1
  O  O65  1  0.520120  0.427148  0.187490  1
  O  O66  1  0.977722  0.891861  0.316729  1
  O  O67  1  0.456981  0.432851  0.076681  1
  O  O68  1  0.757368  0.589973  0.629751  1
  O  O69  1  0.020120  0.072852  0.812510  1
  O  O70  1  0.041807  0.225524  0.502241  1
  O  O71  1  0.970870  0.896371  0.539309  1
  O  O72  1  0.253910  0.425752  0.796154  1
  O  O73  1  0.239803  0.444904  0.241576  1
  O  O74  1  0.242632  0.089973  0.870249  1
  O  O75  1  0.470366  0.265140  0.386875  1
  O  O76  1  0.034369  0.557650  0.354686  1
  O  O77  1  0.041522  0.886688  0.428514  1
  O  O78  1  0.759808  0.256426  0.555106  1
  O  O79  1  0.260197  0.555096  0.741576  1
  O  O80  1  0.517260  0.281939  0.280379  1
  O  O81  1  0.477722  0.608139  0.683271  1
  O  O82  1  0.973759  0.221991  0.392190  1
  O  O83  1  0.758411  0.239048  0.334976  1
  O  O84  1  0.028153  0.057130  0.034320  1
  O  O85  1  0.541807  0.274476  0.497759  1
  O  O86  1  0.258411  0.260952  0.665024  1
  O  O87  1  0.965631  0.057650  0.145314  1
  O  O88  1  0.241589  0.739048  0.165024  1
  O  O89  1  0.465631  0.442350  0.854686  1
  O  O90  1  0.036668  0.905712  0.650360  1
  O  O91  1  0.529130  0.103629  0.039309  1
  O  O92  1  0.254905  0.584008  0.518524  1
  O  O93  1  0.760197  0.944904  0.258424  1
  O  O94  1  0.958478  0.386688  0.071486  1
  O  O95  1  0.536668  0.594288  0.349640  1
  O  O96  1  0.245095  0.415992  0.018524  1
  O  O97  1  0.043019  0.567149  0.576681  1
  O  O98  1  0.473759  0.278009  0.607810  1
  O  O99  1  0.471847  0.942870  0.534320  1
  O  O100  1  0.951358  0.739475  0.216444  1
  O  O101  1  0.742632  0.410027  0.129751  1
  O  O102  1  0.029130  0.396371  0.960691  1
  O  O103  1  0.963332  0.405712  0.849640  1
  O  O104  1  0.541522  0.613312  0.571486  1
  O  O105  1  0.745095  0.084008  0.981476  1
  O  O106  1  0.240192  0.756426  0.944894  1
  O  O107  1  0.754130  0.576293  0.408089  1
