# generated using pymatgen
data_NdZr9O20
_symmetry_space_group_name_H-M   'P 1'
_cell_length_a   18.43299893
_cell_length_b   8.24540899
_cell_length_c   6.51705917
_cell_angle_alpha   59.40101153
_cell_angle_beta   55.36976325
_cell_angle_gamma   26.51925406
_symmetry_Int_Tables_number   1
_chemical_formula_structural   NdZr9O20
_chemical_formula_sum   'Nd1 Zr9 O20'
_cell_volume   363.90918676
_cell_formula_units_Z   1
loop_
 _symmetry_equiv_pos_site_id
 _symmetry_equiv_pos_as_xyz
  1  'x, y, z'
loop_
 _atom_site_type_symbol
 _atom_site_label
 _atom_site_symmetry_multiplicity
 _atom_site_fract_x
 _atom_site_fract_y
 _atom_site_fract_z
 _atom_site_occupancy
  Nd  Nd0  1  0.700519  0.250330  0.746891  1
  Zr  Zr1  1  0.103310  0.243067  0.742279  1
  Zr  Zr2  1  0.099105  0.756324  0.248276  1
  Zr  Zr3  1  0.299347  0.253821  0.742946  1
  Zr  Zr4  1  0.299180  0.751509  0.254700  1
  Zr  Zr5  1  0.494784  0.252873  0.761055  1
  Zr  Zr6  1  0.496386  0.752547  0.252444  1
  Zr  Zr7  1  0.706140  0.737144  0.247399  1
  Zr  Zr8  1  0.899099  0.252471  0.754025  1
  Zr  Zr9  1  0.897794  0.752533  0.249519  1
  O  O10  1  0.139213  0.249295  0.058510  1
  O  O11  1  0.036337  0.254564  0.551573  1
  O  O12  1  0.340320  0.257036  0.065045  1
  O  O13  1  0.240211  0.242986  0.560602  1
  O  O14  1  0.066162  0.740894  0.936422  1
  O  O15  1  0.174459  0.722191  0.438848  1
  O  O16  1  0.534661  0.251917  0.064460  1
  O  O17  1  0.440059  0.245984  0.564033  1
  O  O18  1  0.255419  0.762098  0.947265  1
  O  O19  1  0.350038  0.768856  0.452631  1
  O  O20  1  0.743805  0.249247  0.051858  1
  O  O21  1  0.630253  0.258847  0.534361  1
  O  O22  1  0.442272  0.792170  0.969965  1
  O  O23  1  0.558065  0.760940  0.438182  1
  O  O24  1  0.937527  0.242893  0.046746  1
  O  O25  1  0.855192  0.246840  0.525141  1
  O  O26  1  0.662570  0.749762  0.941164  1
  O  O27  1  0.757409  0.756844  0.448648  1
  O  O28  1  0.873388  0.704997  0.969006  1
  O  O29  1  0.966975  0.739021  0.436008  1
