# generated using pymatgen
data_Ti(CrS2)2
_symmetry_space_group_name_H-M   'P 1'
_cell_length_a   4.74842605
_cell_length_b   4.95947358
_cell_length_c   4.91750497
_cell_angle_alpha   95.91737931
_cell_angle_beta   93.95141499
_cell_angle_gamma   93.42949081
_symmetry_Int_Tables_number   1
_chemical_formula_structural   Ti(CrS2)2
_chemical_formula_sum   'Ti1 Cr2 S4'
_cell_volume   114.65320463
_cell_formula_units_Z   1
loop_
 _symmetry_equiv_pos_site_id
 _symmetry_equiv_pos_as_xyz
  1  'x, y, z'
loop_
 _atom_site_type_symbol
 _atom_site_label
 _atom_site_symmetry_multiplicity
 _atom_site_fract_x
 _atom_site_fract_y
 _atom_site_fract_z
 _atom_site_occupancy
  Ti  Ti0  1  0.848114  0.128719  0.905025  1
  Cr  Cr1  1  0.288653  0.477731  0.727852  1
  Cr  Cr2  1  0.270793  0.928154  0.269029  1
  S  S3  1  0.784240  0.558901  0.758748  1
  S  S4  1  0.313550  -0.015307  0.777031  1
  S  S5  1  0.771388  0.985978  0.337716  1
  S  S6  1  0.223261  0.435824  0.224598  1
