# generated using pymatgen
data_H8PtO6
_symmetry_space_group_name_H-M   'P 1'
_cell_length_a   5.57829454
_cell_length_b   5.57288148
_cell_length_c   7.33712806
_cell_angle_alpha   87.11439169
_cell_angle_beta   92.03166010
_cell_angle_gamma   97.03887055
_symmetry_Int_Tables_number   1
_chemical_formula_structural   H8PtO6
_chemical_formula_sum   'H16 Pt2 O12'
_cell_volume   225.98580457
_cell_formula_units_Z   2
loop_
 _symmetry_equiv_pos_site_id
 _symmetry_equiv_pos_as_xyz
  1  'x, y, z'
loop_
 _atom_site_type_symbol
 _atom_site_label
 _atom_site_symmetry_multiplicity
 _atom_site_fract_x
 _atom_site_fract_y
 _atom_site_fract_z
 _atom_site_occupancy
  H  H0  1  0.073775  0.600818  0.825911  1
  H  H1  1  0.631452  0.108030  0.648050  1
  H  H2  1  0.753559  0.865159  0.744052  1
  H  H3  1  0.871165  0.372907  0.145366  1
  H  H4  1  0.148278  0.522164  0.152549  1
  H  H5  1  0.249901  0.127165  0.244436  1
  H  H6  1  0.521602  0.159234  0.338512  1
  H  H7  1  0.455925  0.548623  0.006305  1
  H  H8  1  0.538881  0.424162  0.510603  1
  H  H9  1  0.757342  0.410463  0.901514  1
  H  H10  1  0.392333  0.754659  0.620391  1
  H  H11  1  0.362470  0.790417  0.406683  1
  H  H12  1  0.170605  0.145627  0.797398  1
  H  H13  1  0.022636  0.044001  0.518907  1
  H  H14  1  0.957398  0.971950  0.020346  1
  H  H15  1  0.844595  0.827218  0.286414  1
  Pt  Pt16  1  0.984507  0.491753  0.496559  1
  Pt  Pt17  1  0.508129  0.002059  0.000068  1
  O  O18  1  0.920355  0.583205  0.750228  1
  O  O19  1  0.605671  0.954597  0.739343  1
  O  O20  1  0.035755  0.399835  0.230779  1
  O  O21  1  0.399612  0.043684  0.259429  1
  O  O22  1  0.329477  0.660945  0.000697  1
  O  O23  1  0.651360  0.303235  0.491994  1
  O  O24  1  0.675059  0.345840  0.017022  1
  O  O25  1  0.335998  0.664066  0.508625  1
  O  O26  1  0.191465  0.129986  0.934247  1
  O  O27  1  0.127617  0.183148  0.577016  1
  O  O28  1  0.816687  0.863408  0.077550  1
  O  O29  1  0.855880  0.809222  0.426108  1
