# generated using pymatgen
data_Ba2ScCl7
_symmetry_space_group_name_H-M   'P 1'
_cell_length_a   7.01195253
_cell_length_b   12.26118665
_cell_length_c   13.67386136
_cell_angle_alpha   90.00000000
_cell_angle_beta   90.00000000
_cell_angle_gamma   95.42987223
_symmetry_Int_Tables_number   1
_chemical_formula_structural   Ba2ScCl7
_chemical_formula_sum   'Ba8 Sc4 Cl28'
_cell_volume   1170.33306753
_cell_formula_units_Z   4
loop_
 _symmetry_equiv_pos_site_id
 _symmetry_equiv_pos_as_xyz
  1  'x, y, z'
loop_
 _atom_site_type_symbol
 _atom_site_label
 _atom_site_symmetry_multiplicity
 _atom_site_fract_x
 _atom_site_fract_y
 _atom_site_fract_z
 _atom_site_occupancy
  Ba  Ba0  1  0.260081  0.868586  0.927312  1
  Ba  Ba1  1  0.734259  0.014624  0.663084  1
  Ba  Ba2  1  0.260081  0.368586  0.572688  1
  Ba  Ba3  1  0.734259  0.514624  0.836916  1
  Ba  Ba4  1  0.739919  0.631414  0.427312  1
  Ba  Ba5  1  0.739919  0.131414  0.072688  1
  Ba  Ba6  1  0.265741  0.985376  0.336916  1
  Ba  Ba7  1  0.265741  0.485376  0.163084  1
  Sc  Sc8  1  0.801208  0.204692  0.366573  1
  Sc  Sc9  1  0.801208  0.704693  0.133427  1
  Sc  Sc10  1  0.198792  0.295308  0.866573  1
  Sc  Sc11  1  0.198792  0.795307  0.633427  1
  Cl  Cl12  1  0.953905  0.761196  0.768793  1
  Cl  Cl13  1  0.046095  0.738804  0.268793  1
  Cl  Cl14  1  0.226639  0.488365  0.805835  1
  Cl  Cl15  1  0.452301  0.343592  0.996419  1
  Cl  Cl16  1  0.951643  0.857508  0.515265  1
  Cl  Cl17  1  0.773361  0.511635  0.194165  1
  Cl  Cl18  1  0.452301  0.843592  0.503581  1
  Cl  Cl19  1  0.462095  0.761766  0.745274  1
  Cl  Cl20  1  0.953905  0.261196  0.731207  1
  Cl  Cl21  1  0.462095  0.261766  0.754726  1
  Cl  Cl22  1  0.625891  0.517636  0.623018  1
  Cl  Cl23  1  0.547699  0.156408  0.496419  1
  Cl  Cl24  1  0.120522  0.111239  0.933082  1
  Cl  Cl25  1  0.048357  0.642492  0.015265  1
  Cl  Cl26  1  0.547699  0.656408  0.003581  1
  Cl  Cl27  1  0.120522  0.611239  0.566918  1
  Cl  Cl28  1  0.879478  0.388761  0.433082  1
  Cl  Cl29  1  0.625891  0.017636  0.876982  1
  Cl  Cl30  1  0.048357  0.142492  0.484735  1
  Cl  Cl31  1  0.773361  0.011635  0.305835  1
  Cl  Cl32  1  0.537905  0.238234  0.254726  1
  Cl  Cl33  1  0.374109  0.482364  0.376982  1
  Cl  Cl34  1  0.226639  0.988365  0.694165  1
  Cl  Cl35  1  0.879478  0.888761  0.066918  1
  Cl  Cl36  1  0.537905  0.738234  0.245274  1
  Cl  Cl37  1  0.951643  0.357508  0.984735  1
  Cl  Cl38  1  0.374109  0.982364  0.123018  1
  Cl  Cl39  1  0.046095  0.238804  0.231207  1
