# generated using pymatgen
data_Ca2YFe3(SnO6)2
_symmetry_space_group_name_H-M   'P 1'
_cell_length_a   11.08865180
_cell_length_b   11.10387980
_cell_length_c   11.05778208
_cell_angle_alpha   109.51776912
_cell_angle_beta   109.25977109
_cell_angle_gamma   109.60692870
_symmetry_Int_Tables_number   1
_chemical_formula_structural   Ca2YFe3(SnO6)2
_chemical_formula_sum   'Ca8 Y4 Fe12 Sn8 O48'
_cell_volume   1048.46220577
_cell_formula_units_Z   4
loop_
 _symmetry_equiv_pos_site_id
 _symmetry_equiv_pos_as_xyz
  1  'x, y, z'
loop_
 _atom_site_type_symbol
 _atom_site_label
 _atom_site_symmetry_multiplicity
 _atom_site_fract_x
 _atom_site_fract_y
 _atom_site_fract_z
 _atom_site_occupancy
  Ca  Ca0  1  0.127590  0.373000  0.747976  1
  Ca  Ca1  1  0.251076  0.877259  0.626402  1
  Ca  Ca2  1  0.125985  0.248871  0.375820  1
  Ca  Ca3  1  0.383010  0.753381  0.128434  1
  Ca  Ca4  1  0.748425  0.623612  0.876111  1
  Ca  Ca5  1  0.376632  0.124525  0.249011  1
  Ca  Ca6  1  0.868396  0.747552  0.617138  1
  Ca  Ca7  1  0.874423  0.627223  0.251421  1
  Y  Y8  1  0.251144  0.374873  0.124869  1
  Y  Y9  1  0.622406  0.875286  0.753994  1
  Y  Y10  1  0.618353  0.246349  0.879162  1
  Y  Y11  1  0.747905  0.125258  0.369431  1
  Fe  Fe12  1  0.124858  0.875242  0.250395  1
  Fe  Fe13  1  0.373900  0.626961  0.751628  1
  Fe  Fe14  1  0.252329  0.626444  0.378123  1
  Fe  Fe15  1  0.255710  0.125073  0.874887  1
  Fe  Fe16  1  0.373190  0.249240  0.623395  1
  Fe  Fe17  1  0.624896  0.751413  0.376734  1
  Fe  Fe18  1  0.748519  0.374758  0.625486  1
  Fe  Fe19  1  0.624317  0.370641  0.246682  1
  Fe  Fe20  1  0.747244  0.874407  0.123010  1
  Fe  Fe21  1  0.507260  0.003863  0.003682  1
  Fe  Fe22  1  0.875056  0.126984  0.750077  1
  Fe  Fe23  1  0.872439  0.245421  0.123393  1
  Sn  Sn24  1  0.129726  0.754982  0.877944  1
  Sn  Sn25  1  0.997325  0.496223  0.493494  1
  Sn  Sn26  1  0.997550  0.496626  0.001231  1
  Sn  Sn27  1  0.500143  0.999018  0.499311  1
  Sn  Sn28  1  0.998073  0.003356  0.001420  1
  Sn  Sn29  1  0.500871  0.499286  0.499264  1
  Sn  Sn30  1  0.501345  0.501967  0.001862  1
  Sn  Sn31  1  0.999312  0.999667  0.500605  1
  O  O32  1  0.097780  0.977288  0.682452  1
  O  O33  1  0.080426  0.706117  0.673136  1
  O  O34  1  0.123542  0.591907  0.916475  1
  O  O35  1  0.029901  0.319790  0.907555  1
  O  O36  1  0.082306  0.879142  0.402987  1
  O  O37  1  0.096659  0.620383  0.414244  1
  O  O38  1  0.178788  0.477431  0.596869  1
  O  O39  1  0.297758  0.322617  0.925898  1
  O  O40  1  0.379646  0.583198  0.904399  1
  O  O41  1  0.427024  0.825172  0.805126  1
  O  O42  1  0.179414  0.204689  0.583330  1
  O  O43  1  0.320195  0.916091  0.297196  1
  O  O44  1  0.029952  0.211974  0.123330  1
  O  O45  1  0.409518  0.821017  0.531630  1
  O  O46  1  0.202871  0.573983  0.178307  1
  O  O47  1  0.330593  0.911365  0.033399  1
  O  O48  1  0.296876  0.473664  0.371031  1
  O  O49  1  0.119654  0.023294  0.201952  1
  O  O50  1  0.410899  0.087061  0.879594  1
  O  O51  1  0.524901  0.628398  0.703644  1
  O  O52  1  0.379082  0.295891  0.475553  1
  O  O53  1  0.525159  0.397315  0.821555  1
  O  O54  1  0.588133  0.907601  0.377758  1
  O  O55  1  0.201333  0.125886  0.022798  1
  O  O56  1  0.789203  0.880381  0.969705  1
  O  O57  1  0.426483  0.103396  0.628736  1
  O  O58  1  0.471251  0.593250  0.182484  1
  O  O59  1  0.620863  0.710194  0.529980  1
  O  O60  1  0.470816  0.377479  0.288464  1
  O  O61  1  0.604359  0.928366  0.126923  1
  O  O62  1  0.869631  0.975400  0.795907  1
  O  O63  1  0.703799  0.523686  0.621937  1
  O  O64  1  0.677917  0.095606  0.969541  1
  O  O65  1  0.791426  0.410377  0.819746  1
  O  O66  1  0.603115  0.176852  0.473167  1
  O  O67  1  0.677817  0.080543  0.709514  1
  O  O68  1  0.968130  0.794983  0.874310  1
  O  O69  1  0.817967  0.795103  0.417141  1
  O  O70  1  0.589378  0.179525  0.206295  1
  O  O71  1  0.704245  0.680606  0.082809  1
  O  O72  1  0.621376  0.411676  0.090685  1
  O  O73  1  0.818540  0.522364  0.400102  1
  O  O74  1  0.898166  0.374242  0.576808  1
  O  O75  1  0.911310  0.122531  0.593044  1
  O  O76  1  0.977347  0.678598  0.095703  1
  O  O77  1  0.867847  0.393620  0.075359  1
  O  O78  1  0.910762  0.285880  0.317645  1
  O  O79  1  0.896439  0.025304  0.321386  1
