# generated using pymatgen
data_Fe6Ge2(CO)23
_symmetry_space_group_name_H-M   'P 1'
_cell_length_a   9.24850623
_cell_length_b   13.94548617
_cell_length_c   14.60210099
_cell_angle_alpha   67.31817311
_cell_angle_beta   83.11137409
_cell_angle_gamma   82.78183855
_symmetry_Int_Tables_number   1
_chemical_formula_structural   Fe6Ge2(CO)23
_chemical_formula_sum   'Fe12 Ge4 C46 O46'
_cell_volume   1718.61429514
_cell_formula_units_Z   2
loop_
 _symmetry_equiv_pos_site_id
 _symmetry_equiv_pos_as_xyz
  1  'x, y, z'
loop_
 _atom_site_type_symbol
 _atom_site_label
 _atom_site_symmetry_multiplicity
 _atom_site_fract_x
 _atom_site_fract_y
 _atom_site_fract_z
 _atom_site_occupancy
  Fe  Fe0  1  0.632307  0.498394  0.161133  1
  Fe  Fe1  1  0.713020  0.814101  0.140039  1
  Fe  Fe2  1  0.014869  0.114699  0.663830  1
  Fe  Fe3  1  0.614910  0.709708  0.327319  1
  Fe  Fe4  1  0.367693  0.501606  0.838867  1
  Fe  Fe5  1  0.087907  0.520411  0.770839  1
  Fe  Fe6  1  0.385090  0.290292  0.672681  1
  Fe  Fe7  1  0.912093  0.479589  0.229161  1
  Fe  Fe8  1  0.286980  0.185899  0.859961  1
  Fe  Fe9  1  0.720928  0.013634  0.315848  1
  Fe  Fe10  1  0.279072  0.986366  0.684152  1
  Fe  Fe11  1  0.985131  0.885301  0.336170  1
  Ge  Ge12  1  0.268576  0.377381  0.782995  1
  Ge  Ge13  1  0.766995  0.854944  0.281237  1
  Ge  Ge14  1  0.233005  0.145056  0.718763  1
  Ge  Ge15  1  0.731424  0.622619  0.217005  1
  C  C16  1  0.077330  0.188243  0.536293  1
  C  C17  1  0.755694  0.640655  0.410168  1
  C  C18  1  0.235272  0.889460  0.641415  1
  C  C19  1  0.244306  0.359345  0.589832  1
  C  C20  1  0.511371  0.800761  0.204548  1
  C  C21  1  0.671611  0.951580  0.083137  1
  C  C22  1  0.504712  0.391249  0.633803  1
  C  C23  1  0.432914  0.580778  0.712340  1
  C  C24  1  0.047595  0.641824  0.789457  1
  C  C25  1  0.764728  0.110540  0.358585  1
  C  C26  1  0.328389  0.048420  0.916863  1
  C  C27  1  0.465920  0.579279  0.137929  1
  C  C28  1  0.952405  0.358176  0.210543  1
  C  C29  1  0.924076  0.510231  0.724701  1
  C  C30  1  0.657697  0.936453  0.442048  1
  C  C31  1  0.796101  0.088386  0.191530  1
  C  C32  1  0.904800  0.227761  0.665909  1
  C  C33  1  0.539737  0.043998  0.278056  1
  C  C34  1  0.342303  0.063547  0.557952  1
  C  C35  1  0.659828  0.795464  0.035295  1
  C  C36  1  0.981079  0.562051  0.106461  1
  C  C37  1  0.018921  0.437949  0.893539  1
  C  C38  1  0.049478  0.953521  0.207442  1
  C  C39  1  0.460263  0.956002  0.721944  1
  C  C40  1  0.922670  0.811757  0.463707  1
  C  C41  1  0.504865  0.222171  0.608855  1
  C  C42  1  0.163984  0.576639  0.643552  1
  C  C43  1  0.534080  0.420721  0.862071  1
  C  C44  1  0.488629  0.199239  0.795452  1
  C  C45  1  0.567086  0.419222  0.287660  1
  C  C46  1  0.709824  0.558084  0.033243  1
  C  C47  1  0.075924  0.489769  0.275299  1
  C  C48  1  0.379038  0.615359  0.864871  1
  C  C49  1  0.836016  0.423361  0.356448  1
  C  C50  1  0.077676  0.967583  0.375847  1
  C  C51  1  0.340172  0.204536  0.964705  1
  C  C52  1  0.922324  0.032417  0.624153  1
  C  C53  1  0.620962  0.384641  0.135129  1
  C  C54  1  0.495288  0.608751  0.366197  1
  C  C55  1  0.909396  0.801474  0.116959  1
  C  C56  1  0.203899  0.911614  0.808470  1
  C  C57  1  0.950522  0.046479  0.792558  1
  C  C58  1  0.495135  0.777829  0.391145  1
  C  C59  1  0.090604  0.198526  0.883041  1
  C  C60  1  0.095200  0.772239  0.334091  1
  C  C61  1  0.290176  0.441916  0.966757  1
  O  O62  1  0.156723  0.405607  0.534135  1
  O  O63  1  0.610122  0.167652  0.815700  1
  O  O64  1  0.584819  0.456138  0.598179  1
  O  O65  1  0.394462  0.688081  0.881869  1
  O  O66  1  0.100937  0.995029  0.127400  1
  O  O67  1  0.389070  0.106049  0.476665  1
  O  O68  1  0.481998  0.637994  0.637154  1
  O  O69  1  0.964682  0.204761  0.901268  1
  O  O70  1  0.355524  0.630141  0.120642  1
  O  O71  1  0.965311  0.387938  0.970730  1
  O  O72  1  0.374876  0.207284  0.037547  1
  O  O73  1  0.795865  0.385224  0.439887  1
  O  O74  1  0.518002  0.362006  0.362846  1
  O  O75  1  0.863342  0.980927  0.596682  1
  O  O76  1  0.035318  0.795239  0.098732  1
  O  O77  1  0.015876  0.720176  0.800199  1
  O  O78  1  0.843277  0.594393  0.465865  1
  O  O79  1  0.893851  0.761838  0.546815  1
  O  O80  1  0.164942  0.697532  0.332864  1
  O  O81  1  0.838347  0.142122  0.112683  1
  O  O82  1  0.034689  0.612062  0.029270  1
  O  O83  1  0.210772  0.826002  0.613623  1
  O  O84  1  0.579250  0.935516  0.745639  1
  O  O85  1  0.415181  0.543862  0.401821  1
  O  O86  1  0.984124  0.279824  0.199801  1
  O  O87  1  0.389878  0.832348  0.184300  1
  O  O88  1  0.246828  0.407611  0.049967  1
  O  O89  1  0.814125  0.508490  0.695024  1
  O  O90  1  0.753172  0.592389  0.950033  1
  O  O91  1  0.106149  0.238162  0.453185  1
  O  O92  1  0.789228  0.173998  0.386377  1
  O  O93  1  0.204135  0.614776  0.560113  1
  O  O94  1  0.835058  0.302468  0.667136  1
  O  O95  1  0.639099  0.039602  0.039851  1
  O  O96  1  0.625124  0.792716  0.962453  1
  O  O97  1  0.899063  0.004971  0.872599  1
  O  O98  1  0.136658  0.019073  0.403318  1
  O  O99  1  0.161653  0.857878  0.887317  1
  O  O100  1  0.594885  0.182663  0.568819  1
  O  O101  1  0.185875  0.491510  0.304976  1
  O  O102  1  0.605538  0.311919  0.118131  1
  O  O103  1  0.405115  0.817337  0.431181  1
  O  O104  1  0.644476  0.369859  0.879358  1
  O  O105  1  0.360901  0.960398  0.960149  1
  O  O106  1  0.420750  0.064484  0.254361  1
  O  O107  1  0.610930  0.893951  0.523335  1
