# generated using pymatgen
data_Nb3(BiO3)5
_symmetry_space_group_name_H-M   'P 1'
_cell_length_a   5.59827820
_cell_length_b   5.52565934
_cell_length_c   22.12209987
_cell_angle_alpha   89.99964129
_cell_angle_beta   90.00193141
_cell_angle_gamma   89.99669633
_symmetry_Int_Tables_number   1
_chemical_formula_structural   Nb3(BiO3)5
_chemical_formula_sum   'Nb6 Bi10 O30'
_cell_volume   684.32897929
_cell_formula_units_Z   2
loop_
 _symmetry_equiv_pos_site_id
 _symmetry_equiv_pos_as_xyz
  1  'x, y, z'
loop_
 _atom_site_type_symbol
 _atom_site_label
 _atom_site_symmetry_multiplicity
 _atom_site_fract_x
 _atom_site_fract_y
 _atom_site_fract_z
 _atom_site_occupancy
  Nb  Nb0  1  0.538855  -0.000032  0.499979  1
  Nb  Nb1  1  0.020928  0.001800  0.891502  1
  Nb  Nb2  1  0.021035  0.998147  0.108463  1
  Nb  Nb3  1  0.038854  0.500025  0.499978  1
  Nb  Nb4  1  0.521019  0.501778  0.108497  1
  Nb  Nb5  1  0.520942  0.498169  0.891547  1
  Bi  Bi6  1  0.518737  0.011883  0.741366  1
  Bi  Bi7  1  0.978179  0.975224  0.623841  1
  Bi  Bi8  1  0.978210  0.024740  0.376109  1
  Bi  Bi9  1  0.018740  0.488104  0.741365  1
  Bi  Bi10  1  0.478175  0.524745  0.623839  1
  Bi  Bi11  1  0.518711  0.988102  0.258598  1
  Bi  Bi12  1  0.018704  0.511900  0.258597  1
  Bi  Bi13  1  0.478206  0.475244  0.376108  1
  Bi  Bi14  1  0.944421  0.499879  0.000061  1
  Bi  Bi15  1  0.444426  0.999685  0.000012  1
  O  O16  1  0.333274  0.744814  0.477548  1
  O  O17  1  0.273075  0.742167  0.309421  1
  O  O18  1  0.830414  0.706632  0.090184  1
  O  O19  1  0.059143  0.000084  0.000041  1
  O  O20  1  0.105839  0.605429  0.585712  1
  O  O21  1  0.830389  0.293368  0.909880  1
  O  O22  1  0.769476  0.770055  0.911146  1
  O  O23  1  0.269540  0.270063  0.088939  1
  O  O24  1  0.773075  0.757813  0.309425  1
  O  O25  1  0.605849  0.894538  0.585711  1
  O  O26  1  0.105799  0.394617  0.414277  1
  O  O27  1  0.027160  0.006493  0.809737  1
  O  O28  1  0.027179  0.993486  0.190214  1
  O  O29  1  0.605791  0.105370  0.414276  1
  O  O30  1  0.333234  0.255211  0.522432  1
  O  O31  1  0.273086  0.257810  0.690566  1
  O  O32  1  0.269497  0.730103  0.911183  1
  O  O33  1  0.773088  0.242161  0.690569  1
  O  O34  1  0.527209  0.506518  0.190240  1
  O  O35  1  0.276634  0.244292  0.307642  1
  O  O36  1  0.330433  0.793395  0.090170  1
  O  O37  1  0.276664  0.755711  0.692333  1
  O  O38  1  0.559142  0.500202  0.000038  1
  O  O39  1  0.776623  0.255709  0.307642  1
  O  O40  1  0.833237  0.244803  0.522424  1
  O  O41  1  0.769562  0.230056  0.088900  1
  O  O42  1  0.776671  0.744284  0.692335  1
  O  O43  1  0.833270  0.755198  0.477540  1
  O  O44  1  0.527135  0.493525  0.809749  1
  O  O45  1  0.330371  0.206701  0.909867  1
