# generated using pymatgen
data_Rb4CO4
_symmetry_space_group_name_H-M   'P 1'
_cell_length_a   5.08491757
_cell_length_b   5.08491838
_cell_length_c   6.49755499
_cell_angle_alpha   90.00000000
_cell_angle_beta   90.00000000
_cell_angle_gamma   96.11393167
_symmetry_Int_Tables_number   1
_chemical_formula_structural   Rb4CO4
_chemical_formula_sum   'Rb4 C1 O4'
_cell_volume   167.04773111
_cell_formula_units_Z   1
loop_
 _symmetry_equiv_pos_site_id
 _symmetry_equiv_pos_as_xyz
  1  'x, y, z'
loop_
 _atom_site_type_symbol
 _atom_site_label
 _atom_site_symmetry_multiplicity
 _atom_site_fract_x
 _atom_site_fract_y
 _atom_site_fract_z
 _atom_site_occupancy
  Rb  Rb0  1  0.007381  0.992619  0.293084  1
  Rb  Rb1  1  0.504557  -0.000933  0.000000  1
  Rb  Rb2  1  0.000933  0.495443  0.000000  1
  Rb  Rb3  1  0.007381  0.992619  0.706916  1
  C  C4  1  0.584915  0.415085  0.500000  1
  O  O5  1  0.482964  0.517036  0.306622  1
  O  O6  1  0.522837  0.136192  0.500000  1
  O  O7  1  0.863808  0.477163  0.500000  1
  O  O8  1  0.482964  0.517036  0.693378  1
