# generated using pymatgen
data_Zr4AlNi2
_symmetry_space_group_name_H-M   'P 1'
_cell_length_a   9.35218185
_cell_length_b   9.35212928
_cell_length_c   9.35505106
_cell_angle_alpha   60.01533121
_cell_angle_beta   60.01991661
_cell_angle_gamma   60.00859011
_symmetry_Int_Tables_number   1
_chemical_formula_structural   Zr4AlNi2
_chemical_formula_sum   'Zr16 Al4 Ni8'
_cell_volume   578.75991888
_cell_formula_units_Z   4
loop_
 _symmetry_equiv_pos_site_id
 _symmetry_equiv_pos_as_xyz
  1  'x, y, z'
loop_
 _atom_site_type_symbol
 _atom_site_label
 _atom_site_symmetry_multiplicity
 _atom_site_fract_x
 _atom_site_fract_y
 _atom_site_fract_z
 _atom_site_occupancy
  Zr  Zr0  1  0.143360  0.606550  0.606778  1
  Zr  Zr1  1  0.000067  0.000081  0.999948  1
  Zr  Zr2  1  0.856527  0.393556  0.856496  1
  Zr  Zr3  1  0.143342  0.606578  0.143523  1
  Zr  Zr4  1  0.393353  0.393407  0.856585  1
  Zr  Zr5  1  0.606715  0.606549  0.143412  1
  Zr  Zr6  1  0.856707  0.393443  0.393240  1
  Zr  Zr7  1  0.143346  0.143449  0.606727  1
  Zr  Zr8  1  0.606638  0.143336  0.606729  1
  Zr  Zr9  1  0.393501  0.856529  0.856555  1
  Zr  Zr10  1  0.393382  0.856595  0.393247  1
  Zr  Zr11  1  0.999940  0.999984  0.500079  1
  Zr  Zr12  1  0.499929  0.000041  0.999943  1
  Zr  Zr13  1  0.000023  0.499999  0.999903  1
  Zr  Zr14  1  0.606669  0.143411  0.143401  1
  Zr  Zr15  1  0.856682  0.856522  0.393377  1
  Al  Al16  1  0.499996  0.500053  0.999879  1
  Al  Al17  1  0.500036  0.999860  0.500034  1
  Al  Al18  1  0.000083  0.499965  0.500016  1
  Al  Al19  1  0.500048  0.499986  0.500049  1
  Ni  Ni20  1  0.802737  0.802695  0.091800  1
  Ni  Ni21  1  0.908433  0.197255  0.197087  1
  Ni  Ni22  1  0.802770  0.802774  0.802837  1
  Ni  Ni23  1  0.197124  0.908601  0.197094  1
  Ni  Ni24  1  0.802810  0.091485  0.802868  1
  Ni  Ni25  1  0.197151  0.197222  0.197131  1
  Ni  Ni26  1  0.091459  0.802810  0.802904  1
  Ni  Ni27  1  0.197172  0.197265  0.908359  1
