# generated using pymatgen
data_Gd(SiPt)2
_symmetry_space_group_name_H-M   'P 1'
_cell_length_a   4.22283629
_cell_length_b   4.22795779
_cell_length_c   9.88709261
_cell_angle_alpha   89.97113610
_cell_angle_beta   89.97994067
_cell_angle_gamma   89.84949475
_symmetry_Int_Tables_number   1
_chemical_formula_structural   Gd(SiPt)2
_chemical_formula_sum   'Gd2 Si4 Pt4'
_cell_volume   176.52324838
_cell_formula_units_Z   2
loop_
 _symmetry_equiv_pos_site_id
 _symmetry_equiv_pos_as_xyz
  1  'x, y, z'
loop_
 _atom_site_type_symbol
 _atom_site_label
 _atom_site_symmetry_multiplicity
 _atom_site_fract_x
 _atom_site_fract_y
 _atom_site_fract_z
 _atom_site_occupancy
  Gd  Gd0  1  0.250002  0.250002  0.743815  1
  Gd  Gd1  1  0.750012  0.750008  0.256152  1
  Si  Si2  1  0.249967  0.249959  0.132454  1
  Si  Si3  1  0.749942  0.250077  0.500140  1
  Si  Si4  1  0.750037  0.750031  0.867505  1
  Si  Si5  1  0.250050  0.749938  0.499969  1
  Pt  Pt6  1  0.250042  0.250064  0.375898  1
  Pt  Pt7  1  0.249958  0.750054  -0.000001  1
  Pt  Pt8  1  0.749946  0.749935  0.624154  1
  Pt  Pt9  1  0.750044  0.249932  0.999915  1
