# generated using pymatgen
data_Ga2O3
_symmetry_space_group_name_H-M   'P 1'
_cell_length_a   5.94872280
_cell_length_b   6.10763563
_cell_length_c   18.05216545
_cell_angle_alpha   60.04109391
_cell_angle_beta   58.44745997
_cell_angle_gamma   58.69709253
_symmetry_Int_Tables_number   1
_chemical_formula_structural   Ga2O3
_chemical_formula_sum   'Ga16 O24'
_cell_volume   453.64729939
_cell_formula_units_Z   8
loop_
 _symmetry_equiv_pos_site_id
 _symmetry_equiv_pos_as_xyz
  1  'x, y, z'
loop_
 _atom_site_type_symbol
 _atom_site_label
 _atom_site_symmetry_multiplicity
 _atom_site_fract_x
 _atom_site_fract_y
 _atom_site_fract_z
 _atom_site_occupancy
  Ga  Ga0  1  0.179422  0.066411  0.397259  1
  Ga  Ga1  1  0.396074  0.027935  0.180249  1
  Ga  Ga2  1  0.489451  0.483245  0.175833  1
  Ga  Ga3  1  0.167681  0.119479  0.701396  1
  Ga  Ga4  1  0.491534  0.008517  0.500865  1
  Ga  Ga5  1  0.490022  0.500358  0.498172  1
  Ga  Ga6  1  0.982896  0.857591  0.111342  1
  Ga  Ga7  1  0.794565  0.405422  0.296294  1
  Ga  Ga8  1  0.523975  0.001372  0.825258  1
  Ga  Ga9  1  0.499776  0.505128  0.658123  1
  Ga  Ga10  1  0.863934  0.862297  0.305603  1
  Ga  Ga11  1  0.342371  0.334943  0.986089  1
  Ga  Ga12  1  0.524927  0.553901  0.800088  1
  Ga  Ga13  1  0.855781  0.894810  0.619786  1
  Ga  Ga14  1  0.865851  0.394103  0.953106  1
  Ga  Ga15  1  0.869464  0.865572  0.958880  1
  O  O16  1  0.202739  0.253469  0.103188  1
  O  O17  1  0.232321  0.250675  0.255849  1
  O  O18  1  0.349185  0.704809  0.081060  1
  O  O19  1  0.757367  0.230840  0.083469  1
  O  O20  1  0.284675  0.237463  0.422504  1
  O  O21  1  0.258695  0.743392  0.246095  1
  O  O22  1  0.758922  0.779343  0.086057  1
  O  O23  1  0.279659  0.248467  0.576925  1
  O  O24  1  0.292778  0.715348  0.416933  1
  O  O25  1  0.735807  0.248578  0.246949  1
  O  O26  1  0.776174  0.238062  0.416231  1
  O  O27  1  0.756413  0.771916  0.239914  1
  O  O28  1  0.277238  0.233674  0.755285  1
  O  O29  1  0.256508  0.743263  0.583868  1
  O  O30  1  0.263151  0.254542  0.914538  1
  O  O31  1  0.719053  0.748087  0.427697  1
  O  O32  1  0.262649  0.739020  0.744832  1
  O  O33  1  0.713493  0.270714  0.583967  1
  O  O34  1  0.712866  0.758625  0.586685  1
  O  O35  1  0.741275  0.253244  0.752975  1
  O  O36  1  0.269983  0.712946  0.912660  1
  O  O37  1  0.737454  0.247342  0.918700  1
  O  O38  1  0.742884  0.757331  0.752776  1
  O  O39  1  0.743987  0.764766  0.910166  1
