# generated using pymatgen
data_FeHO2
_symmetry_space_group_name_H-M   'P 1'
_cell_length_a   9.97776546
_cell_length_b   3.14856573
_cell_length_c   4.91511082
_cell_angle_alpha   90.00000000
_cell_angle_beta   90.00000000
_cell_angle_gamma   90.00000000
_symmetry_Int_Tables_number   1
_chemical_formula_structural   FeHO2
_chemical_formula_sum   'Fe4 H4 O8'
_cell_volume   154.41140315
_cell_formula_units_Z   4
loop_
 _symmetry_equiv_pos_site_id
 _symmetry_equiv_pos_as_xyz
  1  'x, y, z'
loop_
 _atom_site_type_symbol
 _atom_site_label
 _atom_site_symmetry_multiplicity
 _atom_site_fract_x
 _atom_site_fract_y
 _atom_site_fract_z
 _atom_site_occupancy
  Fe  Fe0  1  0.653661  0.279103  0.529511  1
  Fe  Fe1  1  0.153661  0.279103  0.970489  1
  Fe  Fe2  1  0.346339  0.779103  0.470489  1
  Fe  Fe3  1  0.846339  0.779103  0.029511  1
  H  H4  1  0.475314  0.027729  0.877955  1
  H  H5  1  0.975314  0.027729  0.622045  1
  H  H6  1  0.524686  0.527729  0.122045  1
  H  H7  1  0.024686  0.527729  0.377955  1
  O  O8  1  0.284146  0.271063  0.271196  1
  O  O9  1  0.784146  0.271063  0.228804  1
  O  O10  1  0.715854  0.771063  0.728804  1
  O  O11  1  0.215854  0.771063  0.771196  1
  O  O12  1  0.467257  0.184359  0.706446  1
  O  O13  1  0.967257  0.184359  0.793554  1
  O  O14  1  0.532743  0.684359  0.293554  1
  O  O15  1  0.032743  0.684359  0.206446  1
