# generated using pymatgen
data_NbHO3
_symmetry_space_group_name_H-M   'P 1'
_cell_length_a   6.80160333
_cell_length_b   6.74508159
_cell_length_c   6.77872697
_cell_angle_alpha   109.80689346
_cell_angle_beta   108.58307595
_cell_angle_gamma   109.98730632
_symmetry_Int_Tables_number   1
_chemical_formula_structural   NbHO3
_chemical_formula_sum   'Nb4 H4 O12'
_cell_volume   239.47594584
_cell_formula_units_Z   4
loop_
 _symmetry_equiv_pos_site_id
 _symmetry_equiv_pos_as_xyz
  1  'x, y, z'
loop_
 _atom_site_type_symbol
 _atom_site_label
 _atom_site_symmetry_multiplicity
 _atom_site_fract_x
 _atom_site_fract_y
 _atom_site_fract_z
 _atom_site_occupancy
  Nb  Nb0  1  0.520190  0.021139  0.032170  1
  Nb  Nb1  1  0.042076  0.023163  0.536446  1
  Nb  Nb2  1  0.013519  0.531316  0.014611  1
  Nb  Nb3  1  0.506101  0.510464  0.484509  1
  H  H4  1  0.107074  0.507636  0.406700  1
  H  H5  1  0.893929  0.487447  0.601867  1
  H  H6  1  0.601923  0.098187  0.701823  1
  H  H7  1  0.479851  0.586066  0.879190  1
  O  O8  1  0.202197  0.905554  0.704013  1
  O  O9  1  0.789797  0.095144  0.285415  1
  O  O10  1  0.182082  0.493780  0.305777  1
  O  O11  1  0.806491  0.501902  0.690695  1
  O  O12  1  0.688554  0.184704  0.877471  1
  O  O13  1  0.290138  0.790910  0.078026  1
  O  O14  1  0.291530  0.212549  0.500625  1
  O  O15  1  0.696504  0.791132  0.500610  1
  O  O16  1  0.911800  0.700937  0.196280  1
  O  O17  1  0.077774  0.288301  0.796743  1
  O  O18  1  0.490179  0.293751  0.203631  1
  O  O19  1  0.510970  0.690953  0.809304  1
