# generated using pymatgen
data_SiO2
_symmetry_space_group_name_H-M   'P 1'
_cell_length_a   7.59425529
_cell_length_b   14.48156739
_cell_length_c   19.13838135
_cell_angle_alpha   90.00000000
_cell_angle_beta   90.00000000
_cell_angle_gamma   90.00000000
_symmetry_Int_Tables_number   1
_chemical_formula_structural   SiO2
_chemical_formula_sum   'Si36 O72'
_cell_volume   2104.77640237
_cell_formula_units_Z   36
loop_
 _symmetry_equiv_pos_site_id
 _symmetry_equiv_pos_as_xyz
  1  'x, y, z'
loop_
 _atom_site_type_symbol
 _atom_site_label
 _atom_site_symmetry_multiplicity
 _atom_site_fract_x
 _atom_site_fract_y
 _atom_site_fract_z
 _atom_site_occupancy
  Si  Si0  1  0.206220  0.196784  0.184962  1
  Si  Si1  1  0.793780  0.803216  0.184962  1
  Si  Si2  1  0.793780  0.196784  0.184962  1
  Si  Si3  1  0.206220  0.803216  0.184962  1
  Si  Si4  1  0.706220  0.696784  0.684962  1
  Si  Si5  1  0.293780  0.303216  0.684962  1
  Si  Si6  1  0.293780  0.696784  0.684962  1
  Si  Si7  1  0.706220  0.303216  0.684962  1
  Si  Si8  1  0.293569  0.700752  0.042081  1
  Si  Si9  1  0.706431  0.299248  0.042081  1
  Si  Si10  1  0.706431  0.700752  0.042081  1
  Si  Si11  1  0.293569  0.299248  0.042081  1
  Si  Si12  1  0.793569  0.200752  0.542081  1
  Si  Si13  1  0.206431  0.799248  0.542081  1
  Si  Si14  1  0.206431  0.200752  0.542081  1
  Si  Si15  1  0.793569  0.799248  0.542081  1
  Si  Si16  1  0.000000  0.203148  0.947874  1
  Si  Si17  1  0.000000  0.796852  0.947874  1
  Si  Si18  1  0.500000  0.703148  0.447874  1
  Si  Si19  1  0.500000  0.296852  0.447874  1
  Si  Si20  1  0.000000  0.699390  0.797983  1
  Si  Si21  1  0.000000  0.300610  0.797983  1
  Si  Si22  1  0.500000  0.199390  0.297983  1
  Si  Si23  1  0.500000  0.800610  0.297983  1
  Si  Si24  1  0.293358  0.000000  0.116439  1
  Si  Si25  1  0.706642  0.000000  0.116439  1
  Si  Si26  1  0.793358  0.500000  0.616439  1
  Si  Si27  1  0.206642  0.500000  0.616439  1
  Si  Si28  1  0.293520  0.500000  0.987331  1
  Si  Si29  1  0.706480  0.500000  0.987331  1
  Si  Si30  1  0.793520  0.000000  0.487331  1
  Si  Si31  1  0.206480  0.000000  0.487331  1
  Si  Si32  1  0.000000  0.500000  0.868254  1
  Si  Si33  1  0.500000  0.000000  0.368254  1
  Si  Si34  1  0.000000  0.000000  0.997592  1
  Si  Si35  1  0.500000  0.500000  0.497592  1
  O  O36  1  0.324808  0.223367  0.252384  1
  O  O37  1  0.675192  0.776633  0.252384  1
  O  O38  1  0.675192  0.223367  0.252384  1
  O  O39  1  0.324808  0.776633  0.252384  1
  O  O40  1  0.824808  0.723367  0.752384  1
  O  O41  1  0.175192  0.276633  0.752384  1
  O  O42  1  0.175192  0.723367  0.752384  1
  O  O43  1  0.824808  0.276633  0.752384  1
  O  O44  1  0.250388  0.267612  0.121365  1
  O  O45  1  0.749612  0.732388  0.121365  1
  O  O46  1  0.749612  0.267612  0.121365  1
  O  O47  1  0.250388  0.732388  0.121365  1
  O  O48  1  0.750388  0.767612  0.621365  1
  O  O49  1  0.249612  0.232388  0.621365  1
  O  O50  1  0.249612  0.767612  0.621365  1
  O  O51  1  0.750388  0.232388  0.621365  1
  O  O52  1  0.000000  0.206012  0.205936  1
  O  O53  1  0.000000  0.793988  0.205936  1
  O  O54  1  0.500000  0.706012  0.705936  1
  O  O55  1  0.500000  0.293988  0.705936  1
  O  O56  1  0.248893  0.091031  0.162206  1
  O  O57  1  0.751107  0.908969  0.162206  1
  O  O58  1  0.751107  0.091031  0.162206  1
  O  O59  1  0.248893  0.908969  0.162206  1
  O  O60  1  0.748893  0.591031  0.662206  1
  O  O61  1  0.251107  0.408969  0.662206  1
  O  O62  1  0.251107  0.591031  0.662206  1
  O  O63  1  0.748893  0.408969  0.662206  1
  O  O64  1  0.249831  0.591032  0.033943  1
  O  O65  1  0.750169  0.408968  0.033943  1
  O  O66  1  0.750169  0.591032  0.033943  1
  O  O67  1  0.249831  0.408968  0.033943  1
  O  O68  1  0.749831  0.091032  0.533943  1
  O  O69  1  0.250169  0.908968  0.533943  1
  O  O70  1  0.250169  0.091032  0.533943  1
  O  O71  1  0.749831  0.908968  0.533943  1
  O  O72  1  0.175613  0.759365  0.987491  1
  O  O73  1  0.824387  0.240635  0.987491  1
  O  O74  1  0.824387  0.759365  0.987491  1
  O  O75  1  0.175613  0.240635  0.987491  1
  O  O76  1  0.675613  0.259365  0.487491  1
  O  O77  1  0.324387  0.740635  0.487491  1
  O  O78  1  0.324387  0.259365  0.487491  1
  O  O79  1  0.675613  0.740635  0.487491  1
  O  O80  1  0.500000  0.719550  0.024712  1
  O  O81  1  0.500000  0.280450  0.024712  1
  O  O82  1  0.000000  0.219550  0.524712  1
  O  O83  1  0.000000  0.780450  0.524712  1
  O  O84  1  0.000000  0.091065  0.948359  1
  O  O85  1  0.000000  0.908935  0.948359  1
  O  O86  1  0.500000  0.591065  0.448359  1
  O  O87  1  0.500000  0.408935  0.448359  1
  O  O88  1  0.000000  0.237657  0.867708  1
  O  O89  1  0.000000  0.762343  0.867708  1
  O  O90  1  0.500000  0.737657  0.367708  1
  O  O91  1  0.500000  0.262343  0.367708  1
  O  O92  1  0.000000  0.590420  0.818756  1
  O  O93  1  0.000000  0.409580  0.818756  1
  O  O94  1  0.500000  0.090420  0.318756  1
  O  O95  1  0.500000  0.909580  0.318756  1
  O  O96  1  0.500000  0.000000  0.094705  1
  O  O97  1  0.000000  0.500000  0.594705  1
  O  O98  1  0.175993  0.000000  0.045997  1
  O  O99  1  0.824007  0.000000  0.045997  1
  O  O100  1  0.675993  0.500000  0.545997  1
  O  O101  1  0.324007  0.500000  0.545997  1
  O  O102  1  0.500000  0.500000  0.964548  1
  O  O103  1  0.000000  0.000000  0.464548  1
  O  O104  1  0.175677  0.500000  0.916944  1
  O  O105  1  0.824323  0.500000  0.916944  1
  O  O106  1  0.675677  0.000000  0.416944  1
  O  O107  1  0.324323  0.000000  0.416944  1
