# generated using pymatgen
data_Cs4U2V2O13
_symmetry_space_group_name_H-M   'P 1'
_cell_length_a   7.38924919
_cell_length_b   8.56287898
_cell_length_c   13.73813404
_cell_angle_alpha   90.00000000
_cell_angle_beta   90.00000000
_cell_angle_gamma   89.99996107
_symmetry_Int_Tables_number   1
_chemical_formula_structural   Cs4U2V2O13
_chemical_formula_sum   'Cs8 U4 V4 O26'
_cell_volume   869.25634248
_cell_formula_units_Z   2
loop_
 _symmetry_equiv_pos_site_id
 _symmetry_equiv_pos_as_xyz
  1  'x, y, z'
loop_
 _atom_site_type_symbol
 _atom_site_label
 _atom_site_symmetry_multiplicity
 _atom_site_fract_x
 _atom_site_fract_y
 _atom_site_fract_z
 _atom_site_occupancy
  Cs  Cs0  1  0.521269  0.749999  0.052397  1
  Cs  Cs1  1  0.478731  0.250001  0.947603  1
  Cs  Cs2  1  0.870496  0.250001  0.750000  1
  Cs  Cs3  1  0.129504  0.749999  0.250000  1
  Cs  Cs4  1  0.772388  0.749999  0.750000  1
  Cs  Cs5  1  0.478731  0.250001  0.552397  1
  Cs  Cs6  1  0.521269  0.749999  0.447603  1
  Cs  Cs7  1  0.227612  0.250001  0.250000  1
  U  U8  1  0.000000  0.500000  0.000000  1
  U  U9  1  0.000000  0.000000  0.500000  1
  U  U10  1  0.000000  0.500000  0.500000  1
  U  U11  1  0.000000  0.000000  0.000000  1
  V  V12  1  0.287012  0.544264  0.750000  1
  V  V13  1  0.287010  0.955736  0.750000  1
  V  V14  1  0.712988  0.455736  0.250000  1
  V  V15  1  0.712990  0.044264  0.250000  1
  O  O16  1  0.160602  0.499934  0.853602  1
  O  O17  1  0.979625  0.250004  0.512315  1
  O  O18  1  0.479247  0.059304  0.750000  1
  O  O19  1  0.781751  0.519951  0.930197  1
  O  O20  1  0.839395  -0.000068  0.146400  1
  O  O21  1  0.839395  -0.000068  0.353600  1
  O  O22  1  0.160602  0.499934  0.646398  1
  O  O23  1  0.160605  1.000068  0.646400  1
  O  O24  1  0.781733  0.980047  0.930191  1
  O  O25  1  0.218249  0.480049  0.069803  1
  O  O26  1  0.839398  0.500066  0.146398  1
  O  O27  1  0.020375  0.749996  0.487685  1
  O  O28  1  0.218267  0.019953  0.069809  1
  O  O29  1  0.839398  0.500066  0.353602  1
  O  O30  1  0.351068  0.749997  0.750000  1
  O  O31  1  0.020375  0.749996  0.012315  1
  O  O32  1  0.781733  0.980047  0.569809  1
  O  O33  1  0.160605  1.000068  0.853600  1
  O  O34  1  0.520756  0.559303  0.250000  1
  O  O35  1  0.781751  0.519951  0.569803  1
  O  O36  1  0.648932  0.250003  0.250000  1
  O  O37  1  0.979625  0.250004  0.987685  1
  O  O38  1  0.218249  0.480049  0.430197  1
  O  O39  1  0.218267  0.019953  0.430191  1
  O  O40  1  0.520753  0.940696  0.250000  1
  O  O41  1  0.479244  0.440697  0.750000  1
