# generated using pymatgen
data_NaYbF4
_symmetry_space_group_name_H-M   'P 1'
_cell_length_a   8.06479596
_cell_length_b   10.24339183
_cell_length_c   6.32901683
_cell_angle_alpha   29.76234868
_cell_angle_beta   50.42234305
_cell_angle_gamma   38.16963825
_symmetry_Int_Tables_number   1
_chemical_formula_structural   NaYbF4
_chemical_formula_sum   'Na2 Yb2 F8'
_cell_volume   158.63229934
_cell_formula_units_Z   2
loop_
 _symmetry_equiv_pos_site_id
 _symmetry_equiv_pos_as_xyz
  1  'x, y, z'
loop_
 _atom_site_type_symbol
 _atom_site_label
 _atom_site_symmetry_multiplicity
 _atom_site_fract_x
 _atom_site_fract_y
 _atom_site_fract_z
 _atom_site_occupancy
  Yb  Yb0  1  -0.000206  0.001295  -0.002124  1
  Yb  Yb1  1  0.749872  0.498913  0.001901  1
  Na  Na2  1  0.499647  -0.000853  0.002153  1
  Na  Na3  1  0.250521  0.500729  0.997980  1
  F  F4  1  0.111864  0.013213  0.236365  1
  F  F5  1  0.638030  0.986638  0.263755  1
  F  F6  1  0.375448  0.986884  0.762009  1
  F  F7  1  0.374420  0.513330  0.238040  1
  F  F8  1  0.111900  0.513454  0.736161  1
  F  F9  1  0.874460  0.013615  0.737508  1
  F  F10  1  0.875650  0.486218  0.262403  1
  F  F11  1  0.638393  0.486563  0.763850  1
