# generated using pymatgen
data_Fe(SbO2)2
_symmetry_space_group_name_H-M   'P 1'
_cell_length_a   6.62232818
_cell_length_b   8.56052908
_cell_length_c   8.56052908
_cell_angle_alpha   90.00000000
_cell_angle_beta   90.00000000
_cell_angle_gamma   90.00000000
_symmetry_Int_Tables_number   1
_chemical_formula_structural   Fe(SbO2)2
_chemical_formula_sum   'Fe4 Sb8 O16'
_cell_volume   485.30181204
_cell_formula_units_Z   4
loop_
 _symmetry_equiv_pos_site_id
 _symmetry_equiv_pos_as_xyz
  1  'x, y, z'
loop_
 _atom_site_type_symbol
 _atom_site_label
 _atom_site_symmetry_multiplicity
 _atom_site_fract_x
 _atom_site_fract_y
 _atom_site_fract_z
 _atom_site_occupancy
  Fe  Fe0  1  0.761168  0.000000  0.500000  1
  Fe  Fe1  1  0.738832  0.500000  0.000000  1
  Fe  Fe2  1  0.238832  0.000000  0.500000  1
  Fe  Fe3  1  0.261168  0.500000  0.000000  1
  Sb  Sb4  1  0.000000  0.439491  0.307891  1
  Sb  Sb5  1  0.000000  0.796323  0.179157  1
  Sb  Sb6  1  0.500000  0.179157  0.203677  1
  Sb  Sb7  1  0.000000  0.203677  0.820843  1
  Sb  Sb8  1  0.500000  0.307891  0.560509  1
  Sb  Sb9  1  0.500000  0.692109  0.439491  1
  Sb  Sb10  1  0.000000  0.560509  0.692109  1
  Sb  Sb11  1  0.500000  0.820843  0.796323  1
  O  O12  1  0.500000  0.383877  0.106368  1
  O  O13  1  0.000000  0.633565  0.907299  1
  O  O14  1  0.000000  0.893632  0.383877  1
  O  O15  1  0.700917  0.765369  0.622964  1
  O  O16  1  0.299083  0.765369  0.622964  1
  O  O17  1  0.000000  0.366435  0.092701  1
  O  O18  1  0.500000  0.907299  0.366435  1
  O  O19  1  0.299083  0.234631  0.377036  1
  O  O20  1  0.700917  0.234631  0.377036  1
  O  O21  1  0.200917  0.377036  0.765369  1
  O  O22  1  0.500000  0.616123  0.893632  1
  O  O23  1  0.200917  0.622964  0.234631  1
  O  O24  1  0.799083  0.377036  0.765369  1
  O  O25  1  0.500000  0.092701  0.633565  1
  O  O26  1  0.000000  0.106368  0.616123  1
  O  O27  1  0.799083  0.622964  0.234631  1
