# generated using pymatgen
data_Na3Mg(BO2)5
_symmetry_space_group_name_H-M   'P 1'
_cell_length_a   7.90472693
_cell_length_b   12.38776891
_cell_length_c   18.32573773
_cell_angle_alpha   90.00000000
_cell_angle_beta   90.00000000
_cell_angle_gamma   90.00000000
_symmetry_Int_Tables_number   1
_chemical_formula_structural   Na3Mg(BO2)5
_chemical_formula_sum   'Na24 Mg8 B40 O80'
_cell_volume   1794.49161646
_cell_formula_units_Z   8
loop_
 _symmetry_equiv_pos_site_id
 _symmetry_equiv_pos_as_xyz
  1  'x, y, z'
loop_
 _atom_site_type_symbol
 _atom_site_label
 _atom_site_symmetry_multiplicity
 _atom_site_fract_x
 _atom_site_fract_y
 _atom_site_fract_z
 _atom_site_occupancy
  Na  Na0  1  0.169808  0.915370  0.420115  1
  Na  Na1  1  0.690499  0.647771  0.253250  1
  Na  Na2  1  0.169808  0.584630  0.920115  1
  Na  Na3  1  0.830192  0.415370  0.079885  1
  Na  Na4  1  0.330192  0.415370  0.420115  1
  Na  Na5  1  0.830192  0.084630  0.579885  1
  Na  Na6  1  0.708608  0.572515  0.932211  1
  Na  Na7  1  0.791392  0.072515  0.932211  1
  Na  Na8  1  0.791392  0.427485  0.432211  1
  Na  Na9  1  0.809501  0.352229  0.753250  1
  Na  Na10  1  0.309501  0.147771  0.246750  1
  Na  Na11  1  0.190499  0.852229  0.746750  1
  Na  Na12  1  0.291392  0.427485  0.067789  1
  Na  Na13  1  0.809501  0.147771  0.253250  1
  Na  Na14  1  0.208608  0.927485  0.067789  1
  Na  Na15  1  0.669808  0.584630  0.579885  1
  Na  Na16  1  0.690499  0.852229  0.753250  1
  Na  Na17  1  0.291392  0.072515  0.567789  1
  Na  Na18  1  0.669808  0.915370  0.079885  1
  Na  Na19  1  0.330192  0.084630  0.920115  1
  Na  Na20  1  0.309501  0.352229  0.746750  1
  Na  Na21  1  0.190499  0.647771  0.246750  1
  Na  Na22  1  0.708608  0.927485  0.432211  1
  Na  Na23  1  0.208608  0.572515  0.567789  1
  Mg  Mg24  1  0.915942  0.821798  0.902222  1
  Mg  Mg25  1  0.415942  0.821798  0.597778  1
  Mg  Mg26  1  0.084058  0.178202  0.097778  1
  Mg  Mg27  1  0.415942  0.678202  0.097778  1
  Mg  Mg28  1  0.915942  0.678202  0.402222  1
  Mg  Mg29  1  0.584058  0.321798  0.902222  1
  Mg  Mg30  1  0.584058  0.178202  0.402222  1
  Mg  Mg31  1  0.084058  0.321798  0.597778  1
  B  B32  1  0.231763  0.172988  0.427498  1
  B  B33  1  0.078526  0.653429  0.073410  1
  B  B34  1  0.488278  0.475616  0.195969  1
  B  B35  1  0.554417  0.349694  0.296029  1
  B  B36  1  0.554417  0.150306  0.796029  1
  B  B37  1  0.054417  0.150306  0.703971  1
  B  B38  1  0.011722  0.975616  0.195969  1
  B  B39  1  0.945583  0.849694  0.296029  1
  B  B40  1  0.559407  0.282526  0.163931  1
  B  B41  1  0.731763  0.327012  0.572502  1
  B  B42  1  0.559407  0.217474  0.663931  1
  B  B43  1  0.421474  0.346571  0.573410  1
  B  B44  1  0.988278  0.024384  0.804031  1
  B  B45  1  0.268237  0.672988  0.427498  1
  B  B46  1  0.445583  0.650306  0.703971  1
  B  B47  1  0.078526  0.846571  0.573410  1
  B  B48  1  0.731763  0.172988  0.072502  1
  B  B49  1  0.511722  0.975616  0.304031  1
  B  B50  1  0.921474  0.346571  0.926590  1
  B  B51  1  0.511722  0.524384  0.804031  1
  B  B52  1  0.578526  0.846571  0.926590  1
  B  B53  1  0.440593  0.717474  0.836069  1
  B  B54  1  0.054417  0.349694  0.203971  1
  B  B55  1  0.231763  0.327012  0.927498  1
  B  B56  1  0.940593  0.717474  0.663931  1
  B  B57  1  0.988278  0.475616  0.304031  1
  B  B58  1  0.768237  0.672988  0.072502  1
  B  B59  1  0.421474  0.153429  0.073410  1
  B  B60  1  0.945583  0.650306  0.796029  1
  B  B61  1  0.921474  0.153429  0.426590  1
  B  B62  1  0.578526  0.653429  0.426590  1
  B  B63  1  0.940593  0.782526  0.163931  1
  B  B64  1  0.268237  0.827012  0.927498  1
  B  B65  1  0.440593  0.782526  0.336069  1
  B  B66  1  0.488278  0.024384  0.695969  1
  B  B67  1  0.445583  0.849694  0.203971  1
  B  B68  1  0.011722  0.524384  0.695969  1
  B  B69  1  0.768237  0.827012  0.572502  1
  B  B70  1  0.059407  0.282526  0.336069  1
  B  B71  1  0.059407  0.217474  0.836069  1
  O  O72  1  0.537444  0.398216  0.144684  1
  O  O73  1  0.719921  0.257312  0.631934  1
  O  O74  1  0.620827  0.851502  0.540795  1
  O  O75  1  0.379173  0.351502  0.959205  1
  O  O76  1  0.068283  0.231456  0.756176  1
  O  O77  1  0.585900  0.719307  0.365129  1
  O  O78  1  0.721640  0.616342  0.457842  1
  O  O79  1  0.081619  0.376435  0.954391  1
  O  O80  1  0.081619  0.123565  0.454391  1
  O  O81  1  0.914100  0.219307  0.365129  1
  O  O82  1  0.120827  0.648498  0.459205  1
  O  O83  1  0.278360  0.383658  0.542158  1
  O  O84  1  0.918381  0.623565  0.045609  1
  O  O85  1  0.280079  0.742688  0.368066  1
  O  O86  1  0.431717  0.731456  0.756176  1
  O  O87  1  0.576566  0.331564  0.367878  1
  O  O88  1  0.510136  0.454037  0.271377  1
  O  O89  1  0.219921  0.242688  0.368066  1
  O  O90  1  0.574465  0.428636  0.823557  1
  O  O91  1  0.568283  0.231456  0.743824  1
  O  O92  1  0.778360  0.116342  0.457842  1
  O  O93  1  0.489864  0.954037  0.228623  1
  O  O94  1  0.414100  0.219307  0.134871  1
  O  O95  1  0.425534  0.928636  0.676443  1
  O  O96  1  0.620827  0.648498  0.040795  1
  O  O97  1  0.221640  0.616342  0.042158  1
  O  O98  1  0.931717  0.731456  0.743824  1
  O  O99  1  0.879173  0.351502  0.540795  1
  O  O100  1  0.925535  0.928636  0.823557  1
  O  O101  1  0.431717  0.768544  0.256176  1
  O  O102  1  0.120827  0.851502  0.959205  1
  O  O103  1  0.576566  0.168436  0.867878  1
  O  O104  1  0.037444  0.101784  0.855316  1
  O  O105  1  0.989864  0.545963  0.771377  1
  O  O106  1  0.010136  0.045963  0.728623  1
  O  O107  1  0.278360  0.116342  0.042158  1
  O  O108  1  0.221640  0.883658  0.542158  1
  O  O109  1  0.931717  0.768544  0.243824  1
  O  O110  1  0.085900  0.780693  0.634871  1
  O  O111  1  0.962556  0.898216  0.144684  1
  O  O112  1  0.085900  0.719307  0.134871  1
  O  O113  1  0.010136  0.454037  0.228623  1
  O  O114  1  0.510136  0.045963  0.771377  1
  O  O115  1  0.074466  0.071364  0.176443  1
  O  O116  1  0.068283  0.268544  0.256176  1
  O  O117  1  0.462556  0.601784  0.855316  1
  O  O118  1  0.923434  0.668436  0.867878  1
  O  O119  1  0.585900  0.780693  0.865129  1
  O  O120  1  0.074466  0.428636  0.676443  1
  O  O121  1  0.423434  0.831564  0.132122  1
  O  O122  1  0.537444  0.101784  0.644684  1
  O  O123  1  0.076566  0.168436  0.632122  1
  O  O124  1  0.425534  0.571364  0.176443  1
  O  O125  1  0.923434  0.831564  0.367878  1
  O  O126  1  0.721640  0.883658  0.957842  1
  O  O127  1  0.219921  0.257312  0.868066  1
  O  O128  1  0.568283  0.268544  0.243824  1
  O  O129  1  0.581619  0.123565  0.045609  1
  O  O130  1  0.379173  0.148498  0.459205  1
  O  O131  1  0.037444  0.398216  0.355316  1
  O  O132  1  0.780079  0.742688  0.131934  1
  O  O133  1  0.574465  0.071364  0.323557  1
  O  O134  1  0.780079  0.757312  0.631934  1
  O  O135  1  0.076566  0.331564  0.132122  1
  O  O136  1  0.581619  0.376435  0.545609  1
  O  O137  1  0.879173  0.148498  0.040795  1
  O  O138  1  0.418381  0.876435  0.954391  1
  O  O139  1  0.423434  0.668436  0.632122  1
  O  O140  1  0.778360  0.383658  0.957842  1
  O  O141  1  0.462556  0.898216  0.355316  1
  O  O142  1  0.719921  0.242688  0.131934  1
  O  O143  1  0.414100  0.280693  0.634871  1
  O  O144  1  0.489864  0.545963  0.728623  1
  O  O145  1  0.925535  0.571364  0.323557  1
  O  O146  1  0.918381  0.876435  0.545609  1
  O  O147  1  0.914100  0.280693  0.865129  1
  O  O148  1  0.962556  0.601784  0.644684  1
  O  O149  1  0.989864  0.954037  0.271377  1
  O  O150  1  0.418381  0.623565  0.454391  1
  O  O151  1  0.280079  0.757312  0.868066  1
