# generated using pymatgen
data_Ca2As2O7
_symmetry_space_group_name_H-M   'P 1'
_cell_length_a   4.98852436
_cell_length_b   5.92819791
_cell_length_c   5.92819790
_cell_angle_alpha   105.67934142
_cell_angle_beta   97.03799424
_cell_angle_gamma   97.03799415
_symmetry_Int_Tables_number   1
_chemical_formula_structural   Ca2As2O7
_chemical_formula_sum   'Ca2 As2 O7'
_cell_volume   165.28179317
_cell_formula_units_Z   1
loop_
 _symmetry_equiv_pos_site_id
 _symmetry_equiv_pos_as_xyz
  1  'x, y, z'
loop_
 _atom_site_type_symbol
 _atom_site_label
 _atom_site_symmetry_multiplicity
 _atom_site_fract_x
 _atom_site_fract_y
 _atom_site_fract_z
 _atom_site_occupancy
  O  O0  1  0.278138  0.916460  0.615834  1
  O  O1  1  0.721862  0.384166  0.083540  1
  O  O2  1  0.721862  0.083540  0.384166  1
  O  O3  1  0.278138  0.615834  0.916460  1
  O  O4  1  0.000000  0.000000  0.000000  1
  O  O5  1  0.785952  0.617335  0.617335  1
  O  O6  1  0.214048  0.382665  0.382665  1
  Ca  Ca7  1  0.500000  0.692913  0.307087  1
  Ca  Ca8  1  0.500000  0.307087  0.692913  1
  As  As9  1  0.091966  0.773699  0.773699  1
  As  As10  1  0.908034  0.226301  0.226301  1
