# generated using pymatgen
data_Ce9SmO20
_symmetry_space_group_name_H-M   'P 1'
_cell_length_a   7.73449130
_cell_length_b   19.38105234
_cell_length_c   10.25235908
_cell_angle_alpha   19.04862836
_cell_angle_beta   55.47484312
_cell_angle_gamma   59.91579111
_symmetry_Int_Tables_number   1
_chemical_formula_structural   Ce9SmO20
_chemical_formula_sum   'Ce9 Sm1 O20'
_cell_volume   409.83612396
_cell_formula_units_Z   1
loop_
 _symmetry_equiv_pos_site_id
 _symmetry_equiv_pos_as_xyz
  1  'x, y, z'
loop_
 _atom_site_type_symbol
 _atom_site_label
 _atom_site_symmetry_multiplicity
 _atom_site_fract_x
 _atom_site_fract_y
 _atom_site_fract_z
 _atom_site_occupancy
  Ce  Ce0  1  0.000179  0.199585  0.999723  1
  Ce  Ce1  1  0.000004  0.400337  0.000177  1
  Ce  Ce2  1  0.500000  0.000000  0.000000  1
  Ce  Ce3  1  0.501156  0.199763  0.999400  1
  Ce  Ce4  1  0.999996  0.599663  0.999823  1
  Ce  Ce5  1  0.999821  0.800415  0.000277  1
  Ce  Ce6  1  0.498667  0.398477  0.003525  1
  Ce  Ce7  1  0.501333  0.601523  0.996475  1
  Ce  Ce8  1  0.498844  0.800237  0.000600  1
  Sm  Sm9  1  0.000000  0.000000  0.000000  1
  O  O10  1  0.126051  0.149856  0.249368  1
  O  O11  1  0.128644  0.357050  0.234372  1
  O  O12  1  0.383125  0.051083  0.744406  1
  O  O13  1  0.125881  0.550572  0.248903  1
  O  O14  1  0.624558  0.149364  0.251020  1
  O  O15  1  0.624051  0.351158  0.248325  1
  O  O16  1  0.375530  0.251693  0.746676  1
  O  O17  1  0.127652  0.744848  0.254988  1
  O  O18  1  0.872454  0.050797  0.744961  1
  O  O19  1  0.623863  0.550717  0.249252  1
  O  O20  1  0.376137  0.449283  0.750748  1
  O  O21  1  0.127546  0.949203  0.255039  1
  O  O22  1  0.872348  0.255152  0.745012  1
  O  O23  1  0.375949  0.648842  0.751676  1
  O  O24  1  0.624470  0.748307  0.253324  1
  O  O25  1  0.874119  0.449428  0.751097  1
  O  O26  1  0.375442  0.850636  0.748980  1
  O  O27  1  0.616875  0.948917  0.255594  1
  O  O28  1  0.871356  0.642950  0.765628  1
  O  O29  1  0.873949  0.850144  0.750632  1
