# generated using pymatgen
data_V2Pb4O9
_symmetry_space_group_name_H-M   'P 1'
_cell_length_a   7.57261840
_cell_length_b   11.77914314
_cell_length_c   23.26459768
_cell_angle_alpha   90.00000000
_cell_angle_beta   90.00000000
_cell_angle_gamma   90.00000000
_symmetry_Int_Tables_number   1
_chemical_formula_structural   V2Pb4O9
_chemical_formula_sum   'V16 Pb32 O72'
_cell_volume   2075.17782664
_cell_formula_units_Z   8
loop_
 _symmetry_equiv_pos_site_id
 _symmetry_equiv_pos_as_xyz
  1  'x, y, z'
loop_
 _atom_site_type_symbol
 _atom_site_label
 _atom_site_symmetry_multiplicity
 _atom_site_fract_x
 _atom_site_fract_y
 _atom_site_fract_z
 _atom_site_occupancy
  V  V0  1  0.366990  0.250000  0.821696  1
  V  V1  1  0.495057  0.996176  0.595276  1
  V  V2  1  0.113696  0.750000  0.316205  1
  V  V3  1  0.866990  0.750000  0.678304  1
  V  V4  1  0.613696  0.250000  0.183795  1
  V  V5  1  0.004943  0.996176  0.095276  1
  V  V6  1  0.995057  0.496176  0.904724  1
  V  V7  1  0.633010  0.750000  0.178304  1
  V  V8  1  0.995057  0.003824  0.904724  1
  V  V9  1  0.495057  0.503824  0.595276  1
  V  V10  1  0.886304  0.250000  0.683795  1
  V  V11  1  0.386304  0.750000  0.816205  1
  V  V12  1  0.004943  0.503824  0.095276  1
  V  V13  1  0.504943  0.003824  0.404724  1
  V  V14  1  0.133010  0.250000  0.321696  1
  V  V15  1  0.504943  0.496176  0.404724  1
  Pb  Pb16  1  0.651451  0.527314  0.754912  1
  Pb  Pb17  1  0.836848  0.250000  0.836208  1
  Pb  Pb18  1  0.491022  0.990574  0.076197  1
  Pb  Pb19  1  0.236137  0.250000  0.485539  1
  Pb  Pb20  1  0.429371  0.250000  0.653201  1
  Pb  Pb21  1  0.929371  0.750000  0.846799  1
  Pb  Pb22  1  0.736137  0.750000  0.014461  1
  Pb  Pb23  1  0.263863  0.250000  0.985539  1
  Pb  Pb24  1  0.651451  0.972686  0.754912  1
  Pb  Pb25  1  0.848549  0.527314  0.254912  1
  Pb  Pb26  1  0.249163  0.750000  0.488387  1
  Pb  Pb27  1  0.163152  0.750000  0.163792  1
  Pb  Pb28  1  0.749163  0.250000  0.011613  1
  Pb  Pb29  1  0.151451  0.027314  0.745088  1
  Pb  Pb30  1  0.070629  0.250000  0.153201  1
  Pb  Pb31  1  0.763863  0.750000  0.514461  1
  Pb  Pb32  1  0.008978  0.509426  0.576197  1
  Pb  Pb33  1  0.008978  0.990574  0.576197  1
  Pb  Pb34  1  0.991022  0.490574  0.423803  1
  Pb  Pb35  1  0.663152  0.250000  0.336208  1
  Pb  Pb36  1  0.570629  0.750000  0.346799  1
  Pb  Pb37  1  0.336848  0.750000  0.663792  1
  Pb  Pb38  1  0.151451  0.472686  0.745088  1
  Pb  Pb39  1  0.508978  0.009426  0.923803  1
  Pb  Pb40  1  0.848549  0.972686  0.254912  1
  Pb  Pb41  1  0.491022  0.509426  0.076197  1
  Pb  Pb42  1  0.348549  0.472686  0.245088  1
  Pb  Pb43  1  0.750837  0.250000  0.511613  1
  Pb  Pb44  1  0.250837  0.750000  0.988387  1
  Pb  Pb45  1  0.508978  0.490574  0.923803  1
  Pb  Pb46  1  0.348549  0.027314  0.245088  1
  Pb  Pb47  1  0.991022  0.009426  0.423803  1
  O  O48  1  0.636037  0.750000  0.684308  1
  O  O49  1  0.554023  0.872280  0.212694  1
  O  O50  1  0.013642  0.988387  0.830098  1
  O  O51  1  0.013642  0.511613  0.830098  1
  O  O52  1  0.109668  0.378098  0.073751  1
  O  O53  1  0.007591  0.625531  0.496201  1
  O  O54  1  0.609668  0.621902  0.426249  1
  O  O55  1  0.802106  0.523056  0.062403  1
  O  O56  1  0.390332  0.378098  0.573751  1
  O  O57  1  0.486358  0.511613  0.330098  1
  O  O58  1  0.302106  0.023056  0.437597  1
  O  O59  1  0.144532  0.621202  0.083068  1
  O  O60  1  0.562408  0.750000  0.107269  1
  O  O61  1  0.445977  0.372280  0.787306  1
  O  O62  1  0.992409  0.374469  0.503799  1
  O  O63  1  0.697894  0.976944  0.562403  1
  O  O64  1  0.144532  0.878798  0.083068  1
  O  O65  1  0.890332  0.878098  0.926249  1
  O  O66  1  0.697894  0.523056  0.562403  1
  O  O67  1  0.992409  0.125531  0.503799  1
  O  O68  1  0.109668  0.121902  0.073751  1
  O  O69  1  0.197894  0.023056  0.937597  1
  O  O70  1  0.855468  0.378798  0.916932  1
  O  O71  1  0.054023  0.372280  0.287306  1
  O  O72  1  0.748572  0.250000  0.623389  1
  O  O73  1  0.644532  0.121202  0.416932  1
  O  O74  1  0.986358  0.488387  0.169902  1
  O  O75  1  0.197894  0.476944  0.937597  1
  O  O76  1  0.609668  0.878098  0.426249  1
  O  O77  1  0.396858  0.250000  0.162874  1
  O  O78  1  0.863963  0.750000  0.184308  1
  O  O79  1  0.945977  0.872280  0.712694  1
  O  O80  1  0.890332  0.621902  0.926249  1
  O  O81  1  0.849600  0.130712  0.728484  1
  O  O82  1  0.349600  0.630712  0.771516  1
  O  O83  1  0.103142  0.250000  0.662874  1
  O  O84  1  0.554023  0.627720  0.212694  1
  O  O85  1  0.390332  0.121902  0.573751  1
  O  O86  1  0.437592  0.250000  0.892731  1
  O  O87  1  0.355468  0.621202  0.583068  1
  O  O88  1  0.650400  0.130712  0.228484  1
  O  O89  1  0.507591  0.374469  0.003799  1
  O  O90  1  0.513642  0.488387  0.669902  1
  O  O91  1  0.513642  0.011613  0.669902  1
  O  O92  1  0.751428  0.250000  0.123389  1
  O  O93  1  0.802106  0.976944  0.062403  1
  O  O94  1  0.486358  0.988387  0.330098  1
  O  O95  1  0.603142  0.750000  0.837126  1
  O  O96  1  0.349600  0.869288  0.771516  1
  O  O97  1  0.945977  0.627720  0.712694  1
  O  O98  1  0.644532  0.378798  0.416932  1
  O  O99  1  0.507591  0.125531  0.003799  1
  O  O100  1  0.355468  0.878798  0.583068  1
  O  O101  1  0.986358  0.011613  0.169902  1
  O  O102  1  0.150400  0.869288  0.271516  1
  O  O103  1  0.492409  0.625531  0.996201  1
  O  O104  1  0.445977  0.127720  0.787306  1
  O  O105  1  0.007591  0.874469  0.496201  1
  O  O106  1  0.937592  0.750000  0.607269  1
  O  O107  1  0.650400  0.369288  0.228484  1
  O  O108  1  0.855468  0.121202  0.916932  1
  O  O109  1  0.054023  0.127720  0.287306  1
  O  O110  1  0.251428  0.750000  0.376611  1
  O  O111  1  0.136037  0.250000  0.815692  1
  O  O112  1  0.492409  0.874469  0.996201  1
  O  O113  1  0.062408  0.250000  0.392731  1
  O  O114  1  0.248573  0.750000  0.876611  1
  O  O115  1  0.302106  0.476944  0.437597  1
  O  O116  1  0.363963  0.250000  0.315692  1
  O  O117  1  0.849600  0.369288  0.728484  1
  O  O118  1  0.896858  0.750000  0.337126  1
  O  O119  1  0.150400  0.630712  0.271516  1
