# generated using pymatgen
data_NaCo(CO)4
_symmetry_space_group_name_H-M   'P 1'
_cell_length_a   5.64072801
_cell_length_b   9.31866008
_cell_length_c   13.93470171
_cell_angle_alpha   90.00000000
_cell_angle_beta   90.00000000
_cell_angle_gamma   90.00000000
_symmetry_Int_Tables_number   1
_chemical_formula_structural   NaCo(CO)4
_chemical_formula_sum   'Na4 Co4 C16 O16'
_cell_volume   732.46403593
_cell_formula_units_Z   4
loop_
 _symmetry_equiv_pos_site_id
 _symmetry_equiv_pos_as_xyz
  1  'x, y, z'
loop_
 _atom_site_type_symbol
 _atom_site_label
 _atom_site_symmetry_multiplicity
 _atom_site_fract_x
 _atom_site_fract_y
 _atom_site_fract_z
 _atom_site_occupancy
  Na  Na0  1  0.413229  0.250000  0.915792  1
  Na  Na1  1  0.586771  0.250000  0.415792  1
  Na  Na2  1  0.413229  0.750000  0.584208  1
  Na  Na3  1  0.586771  0.750000  0.084208  1
  Co  Co4  1  0.812317  0.250000  0.622640  1
  Co  Co5  1  0.187683  0.250000  0.122640  1
  Co  Co6  1  0.812317  0.750000  0.877360  1
  Co  Co7  1  0.187683  0.750000  0.377360  1
  C  C8  1  0.636939  0.904274  0.876843  1
  C  C9  1  0.987588  0.750000  0.774661  1
  C  C10  1  0.363061  0.904274  0.376843  1
  C  C11  1  0.969993  0.750000  0.465513  1
  C  C12  1  0.636939  0.095726  0.623157  1
  C  C13  1  0.012412  0.750000  0.274661  1
  C  C14  1  0.363061  0.404274  0.123157  1
  C  C15  1  0.363061  0.095726  0.123157  1
  C  C16  1  0.363061  0.595726  0.376843  1
  C  C17  1  0.636939  0.595726  0.876843  1
  C  C18  1  0.636939  0.404274  0.623157  1
  C  C19  1  0.969993  0.250000  0.034487  1
  C  C20  1  0.987588  0.250000  0.725339  1
  C  C21  1  0.012412  0.250000  0.225339  1
  C  C22  1  0.030007  0.250000  0.534487  1
  C  C23  1  0.030007  0.750000  0.965513  1
  O  O24  1  0.116443  0.250000  0.791468  1
  O  O25  1  0.191804  0.750000  0.018778  1
  O  O26  1  0.521378  0.990779  0.625534  1
  O  O27  1  0.478622  0.990779  0.125534  1
  O  O28  1  0.883557  0.250000  0.291468  1
  O  O29  1  0.521378  0.009221  0.874466  1
  O  O30  1  0.808196  0.750000  0.518778  1
  O  O31  1  0.521378  0.509221  0.625534  1
  O  O32  1  0.808196  0.250000  0.981222  1
  O  O33  1  0.521378  0.490779  0.874466  1
  O  O34  1  0.478622  0.009221  0.374466  1
  O  O35  1  0.191804  0.250000  0.481222  1
  O  O36  1  0.478622  0.509221  0.125534  1
  O  O37  1  0.116443  0.750000  0.708532  1
  O  O38  1  0.478622  0.490779  0.374466  1
  O  O39  1  0.883557  0.750000  0.208532  1
