# generated using pymatgen
data_NaCa2Al4H8C4ClO20
_symmetry_space_group_name_H-M   'P 1'
_cell_length_a   11.32833534
_cell_length_b   11.32833534
_cell_length_c   6.61888930
_cell_angle_alpha   90.00000000
_cell_angle_beta   90.00000000
_cell_angle_gamma   90.00000000
_symmetry_Int_Tables_number   1
_chemical_formula_structural   NaCa2Al4H8C4ClO20
_chemical_formula_sum   'Na2 Ca4 Al8 H16 C8 Cl2 O40'
_cell_volume   849.40988459
_cell_formula_units_Z   2
loop_
 _symmetry_equiv_pos_site_id
 _symmetry_equiv_pos_as_xyz
  1  'x, y, z'
loop_
 _atom_site_type_symbol
 _atom_site_label
 _atom_site_symmetry_multiplicity
 _atom_site_fract_x
 _atom_site_fract_y
 _atom_site_fract_z
 _atom_site_occupancy
  Na  Na0  1  0.750000  0.750000  0.067417  1
  Na  Na1  1  0.250000  0.250000  0.932583  1
  Ca  Ca2  1  0.500000  0.500000  0.000000  1
  Ca  Ca3  1  0.000000  0.500000  0.000000  1
  Ca  Ca4  1  0.500000  0.000000  0.000000  1
  Ca  Ca5  1  0.000000  0.000000  0.000000  1
  Al  Al6  1  0.095071  0.904929  0.500000  1
  Al  Al7  1  0.404929  0.904929  0.500000  1
  Al  Al8  1  0.095071  0.595071  0.500000  1
  Al  Al9  1  0.404929  0.595071  0.500000  1
  Al  Al10  1  0.904929  0.095071  0.500000  1
  Al  Al11  1  0.595071  0.095071  0.500000  1
  Al  Al12  1  0.904929  0.404929  0.500000  1
  Al  Al13  1  0.595071  0.404929  0.500000  1
  H  H14  1  0.439553  0.750000  0.261991  1
  H  H15  1  0.060447  0.750000  0.261991  1
  H  H16  1  0.750000  0.439553  0.261991  1
  H  H17  1  0.750000  0.060447  0.261991  1
  H  H18  1  0.560447  0.250000  0.738009  1
  H  H19  1  0.939553  0.250000  0.738009  1
  H  H20  1  0.250000  0.560447  0.738009  1
  H  H21  1  0.250000  0.939553  0.738009  1
  H  H22  1  0.878624  0.878624  0.421207  1
  H  H23  1  0.621376  0.878624  0.421207  1
  H  H24  1  0.878624  0.621376  0.421207  1
  H  H25  1  0.621376  0.621376  0.421207  1
  H  H26  1  0.121376  0.121376  0.578793  1
  H  H27  1  0.378624  0.121376  0.578793  1
  H  H28  1  0.121376  0.378624  0.578793  1
  H  H29  1  0.378624  0.378624  0.578793  1
  C  C30  1  0.014381  0.750000  0.843960  1
  C  C31  1  0.485619  0.750000  0.843960  1
  C  C32  1  0.750000  0.014381  0.843960  1
  C  C33  1  0.750000  0.485619  0.843960  1
  C  C34  1  0.985619  0.250000  0.156040  1
  C  C35  1  0.514381  0.250000  0.156040  1
  C  C36  1  0.250000  0.985619  0.156040  1
  C  C37  1  0.250000  0.514381  0.156040  1
  Cl  Cl38  1  0.750000  0.750000  0.522299  1
  Cl  Cl39  1  0.250000  0.250000  0.477701  1
  O  O40  1  0.407769  0.750000  0.400030  1
  O  O41  1  0.092231  0.750000  0.400030  1
  O  O42  1  0.750000  0.407769  0.400030  1
  O  O43  1  0.750000  0.092231  0.400030  1
  O  O44  1  0.592231  0.250000  0.599970  1
  O  O45  1  0.907769  0.250000  0.599970  1
  O  O46  1  0.250000  0.592231  0.599970  1
  O  O47  1  0.250000  0.907769  0.599970  1
  O  O48  1  0.938895  0.938895  0.391947  1
  O  O49  1  0.561105  0.938895  0.391947  1
  O  O50  1  0.938895  0.561105  0.391947  1
  O  O51  1  0.561105  0.561105  0.391947  1
  O  O52  1  0.061105  0.061105  0.608053  1
  O  O53  1  0.438895  0.061105  0.608053  1
  O  O54  1  0.061105  0.438895  0.608053  1
  O  O55  1  0.438895  0.438895  0.608053  1
  O  O56  1  0.149815  0.960850  0.240813  1
  O  O57  1  0.350185  0.960850  0.240813  1
  O  O58  1  0.149815  0.539150  0.240813  1
  O  O59  1  0.350185  0.539150  0.240813  1
  O  O60  1  0.960850  0.149815  0.240813  1
  O  O61  1  0.539150  0.149815  0.240813  1
  O  O62  1  0.960850  0.350185  0.240813  1
  O  O63  1  0.539150  0.350185  0.240813  1
  O  O64  1  0.850185  0.039150  0.759187  1
  O  O65  1  0.649815  0.039150  0.759187  1
  O  O66  1  0.850185  0.460850  0.759187  1
  O  O67  1  0.649815  0.460850  0.759187  1
  O  O68  1  0.039150  0.850185  0.759187  1
  O  O69  1  0.460850  0.850185  0.759187  1
  O  O70  1  0.039150  0.649815  0.759187  1
  O  O71  1  0.460850  0.649815  0.759187  1
  O  O72  1  0.965981  0.750000  0.019446  1
  O  O73  1  0.534019  0.750000  0.019446  1
  O  O74  1  0.750000  0.965981  0.019446  1
  O  O75  1  0.750000  0.534019  0.019446  1
  O  O76  1  0.034019  0.250000  0.980554  1
  O  O77  1  0.465981  0.250000  0.980554  1
  O  O78  1  0.250000  0.034019  0.980554  1
  O  O79  1  0.250000  0.465981  0.980554  1
