# generated using pymatgen
data_Sr4La4Mn7CuO24
_symmetry_space_group_name_H-M   'P 1'
_cell_length_a   5.45798848
_cell_length_b   21.83733806
_cell_length_c   5.55202970
_cell_angle_alpha   119.55909333
_cell_angle_beta   119.41839342
_cell_angle_gamma   90.03543656
_symmetry_Int_Tables_number   1
_chemical_formula_structural   Sr4La4Mn7CuO24
_chemical_formula_sum   'Sr4 La4 Mn7 Cu1 O24'
_cell_volume   474.91792172
_cell_formula_units_Z   1
loop_
 _symmetry_equiv_pos_site_id
 _symmetry_equiv_pos_as_xyz
  1  'x, y, z'
loop_
 _atom_site_type_symbol
 _atom_site_label
 _atom_site_symmetry_multiplicity
 _atom_site_fract_x
 _atom_site_fract_y
 _atom_site_fract_z
 _atom_site_occupancy
  Sr  Sr0  1  0.246507  0.436442  0.497632  1
  Sr  Sr1  1  0.248392  0.687874  0.500013  1
  Sr  Sr2  1  0.753493  0.313558  0.502368  1
  Sr  Sr3  1  0.751608  0.062126  0.499987  1
  La  La4  1  0.258253  0.189961  0.507526  1
  La  La5  1  0.249114  0.936064  0.496603  1
  La  La6  1  0.750886  0.813936  0.503397  1
  La  La7  1  0.741747  0.560039  0.492474  1
  Mn  Mn8  1  -0.000223  0.000417  0.002485  1
  Mn  Mn9  1  0.001813  0.250604  0.002901  1
  Mn  Mn10  1  0.998187  0.499396  0.997099  1
  Mn  Mn11  1  0.000223  0.749583  0.997515  1
  Mn  Mn12  1  0.502072  0.125379  0.002297  1
  Mn  Mn13  1  0.500000  0.375000  0.000000  1
  Mn  Mn14  1  0.497928  0.624621  0.997703  1
  Cu  Cu15  1  0.500000  0.875000  0.000000  1
  O  O16  1  0.254156  0.062139  0.503367  1
  O  O17  1  0.248566  0.309049  0.495821  1
  O  O18  1  0.251537  0.564051  0.506998  1
  O  O19  1  0.230870  0.811642  0.470660  1
  O  O20  1  0.217354  0.177741  0.010242  1
  O  O21  1  0.223419  0.431575  0.007033  1
  O  O22  1  0.196788  0.674799  0.983976  1
  O  O23  1  0.202644  0.926479  0.003824  1
  O  O24  1  0.288672  0.050155  0.988361  1
  O  O25  1  0.279878  0.300655  0.986185  1
  O  O26  1  0.298917  0.555083  0.014552  1
  O  O27  1  0.298091  0.804160  0.017809  1
  O  O28  1  0.748463  0.185949  0.493002  1
  O  O29  1  0.751434  0.440951  0.504179  1
  O  O30  1  0.745844  0.687861  0.496633  1
  O  O31  1  0.769130  0.938358  0.529340  1
  O  O32  1  0.701083  0.194917  0.985448  1
  O  O33  1  0.720122  0.449345  0.013815  1
  O  O34  1  0.711328  0.699845  0.011639  1
  O  O35  1  0.701909  0.945840  0.982191  1
  O  O36  1  0.776581  0.318425  0.992967  1
  O  O37  1  0.803212  0.075201  0.016024  1
  O  O38  1  0.797356  0.823521  0.996177  1
  O  O39  1  0.782646  0.572259  0.989758  1
