# generated using pymatgen
data_KGaCoC4Cl3O4
_symmetry_space_group_name_H-M   'P 1'
_cell_length_a   9.24597812
_cell_length_b   11.82327096
_cell_length_c   12.20386497
_cell_angle_alpha   107.32887260
_cell_angle_beta   90.00000000
_cell_angle_gamma   90.00000000
_symmetry_Int_Tables_number   1
_chemical_formula_structural   KGaCoC4Cl3O4
_chemical_formula_sum   'K4 Ga4 Co4 C16 Cl12 O16'
_cell_volume   1273.54487441
_cell_formula_units_Z   4
loop_
 _symmetry_equiv_pos_site_id
 _symmetry_equiv_pos_as_xyz
  1  'x, y, z'
loop_
 _atom_site_type_symbol
 _atom_site_label
 _atom_site_symmetry_multiplicity
 _atom_site_fract_x
 _atom_site_fract_y
 _atom_site_fract_z
 _atom_site_occupancy
  K  K0  1  0.313919  0.082366  0.871267  1
  K  K1  1  0.686081  0.917634  0.128733  1
  K  K2  1  0.186081  0.582366  0.871267  1
  K  K3  1  0.813919  0.417634  0.128733  1
  Ga  Ga4  1  0.056165  0.744696  0.206259  1
  Ga  Ga5  1  0.443835  0.244696  0.206259  1
  Ga  Ga6  1  0.943835  0.255304  0.793741  1
  Ga  Ga7  1  0.556165  0.755304  0.793741  1
  Co  Co8  1  0.685851  0.636180  0.627887  1
  Co  Co9  1  0.314149  0.363820  0.372113  1
  Co  Co10  1  0.185851  0.863820  0.372113  1
  Co  Co11  1  0.814149  0.136180  0.627887  1
  C  C12  1  0.388109  0.255677  0.428926  1
  C  C13  1  0.156255  0.327539  0.287187  1
  C  C14  1  0.417867  0.476414  0.342244  1
  C  C15  1  0.343745  0.827539  0.287187  1
  C  C16  1  0.917867  0.023586  0.657756  1
  C  C17  1  0.082133  0.976414  0.342244  1
  C  C18  1  0.888109  0.244323  0.571074  1
  C  C19  1  0.236743  0.447171  0.503294  1
  C  C20  1  0.582133  0.523586  0.657756  1
  C  C21  1  0.111891  0.755677  0.428926  1
  C  C22  1  0.736743  0.052829  0.496706  1
  C  C23  1  0.763257  0.552829  0.496706  1
  C  C24  1  0.843745  0.672461  0.712813  1
  C  C25  1  0.263257  0.947171  0.503294  1
  C  C26  1  0.611891  0.744323  0.571074  1
  C  C27  1  0.656255  0.172461  0.712813  1
  Cl  Cl28  1  0.457551  0.318987  0.057011  1
  Cl  Cl29  1  0.856820  0.439485  0.870066  1
  Cl  Cl30  1  0.820734  0.713943  0.238765  1
  Cl  Cl31  1  0.643180  0.939485  0.870066  1
  Cl  Cl32  1  0.679266  0.213943  0.238765  1
  Cl  Cl33  1  0.042449  0.818987  0.057011  1
  Cl  Cl34  1  0.542449  0.681013  0.942989  1
  Cl  Cl35  1  0.179266  0.286057  0.761235  1
  Cl  Cl36  1  0.143180  0.560515  0.129934  1
  Cl  Cl37  1  0.320734  0.786057  0.761235  1
  Cl  Cl38  1  0.356820  0.060515  0.129934  1
  Cl  Cl39  1  0.957551  0.181013  0.942989  1
  O  O40  1  0.068192  0.687243  0.471999  1
  O  O41  1  0.951320  0.690062  0.764115  1
  O  O42  1  0.431808  0.187243  0.471999  1
  O  O43  1  0.931808  0.312757  0.528001  1
  O  O44  1  0.548680  0.190062  0.764115  1
  O  O45  1  0.482109  0.553548  0.324463  1
  O  O46  1  0.517891  0.446452  0.675537  1
  O  O47  1  0.048680  0.309938  0.235885  1
  O  O48  1  0.689473  0.000363  0.408328  1
  O  O49  1  0.982109  0.946452  0.675537  1
  O  O50  1  0.568192  0.812757  0.528001  1
  O  O51  1  0.451320  0.809938  0.235885  1
  O  O52  1  0.810527  0.500363  0.408328  1
  O  O53  1  0.017891  0.053548  0.324463  1
  O  O54  1  0.189473  0.499637  0.591672  1
  O  O55  1  0.310527  0.999637  0.591672  1
