# generated using pymatgen
data_Bi16Ru16O55
_symmetry_space_group_name_H-M   'P 1'
_cell_length_a   7.32720135
_cell_length_b   7.32720112
_cell_length_c   58.57632230
_cell_angle_alpha   59.97543524
_cell_angle_beta   59.97543627
_cell_angle_gamma   59.99921564
_symmetry_Int_Tables_number   1
_chemical_formula_structural   Bi16Ru16O55
_chemical_formula_sum   'Bi32 Ru32 O110'
_cell_volume   2222.89741623
_cell_formula_units_Z   2
loop_
 _symmetry_equiv_pos_site_id
 _symmetry_equiv_pos_as_xyz
  1  'x, y, z'
loop_
 _atom_site_type_symbol
 _atom_site_label
 _atom_site_symmetry_multiplicity
 _atom_site_fract_x
 _atom_site_fract_y
 _atom_site_fract_z
 _atom_site_occupancy
  Bi  Bi0  1  0.503150  0.986268  0.063434  1
  Bi  Bi1  1  0.503119  0.503119  0.063442  1
  Bi  Bi2  1  -0.000032  0.499953  0.187506  1
  Bi  Bi3  1  0.506880  0.506880  0.122420  1
  Bi  Bi4  1  0.499953  -0.000032  0.187506  1
  Bi  Bi5  1  0.986268  0.503150  0.063434  1
  Bi  Bi6  1  0.500037  0.500037  0.187493  1
  Bi  Bi7  1  0.013541  0.496896  0.311585  1
  Bi  Bi8  1  0.493188  0.493188  0.252555  1
  Bi  Bi9  1  0.496896  0.013541  0.311585  1
  Bi  Bi10  1  0.496886  0.496886  0.311588  1
  Bi  Bi11  1  0.000830  0.500007  0.437397  1
  Bi  Bi12  1  0.503078  0.503078  0.373846  1
  Bi  Bi13  1  0.500007  0.000830  0.437397  1
  Bi  Bi14  1  0.499990  0.499990  0.437399  1
  Bi  Bi15  1  0.500184  0.500184  0.499931  1
  Bi  Bi16  1  0.499900  0.499900  0.562516  1
  Bi  Bi17  1  0.499979  -0.000042  0.687507  1
  Bi  Bi18  1  0.499897  0.000074  0.562516  1
  Bi  Bi19  1  0.499944  0.499944  0.625021  1
  Bi  Bi20  1  0.000074  0.499897  0.562516  1
  Bi  Bi21  1  0.500006  0.500006  0.687504  1
  Bi  Bi22  1  -0.000058  0.500151  0.812472  1
  Bi  Bi23  1  0.500151  -0.000058  0.812472  1
  Bi  Bi24  1  0.500003  0.500003  0.749999  1
  Bi  Bi25  1  -0.000042  0.499979  0.687507  1
  Bi  Bi26  1  0.500131  0.500131  0.812475  1
  Bi  Bi27  1  0.999193  0.500034  0.937596  1
  Bi  Bi28  1  0.499846  0.499846  0.875057  1
  Bi  Bi29  1  0.500034  0.999193  0.937596  1
  Bi  Bi30  1  0.500010  0.500010  0.937598  1
  Bi  Bi31  1  0.496983  0.496983  0.001131  1
  Ru  Ru32  1  0.000079  0.000079  0.000039  1
  Ru  Ru33  1  0.000053  0.499539  0.000041  1
  Ru  Ru34  1  0.499539  0.000053  0.000041  1
  Ru  Ru35  1  0.999456  0.999456  0.125106  1
  Ru  Ru36  1  0.999513  0.500275  0.125091  1
  Ru  Ru37  1  0.500275  0.999513  0.125091  1
  Ru  Ru38  1  0.000419  0.000419  0.249925  1
  Ru  Ru39  1  0.000476  0.499768  0.249919  1
  Ru  Ru40  1  0.499768  0.000476  0.249919  1
  Ru  Ru41  1  0.999878  0.999878  0.374973  1
  Ru  Ru42  1  0.999949  0.999949  0.062529  1
  Ru  Ru43  1  0.999861  0.500462  0.374974  1
  Ru  Ru44  1  0.500462  0.999861  0.374974  1
  Ru  Ru45  1  0.999884  0.999884  0.500043  1
  Ru  Ru46  1  -0.000047  -0.000047  0.187505  1
  Ru  Ru47  1  0.999875  0.499885  0.500044  1
  Ru  Ru48  1  0.499885  0.999875  0.500044  1
  Ru  Ru49  1  -0.000154  -0.000154  0.625052  1
  Ru  Ru50  1  0.000026  0.000026  0.312492  1
  Ru  Ru51  1  -0.000129  0.499889  0.625050  1
  Ru  Ru52  1  0.000260  0.000260  0.749917  1
  Ru  Ru53  1  0.499889  -0.000129  0.625050  1
  Ru  Ru54  1  0.999768  0.999768  0.437588  1
  Ru  Ru55  1  0.000271  0.500142  0.749916  1
  Ru  Ru56  1  0.500142  0.000271  0.749916  1
  Ru  Ru57  1  0.999995  0.999995  0.562501  1
  Ru  Ru58  1  0.000146  0.500039  0.874955  1
  Ru  Ru59  1  0.000176  0.000176  0.874950  1
  Ru  Ru60  1  0.000043  0.000043  0.812484  1
  Ru  Ru61  1  -0.000010  -0.000010  0.687500  1
  Ru  Ru62  1  0.500039  0.000146  0.874955  1
  Ru  Ru63  1  0.000250  0.000250  0.937406  1
  O  O64  1  0.078413  0.669597  0.010337  1
  O  O65  1  0.080309  0.080309  0.083752  1
  O  O66  1  0.669597  0.078413  0.010337  1
  O  O67  1  0.364661  0.364661  0.050749  1
  O  O68  1  0.080508  0.669584  0.083671  1
  O  O69  1  0.080964  0.671710  0.134562  1
  O  O70  1  0.327658  0.921872  0.041078  1
  O  O71  1  0.328740  0.328740  0.115258  1
  O  O72  1  0.080484  0.080484  0.208725  1
  O  O73  1  0.669392  0.669392  0.010340  1
  O  O74  1  0.669584  0.080508  0.083671  1
  O  O75  1  0.921872  0.327658  0.041078  1
  O  O76  1  0.671710  0.080964  0.134562  1
  O  O77  1  0.383980  0.383980  0.168508  1
  O  O78  1  0.080392  0.669248  0.208745  1
  O  O79  1  0.328103  0.920655  0.115282  1
  O  O80  1  0.079317  0.671440  0.259708  1
  O  O81  1  0.328615  0.328615  0.240465  1
  O  O82  1  0.330748  0.919438  0.166302  1
  O  O83  1  0.078198  0.078198  0.333901  1
  O  O84  1  0.671030  0.671030  0.134593  1
  O  O85  1  0.920655  0.328103  0.115282  1
  O  O86  1  0.669248  0.080392  0.208745  1
  O  O87  1  0.921904  0.921904  0.041051  1
  O  O88  1  0.671440  0.079317  0.259708  1
  O  O89  1  0.616002  0.616002  0.206500  1
  O  O90  1  0.919438  0.330748  0.166302  1
  O  O91  1  0.328760  0.919000  0.240450  1
  O  O92  1  0.078183  0.672362  0.333909  1
  O  O93  1  0.078985  0.670721  0.384936  1
  O  O94  1  0.330724  0.330724  0.364636  1
  O  O95  1  0.079241  0.079241  0.458878  1
  O  O96  1  0.330272  0.919718  0.291284  1
  O  O97  1  0.672362  0.078183  0.333909  1
  O  O98  1  0.671539  0.671539  0.259706  1
  O  O99  1  0.919671  0.919671  0.166209  1
  O  O100  1  0.919000  0.328760  0.240450  1
  O  O101  1  0.670721  0.078985  0.384936  1
  O  O102  1  0.378518  0.378518  0.420556  1
  O  O103  1  0.635316  0.635316  0.324257  1
  O  O104  1  0.919718  0.330272  0.291284  1
  O  O105  1  0.079289  0.670558  0.458858  1
  O  O106  1  0.330783  0.921435  0.364636  1
  O  O107  1  0.328714  0.920794  0.416212  1
  O  O108  1  0.078956  0.671322  0.509827  1
  O  O109  1  0.079607  0.079607  0.583786  1
  O  O110  1  0.329056  0.329056  0.490124  1
  O  O111  1  0.921435  0.330783  0.364636  1
  O  O112  1  0.670558  0.079289  0.458858  1
  O  O113  1  0.670797  0.670797  0.384931  1
  O  O114  1  0.919683  0.919683  0.291298  1
  O  O115  1  0.920794  0.328714  0.416212  1
  O  O116  1  0.671322  0.078956  0.509827  1
  O  O117  1  0.079628  0.670554  0.583773  1
  O  O118  1  0.625289  0.625289  0.453017  1
  O  O119  1  0.374879  0.374879  0.546921  1
  O  O120  1  0.328902  0.920940  0.490131  1
  O  O121  1  0.079141  0.670761  0.634935  1
  O  O122  1  0.329550  0.329550  0.615017  1
  O  O123  1  0.079296  0.079296  0.708829  1
  O  O124  1  0.328938  0.920846  0.541172  1
  O  O125  1  0.670554  0.079628  0.583773  1
  O  O126  1  0.920940  0.328902  0.490131  1
  O  O127  1  0.920760  0.920760  0.416222  1
  O  O128  1  0.671175  0.671175  0.509831  1
  O  O129  1  0.670761  0.079141  0.634935  1
  O  O130  1  0.920846  0.328938  0.541172  1
  O  O131  1  0.079221  0.670709  0.708857  1
  O  O132  1  0.329451  0.920794  0.615019  1
  O  O133  1  0.374911  0.374911  0.671908  1
  O  O134  1  0.624956  0.624956  0.578142  1
  O  O135  1  0.329210  0.329210  0.740075  1
  O  O136  1  0.079047  0.079047  0.833846  1
  O  O137  1  0.329354  0.920699  0.666155  1
  O  O138  1  0.079244  0.670356  0.759971  1
  O  O139  1  0.670644  0.670644  0.634943  1
  O  O140  1  0.920885  0.920885  0.541153  1
  O  O141  1  0.920794  0.329451  0.615019  1
  O  O142  1  0.670709  0.079221  0.708857  1
  O  O143  1  0.670356  0.079244  0.759971  1
  O  O144  1  0.625172  0.625172  0.703061  1
  O  O145  1  0.375082  0.375082  0.796844  1
  O  O146  1  0.329420  0.920913  0.740066  1
  O  O147  1  0.920699  0.329354  0.666155  1
  O  O148  1  0.079058  0.671126  0.833846  1
  O  O149  1  0.329346  0.920459  0.791215  1
  O  O150  1  0.328749  0.328749  0.865181  1
  O  O151  1  0.079087  0.079087  0.958836  1
  O  O152  1  0.079053  0.670980  0.884872  1
  O  O153  1  0.920913  0.329420  0.740066  1
  O  O154  1  0.671126  0.079058  0.833846  1
  O  O155  1  0.670558  0.670558  0.759963  1
  O  O156  1  0.920749  0.920749  0.666140  1
  O  O157  1  0.670980  0.079053  0.884872  1
  O  O158  1  0.374707  0.374707  0.921985  1
  O  O159  1  0.625109  0.625109  0.828085  1
  O  O160  1  0.920459  0.329346  0.791215  1
  O  O161  1  0.328747  0.921048  0.865184  1
  O  O162  1  0.079160  0.671227  0.958806  1
  O  O163  1  0.329166  0.329166  0.990080  1
  O  O164  1  0.329545  0.920745  0.916122  1
  O  O165  1  0.920395  0.920395  0.791243  1
  O  O166  1  0.921048  0.328747  0.865184  1
  O  O167  1  0.671227  0.079160  0.958806  1
  O  O168  1  0.671001  0.671001  0.884869  1
  O  O169  1  0.920745  0.329545  0.916122  1
  O  O170  1  0.621470  0.621470  0.954448  1
  O  O171  1  0.328927  0.921108  0.990090  1
  O  O172  1  0.921108  0.328927  0.990090  1
  O  O173  1  0.920724  0.920724  0.916125  1
