# generated using pymatgen
data_SiO2
_symmetry_space_group_name_H-M   'P 1'
_cell_length_a   9.94854608
_cell_length_b   5.29028910
_cell_length_c   8.80151765
_cell_angle_alpha   90.00000000
_cell_angle_beta   90.00000000
_cell_angle_gamma   90.00000000
_symmetry_Int_Tables_number   1
_chemical_formula_structural   SiO2
_chemical_formula_sum   'Si8 O16'
_cell_volume   463.22990197
_cell_formula_units_Z   8
loop_
 _symmetry_equiv_pos_site_id
 _symmetry_equiv_pos_as_xyz
  1  'x, y, z'
loop_
 _atom_site_type_symbol
 _atom_site_label
 _atom_site_symmetry_multiplicity
 _atom_site_fract_x
 _atom_site_fract_y
 _atom_site_fract_z
 _atom_site_occupancy
  Si  Si0  1  0.342262  0.250000  0.400430  1
  Si  Si1  1  0.342262  0.750000  0.599570  1
  Si  Si2  1  0.657738  0.750000  0.599570  1
  Si  Si3  1  0.657738  0.250000  0.400430  1
  Si  Si4  1  0.842262  0.750000  0.900430  1
  Si  Si5  1  0.842262  0.250000  0.099570  1
  Si  Si6  1  0.157738  0.250000  0.099570  1
  Si  Si7  1  0.157738  0.750000  0.900430  1
  O  O8  1  0.500000  0.250000  0.350429  1
  O  O9  1  0.500000  0.750000  0.649571  1
  O  O10  1  0.000000  0.750000  0.850429  1
  O  O11  1  0.000000  0.250000  0.149571  1
  O  O12  1  0.308744  0.000000  0.500000  1
  O  O13  1  0.691256  0.500000  0.500000  1
  O  O14  1  0.691256  0.000000  0.500000  1
  O  O15  1  0.308744  0.500000  0.500000  1
  O  O16  1  0.808744  0.500000  0.000000  1
  O  O17  1  0.191256  0.000000  0.000000  1
  O  O18  1  0.191256  0.500000  0.000000  1
  O  O19  1  0.808744  0.000000  0.000000  1
  O  O20  1  0.250000  0.250000  0.250000  1
  O  O21  1  0.250000  0.750000  0.750000  1
  O  O22  1  0.750000  0.750000  0.750000  1
  O  O23  1  0.750000  0.250000  0.250000  1
