# generated using pymatgen
data_Ce2InCuSe5
_symmetry_space_group_name_H-M   'P 1'
_cell_length_a   4.09403935
_cell_length_b   12.11952704
_cell_length_c   17.35050794
_cell_angle_alpha   90.00000000
_cell_angle_beta   90.00000000
_cell_angle_gamma   90.00000000
_symmetry_Int_Tables_number   1
_chemical_formula_structural   Ce2InCuSe5
_chemical_formula_sum   'Ce8 In4 Cu4 Se20'
_cell_volume   860.89439038
_cell_formula_units_Z   4
loop_
 _symmetry_equiv_pos_site_id
 _symmetry_equiv_pos_as_xyz
  1  'x, y, z'
loop_
 _atom_site_type_symbol
 _atom_site_label
 _atom_site_symmetry_multiplicity
 _atom_site_fract_x
 _atom_site_fract_y
 _atom_site_fract_z
 _atom_site_occupancy
  Ce  Ce0  1  0.250000  0.636649  0.905558  1
  Ce  Ce1  1  0.750000  0.524342  0.320603  1
  Ce  Ce2  1  0.250000  0.136649  0.594442  1
  Ce  Ce3  1  0.750000  0.863351  0.405558  1
  Ce  Ce4  1  0.250000  0.975658  0.820603  1
  Ce  Ce5  1  0.250000  0.475658  0.679397  1
  Ce  Ce6  1  0.750000  0.363351  0.094442  1
  Ce  Ce7  1  0.750000  0.024342  0.179397  1
  In  In8  1  0.250000  0.190892  0.360602  1
  In  In9  1  0.750000  0.309108  0.860602  1
  In  In10  1  0.750000  0.809108  0.639398  1
  In  In11  1  0.250000  0.690892  0.139398  1
  Cu  Cu12  1  0.250000  0.579339  0.504669  1
  Cu  Cu13  1  0.250000  0.079339  0.995331  1
  Cu  Cu14  1  0.750000  0.920661  0.004669  1
  Cu  Cu15  1  0.750000  0.420661  0.495331  1
  Se  Se16  1  0.750000  0.606677  0.035705  1
  Se  Se17  1  0.750000  0.763244  0.231973  1
  Se  Se18  1  0.750000  0.018117  0.695632  1
  Se  Se19  1  0.250000  0.183167  0.113744  1
  Se  Se20  1  0.250000  0.393323  0.964295  1
  Se  Se21  1  0.750000  0.816833  0.886256  1
  Se  Se22  1  0.250000  0.736756  0.731973  1
  Se  Se23  1  0.750000  0.598950  0.579355  1
  Se  Se24  1  0.250000  0.981883  0.304368  1
  Se  Se25  1  0.250000  0.901050  0.079355  1
  Se  Se26  1  0.750000  0.106677  0.464295  1
  Se  Se27  1  0.750000  0.518117  0.804368  1
  Se  Se28  1  0.250000  0.683167  0.386256  1
  Se  Se29  1  0.250000  0.401050  0.420645  1
  Se  Se30  1  0.250000  0.236756  0.768027  1
  Se  Se31  1  0.750000  0.098950  0.920645  1
  Se  Se32  1  0.750000  0.316833  0.613744  1
  Se  Se33  1  0.750000  0.263244  0.268027  1
  Se  Se34  1  0.250000  0.481883  0.195632  1
  Se  Se35  1  0.250000  0.893323  0.535705  1
