# generated using pymatgen
data_GdAl2Ni
_symmetry_space_group_name_H-M   'P 1'
_cell_length_a   4.11439322
_cell_length_b   5.47991408
_cell_length_c   6.85642894
_cell_angle_alpha   89.69759089
_cell_angle_beta   89.98816440
_cell_angle_gamma   111.95985583
_symmetry_Int_Tables_number   1
_chemical_formula_structural   GdAl2Ni
_chemical_formula_sum   'Gd2 Al4 Ni2'
_cell_volume   143.37021993
_cell_formula_units_Z   2
loop_
 _symmetry_equiv_pos_site_id
 _symmetry_equiv_pos_as_xyz
  1  'x, y, z'
loop_
 _atom_site_type_symbol
 _atom_site_label
 _atom_site_symmetry_multiplicity
 _atom_site_fract_x
 _atom_site_fract_y
 _atom_site_fract_z
 _atom_site_occupancy
  Gd  Gd0  1  0.066706  0.131098  0.748147  1
  Gd  Gd1  1  0.941496  0.878482  0.248984  1
  Al  Al2  1  0.658962  0.316093  0.442969  1
  Al  Al3  1  0.346964  0.691204  0.943187  1
  Al  Al4  1  0.347657  0.694135  0.553921  1
  Al  Al5  1  0.661843  0.320576  0.054502  1
  Ni  Ni6  1  0.791004  0.578166  0.747032  1
  Ni  Ni7  1  0.217716  0.432573  0.249146  1
