# generated using pymatgen
data_Er5Al3Ni3Ge4
_symmetry_space_group_name_H-M   'P 1'
_cell_length_a   4.15839551
_cell_length_b   6.84057491
_cell_length_c   19.06536039
_cell_angle_alpha   90.00157566
_cell_angle_beta   90.00068570
_cell_angle_gamma   89.99883619
_symmetry_Int_Tables_number   1
_chemical_formula_structural   Er5Al3Ni3Ge4
_chemical_formula_sum   'Er10 Al6 Ni6 Ge8'
_cell_volume   542.32973329
_cell_formula_units_Z   2
loop_
 _symmetry_equiv_pos_site_id
 _symmetry_equiv_pos_as_xyz
  1  'x, y, z'
loop_
 _atom_site_type_symbol
 _atom_site_label
 _atom_site_symmetry_multiplicity
 _atom_site_fract_x
 _atom_site_fract_y
 _atom_site_fract_z
 _atom_site_occupancy
  Er  Er0  1  0.250000  0.996409  0.880460  1
  Er  Er1  1  0.750000  0.499752  0.071395  1
  Er  Er2  1  0.250006  0.500260  0.928604  1
  Er  Er3  1  0.750000  0.384941  0.250014  1
  Er  Er4  1  0.250000  0.615054  0.749988  1
  Er  Er5  1  0.249997  0.500244  0.571383  1
  Er  Er6  1  0.749999  0.003560  0.119549  1
  Er  Er7  1  0.250011  0.996428  0.619526  1
  Er  Er8  1  0.750003  0.499741  0.428613  1
  Er  Er9  1  0.749997  0.003578  0.380470  1
  Al  Al10  1  0.750004  0.315877  0.821559  1
  Al  Al11  1  0.750000  0.315879  0.678441  1
  Al  Al12  1  0.250002  0.028127  0.250001  1
  Al  Al13  1  0.750001  0.971865  0.750001  1
  Al  Al14  1  0.250000  0.684125  0.178443  1
  Al  Al15  1  0.250000  0.684127  0.321559  1
  Ni  Ni16  1  0.250010  0.165950  0.025826  1
  Ni  Ni17  1  0.750010  0.834048  0.974176  1
  Ni  Ni18  1  0.749988  0.793842  0.250004  1
  Ni  Ni19  1  0.250005  0.165960  0.474170  1
  Ni  Ni20  1  0.249992  0.206184  0.750000  1
  Ni  Ni21  1  0.749995  0.834055  0.525819  1
  Ge  Ge22  1  0.749995  0.710362  0.853862  1
  Ge  Ge23  1  0.749991  0.203369  0.538781  1
  Ge  Ge24  1  0.249999  0.796629  0.461206  1
  Ge  Ge25  1  0.250006  0.289636  0.353860  1
  Ge  Ge26  1  0.249998  0.289627  0.146139  1
  Ge  Ge27  1  0.249995  0.796645  0.038793  1
  Ge  Ge28  1  0.750000  0.203377  0.961219  1
  Ge  Ge29  1  0.749997  0.710350  0.646139  1
