# generated using pymatgen
data_CaCo2Te3(ClO4)2
_symmetry_space_group_name_H-M   'P 1'
_cell_length_a   6.59413221
_cell_length_b   9.29151771
_cell_length_c   18.42889045
_cell_angle_alpha   90.00000000
_cell_angle_beta   93.68211648
_cell_angle_gamma   90.00000000
_symmetry_Int_Tables_number   1
_chemical_formula_structural   CaCo2Te3(ClO4)2
_chemical_formula_sum   'Ca4 Co8 Te12 Cl8 O32'
_cell_volume   1126.79798649
_cell_formula_units_Z   4
loop_
 _symmetry_equiv_pos_site_id
 _symmetry_equiv_pos_as_xyz
  1  'x, y, z'
loop_
 _atom_site_type_symbol
 _atom_site_label
 _atom_site_symmetry_multiplicity
 _atom_site_fract_x
 _atom_site_fract_y
 _atom_site_fract_z
 _atom_site_occupancy
  Ca  Ca0  1  0.759329  0.113673  0.269041  1
  Ca  Ca1  1  0.259329  0.386327  0.769041  1
  Ca  Ca2  1  0.240671  0.886327  0.730959  1
  Ca  Ca3  1  0.740671  0.613673  0.230959  1
  Co  Co4  1  0.612934  0.243769  0.676821  1
  Co  Co5  1  0.387066  0.756231  0.323179  1
  Co  Co6  1  0.128312  0.457610  0.320000  1
  Co  Co7  1  0.371688  0.957610  0.180000  1
  Co  Co8  1  0.112934  0.256231  0.176821  1
  Co  Co9  1  0.871688  0.542390  0.680000  1
  Co  Co10  1  0.628312  0.042390  0.820000  1
  Co  Co11  1  0.887066  0.743769  0.823179  1
  Te  Te12  1  0.566115  0.296307  0.108614  1
  Te  Te13  1  0.111280  0.080897  0.888296  1
  Te  Te14  1  0.769447  0.392050  0.861083  1
  Te  Te15  1  0.269447  0.107950  0.361083  1
  Te  Te16  1  0.611280  0.419103  0.388296  1
  Te  Te17  1  0.230553  0.607950  0.138917  1
  Te  Te18  1  0.388720  0.580897  0.611704  1
  Te  Te19  1  0.730553  0.892050  0.638917  1
  Te  Te20  1  0.888720  0.919103  0.111704  1
  Te  Te21  1  0.933885  0.796307  0.391386  1
  Te  Te22  1  0.433885  0.703693  0.891386  1
  Te  Te23  1  0.066115  0.203693  0.608614  1
  Cl  Cl24  1  0.858042  0.675476  0.953932  1
  Cl  Cl25  1  0.358042  0.824524  0.453932  1
  Cl  Cl26  1  0.141958  0.324524  0.046068  1
  Cl  Cl27  1  0.693991  0.109432  0.950536  1
  Cl  Cl28  1  0.641958  0.175476  0.546068  1
  Cl  Cl29  1  0.806009  0.609432  0.549464  1
  Cl  Cl30  1  0.193991  0.390568  0.450536  1
  Cl  Cl31  1  0.306009  0.890568  0.049464  1
  O  O32  1  0.020589  0.012584  0.645993  1
  O  O33  1  0.620308  0.268188  0.793627  1
  O  O34  1  0.589349  0.806734  0.824892  1
  O  O35  1  0.120308  0.231812  0.293627  1
  O  O36  1  0.074427  0.021900  0.175660  1
  O  O37  1  0.546592  0.228888  0.350748  1
  O  O38  1  0.391569  0.979806  0.295393  1
  O  O39  1  0.479411  0.512584  0.854007  1
  O  O40  1  0.195398  0.736825  0.830485  1
  O  O41  1  0.319842  0.057104  0.822907  1
  O  O42  1  0.953408  0.728888  0.149252  1
  O  O43  1  0.608431  0.020194  0.704607  1
  O  O44  1  0.879692  0.768188  0.706373  1
  O  O45  1  0.410651  0.193266  0.175108  1
  O  O46  1  0.046592  0.271112  0.850748  1
  O  O47  1  0.089349  0.693266  0.324892  1
  O  O48  1  0.925573  0.978100  0.824340  1
  O  O49  1  0.304602  0.236825  0.669515  1
  O  O50  1  0.425573  0.521900  0.324340  1
  O  O51  1  0.819842  0.442896  0.322907  1
  O  O52  1  0.910651  0.306734  0.675108  1
  O  O53  1  0.180158  0.557104  0.677093  1
  O  O54  1  0.379692  0.731812  0.206373  1
  O  O55  1  0.804602  0.263175  0.169515  1
  O  O56  1  0.108431  0.479806  0.204607  1
  O  O57  1  0.453408  0.771112  0.649252  1
  O  O58  1  0.979411  0.987416  0.354007  1
  O  O59  1  0.680158  0.942896  0.177093  1
  O  O60  1  0.574427  0.478100  0.675660  1
  O  O61  1  0.891569  0.520194  0.795393  1
  O  O62  1  0.520589  0.487416  0.145993  1
  O  O63  1  0.695398  0.763175  0.330485  1
