# generated using pymatgen
data_Cu3Bi7(PbS5)3
_symmetry_space_group_name_H-M   'P 1'
_cell_length_a   4.04292321
_cell_length_b   11.83624573
_cell_length_c   55.85664066
_cell_angle_alpha   90.00000000
_cell_angle_beta   90.00000000
_cell_angle_gamma   90.00000000
_symmetry_Int_Tables_number   1
_chemical_formula_structural   Cu3Bi7(PbS5)3
_chemical_formula_sum   'Cu12 Bi28 Pb12 S60'
_cell_volume   2672.90964537
_cell_formula_units_Z   4
loop_
 _symmetry_equiv_pos_site_id
 _symmetry_equiv_pos_as_xyz
  1  'x, y, z'
loop_
 _atom_site_type_symbol
 _atom_site_label
 _atom_site_symmetry_multiplicity
 _atom_site_fract_x
 _atom_site_fract_y
 _atom_site_fract_z
 _atom_site_occupancy
  Cu  Cu0  1  0.250000  0.228434  0.941464  1
  Cu  Cu1  1  0.750000  0.271566  0.441464  1
  Cu  Cu2  1  0.750000  0.269370  0.242313  1
  Cu  Cu3  1  0.250000  0.730630  0.757687  1
  Cu  Cu4  1  0.250000  0.732983  0.958149  1
  Cu  Cu5  1  0.750000  0.767017  0.458149  1
  Cu  Cu6  1  0.250000  0.230630  0.742313  1
  Cu  Cu7  1  0.250000  0.232983  0.541851  1
  Cu  Cu8  1  0.750000  0.267017  0.041851  1
  Cu  Cu9  1  0.750000  0.771566  0.058536  1
  Cu  Cu10  1  0.750000  0.769370  0.257687  1
  Cu  Cu11  1  0.250000  0.728434  0.558536  1
  Bi  Bi12  1  0.750000  0.152109  0.892209  1
  Bi  Bi13  1  0.750000  0.984288  0.365482  1
  Bi  Bi14  1  0.750000  0.478722  0.935795  1
  Bi  Bi15  1  0.250000  0.015712  0.634518  1
  Bi  Bi16  1  0.250000  0.518621  0.665984  1
  Bi  Bi17  1  0.750000  0.652109  0.607791  1
  Bi  Bi18  1  0.250000  0.348152  0.192763  1
  Bi  Bi19  1  0.750000  0.978722  0.564205  1
  Bi  Bi20  1  0.250000  0.018621  0.834016  1
  Bi  Bi21  1  0.250000  0.517338  0.263208  1
  Bi  Bi22  1  0.750000  0.981379  0.165984  1
  Bi  Bi23  1  0.250000  0.013297  0.037554  1
  Bi  Bi24  1  0.750000  0.481379  0.334016  1
  Bi  Bi25  1  0.250000  0.017338  0.236792  1
  Bi  Bi26  1  0.750000  0.484288  0.134518  1
  Bi  Bi27  1  0.750000  0.651848  0.807237  1
  Bi  Bi28  1  0.750000  0.982662  0.763208  1
  Bi  Bi29  1  0.250000  0.848152  0.307237  1
  Bi  Bi30  1  0.750000  0.486703  0.537554  1
  Bi  Bi31  1  0.250000  0.513297  0.462446  1
  Bi  Bi32  1  0.250000  0.847891  0.107791  1
  Bi  Bi33  1  0.250000  0.515712  0.865482  1
  Bi  Bi34  1  0.750000  0.151848  0.692763  1
  Bi  Bi35  1  0.250000  0.021278  0.435795  1
  Bi  Bi36  1  0.750000  0.986703  0.962446  1
  Bi  Bi37  1  0.250000  0.521278  0.064205  1
  Bi  Bi38  1  0.250000  0.347891  0.392209  1
  Bi  Bi39  1  0.750000  0.482662  0.736792  1
  Pb  Pb40  1  0.750000  0.174108  0.299183  1
  Pb  Pb41  1  0.250000  0.326359  0.599747  1
  Pb  Pb42  1  0.750000  0.674108  0.200817  1
  Pb  Pb43  1  0.750000  0.668617  0.001908  1
  Pb  Pb44  1  0.750000  0.168617  0.498092  1
  Pb  Pb45  1  0.250000  0.826359  0.900253  1
  Pb  Pb46  1  0.250000  0.325892  0.799183  1
  Pb  Pb47  1  0.250000  0.825892  0.700817  1
  Pb  Pb48  1  0.250000  0.831383  0.501908  1
  Pb  Pb49  1  0.250000  0.331383  0.998092  1
  Pb  Pb50  1  0.750000  0.173641  0.099747  1
  Pb  Pb51  1  0.750000  0.673641  0.400253  1
  S  S52  1  0.750000  0.450589  0.226313  1
  S  S53  1  0.250000  0.216017  0.260302  1
  S  S54  1  0.250000  0.708633  0.838643  1
  S  S55  1  0.750000  0.619879  0.690474  1
  S  S56  1  0.750000  0.453694  0.028989  1
  S  S57  1  0.250000  0.049411  0.726313  1
  S  S58  1  0.250000  0.047459  0.925290  1
  S  S59  1  0.250000  0.880121  0.190474  1
  S  S60  1  0.750000  0.127468  0.410975  1
  S  S61  1  0.750000  0.952541  0.074710  1
  S  S62  1  0.250000  0.712727  0.439715  1
  S  S63  1  0.750000  0.122560  0.211898  1
  S  S64  1  0.750000  0.118053  0.610036  1
  S  S65  1  0.750000  0.287273  0.560285  1
  S  S66  1  0.750000  0.787273  0.939715  1
  S  S67  1  0.250000  0.210461  0.860860  1
  S  S68  1  0.750000  0.291367  0.161357  1
  S  S69  1  0.250000  0.546234  0.171677  1
  S  S70  1  0.250000  0.208633  0.661357  1
  S  S71  1  0.250000  0.721637  0.040136  1
  S  S72  1  0.750000  0.452541  0.425290  1
  S  S73  1  0.250000  0.046234  0.328323  1
  S  S74  1  0.250000  0.380121  0.309526  1
  S  S75  1  0.750000  0.453766  0.828323  1
  S  S76  1  0.750000  0.622560  0.288102  1
  S  S77  1  0.750000  0.289539  0.360860  1
  S  S78  1  0.750000  0.950589  0.273687  1
  S  S79  1  0.250000  0.872532  0.589025  1
  S  S80  1  0.750000  0.953766  0.671677  1
  S  S81  1  0.250000  0.877440  0.788102  1
  S  S82  1  0.250000  0.883117  0.987706  1
  S  S83  1  0.750000  0.116883  0.012294  1
  S  S84  1  0.250000  0.046878  0.128817  1
  S  S85  1  0.250000  0.549411  0.773687  1
  S  S86  1  0.750000  0.791367  0.338643  1
  S  S87  1  0.750000  0.278363  0.959864  1
  S  S88  1  0.250000  0.221637  0.459864  1
  S  S89  1  0.750000  0.618053  0.889964  1
  S  S90  1  0.250000  0.212727  0.060285  1
  S  S91  1  0.250000  0.383117  0.512294  1
  S  S92  1  0.250000  0.381947  0.110036  1
  S  S93  1  0.250000  0.377440  0.711898  1
  S  S94  1  0.750000  0.953694  0.471011  1
  S  S95  1  0.750000  0.778363  0.540136  1
  S  S96  1  0.250000  0.372532  0.910975  1
  S  S97  1  0.750000  0.789539  0.139140  1
  S  S98  1  0.250000  0.546306  0.971011  1
  S  S99  1  0.250000  0.546878  0.371183  1
  S  S100  1  0.250000  0.881947  0.389964  1
  S  S101  1  0.750000  0.119879  0.809526  1
  S  S102  1  0.750000  0.783983  0.739698  1
  S  S103  1  0.250000  0.716017  0.239698  1
  S  S104  1  0.250000  0.710461  0.639140  1
  S  S105  1  0.250000  0.547459  0.574710  1
  S  S106  1  0.750000  0.953122  0.871183  1
  S  S107  1  0.750000  0.453122  0.628817  1
  S  S108  1  0.750000  0.283983  0.760302  1
  S  S109  1  0.750000  0.616883  0.487706  1
  S  S110  1  0.750000  0.627468  0.089025  1
  S  S111  1  0.250000  0.046306  0.528989  1
