# generated using pymatgen
data_CuH12(C2N5)2
_symmetry_space_group_name_H-M   'P 1'
_cell_length_a   7.54806302
_cell_length_b   9.37014575
_cell_length_c   15.93978663
_cell_angle_alpha   90.00000000
_cell_angle_beta   90.00000000
_cell_angle_gamma   92.64780202
_symmetry_Int_Tables_number   1
_chemical_formula_structural   CuH12(C2N5)2
_chemical_formula_sum   'Cu4 H48 C16 N40'
_cell_volume   1126.16093067
_cell_formula_units_Z   4
loop_
 _symmetry_equiv_pos_site_id
 _symmetry_equiv_pos_as_xyz
  1  'x, y, z'
loop_
 _atom_site_type_symbol
 _atom_site_label
 _atom_site_symmetry_multiplicity
 _atom_site_fract_x
 _atom_site_fract_y
 _atom_site_fract_z
 _atom_site_occupancy
  Cu  Cu0  1  0.500000  0.000000  0.000000  1
  Cu  Cu1  1  0.000000  0.000000  0.000000  1
  Cu  Cu2  1  0.000000  0.500000  0.500000  1
  Cu  Cu3  1  0.500000  0.500000  0.500000  1
  H  H4  1  0.842527  0.128191  0.410251  1
  H  H5  1  0.450971  0.986070  0.299371  1
  H  H6  1  0.092135  0.943816  0.767915  1
  H  H7  1  0.822823  0.447894  0.700954  1
  H  H8  1  0.536505  0.121159  0.370658  1
  H  H9  1  0.738182  0.313366  0.773072  1
  H  H10  1  0.205351  0.260192  0.143487  1
  H  H11  1  0.963495  0.378841  0.870658  1
  H  H12  1  0.322823  0.947894  0.799046  1
  H  H13  1  0.987359  0.997184  0.369951  1
  H  H14  1  0.049029  0.513930  0.799371  1
  H  H15  1  0.493454  0.060980  0.594185  1
  H  H16  1  0.261818  0.686634  0.226928  1
  H  H17  1  0.342527  0.628191  0.089749  1
  H  H18  1  0.036505  0.621159  0.129342  1
  H  H19  1  0.705351  0.760192  0.356513  1
  H  H20  1  0.642100  0.800924  0.250377  1
  H  H21  1  0.157473  0.871809  0.589749  1
  H  H22  1  0.627247  0.691633  0.779656  1
  H  H23  1  0.549029  0.013930  0.700629  1
  H  H24  1  0.506546  0.939020  0.405815  1
  H  H25  1  0.993454  0.560980  0.905815  1
  H  H26  1  0.592135  0.443816  0.732085  1
  H  H27  1  0.127247  0.191633  0.720344  1
  H  H28  1  0.142100  0.300924  0.249623  1
  H  H29  1  0.238182  0.813366  0.726928  1
  H  H30  1  0.794649  0.739808  0.856513  1
  H  H31  1  0.321424  0.445926  0.052739  1
  H  H32  1  0.357900  0.199076  0.749623  1
  H  H33  1  0.678576  0.554074  0.947261  1
  H  H34  1  0.512641  0.502816  0.869951  1
  H  H35  1  0.657473  0.371809  0.910251  1
  H  H36  1  0.907865  0.056184  0.232085  1
  H  H37  1  0.006546  0.439020  0.094185  1
  H  H38  1  0.177177  0.552106  0.299046  1
  H  H39  1  0.463495  0.878841  0.629342  1
  H  H40  1  0.872753  0.808367  0.279656  1
  H  H41  1  0.012641  0.002816  0.630049  1
  H  H42  1  0.761818  0.186634  0.273072  1
  H  H43  1  0.950971  0.486070  0.200629  1
  H  H44  1  0.857900  0.699076  0.750377  1
  H  H45  1  0.407865  0.556184  0.267915  1
  H  H46  1  0.821424  0.945926  0.447261  1
  H  H47  1  0.487359  0.497184  0.130049  1
  H  H48  1  0.294649  0.239808  0.643487  1
  H  H49  1  0.372753  0.308367  0.220344  1
  H  H50  1  0.178576  0.054074  0.552739  1
  H  H51  1  0.677177  0.052106  0.200954  1
  C  C52  1  0.772009  0.076079  0.251627  1
  C  C53  1  0.237222  0.325543  0.199091  1
  C  C54  1  0.354084  0.515471  0.106305  1
  C  C55  1  0.737222  0.825543  0.300909  1
  C  C56  1  0.854084  0.015471  0.393695  1
  C  C57  1  0.262778  0.174457  0.699091  1
  C  C58  1  0.272009  0.576079  0.248373  1
  C  C59  1  0.645916  0.484529  0.893695  1
  C  C60  1  0.040626  0.508632  0.147629  1
  C  C61  1  0.959374  0.491368  0.852371  1
  C  C62  1  0.762778  0.674457  0.800909  1
  C  C63  1  0.227991  0.923921  0.748373  1
  C  C64  1  0.145916  0.984529  0.606305  1
  C  C65  1  0.540626  0.008632  0.352371  1
  C  C66  1  0.459374  0.991368  0.647629  1
  C  C67  1  0.727991  0.423921  0.751627  1
  N  N68  1  0.143736  0.749108  0.423784  1
  N  N69  1  0.225896  0.564912  0.637541  1
  N  N70  1  0.856264  0.250892  0.576216  1
  N  N71  1  0.567545  0.305091  0.530192  1
  N  N72  1  0.932455  0.194909  0.030192  1
  N  N73  1  0.785748  0.220349  0.053667  1
  N  N74  1  0.274578  0.019645  0.675506  1
  N  N75  1  0.254959  0.079929  0.978147  1
  N  N76  1  0.079879  0.579927  0.610296  1
  N  N77  1  0.725422  0.980355  0.324494  1
  N  N78  1  0.285748  0.720349  0.446333  1
  N  N79  1  0.245041  0.420071  0.478147  1
  N  N80  1  0.774104  0.435088  0.362459  1
  N  N81  1  0.368600  0.553709  0.665798  1
  N  N82  1  0.761452  0.696388  0.555198  1
  N  N83  1  0.232433  0.191937  0.412871  1
  N  N84  1  0.745041  0.920071  0.021853  1
  N  N85  1  0.774578  0.519645  0.824494  1
  N  N86  1  0.214252  0.779651  0.946333  1
  N  N87  1  0.714252  0.279651  0.553667  1
  N  N88  1  0.868600  0.053709  0.834202  1
  N  N89  1  0.274104  0.935088  0.137541  1
  N  N90  1  0.732433  0.691937  0.087129  1
  N  N91  1  0.579879  0.079927  0.889704  1
  N  N92  1  0.432455  0.694909  0.469808  1
  N  N93  1  0.920121  0.420073  0.389704  1
  N  N94  1  0.738548  0.803612  0.055198  1
  N  N95  1  0.131400  0.946291  0.165798  1
  N  N96  1  0.643736  0.249108  0.076216  1
  N  N97  1  0.356264  0.750892  0.923784  1
  N  N98  1  0.754959  0.579929  0.521853  1
  N  N99  1  0.725896  0.064912  0.862459  1
  N  N100  1  0.631400  0.446291  0.334202  1
  N  N101  1  0.067545  0.805091  0.969808  1
  N  N102  1  0.767567  0.808063  0.587129  1
  N  N103  1  0.238548  0.303612  0.444802  1
  N  N104  1  0.267567  0.308063  0.912871  1
  N  N105  1  0.261452  0.196388  0.944802  1
  N  N106  1  0.420121  0.920073  0.110296  1
  N  N107  1  0.225422  0.480355  0.175506  1
