# generated using pymatgen
data_U(HO2)2
_symmetry_space_group_name_H-M   'P 1'
_cell_length_a   5.42213849
_cell_length_b   6.02181806
_cell_length_c   10.14415412
_cell_angle_alpha   90.00000000
_cell_angle_beta   90.00000000
_cell_angle_gamma   90.00000000
_symmetry_Int_Tables_number   1
_chemical_formula_structural   U(HO2)2
_chemical_formula_sum   'U4 H8 O16'
_cell_volume   331.21810995
_cell_formula_units_Z   4
loop_
 _symmetry_equiv_pos_site_id
 _symmetry_equiv_pos_as_xyz
  1  'x, y, z'
loop_
 _atom_site_type_symbol
 _atom_site_label
 _atom_site_symmetry_multiplicity
 _atom_site_fract_x
 _atom_site_fract_y
 _atom_site_fract_z
 _atom_site_occupancy
  U  U0  1  0.500000  0.000000  0.500000  1
  U  U1  1  0.000000  0.500000  0.500000  1
  U  U2  1  0.500000  0.500000  0.000000  1
  U  U3  1  0.000000  0.000000  0.000000  1
  H  H4  1  0.649828  0.378849  0.261562  1
  H  H5  1  0.149828  0.121151  0.738438  1
  H  H6  1  0.350172  0.878849  0.238438  1
  H  H7  1  0.850172  0.621151  0.761562  1
  H  H8  1  0.350172  0.621151  0.738438  1
  H  H9  1  0.850172  0.878849  0.261562  1
  H  H10  1  0.649828  0.121151  0.761562  1
  H  H11  1  0.149828  0.378849  0.238438  1
  O  O12  1  0.665083  0.472395  0.181477  1
  O  O13  1  0.165083  0.027605  0.818523  1
  O  O14  1  0.334917  0.972395  0.318523  1
  O  O15  1  0.834917  0.527605  0.681477  1
  O  O16  1  0.334917  0.527605  0.818523  1
  O  O17  1  0.834917  0.972395  0.181477  1
  O  O18  1  0.665083  0.027605  0.681477  1
  O  O19  1  0.165083  0.472395  0.318523  1
  O  O20  1  0.734774  0.296953  0.439478  1
  O  O21  1  0.234774  0.203047  0.560522  1
  O  O22  1  0.265226  0.796953  0.060522  1
  O  O23  1  0.765226  0.703047  0.939478  1
  O  O24  1  0.265226  0.703047  0.560522  1
  O  O25  1  0.765226  0.796953  0.439478  1
  O  O26  1  0.734774  0.203047  0.939478  1
  O  O27  1  0.234774  0.296953  0.060522  1
