# generated using pymatgen
data_Ag(CO)2
_symmetry_space_group_name_H-M   'P 1'
_cell_length_a   7.20888197
_cell_length_b   7.63557904
_cell_length_c   10.78549296
_cell_angle_alpha   102.78161645
_cell_angle_beta   109.50838627
_cell_angle_gamma   90.05671630
_symmetry_Int_Tables_number   1
_chemical_formula_structural   Ag(CO)2
_chemical_formula_sum   'Ag8 C16 O16'
_cell_volume   543.91542634
_cell_formula_units_Z   8
loop_
 _symmetry_equiv_pos_site_id
 _symmetry_equiv_pos_as_xyz
  1  'x, y, z'
loop_
 _atom_site_type_symbol
 _atom_site_label
 _atom_site_symmetry_multiplicity
 _atom_site_fract_x
 _atom_site_fract_y
 _atom_site_fract_z
 _atom_site_occupancy
  Ag  Ag0  1  0.093680  0.695187  0.171124  1
  Ag  Ag1  1  0.908587  0.310035  0.829799  1
  Ag  Ag2  1  0.920560  0.807368  0.828311  1
  Ag  Ag3  1  0.076688  0.190768  0.166175  1
  Ag  Ag4  1  0.152386  0.562869  0.686365  1
  Ag  Ag5  1  0.537386  0.061342  0.686523  1
  Ag  Ag6  1  0.469107  0.940299  0.315334  1
  Ag  Ag7  1  0.852692  0.435133  0.312402  1
  C  C8  1  0.017114  0.979609  0.405783  1
  C  C9  1  0.443690  0.915252  0.902372  1
  C  C10  1  0.989174  0.021021  0.596642  1
  C  C11  1  0.457761  0.415833  0.902865  1
  C  C12  1  0.391088  0.478461  0.405381  1
  C  C13  1  0.003162  0.138918  0.507561  1
  C  C14  1  0.353569  0.521934  0.986775  1
  C  C15  1  0.631315  0.022248  0.986096  1
  C  C16  1  0.609025  0.520358  0.595781  1
  C  C17  1  0.363971  0.976987  0.012140  1
  C  C18  1  0.506451  0.637389  0.506508  1
  C  C19  1  0.551432  0.085680  0.095565  1
  C  C20  1  0.542879  0.586079  0.096319  1
  C  C21  1  0.001327  0.861506  0.494424  1
  C  C22  1  0.494204  0.361528  0.494400  1
  C  C23  1  0.646457  0.479802  0.012324  1
  O  O24  1  0.038679  0.958583  0.292121  1
  O  O25  1  0.201554  0.950544  0.028963  1
  O  O26  1  0.511467  0.803671  0.510430  1
  O  O27  1  0.000635  0.304901  0.512730  1
  O  O28  1  0.382942  0.817026  0.783472  1
  O  O29  1  0.793473  0.047214  0.968586  1
  O  O30  1  0.997715  0.695366  0.488439  1
  O  O31  1  0.173554  0.546085  0.969523  1
  O  O32  1  0.489704  0.195293  0.490463  1
  O  O33  1  0.742617  0.542542  0.710969  1
  O  O34  1  0.612425  0.187148  0.213208  1
  O  O35  1  0.256406  0.456186  0.290467  1
  O  O36  1  0.825906  0.455277  0.028599  1
  O  O37  1  0.401811  0.316135  0.785073  1
  O  O38  1  0.971120  0.042500  0.711302  1
  O  O39  1  0.601370  0.685388  0.214593  1
