# generated using pymatgen
data_As4Pb8Cl6O11
_symmetry_space_group_name_H-M   'P 1'
_cell_length_a   6.75922896
_cell_length_b   11.42111443
_cell_length_c   35.08137994
_cell_angle_alpha   90.00000000
_cell_angle_beta   93.99081771
_cell_angle_gamma   90.00000000
_symmetry_Int_Tables_number   1
_chemical_formula_structural   As4Pb8Cl6O11
_chemical_formula_sum   'As16 Pb32 Cl24 O44'
_cell_volume   2701.64299885
_cell_formula_units_Z   4
loop_
 _symmetry_equiv_pos_site_id
 _symmetry_equiv_pos_as_xyz
  1  'x, y, z'
loop_
 _atom_site_type_symbol
 _atom_site_label
 _atom_site_symmetry_multiplicity
 _atom_site_fract_x
 _atom_site_fract_y
 _atom_site_fract_z
 _atom_site_occupancy
  As  As0  1  0.697564  0.623006  0.846053  1
  As  As1  1  0.723400  0.370993  0.445670  1
  As  As2  1  0.733814  0.879947  0.443451  1
  As  As3  1  0.266186  0.379947  0.056549  1
  As  As4  1  0.317592  0.627941  0.652825  1
  As  As5  1  0.276600  0.629007  0.554330  1
  As  As6  1  0.682408  0.127941  0.847175  1
  As  As7  1  0.733814  0.620053  0.943451  1
  As  As8  1  0.302436  0.123006  0.653947  1
  As  As9  1  0.317592  0.872059  0.152825  1
  As  As10  1  0.723400  0.129007  0.945670  1
  As  As11  1  0.276600  0.870993  0.054330  1
  As  As12  1  0.697564  0.876994  0.346053  1
  As  As13  1  0.266186  0.120053  0.556549  1
  As  As14  1  0.682408  0.372059  0.347175  1
  As  As15  1  0.302436  0.376994  0.153947  1
  Pb  Pb16  1  0.202400  0.128587  0.991278  1
  Pb  Pb17  1  0.804166  0.372334  0.014590  1
  Pb  Pb18  1  0.283693  0.379638  0.710987  1
  Pb  Pb19  1  0.160789  0.618030  0.820228  1
  Pb  Pb20  1  0.013923  0.363623  0.910945  1
  Pb  Pb21  1  0.013923  0.136377  0.410945  1
  Pb  Pb22  1  0.937710  0.079930  0.096096  1
  Pb  Pb23  1  0.797600  0.871413  0.008722  1
  Pb  Pb24  1  0.826037  0.617034  0.669886  1
  Pb  Pb25  1  0.195834  0.627666  0.985410  1
  Pb  Pb26  1  0.804166  0.127666  0.514590  1
  Pb  Pb27  1  0.062290  0.579930  0.403904  1
  Pb  Pb28  1  0.717281  0.128685  0.287322  1
  Pb  Pb29  1  0.173963  0.382966  0.330114  1
  Pb  Pb30  1  0.173963  0.117034  0.830114  1
  Pb  Pb31  1  0.826037  0.882966  0.169886  1
  Pb  Pb32  1  0.160789  0.881970  0.320228  1
  Pb  Pb33  1  0.282719  0.871315  0.712677  1
  Pb  Pb34  1  0.062290  0.920070  0.903904  1
  Pb  Pb35  1  0.986077  0.636377  0.089055  1
  Pb  Pb36  1  0.716307  0.879638  0.789013  1
  Pb  Pb37  1  0.986077  0.863623  0.589055  1
  Pb  Pb38  1  0.716307  0.620362  0.289013  1
  Pb  Pb39  1  0.283693  0.120362  0.210987  1
  Pb  Pb40  1  0.839211  0.118030  0.679772  1
  Pb  Pb41  1  0.839211  0.381970  0.179772  1
  Pb  Pb42  1  0.202400  0.371413  0.491278  1
  Pb  Pb43  1  0.797600  0.628587  0.508722  1
  Pb  Pb44  1  0.717281  0.371315  0.787323  1
  Pb  Pb45  1  0.195834  0.872334  0.485410  1
  Pb  Pb46  1  0.937710  0.420070  0.596096  1
  Pb  Pb47  1  0.282719  0.628685  0.212677  1
  Cl  Cl48  1  0.375191  0.873763  0.964037  1
  Cl  Cl49  1  0.356523  0.130401  0.319081  1
  Cl  Cl50  1  0.639779  0.860992  0.541721  1
  Cl  Cl51  1  0.643477  0.869599  0.680919  1
  Cl  Cl52  1  0.356523  0.369599  0.819081  1
  Cl  Cl53  1  0.472014  0.879798  0.248150  1
  Cl  Cl54  1  0.273212  0.884787  0.393557  1
  Cl  Cl55  1  0.653634  0.133972  0.181925  1
  Cl  Cl56  1  0.639779  0.639008  0.041721  1
  Cl  Cl57  1  0.643477  0.630401  0.180919  1
  Cl  Cl58  1  0.624809  0.126237  0.035963  1
  Cl  Cl59  1  0.527986  0.120202  0.751850  1
  Cl  Cl60  1  0.360221  0.360992  0.958279  1
  Cl  Cl61  1  0.360221  0.139008  0.458279  1
  Cl  Cl62  1  0.273212  0.615213  0.893557  1
  Cl  Cl63  1  0.346366  0.866028  0.818075  1
  Cl  Cl64  1  0.726788  0.115213  0.606443  1
  Cl  Cl65  1  0.472014  0.620202  0.748150  1
  Cl  Cl66  1  0.726788  0.384787  0.106443  1
  Cl  Cl67  1  0.375191  0.626237  0.464037  1
  Cl  Cl68  1  0.624809  0.373763  0.535963  1
  Cl  Cl69  1  0.653634  0.366028  0.681925  1
  Cl  Cl70  1  0.346366  0.633972  0.318075  1
  Cl  Cl71  1  0.527986  0.379798  0.251850  1
  O  O72  1  0.165773  0.998327  0.163160  1
  O  O73  1  0.902228  0.001542  0.457250  1
  O  O74  1  0.189069  0.132137  0.605769  1
  O  O75  1  0.146603  0.497304  0.168447  1
  O  O76  1  0.206042  0.413977  0.389633  1
  O  O77  1  0.099721  0.269377  0.036965  1
  O  O78  1  0.896461  0.243987  0.961825  1
  O  O79  1  0.103562  0.510027  0.543177  1
  O  O80  1  0.206042  0.086023  0.889633  1
  O  O81  1  0.165773  0.501673  0.663160  1
  O  O82  1  0.099721  0.230623  0.536965  1
  O  O83  1  0.783192  0.156560  0.895897  1
  O  O84  1  0.856124  0.766412  0.326543  1
  O  O85  1  0.853397  0.502696  0.831553  1
  O  O86  1  0.845239  0.265342  0.328317  1
  O  O87  1  0.810931  0.867863  0.394231  1
  O  O88  1  0.896438  0.010027  0.956823  1
  O  O89  1  0.853397  0.997304  0.331553  1
  O  O90  1  0.896438  0.489973  0.456823  1
  O  O91  1  0.103539  0.756013  0.038175  1
  O  O92  1  0.146603  0.002696  0.668447  1
  O  O93  1  0.216808  0.843440  0.104103  1
  O  O94  1  0.154761  0.734658  0.671683  1
  O  O95  1  0.143876  0.233588  0.673457  1
  O  O96  1  0.896461  0.256013  0.461825  1
  O  O97  1  0.900279  0.769377  0.463035  1
  O  O98  1  0.834227  0.001673  0.836840  1
  O  O99  1  0.189069  0.367863  0.105769  1
  O  O100  1  0.856124  0.733588  0.826543  1
  O  O101  1  0.103562  0.989973  0.043177  1
  O  O102  1  0.845239  0.234658  0.828317  1
  O  O103  1  0.793957  0.913977  0.110367  1
  O  O104  1  0.103539  0.743987  0.538175  1
  O  O105  1  0.097772  0.998458  0.542750  1
  O  O106  1  0.793957  0.586023  0.610367  1
  O  O107  1  0.783192  0.343440  0.395897  1
  O  O108  1  0.900279  0.730623  0.963035  1
  O  O109  1  0.143876  0.266412  0.173457  1
  O  O110  1  0.902228  0.498458  0.957250  1
  O  O111  1  0.834227  0.498327  0.336840  1
  O  O112  1  0.097772  0.501542  0.042750  1
  O  O113  1  0.154761  0.765342  0.171683  1
  O  O114  1  0.216808  0.656560  0.604103  1
  O  O115  1  0.810931  0.632137  0.894231  1
