# generated using pymatgen
data_Yb(Ga3Te5)2
_symmetry_space_group_name_H-M   'P 1'
_cell_length_a   10.40484611
_cell_length_b   10.43786161
_cell_length_c   10.43786109
_cell_angle_alpha   89.25752583
_cell_angle_beta   89.95171100
_cell_angle_gamma   89.95171391
_symmetry_Int_Tables_number   1
_chemical_formula_structural   Yb(Ga3Te5)2
_chemical_formula_sum   'Yb2 Ga12 Te20'
_cell_volume   1133.50108057
_cell_formula_units_Z   2
loop_
 _symmetry_equiv_pos_site_id
 _symmetry_equiv_pos_as_xyz
  1  'x, y, z'
loop_
 _atom_site_type_symbol
 _atom_site_label
 _atom_site_symmetry_multiplicity
 _atom_site_fract_x
 _atom_site_fract_y
 _atom_site_fract_z
 _atom_site_occupancy
  Yb  Yb0  1  0.255105  0.741968  0.997156  1
  Yb  Yb1  1  0.744895  0.002844  0.258032  1
  Ga  Ga2  1  0.124488  0.429207  0.159078  1
  Ga  Ga3  1  0.160475  0.128669  0.430946  1
  Ga  Ga4  1  0.169592  0.747326  0.344760  1
  Ga  Ga5  1  0.252663  0.831102  0.659726  1
  Ga  Ga6  1  0.337336  0.170402  0.745954  1
  Ga  Ga7  1  0.426897  0.162937  0.126812  1
  Ga  Ga8  1  0.573103  0.873188  0.837063  1
  Ga  Ga9  1  0.662664  0.254046  0.829598  1
  Ga  Ga10  1  0.747337  0.340274  0.168898  1
  Ga  Ga11  1  0.830408  0.655240  0.252674  1
  Ga  Ga12  1  0.839525  0.569054  0.871331  1
  Ga  Ga13  1  0.875512  0.840922  0.570793  1
  Te  Te14  1  1.000000  0.829685  0.170315  1
  Te  Te15  1  0.068733  0.670195  0.570394  1
  Te  Te16  1  0.083148  0.499970  0.917429  1
  Te  Te17  1  0.168815  0.996514  0.829061  1
  Te  Te18  1  0.171006  0.172012  0.172670  1
  Te  Te19  1  0.252423  0.318792  0.562878  1
  Te  Te20  1  0.318488  0.568302  0.247899  1
  Te  Te21  1  0.327589  0.931183  0.431195  1
  Te  Te22  1  0.431271  0.326656  0.929452  1
  Te  Te23  1  0.434132  0.679270  0.752647  1
  Te  Te24  1  0.500000  0.918147  0.081853  1
  Te  Te25  1  0.565868  0.247353  0.320730  1
  Te  Te26  1  0.568729  0.070548  0.673344  1
  Te  Te27  1  0.672411  0.568805  0.068817  1
  Te  Te28  1  0.681512  0.752101  0.431698  1
  Te  Te29  1  0.747577  0.437122  0.681208  1
  Te  Te30  1  0.831185  0.170939  0.003486  1
  Te  Te31  1  0.828994  0.827330  0.827988  1
  Te  Te32  1  0.916852  0.082571  0.500030  1
  Te  Te33  1  0.931267  0.429606  0.329805  1
