# generated using pymatgen
data_Co4Ge(CO)13
_symmetry_space_group_name_H-M   'P 1'
_cell_length_a   8.13932160
_cell_length_b   8.89228240
_cell_length_c   15.94623779
_cell_angle_alpha   80.57754376
_cell_angle_beta   75.15711261
_cell_angle_gamma   69.45066365
_symmetry_Int_Tables_number   1
_chemical_formula_structural   Co4Ge(CO)13
_chemical_formula_sum   'Co8 Ge2 C26 O26'
_cell_volume   1041.16668576
_cell_formula_units_Z   2
loop_
 _symmetry_equiv_pos_site_id
 _symmetry_equiv_pos_as_xyz
  1  'x, y, z'
loop_
 _atom_site_type_symbol
 _atom_site_label
 _atom_site_symmetry_multiplicity
 _atom_site_fract_x
 _atom_site_fract_y
 _atom_site_fract_z
 _atom_site_occupancy
  Co  Co0  1  0.491031  0.854542  0.690372  1
  Co  Co1  1  0.845262  0.758997  0.637814  1
  Co  Co2  1  0.289550  0.213730  0.077754  1
  Co  Co3  1  0.316940  0.455019  0.289421  1
  Co  Co4  1  0.154738  0.241003  0.362186  1
  Co  Co5  1  0.683060  0.544981  0.710579  1
  Co  Co6  1  0.710450  0.786270  0.922246  1
  Co  Co7  1  0.508969  0.145458  0.309628  1
  Ge  Ge8  1  0.691057  0.747772  0.780614  1
  Ge  Ge9  1  0.308943  0.252228  0.219386  1
  C  C10  1  0.443731  0.842135  0.589169  1
  C  C11  1  0.943702  0.359919  0.342635  1
  C  C12  1  0.735283  0.825031  0.023518  1
  C  C13  1  0.662799  0.490136  0.611430  1
  C  C14  1  0.337201  0.509864  0.388570  1
  C  C15  1  0.556269  0.157865  0.410831  1
  C  C16  1  0.871638  0.948455  0.628987  1
  C  C17  1  0.128362  0.051545  0.371013  1
  C  C18  1  0.298728  0.848009  0.768369  1
  C  C19  1  0.155801  0.271526  0.469945  1
  C  C20  1  0.722022  0.974596  0.868815  1
  C  C21  1  0.277978  0.025404  0.131185  1
  C  C22  1  0.900796  0.609839  0.905496  1
  C  C23  1  0.498406  0.251324  0.040360  1
  C  C24  1  0.844199  0.728474  0.530055  1
  C  C25  1  0.501594  0.748676  0.959640  1
  C  C26  1  0.874893  0.392702  0.735313  1
  C  C27  1  0.479755  0.508738  0.207537  1
  C  C28  1  0.530761  0.942537  0.307741  1
  C  C29  1  0.264717  0.174969  0.976482  1
  C  C30  1  0.520245  0.491262  0.792463  1
  C  C31  1  0.701272  0.151991  0.231631  1
  C  C32  1  0.099204  0.390161  0.094504  1
  C  C33  1  0.469239  0.057463  0.692259  1
  C  C34  1  0.056298  0.640081  0.657365  1
  C  C35  1  0.125107  0.607298  0.264687  1
  O  O36  1  0.198842  0.564321  0.668302  1
  O  O37  1  0.729682  0.098946  0.835795  1
  O  O38  1  0.550249  0.807453  0.306494  1
  O  O39  1  0.346038  0.557305  0.449961  1
  O  O40  1  0.023411  0.493236  0.896424  1
  O  O41  1  0.398409  0.844610  0.525586  1
  O  O42  1  0.415956  0.450095  0.846905  1
  O  O43  1  0.633155  0.277382  0.013633  1
  O  O44  1  0.166526  0.848705  0.818439  1
  O  O45  1  0.653962  0.442695  0.550039  1
  O  O46  1  0.852274  0.711226  0.458435  1
  O  O47  1  0.999222  0.288647  0.751359  1
  O  O48  1  0.247473  0.145349  0.912115  1
  O  O49  1  0.449751  0.192547  0.693506  1
  O  O50  1  0.752527  0.854651  0.087885  1
  O  O51  1  0.833474  0.151295  0.181561  1
  O  O52  1  0.270318  0.901054  0.164205  1
  O  O53  1  0.584044  0.549905  0.153095  1
  O  O54  1  0.801158  0.435679  0.331698  1
  O  O55  1  0.976589  0.506764  0.103576  1
  O  O56  1  0.000778  0.711353  0.248641  1
  O  O57  1  0.896778  0.071464  0.620420  1
  O  O58  1  0.147726  0.288774  0.541565  1
  O  O59  1  0.601591  0.155390  0.474414  1
  O  O60  1  0.103222  0.928536  0.379580  1
  O  O61  1  0.366845  0.722618  0.986367  1
