# generated using pymatgen
data_Ce4(LuS2)11
_symmetry_space_group_name_H-M   'P 1'
_cell_length_a   3.88048495
_cell_length_b   11.21445053
_cell_length_c   19.40553964
_cell_angle_alpha   91.31951705
_cell_angle_beta   95.73824244
_cell_angle_gamma   90.00000131
_symmetry_Int_Tables_number   1
_chemical_formula_structural   Ce4(LuS2)11
_chemical_formula_sum   'Ce4 Lu11 S22'
_cell_volume   840.02398754
_cell_formula_units_Z   1
loop_
 _symmetry_equiv_pos_site_id
 _symmetry_equiv_pos_as_xyz
  1  'x, y, z'
loop_
 _atom_site_type_symbol
 _atom_site_label
 _atom_site_symmetry_multiplicity
 _atom_site_fract_x
 _atom_site_fract_y
 _atom_site_fract_z
 _atom_site_occupancy
  Ce  Ce0  1  0.104301  0.512448  0.208602  1
  Ce  Ce1  1  0.895699  0.487552  0.791398  1
  Ce  Ce2  1  0.632967  0.150826  0.265934  1
  Ce  Ce3  1  0.367033  0.849174  0.734066  1
  Lu  Lu4  1  0.461973  0.770253  0.923946  1
  Lu  Lu5  1  0.930408  0.138442  0.860816  1
  Lu  Lu6  1  0.657480  0.800495  0.314960  1
  Lu  Lu7  1  0.263199  0.852123  0.526398  1
  Lu  Lu8  1  0.736801  0.147877  0.473602  1
  Lu  Lu9  1  0.797601  0.558935  0.595202  1
  Lu  Lu10  1  0.342520  0.199505  0.685040  1
  Lu  Lu11  1  0.202399  0.441065  0.404798  1
  Lu  Lu12  1  0.000000  0.500000  0.000000  1
  Lu  Lu13  1  0.069592  0.861558  0.139184  1
  Lu  Lu14  1  0.538027  0.229747  0.076054  1
  S  S15  1  0.254939  0.619513  0.509877  1
  S  S16  1  0.444815  0.993241  0.889629  1
  S  S17  1  0.546561  0.468325  0.093121  1
  S  S18  1  0.830832  0.347828  0.661665  1
  S  S19  1  0.991965  0.259104  0.983930  1
  S  S20  1  0.350023  0.591457  0.700045  1
  S  S21  1  0.280461  0.089272  0.560922  1
  S  S22  1  0.169168  0.652172  0.338335  1
  S  S23  1  0.134862  0.951447  0.269725  1
  S  S24  1  0.555185  0.006759  0.110371  1
  S  S25  1  0.745061  0.380487  0.490123  1
  S  S26  1  0.865138  0.048553  0.730275  1
  S  S27  1  0.649977  0.408543  0.299955  1
  S  S28  1  0.810238  0.809129  0.620476  1
  S  S29  1  0.189762  0.190871  0.379524  1
  S  S30  1  0.719539  0.910728  0.439078  1
  S  S31  1  0.592752  0.713399  0.185505  1
  S  S32  1  0.008035  0.740896  0.016070  1
  S  S33  1  0.087259  0.251782  0.174519  1
  S  S34  1  0.912741  0.748218  0.825481  1
  S  S35  1  0.407248  0.286601  0.814495  1
  S  S36  1  0.453439  0.531675  0.906879  1
