# generated using pymatgen
data_Sr8La3(RuO7)3
_symmetry_space_group_name_H-M   'P 1'
_cell_length_a   6.96635738
_cell_length_b   6.95639393
_cell_length_c   21.08354411
_cell_angle_alpha   49.20441401
_cell_angle_beta   49.06543373
_cell_angle_gamma   48.98647534
_symmetry_Int_Tables_number   1
_chemical_formula_structural   Sr8La3(RuO7)3
_chemical_formula_sum   'Sr8 La3 Ru3 O21'
_cell_volume   535.82853640
_cell_formula_units_Z   1
loop_
 _symmetry_equiv_pos_site_id
 _symmetry_equiv_pos_as_xyz
  1  'x, y, z'
loop_
 _atom_site_type_symbol
 _atom_site_label
 _atom_site_symmetry_multiplicity
 _atom_site_fract_x
 _atom_site_fract_y
 _atom_site_fract_z
 _atom_site_occupancy
  Sr  Sr0  1  0.136108  0.185461  0.067350  1
  Sr  Sr1  1  0.378024  0.377571  0.127997  1
  Sr  Sr2  1  0.609896  0.615782  0.208180  1
  Sr  Sr3  1  0.144013  0.197972  0.728837  1
  Sr  Sr4  1  0.613003  0.615413  0.545051  1
  Sr  Sr5  1  0.389274  0.389843  0.787093  1
  Sr  Sr6  1  0.852394  0.880509  0.582083  1
  Sr  Sr7  1  0.803924  0.830923  0.947737  1
  La  La8  1  0.361014  0.371760  0.455036  1
  La  La9  1  0.772624  0.766440  0.317134  1
  La  La10  1  0.617320  0.630038  0.873221  1
  Ru  Ru11  1  0.006866  0.001531  0.997581  1
  Ru  Ru12  1  0.014264  0.007839  0.329473  1
  Ru  Ru13  1  0.011283  0.009638  0.662076  1
  O  O14  1  0.105455  0.074001  0.208583  1
  O  O15  1  0.137714  0.623981  0.018301  1
  O  O16  1  0.626755  0.112219  0.026016  1
  O  O17  1  0.642945  0.512882  0.113769  1
  O  O18  1  0.111730  0.104834  0.536812  1
  O  O19  1  0.108108  0.620588  0.361815  1
  O  O20  1  0.628943  0.104309  0.361862  1
  O  O21  1  0.394292  0.899929  0.297320  1
  O  O22  1  0.917783  0.389159  0.291612  1
  O  O23  1  0.909898  0.897843  0.122479  1
  O  O24  1  0.553542  0.518057  0.466302  1
  O  O25  1  0.122209  0.080326  0.869990  1
  O  O26  1  0.119190  0.632124  0.687147  1
  O  O27  1  0.629935  0.107677  0.691587  1
  O  O28  1  0.390401  0.927659  0.628454  1
  O  O29  1  0.922816  0.394946  0.626205  1
  O  O30  1  0.906163  0.892998  0.454669  1
  O  O31  1  0.603032  0.456917  0.821350  1
  O  O32  1  0.382440  0.918480  0.963856  1
  O  O33  1  0.923536  0.384903  0.955839  1
  O  O34  1  0.914226  0.896569  0.790892  1
