# generated using pymatgen
data_Cs3LiCl4
_symmetry_space_group_name_H-M   'P 1'
_cell_length_a   4.35987170
_cell_length_b   6.89043612
_cell_length_c   10.13367540
_cell_angle_alpha   90.01633818
_cell_angle_beta   89.99717875
_cell_angle_gamma   108.42470302
_symmetry_Int_Tables_number   1
_chemical_formula_structural   Cs3LiCl4
_chemical_formula_sum   'Cs3 Li1 Cl4'
_cell_volume   288.82482952
_cell_formula_units_Z   1
loop_
 _symmetry_equiv_pos_site_id
 _symmetry_equiv_pos_as_xyz
  1  'x, y, z'
loop_
 _atom_site_type_symbol
 _atom_site_label
 _atom_site_symmetry_multiplicity
 _atom_site_fract_x
 _atom_site_fract_y
 _atom_site_fract_z
 _atom_site_occupancy
  Cs  Cs0  1  0.314707  0.641061  0.269618  1
  Cs  Cs1  1  0.084210  0.182893  0.999513  1
  Cs  Cs2  1  0.318270  0.641302  0.729654  1
  Li  Li3  1  0.538024  0.081167  0.499919  1
  Cl  Cl4  1  0.823690  0.655757  0.999356  1
  Cl  Cl5  1  0.599272  0.211317  0.280252  1
  Cl  Cl6  1  0.926624  0.861424  0.500161  1
  Cl  Cl7  1  0.602526  0.211798  0.719614  1
