# generated using pymatgen
data_In2Cl3
_symmetry_space_group_name_H-M   'P 1'
_cell_length_a   12.77342212
_cell_length_b   14.74335871
_cell_length_c   25.43814114
_cell_angle_alpha   90.00000000
_cell_angle_beta   90.00000000
_cell_angle_gamma   90.00000000
_symmetry_Int_Tables_number   1
_chemical_formula_structural   In2Cl3
_chemical_formula_sum   'In64 Cl96'
_cell_volume   4790.59072385
_cell_formula_units_Z   32
loop_
 _symmetry_equiv_pos_site_id
 _symmetry_equiv_pos_as_xyz
  1  'x, y, z'
loop_
 _atom_site_type_symbol
 _atom_site_label
 _atom_site_symmetry_multiplicity
 _atom_site_fract_x
 _atom_site_fract_y
 _atom_site_fract_z
 _atom_site_occupancy
  In  In0  1  0.257164  0.079503  0.336254  1
  In  In1  1  0.410778  0.368984  0.750000  1
  In  In2  1  0.581214  0.641524  0.661349  1
  In  In3  1  0.078315  0.378973  0.054422  1
  In  In4  1  0.918786  0.141524  0.338651  1
  In  In5  1  0.589222  0.631016  0.250000  1
  In  In6  1  0.078315  0.378973  0.445578  1
  In  In7  1  0.579748  0.172871  0.845143  1
  In  In8  1  0.257164  0.079503  0.163746  1
  In  In9  1  0.414644  0.364966  0.529621  1
  In  In10  1  0.268079  0.107478  0.841114  1
  In  In11  1  0.231921  0.607478  0.341114  1
  In  In12  1  0.252898  0.112358  0.494932  1
  In  In13  1  0.918786  0.141524  0.161349  1
  In  In14  1  0.768079  0.392522  0.658886  1
  In  In15  1  0.077304  0.371925  0.250000  1
  In  In16  1  0.742836  0.920497  0.663746  1
  In  In17  1  0.079748  0.327129  0.845143  1
  In  In18  1  0.421685  0.878973  0.554422  1
  In  In19  1  0.421685  0.878973  0.945578  1
  In  In20  1  0.079748  0.327129  0.654857  1
  In  In21  1  0.420252  0.827129  0.345143  1
  In  In22  1  0.420252  0.827129  0.154857  1
  In  In23  1  0.742836  0.920497  0.836254  1
  In  In24  1  0.578315  0.121027  0.054422  1
  In  In25  1  0.757164  0.420497  0.336254  1
  In  In26  1  0.578315  0.121027  0.445578  1
  In  In27  1  0.268079  0.107478  0.658886  1
  In  In28  1  0.414644  0.364966  0.970379  1
  In  In29  1  0.752898  0.387642  0.005068  1
  In  In30  1  0.752898  0.387642  0.494932  1
  In  In31  1  0.579748  0.172871  0.654857  1
  In  In32  1  0.757164  0.420497  0.163746  1
  In  In33  1  0.581214  0.641524  0.838651  1
  In  In34  1  0.247102  0.612358  0.994932  1
  In  In35  1  0.231921  0.607478  0.158886  1
  In  In36  1  0.585356  0.635034  0.029621  1
  In  In37  1  0.585356  0.635034  0.470379  1
  In  In38  1  0.081214  0.858476  0.661349  1
  In  In39  1  0.418786  0.358476  0.338651  1
  In  In40  1  0.921685  0.621027  0.554422  1
  In  In41  1  0.914644  0.135034  0.970379  1
  In  In42  1  0.242836  0.579503  0.836254  1
  In  In43  1  0.731921  0.892522  0.341114  1
  In  In44  1  0.418786  0.358476  0.161349  1
  In  In45  1  0.920252  0.672871  0.154857  1
  In  In46  1  0.747102  0.887642  0.505068  1
  In  In47  1  0.422696  0.871925  0.750000  1
  In  In48  1  0.768079  0.392522  0.841114  1
  In  In49  1  0.910778  0.131016  0.750000  1
  In  In50  1  0.252898  0.112358  0.005068  1
  In  In51  1  0.577304  0.128075  0.250000  1
  In  In52  1  0.731921  0.892522  0.158886  1
  In  In53  1  0.747102  0.887642  0.994932  1
  In  In54  1  0.242836  0.579503  0.663746  1
  In  In55  1  0.914644  0.135034  0.529621  1
  In  In56  1  0.921685  0.621027  0.945578  1
  In  In57  1  0.085356  0.864966  0.470379  1
  In  In58  1  0.089222  0.868984  0.250000  1
  In  In59  1  0.920252  0.672871  0.345143  1
  In  In60  1  0.081214  0.858476  0.838651  1
  In  In61  1  0.922696  0.628075  0.750000  1
  In  In62  1  0.085356  0.864966  0.029621  1
  In  In63  1  0.247102  0.612358  0.505068  1
  Cl  Cl64  1  0.396681  0.359739  0.651843  1
  Cl  Cl65  1  0.393470  0.664898  0.250000  1
  Cl  Cl66  1  0.365687  0.765740  0.823073  1
  Cl  Cl67  1  0.787977  0.599505  0.250000  1
  Cl  Cl68  1  0.915859  0.374310  0.553040  1
  Cl  Cl69  1  0.839297  0.274608  0.430636  1
  Cl  Cl70  1  0.590675  0.400618  0.063752  1
  Cl  Cl71  1  0.896681  0.140261  0.651843  1
  Cl  Cl72  1  0.832587  0.758756  0.455862  1
  Cl  Cl73  1  0.167413  0.241244  0.544138  1
  Cl  Cl74  1  0.339297  0.225392  0.069364  1
  Cl  Cl75  1  0.678242  0.505770  0.940209  1
  Cl  Cl76  1  0.134313  0.265740  0.176927  1
  Cl  Cl77  1  0.178242  0.994230  0.559791  1
  Cl  Cl78  1  0.415859  0.125690  0.946960  1
  Cl  Cl79  1  0.662572  0.016537  0.555550  1
  Cl  Cl80  1  0.106530  0.164898  0.750000  1
  Cl  Cl81  1  0.162572  0.483463  0.555550  1
  Cl  Cl82  1  0.337428  0.983463  0.444450  1
  Cl  Cl83  1  0.160703  0.725392  0.569364  1
  Cl  Cl84  1  0.287977  0.900495  0.250000  1
  Cl  Cl85  1  0.634313  0.234260  0.176927  1
  Cl  Cl86  1  0.660703  0.774608  0.930636  1
  Cl  Cl87  1  0.105027  0.705329  0.750000  1
  Cl  Cl88  1  0.558180  0.457938  0.250000  1
  Cl  Cl89  1  0.660703  0.774608  0.569364  1
  Cl  Cl90  1  0.756166  0.047824  0.250000  1
  Cl  Cl91  1  0.441820  0.542062  0.750000  1
  Cl  Cl92  1  0.821758  0.005770  0.440209  1
  Cl  Cl93  1  0.160703  0.725392  0.930636  1
  Cl  Cl94  1  0.090675  0.099382  0.436248  1
  Cl  Cl95  1  0.584141  0.874310  0.446960  1
  Cl  Cl96  1  0.162572  0.483463  0.944450  1
  Cl  Cl97  1  0.134313  0.265740  0.323073  1
  Cl  Cl98  1  0.256166  0.452176  0.250000  1
  Cl  Cl99  1  0.104006  0.691390  0.250000  1
  Cl  Cl100  1  0.837428  0.516537  0.055550  1
  Cl  Cl101  1  0.662572  0.016537  0.944450  1
  Cl  Cl102  1  0.415859  0.125690  0.553040  1
  Cl  Cl103  1  0.605028  0.794671  0.750000  1
  Cl  Cl104  1  0.584141  0.874310  0.053040  1
  Cl  Cl105  1  0.678242  0.505770  0.559791  1
  Cl  Cl106  1  0.321758  0.494230  0.059791  1
  Cl  Cl107  1  0.337428  0.983463  0.055550  1
  Cl  Cl108  1  0.016336  0.480615  0.323370  1
  Cl  Cl109  1  0.896681  0.140261  0.848157  1
  Cl  Cl110  1  0.167413  0.241244  0.955862  1
  Cl  Cl111  1  0.893470  0.835102  0.250000  1
  Cl  Cl112  1  0.395994  0.191390  0.750000  1
  Cl  Cl113  1  0.915859  0.374310  0.946960  1
  Cl  Cl114  1  0.243834  0.952176  0.750000  1
  Cl  Cl115  1  0.365687  0.765740  0.676927  1
  Cl  Cl116  1  0.743834  0.547824  0.750000  1
  Cl  Cl117  1  0.634313  0.234260  0.323073  1
  Cl  Cl118  1  0.394973  0.205329  0.250000  1
  Cl  Cl119  1  0.058180  0.042062  0.250000  1
  Cl  Cl120  1  0.604006  0.808610  0.250000  1
  Cl  Cl121  1  0.909325  0.900618  0.936248  1
  Cl  Cl122  1  0.941820  0.957938  0.750000  1
  Cl  Cl123  1  0.667413  0.258756  0.544138  1
  Cl  Cl124  1  0.839297  0.274608  0.069364  1
  Cl  Cl125  1  0.894972  0.294671  0.250000  1
  Cl  Cl126  1  0.084141  0.625690  0.446960  1
  Cl  Cl127  1  0.339297  0.225392  0.430636  1
  Cl  Cl128  1  0.821758  0.005770  0.059791  1
  Cl  Cl129  1  0.103319  0.859739  0.348157  1
  Cl  Cl130  1  0.606530  0.335102  0.750000  1
  Cl  Cl131  1  0.103319  0.859739  0.151843  1
  Cl  Cl132  1  0.332587  0.741244  0.455862  1
  Cl  Cl133  1  0.516336  0.019385  0.176630  1
  Cl  Cl134  1  0.590675  0.400618  0.436248  1
  Cl  Cl135  1  0.712023  0.099505  0.750000  1
  Cl  Cl136  1  0.865687  0.734260  0.823073  1
  Cl  Cl137  1  0.483664  0.980615  0.823370  1
  Cl  Cl138  1  0.409325  0.599382  0.563752  1
  Cl  Cl139  1  0.409325  0.599382  0.936248  1
  Cl  Cl140  1  0.483664  0.980615  0.676630  1
  Cl  Cl141  1  0.832587  0.758756  0.044138  1
  Cl  Cl142  1  0.865687  0.734260  0.676927  1
  Cl  Cl143  1  0.603319  0.640261  0.348157  1
  Cl  Cl144  1  0.516336  0.019385  0.323370  1
  Cl  Cl145  1  0.178242  0.994230  0.940209  1
  Cl  Cl146  1  0.016336  0.480615  0.176630  1
  Cl  Cl147  1  0.837428  0.516537  0.444450  1
  Cl  Cl148  1  0.983664  0.519385  0.676630  1
  Cl  Cl149  1  0.983664  0.519385  0.823370  1
  Cl  Cl150  1  0.084141  0.625690  0.053040  1
  Cl  Cl151  1  0.321758  0.494230  0.440209  1
  Cl  Cl152  1  0.603319  0.640261  0.151843  1
  Cl  Cl153  1  0.332587  0.741244  0.044138  1
  Cl  Cl154  1  0.667413  0.258756  0.955862  1
  Cl  Cl155  1  0.909325  0.900618  0.563752  1
  Cl  Cl156  1  0.396681  0.359739  0.848157  1
  Cl  Cl157  1  0.212023  0.400495  0.750000  1
  Cl  Cl158  1  0.090675  0.099382  0.063752  1
  Cl  Cl159  1  0.895994  0.308610  0.750000  1
