# generated using pymatgen
data_K2Sn5Cl12
_symmetry_space_group_name_H-M   'P 1'
_cell_length_a   12.07179182
_cell_length_b   11.72150405
_cell_length_c   10.18739165
_cell_angle_alpha   90.00000000
_cell_angle_beta   90.00000000
_cell_angle_gamma   119.76181548
_symmetry_Int_Tables_number   1
_chemical_formula_structural   K2Sn5Cl12
_chemical_formula_sum   'K4 Sn10 Cl24'
_cell_volume   1251.37095493
_cell_formula_units_Z   2
loop_
 _symmetry_equiv_pos_site_id
 _symmetry_equiv_pos_as_xyz
  1  'x, y, z'
loop_
 _atom_site_type_symbol
 _atom_site_label
 _atom_site_symmetry_multiplicity
 _atom_site_fract_x
 _atom_site_fract_y
 _atom_site_fract_z
 _atom_site_occupancy
  K  K0  1  0.319333  0.937945  0.500000  1
  K  K1  1  0.098284  0.395760  0.000000  1
  K  K2  1  0.005324  0.995954  0.000000  1
  K  K3  1  0.983120  0.998369  0.500000  1
  Sn  Sn4  1  0.366114  0.856906  0.000000  1
  Sn  Sn5  1  0.120328  0.496193  0.500000  1
  Sn  Sn6  1  0.516305  0.666160  0.500000  1
  Sn  Sn7  1  0.514839  0.625580  0.000000  1
  Sn  Sn8  1  0.430581  0.273652  0.229880  1
  Sn  Sn9  1  0.430581  0.273652  0.770120  1
  Sn  Sn10  1  0.862687  0.576901  0.288402  1
  Sn  Sn11  1  0.862687  0.576901  0.711598  1
  Sn  Sn12  1  0.717640  0.143170  0.244997  1
  Sn  Sn13  1  0.717640  0.143170  0.755003  1
  Cl  Cl14  1  0.219912  0.079913  0.288949  1
  Cl  Cl15  1  0.219912  0.079913  0.711051  1
  Cl  Cl16  1  0.080407  0.566969  0.769540  1
  Cl  Cl17  1  0.080407  0.566969  0.230460  1
  Cl  Cl18  1  0.916011  0.126489  0.231638  1
  Cl  Cl19  1  0.916011  0.126489  0.768362  1
  Cl  Cl20  1  0.481244  0.912212  0.257442  1
  Cl  Cl21  1  0.481244  0.912212  0.742558  1
  Cl  Cl22  1  0.424878  0.512545  0.263843  1
  Cl  Cl23  1  0.424878  0.512545  0.736157  1
  Cl  Cl24  1  0.300281  0.287805  0.000000  1
  Cl  Cl25  1  0.162972  0.310089  0.500000  1
  Cl  Cl26  1  0.899261  0.797975  0.233773  1
  Cl  Cl27  1  0.899261  0.797975  0.766227  1
  Cl  Cl28  1  0.661863  0.528323  0.000000  1
  Cl  Cl29  1  0.676116  0.583052  0.500000  1
  Cl  Cl30  1  0.470191  0.111352  0.000000  1
  Cl  Cl31  1  0.507384  0.232111  0.500000  1
  Cl  Cl32  1  0.153644  0.840066  0.000000  1
  Cl  Cl33  1  0.006547  0.700548  0.500000  1
  Cl  Cl34  1  0.794788  0.260047  0.000000  1
  Cl  Cl35  1  0.873942  0.343373  0.500000  1
  Cl  Cl36  1  0.684278  0.867210  0.000000  1
  Cl  Cl37  1  0.694506  0.911406  0.500000  1
