# generated using pymatgen
data_Cs7Co4F15
_symmetry_space_group_name_H-M   'P 1'
_cell_length_a   8.00008690
_cell_length_b   11.13873523
_cell_length_c   11.79552616
_cell_angle_alpha   90.00000000
_cell_angle_beta   92.38819371
_cell_angle_gamma   90.00000000
_symmetry_Int_Tables_number   1
_chemical_formula_structural   Cs7Co4F15
_chemical_formula_sum   'Cs14 Co8 F30'
_cell_volume   1050.19640522
_cell_formula_units_Z   2
loop_
 _symmetry_equiv_pos_site_id
 _symmetry_equiv_pos_as_xyz
  1  'x, y, z'
loop_
 _atom_site_type_symbol
 _atom_site_label
 _atom_site_symmetry_multiplicity
 _atom_site_fract_x
 _atom_site_fract_y
 _atom_site_fract_z
 _atom_site_occupancy
  Cs  Cs0  1  0.158807  0.346333  0.803716  1
  Cs  Cs1  1  0.330053  0.001672  0.665798  1
  Cs  Cs2  1  0.496962  0.181710  0.030887  1
  Cs  Cs3  1  0.669947  0.501672  0.834202  1
  Cs  Cs4  1  0.330053  0.498328  0.165798  1
  Cs  Cs5  1  0.000000  0.500000  0.500000  1
  Cs  Cs6  1  0.841193  0.846333  0.696284  1
  Cs  Cs7  1  0.158807  0.153667  0.303716  1
  Cs  Cs8  1  0.669947  0.998328  0.334202  1
  Cs  Cs9  1  0.841193  0.653667  0.196284  1
  Cs  Cs10  1  0.496962  0.318290  0.530887  1
  Cs  Cs11  1  0.503038  0.681710  0.469113  1
  Cs  Cs12  1  0.000000  0.000000  0.000000  1
  Cs  Cs13  1  0.503038  0.818290  0.969113  1
  Co  Co14  1  0.261502  0.827687  0.226278  1
  Co  Co15  1  0.923072  0.162149  0.571901  1
  Co  Co16  1  0.923072  0.337851  0.071901  1
  Co  Co17  1  0.261502  0.672313  0.726278  1
  Co  Co18  1  0.738498  0.327687  0.273722  1
  Co  Co19  1  0.738498  0.172313  0.773722  1
  Co  Co20  1  0.076928  0.837851  0.428099  1
  Co  Co21  1  0.076928  0.662149  0.928099  1
  F  F22  1  0.311451  0.909126  0.394618  1
  F  F23  1  0.311451  0.590874  0.894618  1
  F  F24  1  0.489370  0.752692  0.221654  1
  F  F25  1  0.668659  0.025539  0.858553  1
  F  F26  1  0.169676  0.765872  0.582232  1
  F  F27  1  0.489370  0.747308  0.721654  1
  F  F28  1  0.510630  0.252692  0.278346  1
  F  F29  1  0.830324  0.265872  0.917768  1
  F  F30  1  0.172697  0.809875  0.835043  1
  F  F31  1  0.510630  0.247308  0.778346  1
  F  F32  1  0.688549  0.409126  0.105382  1
  F  F33  1  0.688549  0.090874  0.605382  1
  F  F34  1  0.331342  0.525539  0.641447  1
  F  F35  1  0.172697  0.690125  0.335043  1
  F  F36  1  0.852338  0.736064  0.944782  1
  F  F37  1  0.827303  0.190125  0.164957  1
  F  F38  1  0.977364  0.397425  0.240539  1
  F  F39  1  0.668659  0.474461  0.358553  1
  F  F40  1  0.147662  0.263936  0.055218  1
  F  F41  1  0.147662  0.236064  0.555218  1
  F  F42  1  0.827303  0.309875  0.664957  1
  F  F43  1  0.331342  0.974461  0.141447  1
  F  F44  1  0.022636  0.897425  0.259461  1
  F  F45  1  0.852338  0.763936  0.444782  1
  F  F46  1  0.830324  0.234128  0.417768  1
  F  F47  1  0.022636  0.602575  0.759461  1
  F  F48  1  0.169676  0.734128  0.082232  1
  F  F49  1  0.000000  0.000000  0.500000  1
  F  F50  1  0.977364  0.102575  0.740539  1
  F  F51  1  0.000000  0.500000  0.000000  1
