# generated using pymatgen
data_HgTe(H2O3)2
_symmetry_space_group_name_H-M   'P 1'
_cell_length_a   6.19526236
_cell_length_b   8.47012340
_cell_length_c   11.18460324
_cell_angle_alpha   90.00000000
_cell_angle_beta   90.00000000
_cell_angle_gamma   90.00000000
_symmetry_Int_Tables_number   1
_chemical_formula_structural   HgTe(H2O3)2
_chemical_formula_sum   'Hg4 Te4 H16 O24'
_cell_volume   586.90799148
_cell_formula_units_Z   4
loop_
 _symmetry_equiv_pos_site_id
 _symmetry_equiv_pos_as_xyz
  1  'x, y, z'
loop_
 _atom_site_type_symbol
 _atom_site_label
 _atom_site_symmetry_multiplicity
 _atom_site_fract_x
 _atom_site_fract_y
 _atom_site_fract_z
 _atom_site_occupancy
  Hg  Hg0  1  0.352519  0.104613  0.038355  1
  Hg  Hg1  1  0.147481  0.104613  0.538355  1
  Hg  Hg2  1  0.852519  0.604613  0.461645  1
  Hg  Hg3  1  0.647481  0.604613  0.961645  1
  Te  Te4  1  0.852427  0.088237  0.139442  1
  Te  Te5  1  0.147573  0.588237  0.860558  1
  Te  Te6  1  0.647573  0.088237  0.639442  1
  Te  Te7  1  0.352427  0.588237  0.360558  1
  H  H8  1  0.008043  0.865774  0.910406  1
  H  H9  1  0.991957  0.365774  0.089594  1
  H  H10  1  0.584673  0.588934  0.183825  1
  H  H11  1  0.854562  0.863370  0.713990  1
  H  H12  1  0.145438  0.363370  0.286010  1
  H  H13  1  0.354562  0.363370  0.786010  1
  H  H14  1  0.794946  0.165217  0.841870  1
  H  H15  1  0.508043  0.365774  0.589594  1
  H  H16  1  0.705054  0.165217  0.341870  1
  H  H17  1  0.084673  0.088934  0.316175  1
  H  H18  1  0.294946  0.665217  0.658130  1
  H  H19  1  0.915327  0.588934  0.683825  1
  H  H20  1  0.491957  0.865774  0.410406  1
  H  H21  1  0.415327  0.088934  0.816175  1
  H  H22  1  0.205054  0.665217  0.158130  1
  H  H23  1  0.645438  0.863370  0.213990  1
  O  O24  1  0.194790  0.386764  0.369270  1
  O  O25  1  0.547371  0.512071  0.483992  1
  O  O26  1  0.469778  0.284448  0.651784  1
  O  O27  1  0.643678  0.153144  0.261272  1
  O  O28  1  0.050597  0.002545  0.261312  1
  O  O29  1  0.805210  0.886764  0.630730  1
  O  O30  1  0.856322  0.153144  0.761272  1
  O  O31  1  0.143678  0.653144  0.238728  1
  O  O32  1  0.969778  0.784448  0.848216  1
  O  O33  1  0.952629  0.512071  0.983992  1
  O  O34  1  0.356322  0.653144  0.738728  1
  O  O35  1  0.166639  0.680445  0.481597  1
  O  O36  1  0.694790  0.886764  0.130730  1
  O  O37  1  0.047371  0.012071  0.016008  1
  O  O38  1  0.666639  0.180445  0.018403  1
  O  O39  1  0.449403  0.002545  0.761312  1
  O  O40  1  0.452629  0.012071  0.516008  1
  O  O41  1  0.030222  0.284448  0.151784  1
  O  O42  1  0.833361  0.180445  0.518403  1
  O  O43  1  0.305210  0.386764  0.869270  1
  O  O44  1  0.949403  0.502545  0.738688  1
  O  O45  1  0.530222  0.784448  0.348216  1
  O  O46  1  0.550597  0.502545  0.238688  1
  O  O47  1  0.333361  0.680445  0.981597  1
