# generated using pymatgen
data_NiH2(SN)4
_symmetry_space_group_name_H-M   'P 1'
_cell_length_a   8.45842140
_cell_length_b   12.69337710
_cell_length_c   13.87336302
_cell_angle_alpha   90.00000000
_cell_angle_beta   90.00000000
_cell_angle_gamma   90.00000000
_symmetry_Int_Tables_number   1
_chemical_formula_structural   NiH2(SN)4
_chemical_formula_sum   'Ni8 H16 S32 N32'
_cell_volume   1489.52655757
_cell_formula_units_Z   8
loop_
 _symmetry_equiv_pos_site_id
 _symmetry_equiv_pos_as_xyz
  1  'x, y, z'
loop_
 _atom_site_type_symbol
 _atom_site_label
 _atom_site_symmetry_multiplicity
 _atom_site_fract_x
 _atom_site_fract_y
 _atom_site_fract_z
 _atom_site_occupancy
  Ni  Ni0  1  0.023485  0.071276  0.375535  1
  Ni  Ni1  1  0.523485  0.428724  0.624465  1
  Ni  Ni2  1  0.976515  0.571276  0.124465  1
  Ni  Ni3  1  0.476515  0.928724  0.875535  1
  Ni  Ni4  1  0.976515  0.928724  0.624465  1
  Ni  Ni5  1  0.476515  0.571276  0.375535  1
  Ni  Ni6  1  0.023485  0.428724  0.875535  1
  Ni  Ni7  1  0.523485  0.071276  0.124465  1
  H  H8  1  0.289921  0.967184  0.393340  1
  H  H9  1  0.789921  0.532816  0.606660  1
  H  H10  1  0.710079  0.467184  0.106660  1
  H  H11  1  0.210079  0.032816  0.893340  1
  H  H12  1  0.710079  0.032816  0.606660  1
  H  H13  1  0.210079  0.467184  0.393340  1
  H  H14  1  0.289921  0.532816  0.893340  1
  H  H15  1  0.789921  0.967184  0.106660  1
  H  H16  1  0.042290  0.866001  0.357613  1
  H  H17  1  0.542290  0.633999  0.642387  1
  H  H18  1  0.957710  0.366001  0.142387  1
  H  H19  1  0.457710  0.133999  0.857613  1
  H  H20  1  0.957710  0.133999  0.642387  1
  H  H21  1  0.457710  0.366001  0.357613  1
  H  H22  1  0.042290  0.633999  0.857613  1
  H  H23  1  0.542290  0.866001  0.142387  1
  S  S24  1  0.082479  0.234724  0.373678  1
  S  S25  1  0.582479  0.265276  0.626322  1
  S  S26  1  0.917521  0.734724  0.126322  1
  S  S27  1  0.417521  0.765276  0.873678  1
  S  S28  1  0.917521  0.765276  0.626322  1
  S  S29  1  0.417521  0.734724  0.373678  1
  S  S30  1  0.082479  0.265276  0.873678  1
  S  S31  1  0.582479  0.234724  0.126322  1
  S  S32  1  0.780561  0.111325  0.388267  1
  S  S33  1  0.280561  0.388675  0.611733  1
  S  S34  1  0.219439  0.611325  0.111733  1
  S  S35  1  0.719439  0.888675  0.888267  1
  S  S36  1  0.219439  0.888675  0.611733  1
  S  S37  1  0.719439  0.611325  0.388267  1
  S  S38  1  0.780561  0.388675  0.888267  1
  S  S39  1  0.280561  0.111325  0.111733  1
  S  S40  1  0.372371  0.131339  0.377471  1
  S  S41  1  0.872371  0.368661  0.622529  1
  S  S42  1  0.627629  0.631339  0.122529  1
  S  S43  1  0.127629  0.868661  0.877471  1
  S  S44  1  0.627629  0.868661  0.622529  1
  S  S45  1  0.127629  0.631339  0.377471  1
  S  S46  1  0.372371  0.368661  0.877471  1
  S  S47  1  0.872371  0.131339  0.122529  1
  S  S48  1  0.782015  0.895068  0.361101  1
  S  S49  1  0.282015  0.604932  0.638899  1
  S  S50  1  0.217985  0.395068  0.138899  1
  S  S51  1  0.717985  0.104932  0.861101  1
  S  S52  1  0.217985  0.104932  0.638899  1
  S  S53  1  0.717985  0.395068  0.361101  1
  S  S54  1  0.782015  0.604932  0.861101  1
  S  S55  1  0.282015  0.895068  0.138899  1
  N  N56  1  0.240421  0.039893  0.381004  1
  N  N57  1  0.740421  0.460107  0.618996  1
  N  N58  1  0.759579  0.539893  0.118996  1
  N  N59  1  0.259579  0.960107  0.881004  1
  N  N60  1  0.759579  0.960107  0.618996  1
  N  N61  1  0.259579  0.539893  0.381004  1
  N  N62  1  0.240421  0.460107  0.881004  1
  N  N63  1  0.740421  0.039893  0.118996  1
  N  N64  1  0.279489  0.237784  0.374486  1
  N  N65  1  0.779489  0.262216  0.625514  1
  N  N66  1  0.720511  0.737784  0.125514  1
  N  N67  1  0.220511  0.762216  0.874486  1
  N  N68  1  0.720511  0.762216  0.625514  1
  N  N69  1  0.220511  0.737784  0.374486  1
  N  N70  1  0.279489  0.262216  0.874486  1
  N  N71  1  0.779489  0.237784  0.125514  1
  N  N72  1  0.965211  0.929560  0.359616  1
  N  N73  1  0.465211  0.570440  0.640384  1
  N  N74  1  0.034789  0.429560  0.140384  1
  N  N75  1  0.534789  0.070440  0.859616  1
  N  N76  1  0.034789  0.070440  0.640384  1
  N  N77  1  0.534789  0.429560  0.359616  1
  N  N78  1  0.965211  0.570440  0.859616  1
  N  N79  1  0.465211  0.929560  0.140384  1
  N  N80  1  0.684155  0.998253  0.375178  1
  N  N81  1  0.184155  0.501747  0.624822  1
  N  N82  1  0.315845  0.498253  0.124822  1
  N  N83  1  0.815845  0.001747  0.875178  1
  N  N84  1  0.315845  0.001747  0.624822  1
  N  N85  1  0.815845  0.498253  0.375178  1
  N  N86  1  0.684155  0.501747  0.875178  1
  N  N87  1  0.184155  0.998253  0.124822  1
