# generated using pymatgen
data_ScHO2
_symmetry_space_group_name_H-M   'P 1'
_cell_length_a   4.83597761
_cell_length_b   10.42716532
_cell_length_c   3.24444380
_cell_angle_alpha   90.00000000
_cell_angle_beta   90.00000000
_cell_angle_gamma   90.00000000
_symmetry_Int_Tables_number   1
_chemical_formula_structural   ScHO2
_chemical_formula_sum   'Sc4 H4 O8'
_cell_volume   163.60282420
_cell_formula_units_Z   4
loop_
 _symmetry_equiv_pos_site_id
 _symmetry_equiv_pos_as_xyz
  1  'x, y, z'
loop_
 _atom_site_type_symbol
 _atom_site_label
 _atom_site_symmetry_multiplicity
 _atom_site_fract_x
 _atom_site_fract_y
 _atom_site_fract_z
 _atom_site_occupancy
  Sc  Sc0  1  0.444492  0.344571  0.250000  1
  Sc  Sc1  1  0.055508  0.844571  0.250000  1
  Sc  Sc2  1  0.554601  0.638114  0.750000  1
  Sc  Sc3  1  0.945399  0.138114  0.750000  1
  H  H4  1  0.104669  0.572532  0.250000  1
  H  H5  1  0.395331  0.072532  0.250000  1
  H  H6  1  0.891391  0.406461  0.750000  1
  H  H7  1  0.608609  0.906461  0.750000  1
  O  O8  1  0.793962  0.688240  0.250000  1
  O  O9  1  0.706038  0.188240  0.250000  1
  O  O10  1  0.205079  0.294483  0.750000  1
  O  O11  1  0.294921  0.794483  0.750000  1
  O  O12  1  0.301859  0.546930  0.250000  1
  O  O13  1  0.198141  0.046930  0.250000  1
  O  O14  1  0.696360  0.435351  0.750000  1
  O  O15  1  0.803640  0.935351  0.750000  1
