# generated using pymatgen
data_KNaZr2Be(PO4)4
_symmetry_space_group_name_H-M   'P 1'
_cell_length_a   7.92842901
_cell_length_b   7.83992788
_cell_length_c   7.43695887
_cell_angle_alpha   104.28924925
_cell_angle_beta   114.93906767
_cell_angle_gamma   107.63991156
_symmetry_Int_Tables_number   1
_chemical_formula_structural   KNaZr2Be(PO4)4
_chemical_formula_sum   'K1 Na1 Zr2 Be1 P4 O16'
_cell_volume   359.97212793
_cell_formula_units_Z   1
loop_
 _symmetry_equiv_pos_site_id
 _symmetry_equiv_pos_as_xyz
  1  'x, y, z'
loop_
 _atom_site_type_symbol
 _atom_site_label
 _atom_site_symmetry_multiplicity
 _atom_site_fract_x
 _atom_site_fract_y
 _atom_site_fract_z
 _atom_site_occupancy
  K  K0  1  0.602089  0.046832  0.746731  1
  Na  Na1  1  0.072474  0.942120  0.038491  1
  Zr  Zr2  1  0.075254  0.242435  0.663853  1
  Zr  Zr3  1  0.519823  0.461073  0.579681  1
  Be  Be4  1  0.762238  0.451944  0.111524  1
  P  P5  1  0.220807  0.585374  0.364467  1
  P  P6  1  0.583785  0.209250  0.279515  1
  P  P7  1  0.387072  0.747001  0.130501  1
  P  P8  1  0.694755  0.749563  0.325689  1
  O  O9  1  0.004634  0.549550  0.310574  1
  O  O10  1  0.259242  0.421609  0.257999  1
  O  O11  1  0.177083  0.126483  0.873103  1
  O  O12  1  0.382050  0.670188  0.614226  1
  O  O13  1  0.290654  0.761669  0.285944  1
  O  O14  1  0.290548  0.262665  0.576740  1
  O  O15  1  0.650887  0.242925  0.118728  1
  O  O16  1  0.803848  0.629831  0.874086  1
  O  O17  1  0.645709  0.575632  0.135799  1
  O  O18  1  0.700991  0.703947  0.515934  1
  O  O19  1  -0.026344  0.121101  0.837262  1
  O  O20  1  0.767745  0.229860  0.491388  1
  O  O21  1  0.236804  0.569640  0.908631  1
  O  O22  1  0.876358  0.942747  0.390893  1
  O  O23  1  0.739352  0.428842  0.868118  1
  O  O24  1  0.414840  0.948617  0.111126  1
