# generated using pymatgen
data_NaH9O5
_symmetry_space_group_name_H-M   'P 1'
_cell_length_a   7.59705535
_cell_length_b   8.08565242
_cell_length_c   9.65767122
_cell_angle_alpha   64.06311838
_cell_angle_beta   116.39477080
_cell_angle_gamma   147.44758780
_symmetry_Int_Tables_number   1
_chemical_formula_structural   NaH9O5
_chemical_formula_sum   'Na2 H18 O10'
_cell_volume   283.50316786
_cell_formula_units_Z   2
loop_
 _symmetry_equiv_pos_site_id
 _symmetry_equiv_pos_as_xyz
  1  'x, y, z'
loop_
 _atom_site_type_symbol
 _atom_site_label
 _atom_site_symmetry_multiplicity
 _atom_site_fract_x
 _atom_site_fract_y
 _atom_site_fract_z
 _atom_site_occupancy
  Na  Na0  1  0.508621  0.387745  0.894004  1
  Na  Na1  1  0.465008  0.574365  0.133204  1
  H  H2  1  0.571492  0.864142  0.787524  1
  H  H3  1  0.869338  0.391596  0.635510  1
  H  H4  1  0.128022  0.606551  0.366480  1
  H  H5  1  0.437349  0.140855  0.219817  1
  H  H6  1  0.945545  0.456730  0.981476  1
  H  H7  1  0.757396  0.273408  0.835291  1
  H  H8  1  0.253367  0.734894  0.165496  1
  H  H9  1  0.458875  0.940744  0.019966  1
  H  H10  1  0.212679  0.496899  0.796268  1
  H  H11  1  0.799562  0.508937  0.205616  1
  H  H12  1  0.866978  0.907644  0.734472  1
  H  H13  1  0.093004  0.968241  0.676077  1
  H  H14  1  0.057706  0.058425  0.220003  1
  H  H15  1  0.904305  0.036467  0.318514  1
  H  H16  1  0.121011  0.913761  0.494539  1
  H  H17  1  0.392590  0.003117  0.644613  1
  H  H18  1  0.604630  0.991466  0.358638  1
  H  H19  1  0.898760  0.103698  0.502513  1
  O  O20  1  0.802010  0.231382  0.723012  1
  O  O21  1  0.199354  0.767767  0.278921  1
  O  O22  1  0.719388  0.284890  0.920468  1
  O  O23  1  0.297824  0.727147  0.082193  1
  O  O24  1  0.457756  0.657675  0.841976  1
  O  O25  1  0.552284  0.346290  0.162131  1
  O  O26  1  0.078254  0.065108  0.703567  1
  O  O27  1  0.925730  0.938007  0.300631  1
  O  O28  1  0.157731  0.871753  0.609505  1
  O  O29  1  0.842210  0.129076  0.387577  1
