# generated using pymatgen
data_Rb2FeC5N6O
_symmetry_space_group_name_H-M   'P 1'
_cell_length_a   5.64784641
_cell_length_b   12.54747850
_cell_length_c   15.98057844
_cell_angle_alpha   90.00000000
_cell_angle_beta   90.00000000
_cell_angle_gamma   90.00000000
_symmetry_Int_Tables_number   1
_chemical_formula_structural   Rb2FeC5N6O
_chemical_formula_sum   'Rb8 Fe4 C20 N24 O4'
_cell_volume   1132.48336965
_cell_formula_units_Z   4
loop_
 _symmetry_equiv_pos_site_id
 _symmetry_equiv_pos_as_xyz
  1  'x, y, z'
loop_
 _atom_site_type_symbol
 _atom_site_label
 _atom_site_symmetry_multiplicity
 _atom_site_fract_x
 _atom_site_fract_y
 _atom_site_fract_z
 _atom_site_occupancy
  Rb  Rb0  1  0.228728  0.933309  0.142423  1
  Rb  Rb1  1  0.728728  0.066691  0.357577  1
  Rb  Rb2  1  0.271272  0.433309  0.857577  1
  Rb  Rb3  1  0.771272  0.566691  0.642423  1
  Rb  Rb4  1  0.278414  0.381732  0.396790  1
  Rb  Rb5  1  0.778414  0.618268  0.103210  1
  Rb  Rb6  1  0.721586  0.118268  0.896790  1
  Rb  Rb7  1  0.221586  0.881732  0.603210  1
  Fe  Fe8  1  0.481453  0.780549  0.870228  1
  Fe  Fe9  1  0.518547  0.719451  0.370228  1
  Fe  Fe10  1  0.981453  0.219451  0.629772  1
  Fe  Fe11  1  0.018547  0.280549  0.129772  1
  C  C12  1  0.824171  0.295198  0.717997  1
  C  C13  1  0.685774  0.836138  0.956524  1
  C  C14  1  0.334831  0.693328  0.954339  1
  C  C15  1  0.314227  0.663862  0.456524  1
  C  C16  1  0.196099  0.338194  0.636002  1
  C  C17  1  0.175829  0.204802  0.217997  1
  C  C18  1  0.318360  0.650868  0.288533  1
  C  C19  1  0.675829  0.795198  0.282003  1
  C  C20  1  0.681640  0.849132  0.788533  1
  C  C21  1  0.303901  0.838194  0.363998  1
  C  C22  1  0.814226  0.336138  0.043476  1
  C  C23  1  0.834831  0.306672  0.545661  1
  C  C24  1  0.696099  0.661806  0.863998  1
  C  C25  1  0.181640  0.150868  0.711467  1
  C  C26  1  0.185774  0.163862  0.543476  1
  C  C27  1  0.803901  0.161806  0.136002  1
  C  C28  1  0.165169  0.193328  0.045661  1
  C  C29  1  0.818360  0.349132  0.211467  1
  C  C30  1  0.324171  0.704802  0.782003  1
  C  C31  1  0.665169  0.806672  0.454339  1
  N  N32  1  0.710969  0.620105  0.375127  1
  N  N33  1  0.789031  0.120105  0.624873  1
  N  N34  1  0.180501  0.913171  0.360001  1
  N  N35  1  0.210969  0.379895  0.124873  1
  N  N36  1  0.766605  0.841554  0.226969  1
  N  N37  1  0.266605  0.158446  0.273031  1
  N  N38  1  0.197430  0.604893  0.240938  1
  N  N39  1  0.805696  0.872116  0.009429  1
  N  N40  1  0.744759  0.861650  0.506714  1
  N  N41  1  0.680501  0.086829  0.139999  1
  N  N42  1  0.233395  0.658446  0.726969  1
  N  N43  1  0.194304  0.627884  0.509429  1
  N  N44  1  0.694304  0.372116  0.990571  1
  N  N45  1  0.244759  0.138350  0.993286  1
  N  N46  1  0.697430  0.395107  0.259062  1
  N  N47  1  0.302570  0.104893  0.759062  1
  N  N48  1  0.819499  0.586829  0.860001  1
  N  N49  1  0.305696  0.127884  0.490571  1
  N  N50  1  0.319499  0.413171  0.639999  1
  N  N51  1  0.755241  0.361650  0.493287  1
  N  N52  1  0.733395  0.341554  0.773031  1
  N  N53  1  0.802570  0.895107  0.740938  1
  N  N54  1  0.289031  0.879895  0.875127  1
  N  N55  1  0.255241  0.638350  0.006713  1
  O  O56  1  0.658669  0.049719  0.620663  1
  O  O57  1  0.341331  0.450281  0.120663  1
  O  O58  1  0.841331  0.549719  0.379337  1
  O  O59  1  0.158669  0.950281  0.879337  1
