# generated using pymatgen
data_PuPaO4
_symmetry_space_group_name_H-M   'P 1'
_cell_length_a   7.70873028
_cell_length_b   10.18473794
_cell_length_c   6.65718713
_cell_angle_alpha   29.22743478
_cell_angle_beta   54.62228523
_cell_angle_gamma   40.81349021
_symmetry_Int_Tables_number   1
_chemical_formula_structural   PuPaO4
_chemical_formula_sum   'Pu2 Pa2 O8'
_cell_volume   161.26816432
_cell_formula_units_Z   2
loop_
 _symmetry_equiv_pos_site_id
 _symmetry_equiv_pos_as_xyz
  1  'x, y, z'
loop_
 _atom_site_type_symbol
 _atom_site_label
 _atom_site_symmetry_multiplicity
 _atom_site_fract_x
 _atom_site_fract_y
 _atom_site_fract_z
 _atom_site_occupancy
  Pu  Pu0  1  0.999994  -0.000005  0.000022  1
  Pu  Pu1  1  0.749987  0.500021  0.999983  1
  Pa  Pa2  1  0.499983  0.000009  0.999997  1
  Pa  Pa3  1  0.250010  0.499984  0.000015  1
  O  O4  1  0.374983  0.487789  0.262215  1
  O  O5  1  0.137240  0.487786  0.762196  1
  O  O6  1  0.137229  0.987759  0.262230  1
  O  O7  1  0.875012  0.512215  0.237790  1
  O  O8  1  0.612781  0.512205  0.737786  1
  O  O9  1  0.612780  0.012233  0.237763  1
  O  O10  1  0.374988  0.012240  0.737760  1
  O  O11  1  0.875013  0.987762  0.762244  1
