# generated using pymatgen
data_Rb4Fe2O5
_symmetry_space_group_name_H-M   'P 1'
_cell_length_a   7.24212030
_cell_length_b   7.37065878
_cell_length_c   9.65728721
_cell_angle_alpha   84.98523044
_cell_angle_beta   67.97839216
_cell_angle_gamma   76.51873098
_symmetry_Int_Tables_number   1
_chemical_formula_structural   Rb4Fe2O5
_chemical_formula_sum   'Rb8 Fe4 O10'
_cell_volume   464.72112787
_cell_formula_units_Z   2
loop_
 _symmetry_equiv_pos_site_id
 _symmetry_equiv_pos_as_xyz
  1  'x, y, z'
loop_
 _atom_site_type_symbol
 _atom_site_label
 _atom_site_symmetry_multiplicity
 _atom_site_fract_x
 _atom_site_fract_y
 _atom_site_fract_z
 _atom_site_occupancy
  Rb  Rb0  1  0.465130  0.250000  0.069739  1
  Rb  Rb1  1  0.534870  0.750000  0.930261  1
  Rb  Rb2  1  0.020550  0.250000  0.958900  1
  Rb  Rb3  1  0.979450  0.750000  0.041100  1
  Rb  Rb4  1  0.467597  0.886700  0.359817  1
  Rb  Rb5  1  0.172586  0.613300  0.359817  1
  Rb  Rb6  1  0.827414  0.386700  0.640183  1
  Rb  Rb7  1  0.532403  0.113300  0.640183  1
  Fe  Fe8  1  0.305489  0.595307  0.690929  1
  Fe  Fe9  1  0.996418  0.095307  0.309071  1
  Fe  Fe10  1  0.694511  0.404693  0.309071  1
  Fe  Fe11  1  0.003582  0.904693  0.690929  1
  O  O12  1  0.204883  0.958207  0.154539  1
  O  O13  1  0.274795  0.866427  0.703714  1
  O  O14  1  0.359422  0.458207  0.845461  1
  O  O15  1  0.725205  0.133573  0.296286  1
  O  O16  1  0.978508  0.366427  0.296286  1
  O  O17  1  0.000000  0.000000  0.500000  1
  O  O18  1  0.640578  0.541793  0.154539  1
  O  O19  1  0.021492  0.633573  0.703714  1
  O  O20  1  0.795117  0.041793  0.845461  1
  O  O21  1  0.500000  0.500000  0.500000  1
