# generated using pymatgen
data_Yb43Se45
_symmetry_space_group_name_H-M   'P 1'
_cell_length_a   8.39524240
_cell_length_b   16.75698036
_cell_length_c   30.16879494
_cell_angle_alpha   45.89036703
_cell_angle_beta   56.18235941
_cell_angle_gamma   59.93383726
_symmetry_Int_Tables_number   1
_chemical_formula_structural   Yb43Se45
_chemical_formula_sum   'Yb43 Se45'
_cell_volume   2485.39892487
_cell_formula_units_Z   1
loop_
 _symmetry_equiv_pos_site_id
 _symmetry_equiv_pos_as_xyz
  1  'x, y, z'
loop_
 _atom_site_type_symbol
 _atom_site_label
 _atom_site_symmetry_multiplicity
 _atom_site_fract_x
 _atom_site_fract_y
 _atom_site_fract_z
 _atom_site_occupancy
  Yb  Yb0  1  0.985544  0.260384  0.994634  1
  Yb  Yb1  1  0.987437  0.170986  0.170789  1
  Yb  Yb2  1  0.987518  0.408559  0.170716  1
  Yb  Yb3  1  0.515153  0.260384  0.994634  1
  Yb  Yb4  1  0.985238  0.759916  0.994913  1
  Yb  Yb5  1  0.987141  0.090976  0.329586  1
  Yb  Yb6  1  0.515327  0.495811  0.994431  1
  Yb  Yb7  1  0.986489  0.671132  0.171190  1
  Yb  Yb8  1  0.500030  0.166637  0.166667  1
  Yb  Yb9  1  0.986215  0.907382  0.171194  1
  Yb  Yb10  1  0.512502  0.408559  0.170716  1
  Yb  Yb11  1  0.515279  0.759916  0.994913  1
  Yb  Yb12  1  0.999915  0.251107  0.497956  1
  Yb  Yb13  1  0.512560  0.090976  0.329586  1
  Yb  Yb14  1  0.002583  0.581035  0.334626  1
  Yb  Yb15  1  0.514934  0.995037  0.995014  1
  Yb  Yb16  1  0.495571  0.335024  0.334702  1
  Yb  Yb17  1  0.500140  0.667062  0.166400  1
  Yb  Yb18  1  0.000216  0.166615  0.666585  1
  Yb  Yb19  1  0.001214  0.504091  0.497348  1
  Yb  Yb20  1  0.983886  0.739361  0.505316  1
  Yb  Yb21  1  0.514245  0.907382  0.171194  1
  Yb  Yb22  1  0.506046  0.251107  0.497956  1
  Yb  Yb23  1  0.496840  0.581035  0.334626  1
  Yb  Yb24  1  0.002352  0.084624  0.834238  1
  Yb  Yb25  1  0.000909  0.418284  0.667547  1
  Yb  Yb26  1  0.513540  0.827830  0.329315  1
  Yb  Yb27  1  0.982562  0.005545  0.505947  1
  Yb  Yb28  1  0.499247  0.166925  0.666915  1
  Yb  Yb29  1  0.499956  0.500725  0.499659  1
  Yb  Yb30  1  0.002500  0.333390  0.832054  1
  Yb  Yb31  1  0.002943  0.585073  0.832255  1
  Yb  Yb32  1  0.492338  0.418284  0.667547  1
  Yb  Yb33  1  0.516129  0.739361  0.505316  1
  Yb  Yb34  1  0.000577  0.913178  0.666892  1
  Yb  Yb35  1  0.491445  0.084624  0.834238  1
  Yb  Yb36  1  0.498410  0.666459  0.667566  1
  Yb  Yb37  1  0.500481  0.999823  0.499848  1
  Yb  Yb38  1  0.003073  0.827819  0.834554  1
  Yb  Yb39  1  0.499633  0.333034  0.833666  1
  Yb  Yb40  1  0.497891  0.585073  0.832255  1
  Yb  Yb41  1  0.505499  0.913178  0.666892  1
  Yb  Yb42  1  0.499938  0.832586  0.833738  1
  Se  Se43  1  0.250777  0.331123  0.084784  1
  Se  Se44  1  0.252107  0.249140  0.249376  1
  Se  Se45  1  0.747683  0.083580  0.084368  1
  Se  Se46  1  0.251413  0.831944  0.084145  1
  Se  Se47  1  0.748412  0.002194  0.248942  1
  Se  Se48  1  0.747839  0.331123  0.084784  1
  Se  Se49  1  0.253636  0.503301  0.245679  1
  Se  Se50  1  0.255443  0.160748  0.416672  1
  Se  Se51  1  0.252508  0.756575  0.245459  1
  Se  Se52  1  0.249503  0.083817  0.583340  1
  Se  Se53  1  0.748060  0.583010  0.084465  1
  Se  Se54  1  0.250900  0.417354  0.415874  1
  Se  Se55  1  0.746364  0.251246  0.251195  1
  Se  Se56  1  0.757044  0.503301  0.245679  1
  Se  Se57  1  0.748119  0.831944  0.084145  1
  Se  Se58  1  0.251433  0.002194  0.248942  1
  Se  Se59  1  0.253132  0.670086  0.416798  1
  Se  Se60  1  0.756376  0.160748  0.416672  1
  Se  Se61  1  0.248553  0.333659  0.583214  1
  Se  Se62  1  0.252888  0.588175  0.579468  1
  Se  Se63  1  0.746396  0.419652  0.416977  1
  Se  Se64  1  0.249713  0.249448  0.750419  1
  Se  Se65  1  0.745587  0.084901  0.584755  1
  Se  Se66  1  0.750060  0.745076  0.252432  1
  Se  Se67  1  0.751272  0.333659  0.583214  1
  Se  Se68  1  0.739508  0.670086  0.416798  1
  Se  Se69  1  0.254075  0.836872  0.579127  1
  Se  Se70  1  0.251957  0.166317  0.919221  1
  Se  Se71  1  0.252765  0.497412  0.751620  1
  Se  Se72  1  0.749014  0.918623  0.416182  1
  Se  Se73  1  0.251449  0.409319  0.919617  1
  Se  Se74  1  0.249719  0.750027  0.750127  1
  Se  Se75  1  0.750802  0.249037  0.750081  1
  Se  Se76  1  0.750445  0.577720  0.585917  1
  Se  Se77  1  0.738526  0.166317  0.919221  1
  Se  Se78  1  0.745930  0.497412  0.751620  1
  Se  Se79  1  0.755671  0.836872  0.579127  1
  Se  Se80  1  0.251590  0.666271  0.919456  1
  Se  Se81  1  0.247808  0.999950  0.750477  1
  Se  Se82  1  0.252142  0.909539  0.919160  1
  Se  Se83  1  0.745969  0.750097  0.751967  1
  Se  Se84  1  0.753692  0.420344  0.912983  1
  Se  Se85  1  0.738046  0.666271  0.919456  1
  Se  Se86  1  0.750383  0.999950  0.750477  1
  Se  Se87  1  0.753840  0.920612  0.912774  1
