# generated using pymatgen
data_NaV3H6(SO7)2
_symmetry_space_group_name_H-M   'P 1'
_cell_length_a   7.12864084
_cell_length_b   7.12864084
_cell_length_c   7.12864096
_cell_angle_alpha   62.43483673
_cell_angle_beta   62.43483669
_cell_angle_gamma   62.43483410
_symmetry_Int_Tables_number   1
_chemical_formula_structural   NaV3H6(SO7)2
_chemical_formula_sum   'Na1 V3 H6 S2 O14'
_cell_volume   270.06247073
_cell_formula_units_Z   1
loop_
 _symmetry_equiv_pos_site_id
 _symmetry_equiv_pos_as_xyz
  1  'x, y, z'
loop_
 _atom_site_type_symbol
 _atom_site_label
 _atom_site_symmetry_multiplicity
 _atom_site_fract_x
 _atom_site_fract_y
 _atom_site_fract_z
 _atom_site_occupancy
  Na  Na0  1  0.999995  0.999995  0.999995  1
  V  V1  1  0.999992  0.500003  0.000002  1
  V  V2  1  0.500003  0.000002  0.999992  1
  V  V3  1  0.000002  0.999992  0.500003  1
  H  H4  1  0.300639  0.300659  0.714407  1
  H  H5  1  0.300659  0.714407  0.300639  1
  H  H6  1  0.714407  0.300639  0.300659  1
  H  H7  1  0.699348  0.699371  0.285571  1
  H  H8  1  0.699371  0.285571  0.699348  1
  H  H9  1  0.285571  0.699348  0.699371  1
  S  S10  1  0.689399  0.689399  0.689399  1
  S  S11  1  0.310587  0.310587  0.310587  1
  O  O12  1  0.603038  0.603038  0.603038  1
  O  O13  1  0.396950  0.396950  0.396950  1
  O  O14  1  0.828282  0.497279  0.828290  1
  O  O15  1  0.497279  0.828290  0.828282  1
  O  O16  1  0.828290  0.828282  0.497279  1
  O  O17  1  0.171700  0.502707  0.171708  1
  O  O18  1  0.502707  0.171708  0.171700  1
  O  O19  1  0.171708  0.171700  0.502707  1
  O  O20  1  0.739655  0.739671  0.122549  1
  O  O21  1  0.739671  0.122549  0.739655  1
  O  O22  1  0.122549  0.739655  0.739671  1
  O  O23  1  0.260326  0.260339  0.877432  1
  O  O24  1  0.260339  0.877432  0.260326  1
  O  O25  1  0.877432  0.260326  0.260339  1
