# generated using pymatgen
data_Ga2Fe2S5
_symmetry_space_group_name_H-M   'P 1'
_cell_length_a   3.60969243
_cell_length_b   3.60959614
_cell_length_c   29.94895535
_cell_angle_alpha   90.16218377
_cell_angle_beta   89.86307705
_cell_angle_gamma   119.76931170
_symmetry_Int_Tables_number   1
_chemical_formula_structural   Ga2Fe2S5
_chemical_formula_sum   'Ga4 Fe4 S10'
_cell_volume   338.72243544
_cell_formula_units_Z   2
loop_
 _symmetry_equiv_pos_site_id
 _symmetry_equiv_pos_as_xyz
  1  'x, y, z'
loop_
 _atom_site_type_symbol
 _atom_site_label
 _atom_site_symmetry_multiplicity
 _atom_site_fract_x
 _atom_site_fract_y
 _atom_site_fract_z
 _atom_site_occupancy
  Ga  Ga0  1  0.332849  0.668066  0.913455  1
  Ga  Ga1  1  0.667196  0.332816  0.086609  1
  Ga  Ga2  1  0.668166  0.332866  0.413594  1
  Ga  Ga3  1  0.332201  0.666826  0.586422  1
  Fe  Fe4  1  0.000505  0.000450  0.702620  1
  Fe  Fe5  1  0.999396  -0.000373  0.202694  1
  Fe  Fe6  1  0.000037  -0.000335  0.797330  1
  Fe  Fe7  1  0.999133  -0.000354  0.297442  1
  S  S8  1  0.666160  0.333825  0.338915  1
  S  S9  1  0.667464  0.333164  0.948653  1
  S  S10  1  0.333520  0.665948  0.661117  1
  S  S11  1  0.334383  0.667019  0.249953  1
  S  S12  1  0.667829  0.333536  0.551264  1
  S  S13  1  0.333294  0.667279  0.051348  1
  S  S14  1  0.666351  0.333541  0.160889  1
  S  S15  1  0.332695  0.667018  0.448545  1
  S  S16  1  0.332739  0.665924  0.839088  1
  S  S17  1  0.666083  0.332785  0.750063  1
