# generated using pymatgen
data_Re3S4Br
_symmetry_space_group_name_H-M   'P 1'
_cell_length_a   6.45647826
_cell_length_b   10.19408120
_cell_length_c   11.66683827
_cell_angle_alpha   90.00000000
_cell_angle_beta   90.00000000
_cell_angle_gamma   99.91858273
_symmetry_Int_Tables_number   1
_chemical_formula_structural   Re3S4Br
_chemical_formula_sum   'Re12 S16 Br4'
_cell_volume   756.40916602
_cell_formula_units_Z   4
loop_
 _symmetry_equiv_pos_site_id
 _symmetry_equiv_pos_as_xyz
  1  'x, y, z'
loop_
 _atom_site_type_symbol
 _atom_site_label
 _atom_site_symmetry_multiplicity
 _atom_site_fract_x
 _atom_site_fract_y
 _atom_site_fract_z
 _atom_site_occupancy
  Re  Re0  1  0.251980  0.563171  0.475896  1
  Re  Re1  1  0.622697  0.664613  0.559116  1
  Re  Re2  1  0.410410  0.446457  0.647097  1
  Re  Re3  1  0.748020  0.436829  0.524104  1
  Re  Re4  1  0.248020  0.936829  0.975896  1
  Re  Re5  1  0.751980  0.063171  0.024104  1
  Re  Re6  1  0.377303  0.335387  0.440884  1
  Re  Re7  1  0.122697  0.164613  0.940884  1
  Re  Re8  1  0.589590  0.553543  0.352903  1
  Re  Re9  1  0.877303  0.835387  0.059116  1
  Re  Re10  1  0.089590  0.053543  0.147097  1
  Re  Re11  1  0.910410  0.946457  0.852903  1
  S  S12  1  0.696508  0.338261  0.335993  1
  S  S13  1  0.922692  0.655517  0.436133  1
  S  S14  1  0.422692  0.155517  0.063867  1
  S  S15  1  0.756755  0.540899  0.709896  1
  S  S16  1  0.743245  0.959101  0.209896  1
  S  S17  1  0.964196  0.258692  0.102058  1
  S  S18  1  0.035804  0.741308  0.897942  1
  S  S19  1  0.243245  0.459101  0.290104  1
  S  S20  1  0.577308  0.844483  0.936133  1
  S  S21  1  0.077308  0.344483  0.563867  1
  S  S22  1  0.535804  0.241308  0.602058  1
  S  S23  1  0.303492  0.661739  0.664007  1
  S  S24  1  0.803492  0.161739  0.835993  1
  S  S25  1  0.464196  0.758692  0.397942  1
  S  S26  1  0.196508  0.838261  0.164007  1
  S  S27  1  0.256755  0.040899  0.790104  1
  Br  Br28  1  0.206334  0.097525  0.364683  1
  Br  Br29  1  0.706334  0.597525  0.135317  1
  Br  Br30  1  0.793666  0.902475  0.635317  1
  Br  Br31  1  0.293666  0.402475  0.864683  1
