# generated using pymatgen
data_K6Fe24S26Cl
_symmetry_space_group_name_H-M   'P 1'
_cell_length_a   9.95405078
_cell_length_b   9.95405073
_cell_length_c   12.15326480
_cell_angle_alpha   114.17479281
_cell_angle_beta   114.17479270
_cell_angle_gamma   89.99999790
_symmetry_Int_Tables_number   1
_chemical_formula_structural   K6Fe24S26Cl
_chemical_formula_sum   'K6 Fe24 S26 Cl1'
_cell_volume   981.67467673
_cell_formula_units_Z   1
loop_
 _symmetry_equiv_pos_site_id
 _symmetry_equiv_pos_as_xyz
  1  'x, y, z'
loop_
 _atom_site_type_symbol
 _atom_site_label
 _atom_site_symmetry_multiplicity
 _atom_site_fract_x
 _atom_site_fract_y
 _atom_site_fract_z
 _atom_site_occupancy
  K  K0  1  1.000000  0.299413  0.000000  1
  K  K1  1  0.153661  0.153661  0.307322  1
  K  K2  1  0.299413  1.000000  0.000000  1
  K  K3  1  0.000000  0.700587  1.000000  1
  K  K4  1  0.846339  0.846339  0.692678  1
  K  K5  1  0.700587  0.000000  1.000000  1
  Fe  Fe6  1  0.434918  0.697224  0.132142  1
  Fe  Fe7  1  0.815553  0.053116  0.367333  1
  Fe  Fe8  1  0.053116  0.551779  0.367333  1
  Fe  Fe9  1  0.565082  0.302776  0.867858  1
  Fe  Fe10  1  0.551779  0.314217  0.367333  1
  Fe  Fe11  1  0.685783  0.184447  0.632668  1
  Fe  Fe12  1  0.448221  0.946884  0.632668  1
  Fe  Fe13  1  0.685783  0.448221  0.632668  1
  Fe  Fe14  1  0.314217  0.551779  0.367333  1
  Fe  Fe15  1  0.815553  0.314217  0.367333  1
  Fe  Fe16  1  0.551779  0.053116  0.367333  1
  Fe  Fe17  1  0.184447  0.685783  0.632668  1
  Fe  Fe18  1  0.053116  0.815553  0.367333  1
  Fe  Fe19  1  0.434918  0.434918  0.132142  1
  Fe  Fe20  1  0.314217  0.815553  0.367333  1
  Fe  Fe21  1  0.565082  0.565082  0.867858  1
  Fe  Fe22  1  0.697224  0.434918  0.132142  1
  Fe  Fe23  1  0.697224  0.697224  0.132142  1
  Fe  Fe24  1  0.302776  0.565082  0.867858  1
  Fe  Fe25  1  0.184447  0.946884  0.632668  1
  Fe  Fe26  1  0.448221  0.685783  0.632668  1
  Fe  Fe27  1  0.302776  0.302776  0.867858  1
  Fe  Fe28  1  0.946884  0.184447  0.632668  1
  Fe  Fe29  1  0.946884  0.448221  0.632668  1
  S  S30  1  0.250927  0.504936  0.501855  1
  S  S31  1  0.124523  0.624523  0.249046  1
  S  S32  1  0.117442  0.117442  0.767971  1
  S  S33  1  0.749073  0.003082  0.498145  1
  S  S34  1  0.349471  0.349471  0.232029  1
  S  S35  1  0.250927  0.996918  0.501855  1
  S  S36  1  0.003082  0.749073  0.498145  1
  S  S37  1  0.996918  0.250927  0.501855  1
  S  S38  1  0.749073  0.495064  0.498145  1
  S  S39  1  0.117442  0.650529  0.767971  1
  S  S40  1  0.875477  0.375477  0.750954  1
  S  S41  1  0.376301  0.376301  0.752602  1
  S  S42  1  0.375477  0.875477  0.750954  1
  S  S43  1  0.624523  0.124523  0.249046  1
  S  S44  1  0.650529  0.650529  0.767971  1
  S  S45  1  0.748295  0.500000  0.000000  1
  S  S46  1  0.500000  0.251705  1.000000  1
  S  S47  1  0.623699  0.623699  0.247398  1
  S  S48  1  0.349471  0.882558  0.232029  1
  S  S49  1  0.650529  0.117442  0.767971  1
  S  S50  1  0.495064  0.749073  0.498145  1
  S  S51  1  0.504936  0.250927  0.501855  1
  S  S52  1  0.500000  0.748295  0.000000  1
  S  S53  1  0.882558  0.882558  0.232029  1
  S  S54  1  0.251705  0.500000  1.000000  1
  S  S55  1  0.882558  0.349471  0.232029  1
  Cl  Cl56  1  0.000000  0.000000  0.000000  1
