# generated using pymatgen
data_Dy5(In2Ni)2
_symmetry_space_group_name_H-M   'P 1'
_cell_length_a   3.61525034
_cell_length_b   7.95206071
_cell_length_c   17.93309195
_cell_angle_alpha   89.99732363
_cell_angle_beta   89.99784159
_cell_angle_gamma   90.00282493
_symmetry_Int_Tables_number   1
_chemical_formula_structural   Dy5(In2Ni)2
_chemical_formula_sum   'Dy10 In8 Ni4'
_cell_volume   515.55290347
_cell_formula_units_Z   2
loop_
 _symmetry_equiv_pos_site_id
 _symmetry_equiv_pos_as_xyz
  1  'x, y, z'
loop_
 _atom_site_type_symbol
 _atom_site_label
 _atom_site_symmetry_multiplicity
 _atom_site_fract_x
 _atom_site_fract_y
 _atom_site_fract_z
 _atom_site_occupancy
  Dy  Dy0  1  0.999879  0.883122  0.586505  1
  Dy  Dy1  1  0.999957  0.383135  0.913479  1
  Dy  Dy2  1  0.000123  0.616873  0.086539  1
  Dy  Dy3  1  0.000054  0.254820  0.720948  1
  Dy  Dy4  1  0.000031  0.754818  0.779035  1
  Dy  Dy5  1  0.999992  0.000012  0.000025  1
  Dy  Dy6  1  0.000003  0.245195  0.220976  1
  Dy  Dy7  1  0.999972  0.745177  0.279038  1
  Dy  Dy8  1  0.000030  0.499979  0.499985  1
  Dy  Dy9  1  0.999963  0.116873  0.413488  1
  In  In10  1  0.499978  0.292937  0.069602  1
  In  In11  1  0.500027  0.426275  0.347584  1
  In  In12  1  0.499971  0.573701  0.652409  1
  In  In13  1  0.500021  0.073714  0.847577  1
  In  In14  1  0.500016  0.207096  0.569585  1
  In  In15  1  0.500011  0.707094  0.930404  1
  In  In16  1  0.499970  0.792916  0.430402  1
  In  In17  1  0.500014  0.926279  0.152426  1
  Ni  Ni18  1  0.499989  0.474330  0.804337  1
  Ni  Ni19  1  0.500003  0.025657  0.304328  1
  Ni  Ni20  1  0.499989  0.974353  0.695654  1
  Ni  Ni21  1  0.500008  0.525641  0.195675  1
