# generated using pymatgen
data_WO2
_symmetry_space_group_name_H-M   'P 1'
_cell_length_a   4.82451021
_cell_length_b   8.48256250
_cell_length_c   10.78188717
_cell_angle_alpha   90.00000000
_cell_angle_beta   90.00000000
_cell_angle_gamma   90.00000000
_symmetry_Int_Tables_number   1
_chemical_formula_structural   WO2
_chemical_formula_sum   'W12 O24'
_cell_volume   441.24020815
_cell_formula_units_Z   12
loop_
 _symmetry_equiv_pos_site_id
 _symmetry_equiv_pos_as_xyz
  1  'x, y, z'
loop_
 _atom_site_type_symbol
 _atom_site_label
 _atom_site_symmetry_multiplicity
 _atom_site_fract_x
 _atom_site_fract_y
 _atom_site_fract_z
 _atom_site_occupancy
  W  W0  1  0.020088  0.250000  0.102902  1
  W  W1  1  0.507939  0.907238  0.134419  1
  W  W2  1  0.979912  0.750000  0.897098  1
  W  W3  1  0.492061  0.407238  0.865581  1
  W  W4  1  0.507939  0.592762  0.134419  1
  W  W5  1  0.492061  0.092762  0.865581  1
  W  W6  1  0.992061  0.907238  0.634419  1
  W  W7  1  0.007939  0.092762  0.365581  1
  W  W8  1  0.520088  0.750000  0.397098  1
  W  W9  1  0.992061  0.592762  0.634419  1
  W  W10  1  0.007939  0.407238  0.365581  1
  W  W11  1  0.479912  0.250000  0.602902  1
  O  O12  1  0.241364  0.250000  0.766231  1
  O  O13  1  0.782478  0.582896  0.468730  1
  O  O14  1  0.740201  0.250000  0.445093  1
  O  O15  1  0.717522  0.917104  0.968730  1
  O  O16  1  0.717522  0.582896  0.968730  1
  O  O17  1  0.204633  0.923539  0.802372  1
  O  O18  1  0.217522  0.417104  0.531270  1
  O  O19  1  0.282478  0.417104  0.031270  1
  O  O20  1  0.295367  0.576461  0.302372  1
  O  O21  1  0.259799  0.750000  0.554907  1
  O  O22  1  0.758636  0.750000  0.233769  1
  O  O23  1  0.240201  0.750000  0.054907  1
  O  O24  1  0.795367  0.076461  0.197628  1
  O  O25  1  0.204633  0.576461  0.802372  1
  O  O26  1  0.759799  0.250000  0.945093  1
  O  O27  1  0.704633  0.076461  0.697628  1
  O  O28  1  0.704633  0.423539  0.697628  1
  O  O29  1  0.217522  0.082896  0.531270  1
  O  O30  1  0.282478  0.082896  0.031270  1
  O  O31  1  0.741364  0.750000  0.733769  1
  O  O32  1  0.782478  0.917104  0.468730  1
  O  O33  1  0.258636  0.250000  0.266231  1
  O  O34  1  0.295367  0.923539  0.302372  1
  O  O35  1  0.795367  0.423539  0.197628  1
