# generated using pymatgen
data_KBaAl3Si5O16
_symmetry_space_group_name_H-M   'P 1'
_cell_length_a   7.30687269
_cell_length_b   7.91166260
_cell_length_c   7.86049294
_cell_angle_alpha   113.51408297
_cell_angle_beta   103.65905019
_cell_angle_gamma   103.87652180
_symmetry_Int_Tables_number   1
_chemical_formula_structural   KBaAl3Si5O16
_chemical_formula_sum   'K1 Ba1 Al3 Si5 O16'
_cell_volume   375.36284520
_cell_formula_units_Z   1
loop_
 _symmetry_equiv_pos_site_id
 _symmetry_equiv_pos_as_xyz
  1  'x, y, z'
loop_
 _atom_site_type_symbol
 _atom_site_label
 _atom_site_symmetry_multiplicity
 _atom_site_fract_x
 _atom_site_fract_y
 _atom_site_fract_z
 _atom_site_occupancy
  K  K0  1  0.127349  0.277918  0.281989  1
  Ba  Ba1  1  0.862244  0.715308  0.727430  1
  Al  Al2  1  0.349009  0.583474  0.818458  1
  Al  Al3  1  0.777538  0.808727  0.178151  1
  Al  Al4  1  0.778889  0.178282  0.808228  1
  Si  Si5  1  0.225296  0.188846  0.823373  1
  Si  Si6  1  0.227740  0.832072  0.192976  1
  Si  Si7  1  0.346114  0.821384  0.586014  1
  Si  Si8  1  0.654687  0.177640  0.413426  1
  Si  Si9  1  0.652994  0.412785  0.175813  1
  O  O10  1  0.008681  0.134112  0.853872  1
  O  O11  1  0.015971  0.868016  0.153259  1
  O  O12  1  0.232632  0.968403  0.691463  1
  O  O13  1  0.224645  0.691687  0.975040  1
  O  O14  1  0.270697  0.625710  0.612476  1
  O  O15  1  0.248730  0.322686  0.714491  1
  O  O16  1  0.256996  0.733762  0.341957  1
  O  O17  1  0.611871  0.686120  0.928985  1
  O  O18  1  0.591423  0.933701  0.681060  1
  O  O19  1  0.408049  0.055645  0.310843  1
  O  O20  1  0.405164  0.306617  0.050024  1
  O  O21  1  0.740748  0.291126  0.656949  1
  O  O22  1  0.738143  0.654988  0.290007  1
  O  O23  1  0.693716  0.368996  0.368827  1
  O  O24  1  0.775714  0.319873  0.042577  1
  O  O25  1  0.774963  0.042121  0.322313  1
