# generated using pymatgen
data_K3TiCl6
_symmetry_space_group_name_H-M   'P 1'
_cell_length_a   6.61351179
_cell_length_b   14.47555463
_cell_length_c   16.38472881
_cell_angle_alpha   122.93059586
_cell_angle_beta   90.00000000
_cell_angle_gamma   90.00000000
_symmetry_Int_Tables_number   1
_chemical_formula_structural   K3TiCl6
_chemical_formula_sum   'K12 Ti4 Cl24'
_cell_volume   1316.55555022
_cell_formula_units_Z   4
loop_
 _symmetry_equiv_pos_site_id
 _symmetry_equiv_pos_as_xyz
  1  'x, y, z'
loop_
 _atom_site_type_symbol
 _atom_site_label
 _atom_site_symmetry_multiplicity
 _atom_site_fract_x
 _atom_site_fract_y
 _atom_site_fract_z
 _atom_site_occupancy
  K  K0  1  0.013961  0.190496  0.257569  1
  K  K1  1  0.516848  0.939492  0.624545  1
  K  K2  1  0.956021  0.836575  0.145471  1
  K  K3  1  0.016848  0.560508  0.375455  1
  K  K4  1  0.513961  0.309504  0.742431  1
  K  K5  1  0.456021  0.663425  0.854529  1
  K  K6  1  0.543979  0.336575  0.145471  1
  K  K7  1  0.986039  0.809504  0.742431  1
  K  K8  1  0.043979  0.163425  0.854529  1
  K  K9  1  0.483152  0.060508  0.375455  1
  K  K10  1  0.486039  0.690496  0.257569  1
  K  K11  1  0.983152  0.439492  0.624545  1
  Ti  Ti12  1  0.000000  0.500000  0.000000  1
  Ti  Ti13  1  0.500000  0.000000  0.000000  1
  Ti  Ti14  1  0.500000  0.500000  0.500000  1
  Ti  Ti15  1  0.000000  0.000000  0.500000  1
  Cl  Cl16  1  0.659485  0.030950  0.141345  1
  Cl  Cl17  1  0.932552  0.668057  0.816839  1
  Cl  Cl18  1  0.518914  0.532105  0.364633  1
  Cl  Cl19  1  0.329437  0.674732  0.593683  1
  Cl  Cl20  1  0.018914  0.967895  0.635367  1
  Cl  Cl21  1  0.170563  0.174732  0.593683  1
  Cl  Cl22  1  0.306710  0.902185  0.438430  1
  Cl  Cl23  1  0.840515  0.530950  0.141345  1
  Cl  Cl24  1  0.743393  0.595817  0.981864  1
  Cl  Cl25  1  0.340515  0.969050  0.858655  1
  Cl  Cl26  1  0.829437  0.825268  0.406317  1
  Cl  Cl27  1  0.481086  0.467895  0.635367  1
  Cl  Cl28  1  0.693290  0.097815  0.561570  1
  Cl  Cl29  1  0.806710  0.597815  0.561570  1
  Cl  Cl30  1  0.756607  0.095817  0.981864  1
  Cl  Cl31  1  0.981086  0.032105  0.364633  1
  Cl  Cl32  1  0.159485  0.469050  0.858655  1
  Cl  Cl33  1  0.256607  0.404183  0.018136  1
  Cl  Cl34  1  0.567448  0.168057  0.816839  1
  Cl  Cl35  1  0.432552  0.831943  0.183161  1
  Cl  Cl36  1  0.670563  0.325268  0.406317  1
  Cl  Cl37  1  0.193290  0.402185  0.438430  1
  Cl  Cl38  1  0.067448  0.331943  0.183161  1
  Cl  Cl39  1  0.243393  0.904183  0.018136  1
