# generated using pymatgen
data_KCu3Ag(MoO4)4
_symmetry_space_group_name_H-M   'P 1'
_cell_length_a   5.11432744
_cell_length_b   14.75294993
_cell_length_c   20.06213968
_cell_angle_alpha   90.00000000
_cell_angle_beta   93.56311216
_cell_angle_gamma   90.00000000
_symmetry_Int_Tables_number   1
_chemical_formula_structural   KCu3Ag(MoO4)4
_chemical_formula_sum   'K4 Cu12 Ag4 Mo16 O64'
_cell_volume   1510.79076396
_cell_formula_units_Z   4
loop_
 _symmetry_equiv_pos_site_id
 _symmetry_equiv_pos_as_xyz
  1  'x, y, z'
loop_
 _atom_site_type_symbol
 _atom_site_label
 _atom_site_symmetry_multiplicity
 _atom_site_fract_x
 _atom_site_fract_y
 _atom_site_fract_z
 _atom_site_occupancy
  K  K0  1  0.192185  0.972051  0.099235  1
  K  K1  1  0.807815  0.472051  0.400765  1
  K  K2  1  0.192185  0.527949  0.599235  1
  K  K3  1  0.807815  0.027949  0.900765  1
  Cu  Cu4  1  0.773604  0.705718  0.327498  1
  Cu  Cu5  1  0.708612  0.940004  0.612596  1
  Cu  Cu6  1  0.226396  0.205718  0.172502  1
  Cu  Cu7  1  0.193170  0.675402  0.071941  1
  Cu  Cu8  1  0.291388  0.059996  0.387404  1
  Cu  Cu9  1  0.773604  0.794282  0.827498  1
  Cu  Cu10  1  0.806830  0.175402  0.428059  1
  Cu  Cu11  1  0.193170  0.824598  0.571941  1
  Cu  Cu12  1  0.708612  0.559996  0.112596  1
  Cu  Cu13  1  0.226396  0.294282  0.672502  1
  Cu  Cu14  1  0.806830  0.324598  0.928059  1
  Cu  Cu15  1  0.291388  0.440004  0.887404  1
  Ag  Ag16  1  0.274951  0.861857  0.291067  1
  Ag  Ag17  1  0.274951  0.638143  0.791067  1
  Ag  Ag18  1  0.725049  0.361857  0.208933  1
  Ag  Ag19  1  0.725049  0.138143  0.708933  1
  Mo  Mo20  1  0.721299  0.770035  0.170487  1
  Mo  Mo21  1  0.750476  0.099902  0.271201  1
  Mo  Mo22  1  0.193292  0.415612  0.070356  1
  Mo  Mo23  1  0.323465  0.677937  0.439656  1
  Mo  Mo24  1  0.249524  0.599902  0.228799  1
  Mo  Mo25  1  0.750476  0.400098  0.771201  1
  Mo  Mo26  1  0.278701  0.270035  0.329513  1
  Mo  Mo27  1  0.676535  0.177937  0.060344  1
  Mo  Mo28  1  0.676535  0.322063  0.560344  1
  Mo  Mo29  1  0.193292  0.084388  0.570356  1
  Mo  Mo30  1  0.806708  0.915612  0.429644  1
  Mo  Mo31  1  0.249524  0.900098  0.728799  1
  Mo  Mo32  1  0.806708  0.584388  0.929644  1
  Mo  Mo33  1  0.323465  0.822063  0.939656  1
  Mo  Mo34  1  0.278701  0.229965  0.829513  1
  Mo  Mo35  1  0.721299  0.729965  0.670487  1
  O  O36  1  0.075046  0.189014  0.889745  1
  O  O37  1  0.493088  0.642950  0.681735  1
  O  O38  1  0.924954  0.810986  0.110255  1
  O  O39  1  0.381595  0.164561  0.618348  1
  O  O40  1  0.983518  0.371707  0.848497  1
  O  O41  1  0.983518  0.128293  0.348497  1
  O  O42  1  0.392400  0.984371  0.562139  1
  O  O43  1  0.624407  0.246890  0.489562  1
  O  O44  1  0.607600  0.015629  0.437861  1
  O  O45  1  0.016482  0.871707  0.651503  1
  O  O46  1  0.931328  0.761743  0.249468  1
  O  O47  1  0.446470  0.993526  0.710362  1
  O  O48  1  0.535306  0.187833  0.232930  1
  O  O49  1  0.068672  0.238257  0.750532  1
  O  O50  1  0.618405  0.835439  0.381652  1
  O  O51  1  0.808284  0.424128  0.532092  1
  O  O52  1  0.808284  0.075872  0.032092  1
  O  O53  1  0.901881  0.446782  0.113709  1
  O  O54  1  0.095250  0.731526  0.379543  1
  O  O55  1  0.904750  0.231526  0.120457  1
  O  O56  1  0.068672  0.261743  0.250532  1
  O  O57  1  0.924954  0.689014  0.610255  1
  O  O58  1  0.488092  0.328894  0.866556  1
  O  O59  1  0.446470  0.506474  0.210362  1
  O  O60  1  0.374904  0.355717  0.598338  1
  O  O61  1  0.488092  0.171106  0.366556  1
  O  O62  1  0.098119  0.553218  0.886291  1
  O  O63  1  0.016482  0.628293  0.151503  1
  O  O64  1  0.506912  0.142950  0.818265  1
  O  O65  1  0.511908  0.828894  0.633444  1
  O  O66  1  0.191716  0.924128  0.967908  1
  O  O67  1  0.191716  0.575872  0.467908  1
  O  O68  1  0.464694  0.812167  0.767070  1
  O  O69  1  0.374904  0.144283  0.098338  1
  O  O70  1  0.098119  0.946782  0.386291  1
  O  O71  1  0.511908  0.671106  0.133444  1
  O  O72  1  0.375593  0.746890  0.010438  1
  O  O73  1  0.901881  0.053218  0.613709  1
  O  O74  1  0.625096  0.644283  0.401662  1
  O  O75  1  0.904750  0.268474  0.620457  1
  O  O76  1  0.043014  0.938500  0.789392  1
  O  O77  1  0.375593  0.753110  0.510438  1
  O  O78  1  0.624407  0.253110  0.989562  1
  O  O79  1  0.956986  0.061500  0.210608  1
  O  O80  1  0.464694  0.687833  0.267070  1
  O  O81  1  0.625096  0.855717  0.901662  1
  O  O82  1  0.618405  0.664561  0.881652  1
  O  O83  1  0.493088  0.857050  0.181735  1
  O  O84  1  0.381595  0.335439  0.118348  1
  O  O85  1  0.553530  0.006474  0.289638  1
  O  O86  1  0.075046  0.310986  0.389745  1
  O  O87  1  0.535306  0.312167  0.732930  1
  O  O88  1  0.956986  0.438500  0.710608  1
  O  O89  1  0.095250  0.768474  0.879543  1
  O  O90  1  0.607600  0.484371  0.937861  1
  O  O91  1  0.903825  0.873376  0.512712  1
  O  O92  1  0.506912  0.357050  0.318265  1
  O  O93  1  0.043014  0.561500  0.289392  1
  O  O94  1  0.553530  0.493526  0.789638  1
  O  O95  1  0.096175  0.126624  0.487288  1
  O  O96  1  0.931328  0.738257  0.749468  1
  O  O97  1  0.392400  0.515629  0.062139  1
  O  O98  1  0.096175  0.373376  0.987288  1
  O  O99  1  0.903825  0.626624  0.012712  1
