# generated using pymatgen
data_Cd(Bi9O14)2
_symmetry_space_group_name_H-M   'P 1'
_cell_length_a   8.95211103
_cell_length_b   9.34109054
_cell_length_c   28.20953324
_cell_angle_alpha   110.41035257
_cell_angle_beta   108.60551759
_cell_angle_gamma   108.79764797
_symmetry_Int_Tables_number   1
_chemical_formula_structural   Cd(Bi9O14)2
_chemical_formula_sum   'Cd2 Bi36 O56'
_cell_volume   1828.83405497
_cell_formula_units_Z   2
loop_
 _symmetry_equiv_pos_site_id
 _symmetry_equiv_pos_as_xyz
  1  'x, y, z'
loop_
 _atom_site_type_symbol
 _atom_site_label
 _atom_site_symmetry_multiplicity
 _atom_site_fract_x
 _atom_site_fract_y
 _atom_site_fract_z
 _atom_site_occupancy
  Cd  Cd0  1  -0.012826  0.019813  0.681738  1
  Cd  Cd1  1  0.996519  0.058468  0.347807  1
  Bi  Bi2  1  0.207031  0.852700  0.892749  1
  Bi  Bi3  1  0.087009  0.189319  0.914776  1
  Bi  Bi4  1  0.078063  0.480502  0.776128  1
  Bi  Bi5  1  0.162752  0.843006  0.549579  1
  Bi  Bi6  1  0.346469  0.778563  0.701858  1
  Bi  Bi7  1  0.412218  0.588823  0.926057  1
  Bi  Bi8  1  0.166343  0.278327  0.610003  1
  Bi  Bi9  1  0.408169  0.199438  0.833602  1
  Bi  Bi10  1  0.669806  0.802735  0.840480  1
  Bi  Bi11  1  0.143721  0.538377  0.414987  1
  Bi  Bi12  1  0.151613  0.830052  0.208519  1
  Bi  Bi13  1  0.499974  0.319462  0.737350  1
  Bi  Bi14  1  0.397799  0.848637  0.375932  1
  Bi  Bi15  1  0.677143  0.202698  0.959986  1
  Bi  Bi16  1  0.425765  0.659183  0.581836  1
  Bi  Bi17  1  0.888662  0.490045  0.911844  1
  Bi  Bi18  1  0.173806  0.320745  0.282464  1
  Bi  Bi19  1  0.281174  0.171162  0.486130  1
  Bi  Bi20  1  0.690959  0.911139  0.505548  1
  Bi  Bi21  1  0.793741  0.714404  0.727545  1
  Bi  Bi22  1  0.231434  0.459086  0.105122  1
  Bi  Bi23  1  0.336927  0.752843  0.044417  1
  Bi  Bi24  1  0.548859  0.400553  0.424895  1
  Bi  Bi25  1  0.802076  0.150874  0.776689  1
  Bi  Bi26  1  0.458189  0.649612  0.257860  1
  Bi  Bi27  1  0.617140  0.197941  0.625109  1
  Bi  Bi28  1  0.770985  0.468872  0.566433  1
  Bi  Bi29  1  0.366981  0.189727  0.176796  1
  Bi  Bi30  1  0.712478  0.893666  0.193449  1
  Bi  Bi31  1  0.826421  0.722046  0.401163  1
  Bi  Bi32  1  0.608002  0.409302  0.092227  1
  Bi  Bi33  1  0.953136  0.289515  0.487851  1
  Bi  Bi34  1  0.639899  0.196936  0.293508  1
  Bi  Bi35  1  0.866007  0.536698  0.258733  1
  Bi  Bi36  1  0.876162  0.687206  0.058565  1
  Bi  Bi37  1  0.828047  0.128987  0.108712  1
  O  O38  1  0.209410  0.633811  0.944034  1
  O  O39  1  0.004235  0.675350  0.794704  1
  O  O40  1  0.243894  0.317444  0.860280  1
  O  O41  1  0.334397  0.669868  0.863774  1
  O  O42  1  0.247022  0.727653  0.614047  1
  O  O43  1  0.414516  0.128361  0.954179  1
  O  O44  1  0.336629  0.555033  0.735735  1
  O  O45  1  0.093933  0.777576  0.456813  1
  O  O46  1  0.262190  0.366046  0.015500  1
  O  O47  1  0.498010  0.429663  0.507564  1
  O  O48  1  0.608856  0.171567  0.516546  1
  O  O49  1  0.244459  0.371979  0.556324  1
  O  O50  1  0.631425  0.370160  0.924278  1
  O  O51  1  0.470549  0.109145  0.457580  1
  O  O52  1  0.542605  0.727430  0.682772  1
  O  O53  1  0.171401  0.541293  0.498173  1
  O  O54  1  0.811085  0.973725  0.815098  1
  O  O55  1  0.380502  0.593535  0.318746  1
  O  O56  1  0.513926  0.070391  0.749918  1
  O  O57  1  0.357371  0.147758  0.617742  1
  O  O58  1  0.266836  0.364063  0.372398  1
  O  O59  1  0.136511  0.843949  0.132785  1
  O  O60  1  0.657214  0.602172  0.767171  1
  O  O61  1  0.141011  0.509386  0.709884  1
  O  O62  1  0.015995  0.664340  0.007877  1
  O  O63  1  0.622900  0.387001  0.255949  1
  O  O64  1  0.246385  0.350734  0.203842  1
  O  O65  1  0.902915  0.283023  0.927538  1
  O  O66  1  0.696687  0.478213  0.648453  1
  O  O67  1  0.592599  0.058404  0.204901  1
  O  O68  1  0.451255  0.894127  0.305120  1
  O  O69  1  0.720171  0.294661  0.720462  1
  O  O70  1  0.245981  0.634674  0.186592  1
  O  O71  1  0.678747  0.947158  0.432636  1
  O  O72  1  0.815209  0.443362  0.492895  1
  O  O73  1  0.350246  0.121647  0.247748  1
  O  O74  1  0.371744  0.508303  0.009426  1
  O  O75  1  0.713509  0.678401  0.468335  1
  O  O76  1  0.996976  0.029053  0.532468  1
  O  O77  1  0.961083  0.927098  0.906029  1
  O  O78  1  0.579796  0.422942  0.828926  1
  O  O79  1  0.450556  0.416138  0.144095  1
  O  O80  1  0.391391  0.740294  0.438136  1
  O  O81  1  0.953454  0.339287  0.571089  1
  O  O82  1  0.924346  0.742323  0.336012  1
  O  O83  1  0.588968  0.892505  0.042058  1
  O  O84  1  0.705409  0.445141  0.371853  1
  O  O85  1  0.716538  0.288913  0.137141  1
  O  O86  1  0.826605  0.676947  0.148675  1
  O  O87  1  0.439011  0.893438  0.569182  1
  O  O88  1  0.314707  0.908870  0.832051  1
  O  O89  1  0.423109  0.690278  0.117408  1
  O  O90  1  0.997928  0.430220  0.301684  1
  O  O91  1  0.514531  0.005096  0.856201  1
  O  O92  1  0.815878  0.434964  0.049256  1
  O  O93  1  0.888729  0.063621  0.174803  1
