# generated using pymatgen
data_NdH12S2NO12
_symmetry_space_group_name_H-M   'P 1'
_cell_length_a   6.73385854
_cell_length_b   8.84429946
_cell_length_c   19.23074482
_cell_angle_alpha   90.00000000
_cell_angle_beta   90.00000000
_cell_angle_gamma   97.54488325
_symmetry_Int_Tables_number   1
_chemical_formula_structural   NdH12S2NO12
_chemical_formula_sum   'Nd4 H48 S8 N4 O48'
_cell_volume   1135.39551510
_cell_formula_units_Z   4
loop_
 _symmetry_equiv_pos_site_id
 _symmetry_equiv_pos_as_xyz
  1  'x, y, z'
loop_
 _atom_site_type_symbol
 _atom_site_label
 _atom_site_symmetry_multiplicity
 _atom_site_fract_x
 _atom_site_fract_y
 _atom_site_fract_z
 _atom_site_occupancy
  Nd  Nd0  1  0.144050  0.288253  0.123009  1
  Nd  Nd1  1  0.855950  0.711747  0.876991  1
  Nd  Nd2  1  0.855950  0.211747  0.623009  1
  Nd  Nd3  1  0.144050  0.788253  0.376991  1
  H  H4  1  0.350290  0.316361  0.819801  1
  H  H5  1  0.482313  0.966054  0.724435  1
  H  H6  1  0.177284  0.433893  0.971559  1
  H  H7  1  0.716866  0.383037  0.934365  1
  H  H8  1  0.745514  0.226153  0.463176  1
  H  H9  1  0.127420  0.451402  0.415869  1
  H  H10  1  0.482313  0.466054  0.775565  1
  H  H11  1  0.812371  0.349449  0.863022  1
  H  H12  1  0.177284  0.933893  0.528441  1
  H  H13  1  0.187629  0.650551  0.136978  1
  H  H14  1  0.187629  0.150551  0.363022  1
  H  H15  1  0.690316  0.159116  0.233695  1
  H  H16  1  0.285539  0.520384  0.470623  1
  H  H17  1  0.716866  0.883037  0.565635  1
  H  H18  1  0.690316  0.659116  0.266305  1
  H  H19  1  0.127420  0.951402  0.084131  1
  H  H20  1  0.238195  0.466714  0.789924  1
  H  H21  1  0.822716  0.566107  0.028441  1
  H  H22  1  0.285539  0.020384  0.029377  1
  H  H23  1  0.254486  0.273847  0.963176  1
  H  H24  1  0.745514  0.726153  0.036824  1
  H  H25  1  0.238195  0.966714  0.710076  1
  H  H26  1  0.309684  0.840884  0.766305  1
  H  H27  1  0.283134  0.116963  0.434365  1
  H  H28  1  0.486080  0.666913  0.587395  1
  H  H29  1  0.649710  0.683639  0.180199  1
  H  H30  1  0.872580  0.548598  0.584131  1
  H  H31  1  0.486080  0.166913  0.912605  1
  H  H32  1  0.254486  0.773847  0.536824  1
  H  H33  1  0.649710  0.183639  0.319801  1
  H  H34  1  0.513920  0.833087  0.087395  1
  H  H35  1  0.714461  0.479616  0.529377  1
  H  H36  1  0.706629  0.436334  0.387076  1
  H  H37  1  0.517687  0.033946  0.275565  1
  H  H38  1  0.513920  0.333087  0.412605  1
  H  H39  1  0.293371  0.563666  0.612924  1
  H  H40  1  0.350290  0.816361  0.680199  1
  H  H41  1  0.822716  0.066107  0.471559  1
  H  H42  1  0.706629  0.936334  0.112924  1
  H  H43  1  0.283134  0.616963  0.065635  1
  H  H44  1  0.309684  0.340884  0.733695  1
  H  H45  1  0.517687  0.533946  0.224435  1
  H  H46  1  0.293371  0.063666  0.887076  1
  H  H47  1  0.872580  0.048598  0.915869  1
  H  H48  1  0.714461  0.979616  0.970623  1
  H  H49  1  0.812371  0.849449  0.636978  1
  H  H50  1  0.761805  0.533286  0.210076  1
  H  H51  1  0.761805  0.033286  0.289924  1
  S  S52  1  0.315474  0.237300  0.576050  1
  S  S53  1  0.878957  0.585611  0.722947  1
  S  S54  1  0.684526  0.262700  0.076050  1
  S  S55  1  0.121043  0.914389  0.222947  1
  S  S56  1  0.684526  0.762700  0.423950  1
  S  S57  1  0.878957  0.085611  0.777053  1
  S  S58  1  0.121043  0.414389  0.277053  1
  S  S59  1  0.315474  0.737300  0.923950  1
  N  N60  1  0.654126  0.603611  0.220024  1
  N  N61  1  0.345874  0.396389  0.779976  1
  N  N62  1  0.654126  0.103611  0.279976  1
  N  N63  1  0.345874  0.896389  0.720024  1
  O  O64  1  0.305967  0.885802  0.261664  1
  O  O65  1  0.355914  0.171323  0.890794  1
  O  O66  1  0.092720  0.820716  0.158938  1
  O  O67  1  0.133698  0.078082  0.204905  1
  O  O68  1  0.249173  0.570841  0.111323  1
  O  O69  1  0.092720  0.320716  0.341062  1
  O  O70  1  0.790237  0.142636  0.110455  1
  O  O71  1  0.505534  0.785673  0.382381  1
  O  O72  1  0.644086  0.328677  0.390794  1
  O  O73  1  0.209763  0.357364  0.610455  1
  O  O74  1  0.494466  0.714327  0.882381  1
  O  O75  1  0.750827  0.429159  0.888677  1
  O  O76  1  0.494466  0.214327  0.617619  1
  O  O77  1  0.505534  0.285673  0.117619  1
  O  O78  1  0.822818  0.953734  0.941198  1
  O  O79  1  0.694033  0.114198  0.738336  1
  O  O80  1  0.907280  0.679284  0.658938  1
  O  O81  1  0.209763  0.857364  0.889545  1
  O  O82  1  0.794400  0.156958  0.498033  1
  O  O83  1  0.205600  0.843042  0.501967  1
  O  O84  1  0.790237  0.642636  0.389545  1
  O  O85  1  0.165085  0.596006  0.922285  1
  O  O86  1  0.133698  0.578082  0.295095  1
  O  O87  1  0.249173  0.070841  0.388677  1
  O  O88  1  0.355914  0.671323  0.609206  1
  O  O89  1  0.177182  0.046266  0.058802  1
  O  O90  1  0.794400  0.656958  0.001967  1
  O  O91  1  0.049279  0.126344  0.727054  1
  O  O92  1  0.694033  0.614198  0.761664  1
  O  O93  1  0.950721  0.373656  0.227054  1
  O  O94  1  0.370733  0.280820  0.503652  1
  O  O95  1  0.644086  0.828677  0.109206  1
  O  O96  1  0.370733  0.780820  0.996348  1
  O  O97  1  0.750827  0.929159  0.611323  1
  O  O98  1  0.177182  0.546266  0.441198  1
  O  O99  1  0.049279  0.626344  0.772946  1
  O  O100  1  0.950721  0.873656  0.272946  1
  O  O101  1  0.629267  0.719180  0.496348  1
  O  O102  1  0.165085  0.096006  0.577715  1
  O  O103  1  0.205600  0.343042  0.998033  1
  O  O104  1  0.629267  0.219180  0.003652  1
  O  O105  1  0.907280  0.179284  0.841062  1
  O  O106  1  0.866302  0.921918  0.795095  1
  O  O107  1  0.866302  0.421918  0.704905  1
  O  O108  1  0.822818  0.453734  0.558802  1
  O  O109  1  0.834915  0.903994  0.422285  1
  O  O110  1  0.305967  0.385802  0.238336  1
  O  O111  1  0.834915  0.403994  0.077715  1
