# generated using pymatgen
data_ReH3O5
_symmetry_space_group_name_H-M   'P 1'
_cell_length_a   7.30147038
_cell_length_b   7.37856908
_cell_length_c   7.59329499
_cell_angle_alpha   130.84779993
_cell_angle_beta   131.65563276
_cell_angle_gamma   72.63962543
_symmetry_Int_Tables_number   1
_chemical_formula_structural   ReH3O5
_chemical_formula_sum   'Re2 H6 O10'
_cell_volume   224.38002839
_cell_formula_units_Z   2
loop_
 _symmetry_equiv_pos_site_id
 _symmetry_equiv_pos_as_xyz
  1  'x, y, z'
loop_
 _atom_site_type_symbol
 _atom_site_label
 _atom_site_symmetry_multiplicity
 _atom_site_fract_x
 _atom_site_fract_y
 _atom_site_fract_z
 _atom_site_occupancy
  Re  Re0  1  0.379054  0.119362  0.244927  1
  Re  Re1  1  0.636983  0.883654  0.749300  1
  H  H2  1  0.783053  0.686696  0.161446  1
  H  H3  1  0.052085  0.307621  0.745586  1
  H  H4  1  0.214487  0.524470  0.881709  1
  H  H5  1  0.759642  0.386212  0.057265  1
  H  H6  1  0.841780  0.704704  0.495510  1
  H  H7  1  0.051329  0.623754  0.327393  1
  O  O8  1  0.874453  0.601487  0.247982  1
  O  O9  1  0.139303  0.346831  0.714433  1
  O  O10  1  0.656406  0.353785  0.587967  1
  O  O11  1  0.292075  0.066141  0.934448  1
  O  O12  1  0.623705  0.183625  0.863774  1
  O  O13  1  0.833128  0.741292  0.642986  1
  O  O14  1  0.328399  0.706739  0.440807  1
  O  O15  1  0.752972  0.884623  0.033933  1
  O  O16  1  0.431983  0.846692  0.200099  1
  O  O17  1  0.134593  0.214231  0.257299  1
