# generated using pymatgen
data_NaFe3H6(SO7)2
_symmetry_space_group_name_H-M   'P 1'
_cell_length_a   7.03140479
_cell_length_b   7.03140483
_cell_length_c   7.03140502
_cell_angle_alpha   63.69027181
_cell_angle_beta   63.69027165
_cell_angle_gamma   63.69027322
_symmetry_Int_Tables_number   1
_chemical_formula_structural   NaFe3H6(SO7)2
_chemical_formula_sum   'Na1 Fe3 H6 S2 O14'
_cell_volume   265.84566220
_cell_formula_units_Z   1
loop_
 _symmetry_equiv_pos_site_id
 _symmetry_equiv_pos_as_xyz
  1  'x, y, z'
loop_
 _atom_site_type_symbol
 _atom_site_label
 _atom_site_symmetry_multiplicity
 _atom_site_fract_x
 _atom_site_fract_y
 _atom_site_fract_z
 _atom_site_occupancy
  Na  Na0  1  0.000000  0.000000  0.000000  1
  Fe  Fe1  1  0.000000  0.500000  0.000000  1
  Fe  Fe2  1  0.000000  0.000000  0.500000  1
  Fe  Fe3  1  0.500000  0.000000  0.000000  1
  S  S4  1  0.312210  0.312210  0.312210  1
  S  S5  1  0.687790  0.687790  0.687790  1
  O  O6  1  0.400583  0.400583  0.400583  1
  O  O7  1  0.599417  0.599417  0.599417  1
  O  O8  1  0.172973  0.502325  0.172973  1
  O  O9  1  0.172973  0.172973  0.502325  1
  O  O10  1  0.502325  0.172973  0.172973  1
  O  O11  1  0.497675  0.827027  0.827027  1
  O  O12  1  0.827027  0.497675  0.827027  1
  O  O13  1  0.827027  0.827027  0.497675  1
  O  O14  1  0.257687  0.880379  0.257687  1
  O  O15  1  0.257687  0.257687  0.880379  1
  O  O16  1  0.880379  0.257687  0.257687  1
  O  O17  1  0.119621  0.742313  0.742313  1
  O  O18  1  0.742313  0.119621  0.742313  1
  O  O19  1  0.742313  0.742313  0.119621  1
  H  H20  1  0.307453  0.715873  0.307453  1
  H  H21  1  0.307453  0.307453  0.715873  1
  H  H22  1  0.715873  0.307453  0.307453  1
  H  H23  1  0.284127  0.692547  0.692547  1
  H  H24  1  0.692547  0.284127  0.692547  1
  H  H25  1  0.692547  0.692547  0.284127  1
