# generated using pymatgen
data_Sr6Bi2O11
_symmetry_space_group_name_H-M   'P 1'
_cell_length_a   12.37525991
_cell_length_b   12.64575364
_cell_length_c   8.74648079
_cell_angle_alpha   46.23885292
_cell_angle_beta   134.97283767
_cell_angle_gamma   119.26443404
_symmetry_Int_Tables_number   1
_chemical_formula_structural   Sr6Bi2O11
_chemical_formula_sum   'Sr12 Bi4 O22'
_cell_volume   699.35607987
_cell_formula_units_Z   2
loop_
 _symmetry_equiv_pos_site_id
 _symmetry_equiv_pos_as_xyz
  1  'x, y, z'
loop_
 _atom_site_type_symbol
 _atom_site_label
 _atom_site_symmetry_multiplicity
 _atom_site_fract_x
 _atom_site_fract_y
 _atom_site_fract_z
 _atom_site_occupancy
  Sr  Sr0  1  0.276549  0.793006  0.706260  1
  Sr  Sr1  1  0.276549  0.793006  0.260827  1
  Sr  Sr2  1  0.223451  0.206994  0.739173  1
  Sr  Sr3  1  0.223451  0.206994  0.293740  1
  Sr  Sr4  1  0.500000  0.500510  0.499490  1
  Sr  Sr5  1  0.723451  0.793006  0.707728  1
  Sr  Sr6  1  0.500000  0.070398  0.429602  1
  Sr  Sr7  1  0.723451  0.793006  0.153162  1
  Sr  Sr8  1  0.776549  0.206994  0.846838  1
  Sr  Sr9  1  0.776549  0.206994  0.292272  1
  Sr  Sr10  1  0.000000  0.499490  0.500510  1
  Sr  Sr11  1  0.000000  0.929602  0.570398  1
  Bi  Bi12  1  0.000000  -0.000538  0.000538  1
  Bi  Bi13  1  0.500000  0.541285  0.958715  1
  Bi  Bi14  1  0.500000  0.000538  -0.000538  1
  Bi  Bi15  1  0.000000  0.458715  0.041285  1
  O  O16  1  0.253495  0.014523  0.738972  1
  O  O17  1  0.500000  0.986280  0.766978  1
  O  O18  1  0.270224  0.613993  0.656230  1
  O  O19  1  0.229776  0.386007  0.343770  1
  O  O20  1  0.500000  0.614764  0.655372  1
  O  O21  1  0.000000  0.013720  0.233022  1
  O  O22  1  0.753495  0.985478  0.768017  1
  O  O23  1  0.500000  0.229597  0.770403  1
  O  O24  1  0.500000  0.771162  0.228838  1
  O  O25  1  0.246505  0.985478  0.261028  1
  O  O26  1  0.000000  0.013720  0.739539  1
  O  O27  1  0.500000  0.614764  0.115101  1
  O  O28  1  0.770224  0.386007  0.884217  1
  O  O29  1  0.500000  0.317593  0.182407  1
  O  O30  1  0.000000  0.682407  0.817593  1
  O  O31  1  0.729776  0.613993  0.115783  1
  O  O32  1  0.000000  0.385236  0.884899  1
  O  O33  1  0.500000  0.986280  0.260461  1
  O  O34  1  0.000000  0.228838  0.771162  1
  O  O35  1  0.000000  0.770403  0.229597  1
  O  O36  1  0.746505  0.014523  0.231983  1
  O  O37  1  0.000000  0.385236  0.344628  1
