# generated using pymatgen
data_KSn2F5
_symmetry_space_group_name_H-M   'P 1'
_cell_length_a   7.49331281
_cell_length_b   14.93440741
_cell_length_c   9.50097960
_cell_angle_alpha   89.92434187
_cell_angle_beta   90.25536398
_cell_angle_gamma   120.51745411
_symmetry_Int_Tables_number   1
_chemical_formula_structural   KSn2F5
_chemical_formula_sum   'K6 Sn12 F30'
_cell_volume   915.94226740
_cell_formula_units_Z   6
loop_
 _symmetry_equiv_pos_site_id
 _symmetry_equiv_pos_as_xyz
  1  'x, y, z'
loop_
 _atom_site_type_symbol
 _atom_site_label
 _atom_site_symmetry_multiplicity
 _atom_site_fract_x
 _atom_site_fract_y
 _atom_site_fract_z
 _atom_site_occupancy
  K  K0  1  -0.000121  0.498637  0.997705  1
  K  K1  1  0.338524  0.833685  0.972789  1
  K  K2  1  0.325763  0.332809  0.990425  1
  K  K3  1  0.998577  0.000966  0.002055  1
  K  K4  1  0.663756  0.667384  0.020261  1
  K  K5  1  0.668643  0.166977  0.016188  1
  Sn  Sn6  1  0.995365  0.653561  0.333466  1
  Sn  Sn7  1  0.328902  0.003819  0.332507  1
  Sn  Sn8  1  0.319503  0.663018  0.665358  1
  Sn  Sn9  1  0.693726  0.837843  0.335938  1
  Sn  Sn10  1  0.997640  0.173724  0.335158  1
  Sn  Sn11  1  0.327383  0.499525  0.334883  1
  Sn  Sn12  1  0.672857  0.514874  0.666892  1
  Sn  Sn13  1  -0.004618  0.832614  0.667062  1
  Sn  Sn14  1  0.308797  0.151347  0.663677  1
  Sn  Sn15  1  0.652110  0.333730  0.337241  1
  Sn  Sn16  1  0.660688  0.004470  0.665259  1
  Sn  Sn17  1  0.000148  0.332293  0.664601  1
  F  F18  1  0.026147  0.007588  0.701465  1
  F  F19  1  0.309483  0.982799  0.119432  1
  F  F20  1  0.032635  0.671110  0.120712  1
  F  F21  1  0.329766  0.946854  0.713100  1
  F  F22  1  0.101870  0.719026  0.712321  1
  F  F23  1  0.004873  0.501156  0.697666  1
  F  F24  1  0.337306  0.656527  0.880674  1
  F  F25  1  0.549717  0.833680  0.708114  1
  F  F26  1  0.446960  0.665735  0.290737  1
  F  F27  1  0.658872  0.845377  0.122306  1
  F  F28  1  0.312583  0.488266  0.119889  1
  F  F29  1  0.023447  0.169452  0.120664  1
  F  F30  1  0.340638  0.441852  0.713273  1
  F  F31  1  0.125679  0.224972  0.712734  1
  F  F32  1  0.337861  0.333221  0.309093  1
  F  F33  1  0.675699  0.658289  0.694663  1
  F  F34  1  0.891530  0.778425  0.288582  1
  F  F35  1  0.670452  0.553378  0.292657  1
  F  F36  1  0.972669  0.830539  0.881507  1
  F  F37  1  0.684213  0.508009  0.881112  1
  F  F38  1  0.347461  0.162787  0.877382  1
  F  F39  1  0.430984  0.162854  0.287006  1
  F  F40  1  0.656682  0.343291  0.122104  1
  F  F41  1  0.670471  0.165394  0.690020  1
  F  F42  1  0.992126  0.506155  0.300545  1
  F  F43  1  0.889484  0.281251  0.288180  1
  F  F44  1  0.664443  0.058036  0.287116  1
  F  F45  1  0.973752  0.330452  0.879836  1
  F  F46  1  0.686585  0.013300  0.880962  1
  F  F47  1  0.007638  0.990117  0.304786  1
