# generated using pymatgen
data_CoP3H12NO7
_symmetry_space_group_name_H-M   'P 1'
_cell_length_a   7.47440398
_cell_length_b   9.30620511
_cell_length_c   15.17788796
_cell_angle_alpha   90.00000000
_cell_angle_beta   90.00000000
_cell_angle_gamma   108.55025386
_symmetry_Int_Tables_number   1
_chemical_formula_structural   CoP3H12NO7
_chemical_formula_sum   'Co4 P12 H48 N4 O28'
_cell_volume   1000.89720112
_cell_formula_units_Z   4
loop_
 _symmetry_equiv_pos_site_id
 _symmetry_equiv_pos_as_xyz
  1  'x, y, z'
loop_
 _atom_site_type_symbol
 _atom_site_label
 _atom_site_symmetry_multiplicity
 _atom_site_fract_x
 _atom_site_fract_y
 _atom_site_fract_z
 _atom_site_occupancy
  Co  Co0  1  0.103081  0.097341  0.828171  1
  Co  Co1  1  0.603081  0.597341  0.671829  1
  Co  Co2  1  0.896919  0.902659  0.171829  1
  Co  Co3  1  0.396919  0.402659  0.328171  1
  P  P4  1  0.302993  0.728177  0.572850  1
  P  P5  1  0.927636  0.698026  0.829449  1
  P  P6  1  0.697007  0.271823  0.427150  1
  P  P7  1  0.852836  0.954834  0.653085  1
  P  P8  1  0.572364  0.801974  0.329449  1
  P  P9  1  0.197007  0.771823  0.072850  1
  P  P10  1  0.352836  0.454834  0.846915  1
  P  P11  1  0.072364  0.301974  0.170551  1
  P  P12  1  0.147164  0.045166  0.346915  1
  P  P13  1  0.647164  0.545166  0.153085  1
  P  P14  1  0.802993  0.228177  0.927150  1
  P  P15  1  0.427636  0.198026  0.670551  1
  H  H16  1  0.825319  0.015277  0.570071  1
  H  H17  1  0.541594  0.162692  0.467953  1
  H  H18  1  0.424279  0.959639  0.809452  1
  H  H19  1  0.282376  0.796379  0.654098  1
  H  H20  1  0.458406  0.837308  0.532047  1
  H  H21  1  0.469360  0.789418  0.811329  1
  H  H22  1  0.006692  0.114008  0.363709  1
  H  H23  1  0.200591  0.044477  0.995402  1
  H  H24  1  0.773764  0.682267  0.887772  1
  H  H25  1  0.575907  0.135100  0.093187  1
  H  H26  1  0.299409  0.455523  0.495402  1
  H  H27  1  0.506692  0.614008  0.136291  1
  H  H28  1  0.799409  0.955523  0.004598  1
  H  H29  1  0.726236  0.817733  0.387772  1
  H  H30  1  0.530640  0.210582  0.188671  1
  H  H31  1  0.534625  0.116800  0.627499  1
  H  H32  1  0.575721  0.040361  0.190548  1
  H  H33  1  0.273764  0.182267  0.612228  1
  H  H34  1  0.226236  0.317733  0.112228  1
  H  H35  1  0.782376  0.296379  0.845902  1
  H  H36  1  0.965375  0.383200  0.127499  1
  H  H37  1  0.174681  0.984723  0.429929  1
  H  H38  1  0.372453  0.051368  0.147196  1
  H  H39  1  0.892137  0.652150  0.545994  1
  H  H40  1  0.717624  0.203621  0.345902  1
  H  H41  1  0.127547  0.448632  0.647196  1
  H  H42  1  0.325319  0.515277  0.929929  1
  H  H43  1  0.493308  0.385992  0.863709  1
  H  H44  1  0.107863  0.347850  0.454006  1
  H  H45  1  0.607863  0.847850  0.045994  1
  H  H46  1  0.217624  0.703621  0.154098  1
  H  H47  1  0.075721  0.540361  0.309452  1
  H  H48  1  0.700591  0.544477  0.504598  1
  H  H49  1  0.041594  0.662692  0.032047  1
  H  H50  1  0.969360  0.289418  0.688671  1
  H  H51  1  0.958406  0.337308  0.967953  1
  H  H52  1  0.030640  0.710582  0.311329  1
  H  H53  1  0.924093  0.364900  0.593187  1
  H  H54  1  0.924279  0.459639  0.690548  1
  H  H55  1  0.075907  0.635100  0.406813  1
  H  H56  1  0.034625  0.616800  0.872501  1
  H  H57  1  0.674681  0.484723  0.070071  1
  H  H58  1  0.424093  0.864900  0.906813  1
  H  H59  1  0.392137  0.152150  0.954006  1
  H  H60  1  0.465375  0.883200  0.372501  1
  H  H61  1  0.627547  0.948632  0.852804  1
  H  H62  1  0.872453  0.551368  0.352804  1
  H  H63  1  0.993308  0.885992  0.636291  1
  N  N64  1  0.485145  0.890768  0.844472  1
  N  N65  1  0.514855  0.109232  0.155528  1
  N  N66  1  0.985145  0.390768  0.655528  1
  N  N67  1  0.014855  0.609232  0.344472  1
  O  O68  1  0.356216  0.584124  0.591347  1
  O  O69  1  0.433842  0.590201  0.785203  1
  O  O70  1  0.143784  0.915876  0.091347  1
  O  O71  1  0.873227  0.293683  0.482534  1
  O  O72  1  0.373227  0.793683  0.017466  1
  O  O73  1  0.251877  0.120262  0.948458  1
  O  O74  1  0.643784  0.415876  0.408653  1
  O  O75  1  0.952372  0.136889  0.175003  1
  O  O76  1  0.933842  0.090201  0.714797  1
  O  O77  1  0.066158  0.909799  0.285203  1
  O  O78  1  0.547628  0.363111  0.675003  1
  O  O79  1  0.146237  0.387758  0.255845  1
  O  O80  1  0.126773  0.706317  0.517466  1
  O  O81  1  0.748123  0.879738  0.051542  1
  O  O82  1  0.669683  0.834760  0.680523  1
  O  O83  1  0.169683  0.334760  0.819477  1
  O  O84  1  0.248123  0.379738  0.448458  1
  O  O85  1  0.751877  0.620262  0.551542  1
  O  O86  1  0.626773  0.206317  0.982534  1
  O  O87  1  0.330317  0.165240  0.319477  1
  O  O88  1  0.353763  0.112242  0.755845  1
  O  O89  1  0.646237  0.887758  0.244155  1
  O  O90  1  0.830317  0.665240  0.180523  1
  O  O91  1  0.047628  0.863111  0.824997  1
  O  O92  1  0.853763  0.612242  0.744155  1
  O  O93  1  0.856216  0.084124  0.908653  1
  O  O94  1  0.452372  0.636889  0.324997  1
  O  O95  1  0.566158  0.409799  0.214797  1
