# generated using pymatgen
data_CsFeSiO4
_symmetry_space_group_name_H-M   'P 1'
_cell_length_a   9.88582700
_cell_length_b   5.64056689
_cell_length_c   9.16655095
_cell_angle_alpha   90.00000000
_cell_angle_beta   90.00000000
_cell_angle_gamma   90.00000000
_symmetry_Int_Tables_number   1
_chemical_formula_structural   CsFeSiO4
_chemical_formula_sum   'Cs4 Fe4 Si4 O16'
_cell_volume   511.14217496
_cell_formula_units_Z   4
loop_
 _symmetry_equiv_pos_site_id
 _symmetry_equiv_pos_as_xyz
  1  'x, y, z'
loop_
 _atom_site_type_symbol
 _atom_site_label
 _atom_site_symmetry_multiplicity
 _atom_site_fract_x
 _atom_site_fract_y
 _atom_site_fract_z
 _atom_site_occupancy
  Cs  Cs0  1  0.300188  0.494716  0.000624  1
  Cs  Cs1  1  0.699812  0.994716  0.999376  1
  Cs  Cs2  1  0.800188  0.994716  0.499376  1
  Cs  Cs3  1  0.199812  0.494716  0.500624  1
  Fe  Fe4  1  0.085211  0.978183  0.819505  1
  Fe  Fe5  1  0.914789  0.478183  0.180495  1
  Fe  Fe6  1  0.585211  0.478183  0.680495  1
  Fe  Fe7  1  0.414789  0.978183  0.319505  1
  Si  Si8  1  0.418311  0.980627  0.700753  1
  Si  Si9  1  0.581689  0.480627  0.299247  1
  Si  Si10  1  0.918311  0.480627  0.799247  1
  Si  Si11  1  0.081689  0.980627  0.200753  1
  O  O12  1  0.412865  0.990908  0.522379  1
  O  O13  1  0.587135  0.490908  0.477621  1
  O  O14  1  0.912865  0.490908  0.977621  1
  O  O15  1  0.087135  0.990908  0.022379  1
  O  O16  1  0.517290  0.764672  0.758196  1
  O  O17  1  0.482710  0.264672  0.241804  1
  O  O18  1  0.017290  0.264672  0.741804  1
  O  O19  1  0.982710  0.764672  0.258196  1
  O  O20  1  0.478377  0.232516  0.765059  1
  O  O21  1  0.521623  0.732516  0.234941  1
  O  O22  1  0.978377  0.732516  0.734941  1
  O  O23  1  0.021623  0.232516  0.265059  1
  O  O24  1  0.265885  0.930377  0.763844  1
  O  O25  1  0.734115  0.430377  0.236156  1
  O  O26  1  0.765885  0.430377  0.736156  1
  O  O27  1  0.234115  0.930377  0.263844  1
