# generated using pymatgen
data_Zr23S32
_symmetry_space_group_name_H-M   'P 1'
_cell_length_a   7.32841299
_cell_length_b   7.30653867
_cell_length_c   29.37432152
_cell_angle_alpha   119.81393232
_cell_angle_beta   120.04608893
_cell_angle_gamma   90.16660921
_symmetry_Int_Tables_number   1
_chemical_formula_structural   Zr23S32
_chemical_formula_sum   'Zr23 S32'
_cell_volume   1112.90549419
_cell_formula_units_Z   1
loop_
 _symmetry_equiv_pos_site_id
 _symmetry_equiv_pos_as_xyz
  1  'x, y, z'
loop_
 _atom_site_type_symbol
 _atom_site_label
 _atom_site_symmetry_multiplicity
 _atom_site_fract_x
 _atom_site_fract_y
 _atom_site_fract_z
 _atom_site_occupancy
  Zr  Zr0  1  0.000903  0.000335  0.875075  1
  Zr  Zr1  1  0.004336  0.504740  0.750360  1
  Zr  Zr2  1  0.497838  0.497522  0.874511  1
  Zr  Zr3  1  0.496523  0.997898  0.873631  1
  Zr  Zr4  1  0.997550  0.001898  0.500137  1
  Zr  Zr5  1  0.495339  0.998178  0.750236  1
  Zr  Zr6  1  0.496467  0.497744  0.624306  1
  Zr  Zr7  1  0.495153  0.994480  0.622534  1
  Zr  Zr8  1  0.499311  0.496146  0.498318  1
  Zr  Zr9  1  0.999130  0.991510  0.249026  1
  Zr  Zr10  1  0.999684  0.000889  0.750380  1
  Zr  Zr11  1  0.501297  0.500575  0.375743  1
  Zr  Zr12  1  0.498612  0.004025  0.375432  1
  Zr  Zr13  1  0.999300  0.999613  0.623772  1
  Zr  Zr14  1  0.006661  0.507648  0.001527  1
  Zr  Zr15  1  0.010424  0.001117  0.001197  1
  Zr  Zr16  1  0.496959  0.997663  0.249362  1
  Zr  Zr17  1  0.499585  0.498994  0.124996  1
  Zr  Zr18  1  0.004619  0.500493  0.376633  1
  Zr  Zr19  1  0.001602  0.002889  0.375029  1
  Zr  Zr20  1  0.999361  0.503422  0.249160  1
  Zr  Zr21  1  0.496508  0.998485  0.001722  1
  Zr  Zr22  1  0.003743  0.506637  0.127661  1
  S  S23  1  0.248822  0.748121  0.999359  1
  S  S24  1  0.240777  0.739755  0.875628  1
  S  S25  1  0.247338  0.256626  0.875995  1
  S  S26  1  0.250893  0.742297  0.748280  1
  S  S27  1  0.257954  0.258864  0.749235  1
  S  S28  1  0.241471  0.741677  0.623105  1
  S  S29  1  0.748871  0.744570  0.873621  1
  S  S30  1  0.250364  0.259469  0.627381  1
  S  S31  1  0.761534  0.261691  0.875491  1
  S  S32  1  0.739474  0.740317  0.750026  1
  S  S33  1  0.745675  0.252610  0.749561  1
  S  S34  1  0.249518  0.751782  0.500381  1
  S  S35  1  0.249098  0.249119  0.499794  1
  S  S36  1  0.259725  0.759234  0.380137  1
  S  S37  1  0.760585  0.739563  0.625123  1
  S  S38  1  0.248169  0.249248  0.373990  1
  S  S39  1  0.750467  0.251251  0.623266  1
  S  S40  1  0.751605  0.751700  0.500556  1
  S  S41  1  0.747527  0.246441  0.498522  1
  S  S42  1  0.261810  0.738346  0.249830  1
  S  S43  1  0.251189  0.252030  0.248808  1
  S  S44  1  0.249845  0.761254  0.124692  1
  S  S45  1  0.738590  0.740088  0.369567  1
  S  S46  1  0.245052  0.252748  0.123891  1
  S  S47  1  0.760701  0.262048  0.380267  1
  S  S48  1  0.736445  0.737448  0.249352  1
  S  S49  1  0.746006  0.252020  0.249344  1
  S  S50  1  0.262805  0.262018  0.000598  1
  S  S51  1  0.754686  0.752066  0.127159  1
  S  S52  1  0.749137  0.237094  0.124822  1
  S  S53  1  0.749211  0.748348  0.001111  1
  S  S54  1  0.743753  0.257252  0.000360  1
