# generated using pymatgen
data_Ca31Sn20
_symmetry_space_group_name_H-M   'P 1'
_cell_length_a   12.57176169
_cell_length_b   12.57176130
_cell_length_c   21.98826817
_cell_angle_alpha   106.61111653
_cell_angle_beta   106.61111603
_cell_angle_gamma   90.00000071
_symmetry_Int_Tables_number   1
_chemical_formula_structural   Ca31Sn20
_chemical_formula_sum   'Ca62 Sn40'
_cell_volume   3178.55480747
_cell_formula_units_Z   2
loop_
 _symmetry_equiv_pos_site_id
 _symmetry_equiv_pos_as_xyz
  1  'x, y, z'
loop_
 _atom_site_type_symbol
 _atom_site_label
 _atom_site_symmetry_multiplicity
 _atom_site_fract_x
 _atom_site_fract_y
 _atom_site_fract_z
 _atom_site_occupancy
  Ca  Ca0  1  0.349806  0.058896  0.274114  1
  Ca  Ca1  1  0.574582  0.702326  0.575561  1
  Ca  Ca2  1  0.164000  0.664000  0.327999  1
  Ca  Ca3  1  0.573515  0.073515  0.147030  1
  Ca  Ca4  1  0.664000  0.164000  0.327999  1
  Ca  Ca5  1  0.926485  0.426485  0.852970  1
  Ca  Ca6  1  0.297674  0.999020  0.424439  1
  Ca  Ca7  1  0.501150  0.657684  0.894322  1
  Ca  Ca8  1  0.393172  0.236638  0.894322  1
  Ca  Ca9  1  0.425418  0.297674  0.424439  1
  Ca  Ca10  1  0.763362  0.498850  0.105678  1
  Ca  Ca11  1  0.106828  0.842316  0.105678  1
  Ca  Ca12  1  0.498850  0.342316  0.105678  1
  Ca  Ca13  1  0.202326  0.074582  0.575561  1
  Ca  Ca14  1  0.575692  0.441104  0.725886  1
  Ca  Ca15  1  0.663164  0.163164  0.000000  1
  Ca  Ca16  1  0.797674  0.925418  0.424439  1
  Ca  Ca17  1  0.000979  0.873236  0.575561  1
  Ca  Ca18  1  0.058896  0.924308  0.274114  1
  Ca  Ca19  1  0.284783  0.575692  0.725886  1
  Ca  Ca20  1  0.373236  0.500980  0.575561  1
  Ca  Ca21  1  0.702326  0.000979  0.575561  1
  Ca  Ca22  1  0.336000  0.836000  0.672001  1
  Ca  Ca23  1  0.336836  0.836836  1.000000  1
  Ca  Ca24  1  0.626764  0.499020  0.424439  1
  Ca  Ca25  1  0.001150  0.736638  0.894322  1
  Ca  Ca26  1  0.849806  0.715217  0.274114  1
  Ca  Ca27  1  0.657684  0.393172  0.894322  1
  Ca  Ca28  1  0.126764  0.425418  0.424439  1
  Ca  Ca29  1  0.925418  0.626764  0.424439  1
  Ca  Ca30  1  0.250000  0.750000  0.500000  1
  Ca  Ca31  1  0.924308  0.215217  0.274114  1
  Ca  Ca32  1  0.736638  0.893172  0.894322  1
  Ca  Ca33  1  0.998850  0.263362  0.105678  1
  Ca  Ca34  1  0.073515  0.573515  0.147030  1
  Ca  Ca35  1  0.157684  0.001150  0.894322  1
  Ca  Ca36  1  0.500980  0.202326  0.575561  1
  Ca  Ca37  1  0.150194  0.284783  0.725886  1
  Ca  Ca38  1  0.075692  0.784783  0.725886  1
  Ca  Ca39  1  0.873236  0.574582  0.575561  1
  Ca  Ca40  1  0.836000  0.336000  0.672001  1
  Ca  Ca41  1  0.074582  0.373236  0.575561  1
  Ca  Ca42  1  0.342316  0.606828  0.105678  1
  Ca  Ca43  1  0.215217  0.349806  0.274114  1
  Ca  Ca44  1  0.893172  0.157684  0.894322  1
  Ca  Ca45  1  0.236638  0.501150  0.894322  1
  Ca  Ca46  1  0.750000  0.250000  0.500000  1
  Ca  Ca47  1  0.784783  0.650194  0.725886  1
  Ca  Ca48  1  0.163164  0.336836  0.000000  1
  Ca  Ca49  1  0.558896  0.849806  0.274114  1
  Ca  Ca50  1  0.842316  0.998850  0.105678  1
  Ca  Ca51  1  0.424308  0.558896  0.274114  1
  Ca  Ca52  1  0.441104  0.150194  0.725886  1
  Ca  Ca53  1  0.426485  0.926485  0.852970  1
  Ca  Ca54  1  0.263362  0.106828  0.105678  1
  Ca  Ca55  1  0.941104  0.075692  0.725886  1
  Ca  Ca56  1  0.606828  0.763362  0.105678  1
  Ca  Ca57  1  0.715217  0.424308  0.274114  1
  Ca  Ca58  1  0.650194  0.941104  0.725886  1
  Ca  Ca59  1  0.999020  0.126764  0.424439  1
  Ca  Ca60  1  0.499020  0.797674  0.424439  1
  Ca  Ca61  1  0.836836  0.663164  1.000000  1
  Sn  Sn62  1  0.124194  0.226886  0.851080  1
  Sn  Sn63  1  0.055432  0.862748  0.418180  1
  Sn  Sn64  1  0.827017  0.827017  0.654034  1
  Sn  Sn65  1  0.327017  0.327017  0.654034  1
  Sn  Sn66  1  0.375806  0.875806  0.148920  1
  Sn  Sn67  1  0.783953  0.962997  0.246949  1
  Sn  Sn68  1  0.962997  0.462997  0.246949  1
  Sn  Sn69  1  0.362748  0.555432  0.418180  1
  Sn  Sn70  1  0.911923  0.411923  0.000000  1
  Sn  Sn71  1  0.444568  0.944568  0.581820  1
  Sn  Sn72  1  0.404912  0.404912  0.809824  1
  Sn  Sn73  1  0.411923  0.088077  0.000000  1
  Sn  Sn74  1  0.226886  0.726886  0.851080  1
  Sn  Sn75  1  0.716047  0.216047  0.753051  1
  Sn  Sn76  1  0.137252  0.637252  0.581820  1
  Sn  Sn77  1  0.095088  0.095088  0.190176  1
  Sn  Sn78  1  0.773114  0.273114  0.148920  1
  Sn  Sn79  1  0.862748  0.362748  0.418180  1
  Sn  Sn80  1  0.726886  0.624194  0.851080  1
  Sn  Sn81  1  0.000000  0.000000  0.000000  1
  Sn  Sn82  1  0.637252  0.444568  0.581820  1
  Sn  Sn83  1  0.875806  0.773114  0.148920  1
  Sn  Sn84  1  0.904912  0.904912  0.809824  1
  Sn  Sn85  1  0.595088  0.595088  0.190176  1
  Sn  Sn86  1  0.624194  0.124194  0.851080  1
  Sn  Sn87  1  0.750000  0.750000  0.500000  1
  Sn  Sn88  1  0.037003  0.537003  0.753051  1
  Sn  Sn89  1  0.462997  0.283953  0.246949  1
  Sn  Sn90  1  0.537003  0.716047  0.753051  1
  Sn  Sn91  1  0.273114  0.375806  0.148920  1
  Sn  Sn92  1  0.172983  0.172983  0.345966  1
  Sn  Sn93  1  0.588077  0.911923  0.000000  1
  Sn  Sn94  1  0.555432  0.055432  0.418180  1
  Sn  Sn95  1  0.500000  0.500000  0.000000  1
  Sn  Sn96  1  0.088077  0.588077  0.000000  1
  Sn  Sn97  1  0.283953  0.783953  0.246949  1
  Sn  Sn98  1  0.944568  0.137252  0.581820  1
  Sn  Sn99  1  0.672983  0.672983  0.345966  1
  Sn  Sn100  1  0.250000  0.250000  0.500000  1
  Sn  Sn101  1  0.216047  0.037003  0.753051  1
