# generated using pymatgen
data_Sr6Ta2O11
_symmetry_space_group_name_H-M   'P 1'
_cell_length_a   12.11623546
_cell_length_b   12.10135008
_cell_length_c   14.82721880
_cell_angle_alpha   35.29678153
_cell_angle_beta   35.19784721
_cell_angle_gamma   59.95907168
_symmetry_Int_Tables_number   1
_chemical_formula_structural   Sr6Ta2O11
_chemical_formula_sum   'Sr12 Ta4 O22'
_cell_volume   627.29946822
_cell_formula_units_Z   2
loop_
 _symmetry_equiv_pos_site_id
 _symmetry_equiv_pos_as_xyz
  1  'x, y, z'
loop_
 _atom_site_type_symbol
 _atom_site_label
 _atom_site_symmetry_multiplicity
 _atom_site_fract_x
 _atom_site_fract_y
 _atom_site_fract_z
 _atom_site_occupancy
  Sr  Sr0  1  0.027932  0.501271  0.221429  1
  Sr  Sr1  1  0.970193  -0.000020  0.529810  1
  Sr  Sr2  1  0.000031  0.500031  0.499963  1
  Sr  Sr3  1  0.973284  -0.000027  0.277365  1
  Sr  Sr4  1  0.529806  0.000018  0.470191  1
  Sr  Sr5  1  0.526642  0.498711  0.223978  1
  Sr  Sr6  1  0.973354  0.501290  0.776026  1
  Sr  Sr7  1  0.499969  0.499969  0.500037  1
  Sr  Sr8  1  0.027900  -0.000031  0.722749  1
  Sr  Sr9  1  0.472100  0.000026  0.277254  1
  Sr  Sr10  1  0.472070  0.498726  0.778571  1
  Sr  Sr11  1  0.526714  0.000022  0.722639  1
  Ta  Ta12  1  0.972604  0.000004  0.027381  1
  Ta  Ta13  1  0.000010  0.500017  -0.000009  1
  Ta  Ta14  1  0.527397  -0.000003  0.972617  1
  Ta  Ta15  1  0.499987  0.499981  0.000013  1
  O  O16  1  0.007771  0.265369  0.226859  1
  O  O17  1  0.273116  0.265347  0.226894  1
  O  O18  1  0.271780  0.500002  0.228234  1
  O  O19  1  0.492269  0.265427  0.242354  1
  O  O20  1  0.383124  0.782310  0.116857  1
  O  O21  1  0.196406  0.000005  0.803582  1
  O  O22  1  0.303594  -0.000003  0.196417  1
  O  O23  1  0.116881  0.217692  0.883138  1
  O  O24  1  0.600794  0.782244  0.116941  1
  O  O25  1  0.757563  0.265320  0.242508  1
  O  O26  1  0.007732  0.734574  0.757645  1
  O  O27  1  0.228221  0.499999  0.771765  1
  O  O28  1  0.771808  0.500057  0.228192  1
  O  O29  1  0.226884  0.734653  0.773106  1
  O  O30  1  0.681474  0.782306  0.318490  1
  O  O31  1  0.600855  0.217778  0.681436  1
  O  O32  1  0.818527  0.217695  0.681509  1
  O  O33  1  0.899144  0.782223  0.318564  1
  O  O34  1  0.492228  0.734632  0.773143  1
  O  O35  1  0.728192  0.499946  0.771804  1
  O  O36  1  0.742438  0.734680  0.757490  1
  O  O37  1  0.899205  0.217757  0.883059  1
