# generated using pymatgen
data_Cu3B7IO13
_symmetry_space_group_name_H-M   'P 1'
_cell_length_a   8.58449616
_cell_length_b   8.58404192
_cell_length_c   8.58332891
_cell_angle_alpha   60.00578701
_cell_angle_beta   60.00065205
_cell_angle_gamma   59.99225334
_symmetry_Int_Tables_number   1
_chemical_formula_structural   Cu3B7IO13
_chemical_formula_sum   'Cu6 B14 I2 O26'
_cell_volume   447.24252786
_cell_formula_units_Z   2
loop_
 _symmetry_equiv_pos_site_id
 _symmetry_equiv_pos_as_xyz
  1  'x, y, z'
loop_
 _atom_site_type_symbol
 _atom_site_label
 _atom_site_symmetry_multiplicity
 _atom_site_fract_x
 _atom_site_fract_y
 _atom_site_fract_z
 _atom_site_occupancy
  Cu  Cu0  1  0.000002  0.999993  0.500005  1
  Cu  Cu1  1  0.500002  0.999998  0.499999  1
  Cu  Cu2  1  0.499996  0.999997  0.000007  1
  Cu  Cu3  1  1.000000  0.500000  0.499996  1
  Cu  Cu4  1  0.500000  0.500003  0.999999  1
  Cu  Cu5  1  -0.000000  0.500004  0.999996  1
  B  B6  1  0.580507  0.580513  0.258535  1
  B  B7  1  0.080457  0.758549  0.080500  1
  B  B8  1  0.580490  0.258488  0.580519  1
  B  B9  1  0.749985  0.750009  0.249998  1
  B  B10  1  0.249983  0.750020  0.250022  1
  B  B11  1  0.750022  0.249974  0.250016  1
  B  B12  1  0.080514  0.080486  0.758503  1
  B  B13  1  0.580494  0.580511  0.580458  1
  B  B14  1  0.080503  0.080490  0.080507  1
  B  B15  1  0.250018  0.249987  0.749991  1
  B  B16  1  0.750000  0.249976  0.749995  1
  B  B17  1  0.258516  0.580501  0.580481  1
  B  B18  1  0.249991  0.750034  0.749976  1
  B  B19  1  0.758521  0.080463  0.080496  1
  I  I20  1  0.750001  0.750011  0.750005  1
  I  I21  1  0.250000  0.249988  0.249994  1
  O  O22  1  0.758704  0.435633  0.600889  1
  O  O23  1  0.100882  0.704762  0.935627  1
  O  O24  1  0.600873  0.758747  0.435637  1
  O  O25  1  0.258666  0.704801  0.100905  1
  O  O26  1  0.500000  0.500007  0.499995  1
  O  O27  1  0.204690  0.758787  0.600846  1
  O  O28  1  0.258789  0.100840  0.935671  1
  O  O29  1  1.000000  0.999993  0.000005  1
  O  O30  1  0.935645  0.258730  0.100875  1
  O  O31  1  0.758745  0.600872  0.204752  1
  O  O32  1  0.704702  0.935653  0.100841  1
  O  O33  1  0.758786  0.204687  0.435689  1
  O  O34  1  0.100837  0.935683  0.258792  1
  O  O35  1  0.435625  0.600906  0.758665  1
  O  O36  1  0.704748  0.100874  0.258732  1
  O  O37  1  0.100878  0.258714  0.704762  1
  O  O38  1  0.704797  0.258664  0.935640  1
  O  O39  1  0.435650  0.758790  0.204711  1
  O  O40  1  0.600908  0.435634  0.204802  1
  O  O41  1  0.935623  0.704767  0.258721  1
  O  O42  1  0.435664  0.204735  0.600861  1
  O  O43  1  0.935690  0.100841  0.704690  1
  O  O44  1  0.204764  0.600888  0.435634  1
  O  O45  1  0.600843  0.204698  0.758790  1
  O  O46  1  0.258741  0.935646  0.704737  1
  O  O47  1  0.204750  0.435651  0.758728  1
