# generated using pymatgen
data_K2PdN2(ClO2)2
_symmetry_space_group_name_H-M   'P 1'
_cell_length_a   4.22277506
_cell_length_b   7.76403539
_cell_length_c   7.94453716
_cell_angle_alpha   112.02484091
_cell_angle_beta   111.93223421
_cell_angle_gamma   96.23387318
_symmetry_Int_Tables_number   1
_chemical_formula_structural   K2PdN2(ClO2)2
_chemical_formula_sum   'K2 Pd1 N2 Cl2 O4'
_cell_volume   214.41555678
_cell_formula_units_Z   1
loop_
 _symmetry_equiv_pos_site_id
 _symmetry_equiv_pos_as_xyz
  1  'x, y, z'
loop_
 _atom_site_type_symbol
 _atom_site_label
 _atom_site_symmetry_multiplicity
 _atom_site_fract_x
 _atom_site_fract_y
 _atom_site_fract_z
 _atom_site_occupancy
  K  K0  1  0.210343  0.651930  0.310630  1
  K  K1  1  0.786505  0.342133  0.688437  1
  Pd  Pd2  1  0.499756  0.997247  0.999146  1
  N  N3  1  0.981801  0.130932  0.267391  1
  N  N4  1  0.021355  0.864925  0.731592  1
  Cl  Cl5  1  0.496798  0.700290  0.010434  1
  Cl  Cl6  1  0.502361  0.295119  0.991235  1
  O  O7  1  0.113628  0.312098  0.358873  1
  O  O8  1  0.851363  0.964745  0.662399  1
  O  O9  1  0.143727  0.031565  0.341723  1
  O  O10  1  0.900812  0.683191  0.634527  1
