# generated using pymatgen
data_Ce15B8N25
_symmetry_space_group_name_H-M   'P 1'
_cell_length_a   11.04927784
_cell_length_b   11.04927705
_cell_length_c   11.04927731
_cell_angle_alpha   79.23291664
_cell_angle_beta   79.23291691
_cell_angle_gamma   79.23291835
_symmetry_Int_Tables_number   1
_chemical_formula_structural   Ce15B8N25
_chemical_formula_sum   'Ce30 B16 N50'
_cell_volume   1285.65797996
_cell_formula_units_Z   2
loop_
 _symmetry_equiv_pos_site_id
 _symmetry_equiv_pos_as_xyz
  1  'x, y, z'
loop_
 _atom_site_type_symbol
 _atom_site_label
 _atom_site_symmetry_multiplicity
 _atom_site_fract_x
 _atom_site_fract_y
 _atom_site_fract_z
 _atom_site_occupancy
  Ce  Ce0  1  0.415195  0.300116  0.593930  1
  Ce  Ce1  1  0.901391  0.149987  0.427392  1
  Ce  Ce2  1  0.084805  0.906070  0.199884  1
  Ce  Ce3  1  0.406070  0.584805  0.699884  1
  Ce  Ce4  1  0.927392  0.649987  0.401391  1
  Ce  Ce5  1  0.699884  0.406070  0.584805  1
  Ce  Ce6  1  0.250000  0.106077  0.393923  1
  Ce  Ce7  1  0.649987  0.401391  0.927392  1
  Ce  Ce8  1  0.593930  0.415195  0.300116  1
  Ce  Ce9  1  0.393923  0.250000  0.106077  1
  Ce  Ce10  1  0.584805  0.699884  0.406070  1
  Ce  Ce11  1  0.350013  0.598609  0.072608  1
  Ce  Ce12  1  0.606077  0.750000  0.893923  1
  Ce  Ce13  1  0.893923  0.606077  0.750000  1
  Ce  Ce14  1  0.850013  0.572608  0.098609  1
  Ce  Ce15  1  0.072608  0.350013  0.598609  1
  Ce  Ce16  1  0.106077  0.393923  0.250000  1
  Ce  Ce17  1  0.149987  0.427392  0.901391  1
  Ce  Ce18  1  0.598609  0.072608  0.350013  1
  Ce  Ce19  1  0.915195  0.093930  0.800116  1
  Ce  Ce20  1  0.906070  0.199884  0.084805  1
  Ce  Ce21  1  0.800116  0.915195  0.093930  1
  Ce  Ce22  1  0.093930  0.800116  0.915195  1
  Ce  Ce23  1  0.750000  0.893923  0.606077  1
  Ce  Ce24  1  0.572608  0.098609  0.850013  1
  Ce  Ce25  1  0.300116  0.593930  0.415195  1
  Ce  Ce26  1  0.401391  0.927392  0.649987  1
  Ce  Ce27  1  0.098609  0.850013  0.572608  1
  Ce  Ce28  1  0.427392  0.901391  0.149987  1
  Ce  Ce29  1  0.199884  0.084805  0.906070  1
  B  B30  1  0.341957  0.341957  0.341957  1
  B  B31  1  0.353300  0.848312  0.938181  1
  B  B32  1  0.853300  0.438181  0.348312  1
  B  B33  1  0.146700  0.561819  0.651688  1
  B  B34  1  0.348312  0.853300  0.438181  1
  B  B35  1  0.841957  0.841957  0.841957  1
  B  B36  1  0.151688  0.061819  0.646700  1
  B  B37  1  0.658043  0.658043  0.658043  1
  B  B38  1  0.061819  0.646700  0.151688  1
  B  B39  1  0.158043  0.158043  0.158043  1
  B  B40  1  0.438181  0.348312  0.853300  1
  B  B41  1  0.646700  0.151688  0.061819  1
  B  B42  1  0.848312  0.938181  0.353300  1
  B  B43  1  0.938181  0.353300  0.848312  1
  B  B44  1  0.651688  0.146700  0.561819  1
  B  B45  1  0.561819  0.651688  0.146700  1
  N  N46  1  0.556470  0.064322  0.597765  1
  N  N47  1  0.544333  0.347616  0.753242  1
  N  N48  1  0.742417  0.866621  0.369976  1
  N  N49  1  0.253242  0.847616  0.044333  1
  N  N50  1  0.056470  0.097765  0.564322  1
  N  N51  1  0.955667  0.746758  0.152384  1
  N  N52  1  0.470593  0.740911  0.763765  1
  N  N53  1  0.236235  0.529407  0.259089  1
  N  N54  1  0.130024  0.633379  0.757583  1
  N  N55  1  0.133379  0.630024  0.257583  1
  N  N56  1  0.902235  0.435678  0.943530  1
  N  N57  1  0.242417  0.869976  0.366621  1
  N  N58  1  0.044333  0.253242  0.847616  1
  N  N59  1  0.736235  0.759089  0.029407  1
  N  N60  1  0.847616  0.044333  0.253242  1
  N  N61  1  0.630024  0.257583  0.133379  1
  N  N62  1  0.366621  0.242417  0.869976  1
  N  N63  1  0.455667  0.652384  0.246758  1
  N  N64  1  0.564322  0.056470  0.097765  1
  N  N65  1  0.759089  0.029407  0.736235  1
  N  N66  1  0.152384  0.955667  0.746758  1
  N  N67  1  0.740911  0.763765  0.470593  1
  N  N68  1  0.246758  0.455667  0.652384  1
  N  N69  1  0.263765  0.240911  0.970593  1
  N  N70  1  0.000000  0.000000  0.000000  1
  N  N71  1  0.435678  0.943530  0.902235  1
  N  N72  1  0.753242  0.544333  0.347616  1
  N  N73  1  0.970593  0.263765  0.240911  1
  N  N74  1  0.652384  0.246758  0.455667  1
  N  N75  1  0.866621  0.369976  0.742417  1
  N  N76  1  0.763765  0.470593  0.740911  1
  N  N77  1  0.257583  0.133379  0.630024  1
  N  N78  1  0.757583  0.130024  0.633379  1
  N  N79  1  0.064322  0.597765  0.556470  1
  N  N80  1  0.240911  0.970593  0.263765  1
  N  N81  1  0.597765  0.556470  0.064322  1
  N  N82  1  0.935678  0.402235  0.443530  1
  N  N83  1  0.869976  0.366621  0.242417  1
  N  N84  1  0.402235  0.443530  0.935678  1
  N  N85  1  0.633379  0.757583  0.130024  1
  N  N86  1  0.347616  0.753242  0.544333  1
  N  N87  1  0.443530  0.935678  0.402235  1
  N  N88  1  0.500000  0.500000  0.500000  1
  N  N89  1  0.529407  0.259089  0.236235  1
  N  N90  1  0.746758  0.152384  0.955667  1
  N  N91  1  0.097765  0.564322  0.056470  1
  N  N92  1  0.943530  0.902235  0.435678  1
  N  N93  1  0.369976  0.742417  0.866621  1
  N  N94  1  0.029407  0.736235  0.759089  1
  N  N95  1  0.259089  0.236235  0.529407  1
