# generated using pymatgen
data_MgTi3Nb2(PbO3)6
_symmetry_space_group_name_H-M   'P 1'
_cell_length_a   24.15145294
_cell_length_b   5.68833587
_cell_length_c   5.68833586
_cell_angle_alpha   60.00000008
_cell_angle_beta   45.04242046
_cell_angle_gamma   45.04242060
_symmetry_Int_Tables_number   1
_chemical_formula_structural   MgTi3Nb2(PbO3)6
_chemical_formula_sum   'Mg1 Ti3 Nb2 Pb6 O18'
_cell_volume   391.31443018
_cell_formula_units_Z   1
loop_
 _symmetry_equiv_pos_site_id
 _symmetry_equiv_pos_as_xyz
  1  'x, y, z'
loop_
 _atom_site_type_symbol
 _atom_site_label
 _atom_site_symmetry_multiplicity
 _atom_site_fract_x
 _atom_site_fract_y
 _atom_site_fract_z
 _atom_site_occupancy
  Mg  Mg0  1  0.750000  0.500000  0.500000  1
  Ti  Ti1  1  0.087094  0.492478  0.492478  1
  Ti  Ti2  1  0.250000  0.500000  0.500000  1
  Ti  Ti3  1  0.412906  0.507522  0.507522  1
  Nb  Nb4  1  0.586161  0.494344  0.494344  1
  Nb  Nb5  1  0.913839  0.505656  0.505656  1
  Pb  Pb6  1  0.002545  0.994910  0.994910  1
  Pb  Pb7  1  0.169529  0.994276  0.994276  1
  Pb  Pb8  1  0.330471  0.005724  0.005724  1
  Pb  Pb9  1  0.497455  0.005090  0.005090  1
  Pb  Pb10  1  0.665827  0.001681  0.001681  1
  Pb  Pb11  1  0.834173  0.998319  0.998319  1
  O  O12  1  0.168437  0.995746  0.496816  1
  O  O13  1  0.168437  0.496816  0.995746  1
  O  O14  1  0.168437  0.496816  0.496816  1
  O  O15  1  0.331563  0.004254  0.503184  1
  O  O16  1  0.331563  0.503184  0.004254  1
  O  O17  1  0.331563  0.503184  0.503184  1
  O  O18  1  0.495004  0.015754  0.507112  1
  O  O19  1  0.495004  0.507112  0.015754  1
  O  O20  1  0.495004  0.507112  0.507112  1
  O  O21  1  0.662371  0.012671  0.506554  1
  O  O22  1  0.662371  0.506554  0.012671  1
  O  O23  1  0.662371  0.506554  0.506554  1
  O  O24  1  0.837629  0.987329  0.493446  1
  O  O25  1  0.837629  0.493446  0.987329  1
  O  O26  1  0.837629  0.493446  0.493446  1
  O  O27  1  0.004996  0.984246  0.492888  1
  O  O28  1  0.004996  0.492888  0.984246  1
  O  O29  1  0.004996  0.492888  0.492888  1
