# generated using pymatgen
data_K2MgH8(SO6)2
_symmetry_space_group_name_H-M   'P 1'
_cell_length_a   12.99452090
_cell_length_b   12.12568788
_cell_length_c   12.99452090
_cell_angle_alpha   123.67634299
_cell_angle_beta   136.38481588
_cell_angle_gamma   75.00628175
_symmetry_Int_Tables_number   1
_chemical_formula_structural   K2MgH8(SO6)2
_chemical_formula_sum   'K8 Mg4 H32 S8 O48'
_cell_volume   1138.45882988
_cell_formula_units_Z   4
loop_
 _symmetry_equiv_pos_site_id
 _symmetry_equiv_pos_as_xyz
  1  'x, y, z'
loop_
 _atom_site_type_symbol
 _atom_site_label
 _atom_site_symmetry_multiplicity
 _atom_site_fract_x
 _atom_site_fract_y
 _atom_site_fract_z
 _atom_site_occupancy
  K  K0  1  0.639000  0.540026  0.435156  1
  K  K1  1  0.604870  0.040026  0.901026  1
  K  K2  1  0.361000  0.459974  0.564844  1
  K  K3  1  0.395130  0.959974  0.098974  1
  K  K4  1  0.860860  0.952494  0.570944  1
  K  K5  1  0.881550  0.452494  0.091634  1
  K  K6  1  0.139140  0.047506  0.429056  1
  K  K7  1  0.118450  0.547506  0.908366  1
  Mg  Mg8  1  0.248606  0.250000  0.998606  1
  Mg  Mg9  1  0.751394  0.750000  0.001394  1
  Mg  Mg10  1  0.500000  0.000000  0.500000  1
  Mg  Mg11  1  0.000000  0.500000  0.500000  1
  H  H12  1  0.715625  0.365065  0.187566  1
  H  H13  1  0.677499  0.865065  0.649440  1
  H  H14  1  0.284375  0.634935  0.812434  1
  H  H15  1  0.322501  0.134935  0.350560  1
  H  H16  1  0.753307  0.300920  0.285739  1
  H  H17  1  0.515182  0.800920  0.547613  1
  H  H18  1  0.246693  0.699080  0.714261  1
  H  H19  1  0.484818  0.199080  0.452387  1
  H  H20  1  0.192388  0.371323  0.670132  1
  H  H21  1  0.201191  0.871323  0.178935  1
  H  H22  1  0.807612  0.628677  0.329868  1
  H  H23  1  0.798809  0.128677  0.821065  1
  H  H24  1  0.024178  0.303336  0.554141  1
  H  H25  1  0.249195  0.803336  0.279158  1
  H  H26  1  0.975822  0.696664  0.445859  1
  H  H27  1  0.750805  0.196664  0.720842  1
  H  H28  1  0.547534  0.212729  0.221171  1
  H  H29  1  0.491558  0.712729  0.665195  1
  H  H30  1  0.452466  0.787271  0.778829  1
  H  H31  1  0.508442  0.287271  0.334805  1
  H  H32  1  0.988611  0.211826  0.662417  1
  H  H33  1  0.049409  0.711826  0.223215  1
  H  H34  1  0.011389  0.788174  0.337583  1
  H  H35  1  0.950591  0.288174  0.776785  1
  H  H36  1  0.360290  0.306657  0.901335  1
  H  H37  1  0.905322  0.806657  0.946367  1
  H  H38  1  0.639710  0.693343  0.098665  1
  H  H39  1  0.094678  0.193343  0.053633  1
  H  H40  1  0.394245  0.440913  0.061741  1
  H  H41  1  0.879171  0.940913  0.046668  1
  H  H42  1  0.605755  0.559087  0.938259  1
  H  H43  1  0.120829  0.059087  0.953332  1
  S  S44  1  0.772895  0.067274  0.294907  1
  S  S45  1  0.272367  0.567274  0.294380  1
  S  S46  1  0.227105  0.932726  0.705093  1
  S  S47  1  0.727633  0.432726  0.705620  1
  S  S48  1  0.500879  0.280565  0.800449  1
  S  S49  1  0.980116  0.780565  0.779686  1
  S  S50  1  0.499121  0.719435  0.199551  1
  S  S51  1  0.019884  0.219435  0.220314  1
  O  O52  1  0.565163  0.348831  0.528293  1
  O  O53  1  0.320538  0.848831  0.783668  1
  O  O54  1  0.434837  0.651169  0.471707  1
  O  O55  1  0.679462  0.151169  0.216332  1
  O  O56  1  0.934948  0.153174  0.470768  1
  O  O57  1  0.182406  0.653174  0.218226  1
  O  O58  1  0.065051  0.846826  0.529232  1
  O  O59  1  0.817594  0.346826  0.781774  1
  O  O60  1  0.357964  0.297723  0.758520  1
  O  O61  1  0.039204  0.797723  0.939759  1
  O  O62  1  0.642036  0.702277  0.241480  1
  O  O63  1  0.960796  0.202277  0.060241  1
  O  O64  1  0.631606  0.304778  0.981701  1
  O  O65  1  0.823077  0.804778  0.673172  1
  O  O66  1  0.368394  0.695222  0.018299  1
  O  O67  1  0.176923  0.195222  0.326828  1
  O  O68  1  0.223160  0.050798  0.830760  1
  O  O69  1  0.720039  0.550798  0.827638  1
  O  O70  1  0.776840  0.949202  0.169240  1
  O  O71  1  0.279961  0.449202  0.172362  1
  O  O72  1  0.704992  0.021603  0.323223  1
  O  O73  1  0.198380  0.521603  0.316611  1
  O  O74  1  0.295008  0.978397  0.676777  1
  O  O75  1  0.801620  0.478397  0.683389  1
  O  O76  1  0.531519  0.864061  0.335353  1
  O  O77  1  0.028708  0.364061  0.332542  1
  O  O78  1  0.468481  0.135939  0.664647  1
  O  O79  1  0.971292  0.635939  0.667458  1
  O  O80  1  0.083765  0.877208  0.833755  1
  O  O81  1  0.543453  0.377208  0.793443  1
  O  O82  1  0.916235  0.122792  0.166245  1
  O  O83  1  0.456547  0.622792  0.206557  1
  O  O84  1  0.772646  0.389563  0.307403  1
  O  O85  1  0.582160  0.889563  0.616917  1
  O  O86  1  0.227354  0.610437  0.692597  1
  O  O87  1  0.417840  0.110437  0.383083  1
  O  O88  1  0.091059  0.390542  0.620006  1
  O  O89  1  0.270537  0.890542  0.299483  1
  O  O90  1  0.908941  0.609458  0.379994  1
  O  O91  1  0.729463  0.109458  0.700517  1
  O  O92  1  0.467855  0.250000  0.217855  1
  O  O93  1  0.532145  0.750000  0.782145  1
  O  O94  1  0.029999  0.250000  0.779999  1
  O  O95  1  0.970001  0.750000  0.220001  1
  O  O96  1  0.356353  0.340037  0.987218  1
  O  O97  1  0.852819  0.840037  0.983683  1
  O  O98  1  0.643647  0.659963  0.012782  1
  O  O99  1  0.147181  0.159963  0.016317  1
