# generated using pymatgen
data_SrCuH4(CO2)4
_symmetry_space_group_name_H-M   'P 1'
_cell_length_a   7.38607285
_cell_length_b   7.29369458
_cell_length_c   9.19971025
_cell_angle_alpha   90.00000000
_cell_angle_beta   90.00000000
_cell_angle_gamma   91.94567763
_symmetry_Int_Tables_number   1
_chemical_formula_structural   SrCuH4(CO2)4
_chemical_formula_sum   'Sr2 Cu2 H8 C8 O16'
_cell_volume   495.31884595
_cell_formula_units_Z   2
loop_
 _symmetry_equiv_pos_site_id
 _symmetry_equiv_pos_as_xyz
  1  'x, y, z'
loop_
 _atom_site_type_symbol
 _atom_site_label
 _atom_site_symmetry_multiplicity
 _atom_site_fract_x
 _atom_site_fract_y
 _atom_site_fract_z
 _atom_site_occupancy
  Sr  Sr0  1  0.750000  0.000000  0.824683  1
  Sr  Sr1  1  0.250000  0.000000  0.175317  1
  Cu  Cu2  1  0.250000  0.500000  0.387573  1
  Cu  Cu3  1  0.750000  0.500000  0.612427  1
  H  H4  1  0.515805  0.606215  0.155935  1
  H  H5  1  0.371966  0.277115  0.574738  1
  H  H6  1  0.984195  0.393785  0.155935  1
  H  H7  1  0.015805  0.606215  0.844065  1
  H  H8  1  0.628034  0.722885  0.425262  1
  H  H9  1  0.484195  0.393785  0.844065  1
  H  H10  1  0.128034  0.722885  0.574738  1
  H  H11  1  0.871966  0.277115  0.425262  1
  C  C12  1  0.267577  0.692553  0.541649  1
  C  C13  1  0.232423  0.307447  0.541649  1
  C  C14  1  0.897141  0.795795  0.372513  1
  C  C15  1  0.397141  0.795795  0.627487  1
  C  C16  1  0.602859  0.204205  0.372513  1
  C  C17  1  0.732423  0.307447  0.458351  1
  C  C18  1  0.102859  0.204205  0.627487  1
  C  C19  1  0.767577  0.692553  0.458351  1
  O  O20  1  0.416972  0.674780  0.112627  1
  O  O21  1  0.916972  0.674780  0.887373  1
  O  O22  1  0.083028  0.325220  0.112627  1
  O  O23  1  0.016631  0.061927  0.655651  1
  O  O24  1  0.983369  0.938073  0.344349  1
  O  O25  1  0.880238  0.636824  0.304160  1
  O  O26  1  0.790025  0.692208  0.759926  1
  O  O27  1  0.583028  0.325220  0.887373  1
  O  O28  1  0.516631  0.061927  0.344349  1
  O  O29  1  0.483369  0.938073  0.655651  1
  O  O30  1  0.619762  0.363176  0.304160  1
  O  O31  1  0.290025  0.692208  0.240074  1
  O  O32  1  0.380238  0.636824  0.695840  1
  O  O33  1  0.209975  0.307792  0.240074  1
  O  O34  1  0.119762  0.363176  0.695840  1
  O  O35  1  0.709975  0.307792  0.759926  1
