# generated using pymatgen
data_TcC4IO4
_symmetry_space_group_name_H-M   'P 1'
_cell_length_a   10.16054089
_cell_length_b   12.44377723
_cell_length_c   13.31951363
_cell_angle_alpha   90.00000000
_cell_angle_beta   107.98488581
_cell_angle_gamma   90.00000000
_symmetry_Int_Tables_number   1
_chemical_formula_structural   TcC4IO4
_chemical_formula_sum   'Tc8 C32 I8 O32'
_cell_volume   1601.77295039
_cell_formula_units_Z   8
loop_
 _symmetry_equiv_pos_site_id
 _symmetry_equiv_pos_as_xyz
  1  'x, y, z'
loop_
 _atom_site_type_symbol
 _atom_site_label
 _atom_site_symmetry_multiplicity
 _atom_site_fract_x
 _atom_site_fract_y
 _atom_site_fract_z
 _atom_site_occupancy
  Tc  Tc0  1  0.831753  0.869309  0.289461  1
  Tc  Tc1  1  0.168247  0.130691  0.710539  1
  Tc  Tc2  1  0.393561  0.629170  0.683889  1
  Tc  Tc3  1  0.606439  0.370830  0.316111  1
  Tc  Tc4  1  0.831753  0.630691  0.789461  1
  Tc  Tc5  1  0.393561  0.870830  0.183889  1
  Tc  Tc6  1  0.168247  0.369309  0.210539  1
  Tc  Tc7  1  0.606439  0.129170  0.816111  1
  C  C8  1  0.027858  0.041284  0.737209  1
  C  C9  1  0.820018  0.534275  0.907080  1
  C  C10  1  0.820018  0.965725  0.407080  1
  C  C11  1  0.402949  0.536377  0.809531  1
  C  C12  1  0.597051  0.036377  0.690469  1
  C  C13  1  0.030694  0.281573  0.113313  1
  C  C14  1  0.169734  0.272747  0.331775  1
  C  C15  1  0.251499  0.714604  0.710583  1
  C  C16  1  0.606196  0.274935  0.437299  1
  C  C17  1  0.179982  0.465725  0.092920  1
  C  C18  1  0.746016  0.039163  0.907728  1
  C  C19  1  0.027858  0.458716  0.237209  1
  C  C20  1  0.972142  0.958716  0.262791  1
  C  C21  1  0.393804  0.725065  0.562701  1
  C  C22  1  0.393804  0.774935  0.062701  1
  C  C23  1  0.969306  0.718427  0.886687  1
  C  C24  1  0.969306  0.781573  0.386687  1
  C  C25  1  0.972142  0.541284  0.762791  1
  C  C26  1  0.746016  0.460837  0.407728  1
  C  C27  1  0.179982  0.034275  0.592920  1
  C  C28  1  0.253983  0.960837  0.092272  1
  C  C29  1  0.606196  0.225065  0.937299  1
  C  C30  1  0.830266  0.727253  0.668225  1
  C  C31  1  0.402949  0.963623  0.309531  1
  C  C32  1  0.748501  0.214604  0.789417  1
  C  C33  1  0.253983  0.539163  0.592272  1
  C  C34  1  0.830266  0.772747  0.168225  1
  C  C35  1  0.169734  0.227253  0.831775  1
  C  C36  1  0.030694  0.218427  0.613313  1
  C  C37  1  0.748501  0.285396  0.289417  1
  C  C38  1  0.597051  0.463623  0.190469  1
  C  C39  1  0.251499  0.785396  0.210583  1
  I  I40  1  0.612647  0.754813  0.820980  1
  I  I41  1  0.384149  0.008045  0.849429  1
  I  I42  1  0.387353  0.245187  0.179020  1
  I  I43  1  0.384149  0.491955  0.349429  1
  I  I44  1  0.615851  0.508045  0.650571  1
  I  I45  1  0.615851  0.991955  0.150571  1
  I  I46  1  0.387353  0.254813  0.679020  1
  I  I47  1  0.612647  0.745187  0.320980  1
  O  O48  1  0.608834  0.218240  0.506368  1
  O  O49  1  0.058071  0.487293  0.748145  1
  O  O50  1  0.836845  0.265086  0.773795  1
  O  O51  1  0.831424  0.782483  0.598975  1
  O  O52  1  0.941929  0.512707  0.251855  1
  O  O53  1  0.814498  0.477440  0.974450  1
  O  O54  1  0.058071  0.012707  0.248145  1
  O  O55  1  0.946119  0.269940  0.553947  1
  O  O56  1  0.836845  0.234914  0.273795  1
  O  O57  1  0.831747  0.986240  0.964147  1
  O  O58  1  0.391166  0.781760  0.493632  1
  O  O59  1  0.814498  0.022560  0.474450  1
  O  O60  1  0.391166  0.718240  0.993632  1
  O  O61  1  0.053881  0.730060  0.446053  1
  O  O62  1  0.163155  0.734914  0.226205  1
  O  O63  1  0.593930  0.984602  0.617900  1
  O  O64  1  0.168576  0.282483  0.901025  1
  O  O65  1  0.593930  0.515398  0.117900  1
  O  O66  1  0.185502  0.522560  0.025550  1
  O  O67  1  0.831747  0.513760  0.464147  1
  O  O68  1  0.946119  0.230060  0.053947  1
  O  O69  1  0.168253  0.486240  0.535853  1
  O  O70  1  0.406070  0.015398  0.382100  1
  O  O71  1  0.163155  0.765086  0.726205  1
  O  O72  1  0.185502  0.977440  0.525550  1
  O  O73  1  0.168253  0.013760  0.035853  1
  O  O74  1  0.406070  0.484602  0.882100  1
  O  O75  1  0.941929  0.987293  0.751855  1
  O  O76  1  0.053881  0.769940  0.946053  1
  O  O77  1  0.831424  0.717517  0.098975  1
  O  O78  1  0.168576  0.217517  0.401025  1
  O  O79  1  0.608834  0.281760  0.006368  1
