# generated using pymatgen
data_FeHO2
_symmetry_space_group_name_H-M   'P 1'
_cell_length_a   7.74186471
_cell_length_b   7.74186471
_cell_length_c   7.74186471
_cell_angle_alpha   92.28023870
_cell_angle_beta   92.28023870
_cell_angle_gamma   156.98839059
_symmetry_Int_Tables_number   1
_chemical_formula_structural   FeHO2
_chemical_formula_sum   'Fe4 H4 O8'
_cell_volume   177.74842005
_cell_formula_units_Z   4
loop_
 _symmetry_equiv_pos_site_id
 _symmetry_equiv_pos_as_xyz
  1  'x, y, z'
loop_
 _atom_site_type_symbol
 _atom_site_label
 _atom_site_symmetry_multiplicity
 _atom_site_fract_x
 _atom_site_fract_y
 _atom_site_fract_z
 _atom_site_occupancy
  Fe  Fe0  1  0.343186  0.821304  0.164490  1
  Fe  Fe1  1  0.656814  0.178696  0.835510  1
  Fe  Fe2  1  0.178696  0.343186  0.521882  1
  Fe  Fe3  1  0.821304  0.656814  0.478118  1
  H  H4  1  0.543448  0.727414  0.270862  1
  H  H5  1  0.456552  0.272586  0.729138  1
  H  H6  1  0.272586  0.543448  0.816034  1
  H  H7  1  0.727414  0.456552  0.183966  1
  O  O8  1  0.157670  0.795590  0.953260  1
  O  O9  1  0.842330  0.204410  0.046740  1
  O  O10  1  0.204410  0.157670  0.362081  1
  O  O11  1  0.795590  0.842330  0.637919  1
  O  O12  1  0.539501  0.819423  0.358924  1
  O  O13  1  0.460499  0.180577  0.641076  1
  O  O14  1  0.180577  0.539501  0.720078  1
  O  O15  1  0.819423  0.460499  0.279922  1
