# generated using pymatgen
data_Ag2CSNClO4
_symmetry_space_group_name_H-M   'P 1'
_cell_length_a   4.81123851
_cell_length_b   8.06671582
_cell_length_c   17.53267606
_cell_angle_alpha   83.29859347
_cell_angle_beta   82.11369622
_cell_angle_gamma   72.64955142
_symmetry_Int_Tables_number   1
_chemical_formula_structural   Ag2CSNClO4
_chemical_formula_sum   'Ag8 C4 S4 N4 Cl4 O16'
_cell_volume   641.28455286
_cell_formula_units_Z   4
loop_
 _symmetry_equiv_pos_site_id
 _symmetry_equiv_pos_as_xyz
  1  'x, y, z'
loop_
 _atom_site_type_symbol
 _atom_site_label
 _atom_site_symmetry_multiplicity
 _atom_site_fract_x
 _atom_site_fract_y
 _atom_site_fract_z
 _atom_site_occupancy
  Ag  Ag0  1  0.858483  0.865055  0.868029  1
  Ag  Ag1  1  0.591568  0.634945  0.631971  1
  Ag  Ag2  1  0.408432  0.365055  0.368029  1
  Ag  Ag3  1  0.141517  0.134945  0.131971  1
  Ag  Ag4  1  0.500000  0.000000  0.500000  1
  Ag  Ag5  1  0.214970  0.250000  0.750000  1
  Ag  Ag6  1  0.785030  0.750000  0.250000  1
  Ag  Ag7  1  0.000000  0.500000  0.000000  1
  C  C8  1  0.789344  0.874708  0.066110  1
  C  C9  1  0.730161  0.625292  0.433890  1
  C  C10  1  0.210656  0.125292  0.933890  1
  C  C11  1  0.269839  0.374708  0.566110  1
  S  S12  1  0.300076  0.007331  0.858106  1
  S  S13  1  0.834487  0.507331  0.358106  1
  S  S14  1  0.165513  0.492669  0.641894  1
  S  S15  1  0.699924  0.992669  0.141894  1
  N  N16  1  0.851720  0.792389  0.011580  1
  N  N17  1  0.344312  0.292389  0.511580  1
  N  N18  1  0.655688  0.707611  0.488420  1
  N  N19  1  0.148280  0.207611  0.988420  1
  Cl  Cl20  1  0.869561  0.980918  0.657195  1
  Cl  Cl21  1  0.507675  0.519082  0.842805  1
  Cl  Cl22  1  0.130439  0.019082  0.342805  1
  Cl  Cl23  1  0.492325  0.480918  0.157195  1
  O  O24  1  0.549278  0.558957  0.918958  1
  O  O25  1  0.332825  0.661889  0.170503  1
  O  O26  1  0.450722  0.441043  0.081042  1
  O  O27  1  0.575102  0.955706  0.659705  1
  O  O28  1  0.424898  0.044294  0.340295  1
  O  O29  1  0.972293  0.137167  0.282899  1
  O  O30  1  0.027707  0.862833  0.717101  1
  O  O31  1  0.834783  0.161889  0.670503  1
  O  O32  1  0.027194  0.941043  0.581042  1
  O  O33  1  0.809487  0.455706  0.159705  1
  O  O34  1  0.607641  0.637167  0.782899  1
  O  O35  1  0.392359  0.362833  0.217101  1
  O  O36  1  0.667175  0.338111  0.829497  1
  O  O37  1  0.165217  0.838111  0.329497  1
  O  O38  1  0.972806  0.058957  0.418958  1
  O  O39  1  0.190513  0.544294  0.840295  1
