# generated using pymatgen
data_K2Sn(GeO3)3
_symmetry_space_group_name_H-M   'P 1'
_cell_length_a   12.14325175
_cell_length_b   12.14325181
_cell_length_c   10.74229301
_cell_angle_alpha   90.00000000
_cell_angle_beta   90.00000000
_cell_angle_gamma   119.99999981
_symmetry_Int_Tables_number   1
_chemical_formula_structural   K2Sn(GeO3)3
_chemical_formula_sum   'K12 Sn6 Ge18 O54'
_cell_volume   1371.82156685
_cell_formula_units_Z   6
loop_
 _symmetry_equiv_pos_site_id
 _symmetry_equiv_pos_as_xyz
  1  'x, y, z'
loop_
 _atom_site_type_symbol
 _atom_site_label
 _atom_site_symmetry_multiplicity
 _atom_site_fract_x
 _atom_site_fract_y
 _atom_site_fract_z
 _atom_site_occupancy
  K  K0  1  0.346117  0.346411  0.991417  1
  K  K1  1  0.999706  0.346117  0.008583  1
  K  K2  1  0.999706  0.653589  0.508583  1
  K  K3  1  0.653589  0.999706  0.991417  1
  K  K4  1  0.000294  0.346411  0.491417  1
  K  K5  1  0.653883  0.653589  0.008583  1
  K  K6  1  0.346411  0.346117  0.508583  1
  K  K7  1  0.000294  0.653883  0.991417  1
  K  K8  1  0.346411  0.000294  0.008583  1
  K  K9  1  0.653883  0.000294  0.508583  1
  K  K10  1  0.346117  0.999706  0.491417  1
  K  K11  1  0.653589  0.653883  0.491417  1
  Sn  Sn12  1  0.333333  0.666667  0.493424  1
  Sn  Sn13  1  0.666667  0.333333  0.506576  1
  Sn  Sn14  1  0.666667  0.333333  0.006576  1
  Sn  Sn15  1  0.333333  0.666667  0.993424  1
  Sn  Sn16  1  0.000000  0.000000  0.500000  1
  Sn  Sn17  1  0.000000  0.000000  0.000000  1
  Ge  Ge18  1  0.548970  0.831667  0.236862  1
  Ge  Ge19  1  0.818790  0.000000  0.750000  1
  Ge  Ge20  1  0.181210  0.181210  0.750000  1
  Ge  Ge21  1  0.831667  0.548970  0.263138  1
  Ge  Ge22  1  0.282697  0.831667  0.736862  1
  Ge  Ge23  1  0.168333  0.717303  0.236862  1
  Ge  Ge24  1  0.717303  0.168333  0.263138  1
  Ge  Ge25  1  0.818790  0.818790  0.250000  1
  Ge  Ge26  1  1.000000  0.181210  0.250000  1
  Ge  Ge27  1  0.168333  0.451030  0.736862  1
  Ge  Ge28  1  0.282697  0.451030  0.236862  1
  Ge  Ge29  1  0.548970  0.717303  0.736862  1
  Ge  Ge30  1  0.831667  0.282697  0.763138  1
  Ge  Ge31  1  0.000000  0.818790  0.750000  1
  Ge  Ge32  1  0.451030  0.168333  0.763138  1
  Ge  Ge33  1  0.451030  0.282697  0.263138  1
  Ge  Ge34  1  0.717303  0.548970  0.763138  1
  Ge  Ge35  1  0.181210  0.000000  0.250000  1
  O  O36  1  0.666104  0.790516  0.190837  1
  O  O37  1  0.911773  0.071110  0.616760  1
  O  O38  1  0.817401  0.368295  0.889025  1
  O  O39  1  0.503369  0.273266  0.113777  1
  O  O40  1  0.273266  0.769898  0.886224  1
  O  O41  1  0.790516  0.124412  0.809163  1
  O  O42  1  0.000000  0.632676  0.250000  1
  O  O43  1  0.840663  0.911773  0.383240  1
  O  O44  1  0.631705  0.182599  0.389025  1
  O  O45  1  0.550895  0.182599  0.889025  1
  O  O46  1  0.182599  0.631705  0.110975  1
  O  O47  1  0.333896  0.209484  0.809163  1
  O  O48  1  0.875588  0.209484  0.309163  1
  O  O49  1  0.726734  0.230102  0.113777  1
  O  O50  1  0.159337  0.071110  0.116760  1
  O  O51  1  0.182599  0.550895  0.610975  1
  O  O52  1  0.230102  0.726734  0.386223  1
  O  O53  1  0.928890  0.840663  0.616760  1
  O  O54  1  0.666104  0.875588  0.690837  1
  O  O55  1  0.367324  0.000000  0.750000  1
  O  O56  1  0.840663  0.928890  0.883240  1
  O  O57  1  0.911773  0.840663  0.116760  1
  O  O58  1  0.631705  0.449105  0.889025  1
  O  O59  1  0.368295  0.817401  0.610975  1
  O  O60  1  0.632676  0.632676  0.750000  1
  O  O61  1  0.088227  0.159337  0.883240  1
  O  O62  1  0.928890  0.088227  0.116760  1
  O  O63  1  0.632676  0.000000  0.250000  1
  O  O64  1  0.496631  0.726734  0.886224  1
  O  O65  1  0.367324  0.367324  0.250000  1
  O  O66  1  0.769898  0.273266  0.613776  1
  O  O67  1  0.273266  0.503369  0.386223  1
  O  O68  1  0.124412  0.790516  0.690837  1
  O  O69  1  0.333896  0.124412  0.309163  1
  O  O70  1  0.368295  0.550895  0.110975  1
  O  O71  1  0.790516  0.666104  0.309163  1
  O  O72  1  0.124412  0.333896  0.190837  1
  O  O73  1  0.875588  0.666104  0.809163  1
  O  O74  1  0.769898  0.496631  0.113777  1
  O  O75  1  0.817401  0.449105  0.389025  1
  O  O76  1  0.449105  0.817401  0.110975  1
  O  O77  1  0.159337  0.088227  0.616760  1
  O  O78  1  0.550895  0.368295  0.389025  1
  O  O79  1  0.209484  0.333896  0.690837  1
  O  O80  1  0.726734  0.496631  0.613776  1
  O  O81  1  1.000000  0.367324  0.750000  1
  O  O82  1  0.088227  0.928890  0.383240  1
  O  O83  1  0.503369  0.230102  0.613776  1
  O  O84  1  0.071110  0.911773  0.883240  1
  O  O85  1  0.449105  0.631705  0.610975  1
  O  O86  1  0.071110  0.159337  0.383240  1
  O  O87  1  0.496631  0.769898  0.386223  1
  O  O88  1  0.209484  0.875588  0.190837  1
  O  O89  1  0.230102  0.503369  0.886224  1
