# generated using pymatgen
data_K2Ba6Yb3Bi5O24
_symmetry_space_group_name_H-M   'P 1'
_cell_length_a   8.69842647
_cell_length_b   17.95981010
_cell_length_c   6.18031035
_cell_angle_alpha   46.51949238
_cell_angle_beta   90.01209369
_cell_angle_gamma   76.00458686
_symmetry_Int_Tables_number   1
_chemical_formula_structural   K2Ba6Yb3Bi5O24
_chemical_formula_sum   'K2 Ba6 Yb3 Bi5 O24'
_cell_volume   660.46815874
_cell_formula_units_Z   1
loop_
 _symmetry_equiv_pos_site_id
 _symmetry_equiv_pos_as_xyz
  1  'x, y, z'
loop_
 _atom_site_type_symbol
 _atom_site_label
 _atom_site_symmetry_multiplicity
 _atom_site_fract_x
 _atom_site_fract_y
 _atom_site_fract_z
 _atom_site_occupancy
  Yb  Yb0  1  0.624526  0.250390  0.499026  1
  Yb  Yb1  1  0.252500  0.994768  0.511286  1
  Yb  Yb2  1  0.996009  0.506250  0.487376  1
  K  K3  1  0.126416  0.749889  0.997686  1
  K  K4  1  0.626054  0.751702  0.995970  1
  Ba  Ba5  1  0.001475  0.999521  0.002667  1
  Ba  Ba6  1  0.496958  0.001304  0.996021  1
  Ba  Ba7  1  0.373846  0.249486  0.002892  1
  Ba  Ba8  1  0.247380  0.498780  0.002170  1
  Ba  Ba9  1  0.876313  0.250097  0.002324  1
  Ba  Ba10  1  0.750557  0.500608  0.997798  1
  Bi  Bi11  1  0.124095  0.250511  0.499451  1
  Bi  Bi12  1  0.498148  0.501510  0.496115  1
  Bi  Bi13  1  0.373608  0.752058  0.496285  1
  Bi  Bi14  1  0.875457  0.749191  0.501887  1
  Bi  Bi15  1  0.750192  -0.000184  0.500295  1
  O  O16  1  0.989056  0.002763  0.492505  1
  O  O17  1  0.186595  0.128125  0.988819  1
  O  O18  1  0.183793  0.129274  0.494989  1
  O  O19  1  0.063666  0.372187  0.501699  1
  O  O20  1  0.063987  0.373741  0.009659  1
  O  O21  1  0.509518  0.000651  0.503579  1
  O  O22  1  0.368105  0.248954  0.499176  1
  O  O23  1  0.259137  0.498933  0.498578  1
  O  O24  1  0.123502  0.752584  0.496050  1
  O  O25  1  0.688252  0.119654  0.015631  1
  O  O26  1  0.690389  0.121011  0.500075  1
  O  O27  1  0.556666  0.380898  0.980659  1
  O  O28  1  0.558157  0.382571  0.487274  1
  O  O29  1  0.439222  0.622335  0.990709  1
  O  O30  1  0.436219  0.620383  0.528491  1
  O  O31  1  0.311565  0.875684  0.019908  1
  O  O32  1  0.312405  0.874437  0.483782  1
  O  O33  1  0.880320  0.252291  0.493946  1
  O  O34  1  0.624988  0.749620  0.503444  1
  O  O35  1  0.739381  0.499635  0.504444  1
  O  O36  1  0.937432  0.627293  0.978350  1
  O  O37  1  0.937248  0.626226  0.517342  1
  O  O38  1  0.810241  0.881236  0.007011  1
  O  O39  1  0.811124  0.880916  0.470142  1
