# generated using pymatgen
data_Ca16MgAl14Si9O56
_symmetry_space_group_name_H-M   'P 1'
_cell_length_a   6.89535463
_cell_length_b   7.03268565
_cell_length_c   26.95534578
_cell_angle_alpha   91.64007049
_cell_angle_beta   91.84449416
_cell_angle_gamma   90.50120756
_symmetry_Int_Tables_number   1
_chemical_formula_structural   Ca16MgAl14Si9O56
_chemical_formula_sum   'Ca16 Mg1 Al14 Si9 O56'
_cell_volume   1305.86821694
_cell_formula_units_Z   1
loop_
 _symmetry_equiv_pos_site_id
 _symmetry_equiv_pos_as_xyz
  1  'x, y, z'
loop_
 _atom_site_type_symbol
 _atom_site_label
 _atom_site_symmetry_multiplicity
 _atom_site_fract_x
 _atom_site_fract_y
 _atom_site_fract_z
 _atom_site_occupancy
  Ca  Ca0  1  0.202567  0.097855  0.173410  1
  Ca  Ca1  1  0.318918  0.331205  0.421459  1
  Ca  Ca2  1  0.304017  0.684485  0.025459  1
  Ca  Ca3  1  0.286870  0.695957  0.777324  1
  Ca  Ca4  1  0.476666  0.129740  0.731099  1
  Ca  Ca5  1  0.228719  0.548347  0.297982  1
  Ca  Ca6  1  0.477967  0.107456  0.970844  1
  Ca  Ca7  1  0.285896  0.629800  0.538958  1
  Ca  Ca8  1  0.742478  0.300754  0.097042  1
  Ca  Ca9  1  0.584896  0.090260  0.325858  1
  Ca  Ca10  1  0.624100  0.782716  0.448891  1
  Ca  Ca11  1  0.705816  0.185920  0.849977  1
  Ca  Ca12  1  0.532365  0.602129  0.655587  1
  Ca  Ca13  1  0.510102  0.661330  0.196351  1
  Ca  Ca14  1  0.517734  0.619768  0.890281  1
  Ca  Ca15  1  0.701293  0.198463  0.594732  1
  Mg  Mg16  1  0.956061  0.914734  0.249329  1
  Al  Al17  1  0.972583  0.018539  0.987854  1
  Al  Al18  1  0.103386  0.621950  0.130016  1
  Al  Al19  1  0.056496  0.942290  0.487773  1
  Al  Al20  1  0.979643  0.009738  0.746968  1
  Al  Al21  1  0.015683  0.510429  0.879893  1
  Al  Al22  1  0.807633  0.298983  0.471205  1
  Al  Al23  1  0.809796  0.378158  0.722519  1
  Al  Al24  1  0.789175  0.395780  0.970646  1
  Al  Al25  1  0.514415  0.932463  0.115006  1
  Al  Al26  1  0.193896  0.880781  0.904202  1
  Al  Al27  1  0.244256  0.814728  0.398308  1
  Al  Al28  1  0.216042  0.887271  0.657507  1
  Al  Al29  1  0.920461  0.464626  0.386023  1
  Al  Al30  1  0.032527  0.503565  0.640396  1
  Si  Si31  1  0.785732  0.718665  0.049954  1
  Si  Si32  1  0.919867  0.391438  0.211591  1
  Si  Si33  1  0.722261  0.631436  0.295228  1
  Si  Si34  1  0.788968  0.629405  0.551277  1
  Si  Si35  1  0.745977  0.695843  0.796811  1
  Si  Si36  1  0.193674  0.223891  0.069270  1
  Si  Si37  1  0.092067  0.107502  0.346671  1
  Si  Si38  1  0.252594  0.197519  0.830892  1
  Si  Si39  1  0.245717  0.198907  0.579639  1
  O  O40  1  0.683764  0.532937  0.019676  1
  O  O41  1  0.532232  0.508618  0.275910  1
  O  O42  1  0.787092  0.403945  0.531822  1
  O  O43  1  0.665046  0.561486  0.749656  1
  O  O44  1  0.220279  0.819417  0.219347  1
  O  O45  1  0.087940  0.909985  0.315324  1
  O  O46  1  0.160165  0.587070  0.376471  1
  O  O47  1  0.192578  0.138292  0.010788  1
  O  O48  1  0.393075  0.836935  0.704963  1
  O  O49  1  0.173040  0.454547  0.071318  1
  O  O50  1  0.318844  0.754899  0.115833  1
  O  O51  1  0.252733  0.788566  0.464986  1
  O  O52  1  0.283988  0.239948  0.335498  1
  O  O53  1  0.424360  0.344583  0.816057  1
  O  O54  1  0.197562  0.674445  0.863971  1
  O  O55  1  0.205599  0.068474  0.779160  1
  O  O56  1  0.414397  0.361576  0.575642  1
  O  O57  1  0.216735  0.664057  0.624574  1
  O  O58  1  0.188424  0.112351  0.524532  1
  O  O59  1  0.370649  0.812608  0.950001  1
  O  O60  1  0.022872  0.128144  0.100484  1
  O  O61  1  0.044522  0.807745  0.182523  1
  O  O62  1  0.896401  0.245578  0.346573  1
  O  O63  1  0.050400  0.286863  0.605745  1
  O  O64  1  0.118404  0.036489  0.405552  1
  O  O65  1  0.048948  0.292130  0.847522  1
  O  O66  1  0.006439  0.974309  0.683831  1
  O  O67  1  0.970551  0.966140  0.923625  1
  O  O68  1  0.969217  0.802435  0.020013  1
  O  O69  1  0.118271  0.441651  0.178160  1
  O  O70  1  0.013409  0.400427  0.445503  1
  O  O71  1  0.914721  0.547876  0.261609  1
  O  O72  1  0.971064  0.747891  0.528184  1
  O  O73  1  0.034402  0.467236  0.704782  1
  O  O74  1  0.944957  0.800355  0.780339  1
  O  O75  1  -0.006534  0.484972  0.943181  1
  O  O76  1  0.787713  0.176816  0.002469  1
  O  O77  1  -0.026720  0.184454  0.232183  1
  O  O78  1  0.776972  0.630012  0.353836  1
  O  O79  1  0.861054  0.641342  0.103587  1
  O  O80  1  0.722941  0.415297  0.178499  1
  O  O81  1  0.692480  0.845963  0.272675  1
  O  O82  1  0.798580  0.176343  0.761440  1
  O  O83  1  0.796958  0.565411  0.845911  1
  O  O84  1  0.607844  0.346176  0.923915  1
  O  O85  1  0.575181  0.837467  0.815185  1
  O  O86  1  0.602842  0.866980  0.053063  1
  O  O87  1  0.820593  0.044617  0.474753  1
  O  O88  1  0.817373  0.610052  0.612699  1
  O  O89  1  0.633284  0.413567  0.432336  1
  O  O90  1  0.644011  0.307801  0.673675  1
  O  O91  1  0.590971  0.740430  0.537648  1
  O  O92  1  0.408149  0.166898  0.094452  1
  O  O93  1  0.474915  0.888964  0.381270  1
  O  O94  1  0.337684  0.037115  0.616620  1
  O  O95  1  0.331313  0.064494  0.876401  1
