# generated using pymatgen
data_BaLaNiRuO6
_symmetry_space_group_name_H-M   'P 1'
_cell_length_a   5.63547549
_cell_length_b   5.68197213
_cell_length_c   5.68315767
_cell_angle_alpha   59.45470422
_cell_angle_beta   60.32184188
_cell_angle_gamma   60.30778300
_symmetry_Int_Tables_number   1
_chemical_formula_structural   BaLaNiRuO6
_chemical_formula_sum   'Ba1 La1 Ni1 Ru1 O6'
_cell_volume   128.74079373
_cell_formula_units_Z   1
loop_
 _symmetry_equiv_pos_site_id
 _symmetry_equiv_pos_as_xyz
  1  'x, y, z'
loop_
 _atom_site_type_symbol
 _atom_site_label
 _atom_site_symmetry_multiplicity
 _atom_site_fract_x
 _atom_site_fract_y
 _atom_site_fract_z
 _atom_site_occupancy
  Ba  Ba0  1  0.749816  0.750182  0.749857  1
  La  La1  1  0.249905  0.250453  0.249531  1
  Ni  Ni2  1  0.500218  0.499972  0.499904  1
  Ru  Ru3  1  -0.000004  -0.000045  0.000062  1
  O  O4  1  0.215762  0.272327  0.693527  1
  O  O5  1  0.272342  0.818136  0.215856  1
  O  O6  1  0.243255  0.756647  0.756366  1
  O  O7  1  0.757005  0.242825  0.244137  1
  O  O8  1  0.692543  0.216713  0.819395  1
  O  O9  1  0.819157  0.692789  0.271363  1
