# generated using pymatgen
data_Eu(AsPd)2
_symmetry_space_group_name_H-M   'P 1'
_cell_length_a   4.39960955
_cell_length_b   4.44656168
_cell_length_c   5.95350334
_cell_angle_alpha   110.43943967
_cell_angle_beta   111.72713910
_cell_angle_gamma   89.00657826
_symmetry_Int_Tables_number   1
_chemical_formula_structural   Eu(AsPd)2
_chemical_formula_sum   'Eu1 As2 Pd2'
_cell_volume   100.54139582
_cell_formula_units_Z   1
loop_
 _symmetry_equiv_pos_site_id
 _symmetry_equiv_pos_as_xyz
  1  'x, y, z'
loop_
 _atom_site_type_symbol
 _atom_site_label
 _atom_site_symmetry_multiplicity
 _atom_site_fract_x
 _atom_site_fract_y
 _atom_site_fract_z
 _atom_site_occupancy
  Eu  Eu0  1  0.999727  0.991197  0.995231  1
  As  As1  1  0.370498  0.372741  0.750199  1
  As  As2  1  0.630684  0.627004  0.248871  1
  Pd  Pd3  1  0.745793  0.245717  0.494979  1
  Pd  Pd4  1  0.256995  0.752352  0.499453  1
