# generated using pymatgen
data_USe2
_symmetry_space_group_name_H-M   'P 1'
_cell_length_a   6.59880336
_cell_length_b   10.67171329
_cell_length_c   10.66459356
_cell_angle_alpha   90.05809708
_cell_angle_beta   89.97207334
_cell_angle_gamma   89.96016969
_symmetry_Int_Tables_number   1
_chemical_formula_structural   USe2
_chemical_formula_sum   'U10 Se20'
_cell_volume   751.00575322
_cell_formula_units_Z   10
loop_
 _symmetry_equiv_pos_site_id
 _symmetry_equiv_pos_as_xyz
  1  'x, y, z'
loop_
 _atom_site_type_symbol
 _atom_site_label
 _atom_site_symmetry_multiplicity
 _atom_site_fract_x
 _atom_site_fract_y
 _atom_site_fract_z
 _atom_site_occupancy
  U  U0  1  0.749501  0.409194  0.596823  1
  U  U1  1  0.751726  0.595086  0.091994  1
  U  U2  1  0.751480  0.904647  0.407684  1
  U  U3  1  0.749395  0.090451  0.904285  1
  U  U4  1  0.144097  0.750143  0.749620  1
  U  U5  1  0.250186  0.908780  0.094040  1
  U  U6  1  0.247529  0.096142  0.590382  1
  U  U7  1  0.249432  0.404196  0.909559  1
  U  U8  1  0.250685  0.591401  0.405261  1
  U  U9  1  0.856508  0.250028  0.250424  1
  Se  Se10  1  0.380866  0.539836  0.662968  1
  Se  Se11  1  0.381515  0.661703  0.959921  1
  Se  Se12  1  0.380961  0.838321  0.539177  1
  Se  Se13  1  0.379778  0.960420  0.836533  1
  Se  Se14  1  0.890155  0.542049  0.838388  1
  Se  Se15  1  0.889689  0.661874  0.541436  1
  Se  Se16  1  0.888983  0.837851  0.958289  1
  Se  Se17  1  0.888571  0.958125  0.661328  1
  Se  Se18  1  0.002441  0.749854  0.249602  1
  Se  Se19  1  0.998352  0.249940  0.750901  1
  Se  Se20  1  0.111911  0.042050  0.337026  1
  Se  Se21  1  0.109234  0.161663  0.040781  1
  Se  Se22  1  0.108796  0.338553  0.459914  1
  Se  Se23  1  0.112576  0.457489  0.163039  1
  Se  Se24  1  0.501045  0.750155  0.249518  1
  Se  Se25  1  0.498340  0.249497  0.750210  1
  Se  Se26  1  0.617479  0.041214  0.162267  1
  Se  Se27  1  0.619557  0.161982  0.460790  1
  Se  Se28  1  0.620967  0.338165  0.039236  1
  Se  Se29  1  0.618243  0.459191  0.338599  1
