# generated using pymatgen
data_Sm5Br11
_symmetry_space_group_name_H-M   'P 1'
_cell_length_a   7.03953252
_cell_length_b   7.52125711
_cell_length_c   36.12403789
_cell_angle_alpha   90.00000000
_cell_angle_beta   90.00000000
_cell_angle_gamma   89.91339968
_symmetry_Int_Tables_number   1
_chemical_formula_structural   Sm5Br11
_chemical_formula_sum   'Sm20 Br44'
_cell_volume   1912.62596441
_cell_formula_units_Z   4
loop_
 _symmetry_equiv_pos_site_id
 _symmetry_equiv_pos_as_xyz
  1  'x, y, z'
loop_
 _atom_site_type_symbol
 _atom_site_label
 _atom_site_symmetry_multiplicity
 _atom_site_fract_x
 _atom_site_fract_y
 _atom_site_fract_z
 _atom_site_occupancy
  Sm  Sm0  1  0.467642  0.848344  0.444280  1
  Sm  Sm1  1  0.021282  0.720907  0.153639  1
  Sm  Sm2  1  0.978718  0.279093  0.653639  1
  Sm  Sm3  1  0.532358  0.151656  0.555720  1
  Sm  Sm4  1  0.016124  0.331300  0.250000  1
  Sm  Sm5  1  0.983876  0.668700  0.750000  1
  Sm  Sm6  1  0.533777  0.772702  0.654238  1
  Sm  Sm7  1  0.467642  0.848344  0.055720  1
  Sm  Sm8  1  0.533777  0.772702  0.845762  1
  Sm  Sm9  1  0.520315  0.159815  0.750000  1
  Sm  Sm10  1  0.029073  0.346329  0.056484  1
  Sm  Sm11  1  0.479685  0.840185  0.250000  1
  Sm  Sm12  1  0.466223  0.227298  0.154238  1
  Sm  Sm13  1  0.532358  0.151656  0.944280  1
  Sm  Sm14  1  0.029073  0.346329  0.443516  1
  Sm  Sm15  1  0.466223  0.227298  0.345762  1
  Sm  Sm16  1  0.970927  0.653671  0.943516  1
  Sm  Sm17  1  0.970927  0.653671  0.556484  1
  Sm  Sm18  1  0.021282  0.720907  0.346361  1
  Sm  Sm19  1  0.978718  0.279093  0.846361  1
  Br  Br20  1  0.327394  0.834480  0.583595  1
  Br  Br21  1  0.183030  0.337886  0.583292  1
  Br  Br22  1  0.816387  0.973227  0.798244  1
  Br  Br23  1  0.683049  0.463489  0.604111  1
  Br  Br24  1  0.183613  0.026773  0.201756  1
  Br  Br25  1  0.816970  0.662114  0.083292  1
  Br  Br26  1  0.683049  0.463489  0.895889  1
  Br  Br27  1  0.262843  0.109390  0.492080  1
  Br  Br28  1  0.853532  0.371427  0.170871  1
  Br  Br29  1  0.146468  0.628573  0.829129  1
  Br  Br30  1  0.816970  0.662114  0.416708  1
  Br  Br31  1  0.183613  0.026773  0.298244  1
  Br  Br32  1  0.824405  0.966563  0.604169  1
  Br  Br33  1  0.869154  0.691252  0.250000  1
  Br  Br34  1  0.130846  0.308748  0.750000  1
  Br  Br35  1  0.234498  0.607932  0.491924  1
  Br  Br36  1  0.355838  0.118912  0.828543  1
  Br  Br37  1  0.737157  0.890610  0.992080  1
  Br  Br38  1  0.692625  0.467822  0.701946  1
  Br  Br39  1  0.765502  0.392068  0.991924  1
  Br  Br40  1  0.853532  0.371427  0.329129  1
  Br  Br41  1  0.672606  0.165520  0.416405  1
  Br  Br42  1  0.355838  0.118912  0.671457  1
  Br  Br43  1  0.307375  0.532178  0.201946  1
  Br  Br44  1  0.765502  0.392068  0.508076  1
  Br  Br45  1  0.692625  0.467822  0.798054  1
  Br  Br46  1  0.737157  0.890610  0.507920  1
  Br  Br47  1  0.386126  0.794746  0.750000  1
  Br  Br48  1  0.613874  0.205254  0.250000  1
  Br  Br49  1  0.262843  0.109390  0.007920  1
  Br  Br50  1  0.672606  0.165520  0.083595  1
  Br  Br51  1  0.234498  0.607932  0.008076  1
  Br  Br52  1  0.644162  0.881088  0.328543  1
  Br  Br53  1  0.644162  0.881088  0.171457  1
  Br  Br54  1  0.175595  0.033437  0.395831  1
  Br  Br55  1  0.146468  0.628573  0.670871  1
  Br  Br56  1  0.307375  0.532178  0.298054  1
  Br  Br57  1  0.816387  0.973227  0.701756  1
  Br  Br58  1  0.175595  0.033437  0.104169  1
  Br  Br59  1  0.316951  0.536511  0.395889  1
  Br  Br60  1  0.183030  0.337886  0.916708  1
  Br  Br61  1  0.824405  0.966563  0.895831  1
  Br  Br62  1  0.316951  0.536511  0.104111  1
  Br  Br63  1  0.327394  0.834480  0.916405  1
