# generated using pymatgen
data_Ca3Yb2Zr3Ti8O28
_symmetry_space_group_name_H-M   'P 1'
_cell_length_a   9.25325417
_cell_length_b   8.66053960
_cell_length_c   9.01466073
_cell_angle_alpha   84.43347178
_cell_angle_beta   80.05045482
_cell_angle_gamma   59.05222334
_symmetry_Int_Tables_number   1
_chemical_formula_structural   Ca3Yb2Zr3Ti8O28
_chemical_formula_sum   'Ca3 Yb2 Zr3 Ti8 O28'
_cell_volume   610.22577163
_cell_formula_units_Z   1
loop_
 _symmetry_equiv_pos_site_id
 _symmetry_equiv_pos_as_xyz
  1  'x, y, z'
loop_
 _atom_site_type_symbol
 _atom_site_label
 _atom_site_symmetry_multiplicity
 _atom_site_fract_x
 _atom_site_fract_y
 _atom_site_fract_z
 _atom_site_occupancy
  Yb  Yb0  1  0.296704  0.415407  0.505388  1
  Yb  Yb1  1  0.022411  0.294914  0.180535  1
  Ca  Ca2  1  0.277546  0.496031  0.979972  1
  Ca  Ca3  1  0.296554  0.830056  0.606097  1
  Ca  Ca4  1  0.552640  0.600961  0.082768  1
  Zr  Zr5  1  0.968707  0.789596  0.671623  1
  Zr  Zr6  1  0.415997  0.042154  0.863403  1
  Zr  Zr7  1  0.695467  0.130919  0.172257  1
  Ti  Ti8  1  0.040989  0.316236  0.814075  1
  Ti  Ti9  1  0.377251  0.084403  0.306984  1
  Ti  Ti10  1  0.021656  -0.015281  0.898203  1
  Ti  Ti11  1  0.659843  0.674548  0.415457  1
  Ti  Ti12  1  0.720040  0.645352  0.761469  1
  Ti  Ti13  1  0.074023  0.913658  0.318464  1
  Ti  Ti14  1  0.635495  0.994382  0.532013  1
  Ti  Ti15  1  0.839068  0.716178  0.108787  1
  O  O16  1  0.195511  0.008308  0.354811  1
  O  O17  1  0.944217  0.216944  0.975108  1
  O  O18  1  0.207824  0.303080  0.339714  1
  O  O19  1  0.042759  0.565360  0.140860  1
  O  O20  1  0.455222  0.029560  0.099632  1
  O  O21  1  0.454334  0.177916  0.670442  1
  O  O22  1  0.696077  0.894325  0.754612  1
  O  O23  1  0.205251  0.282351  0.947520  1
  O  O24  1  0.154728  0.725939  0.484646  1
  O  O25  1  0.165767  0.903531  0.094162  1
  O  O26  1  0.252470  0.722845  0.166585  1
  O  O27  1  0.071606  0.506081  0.702987  1
  O  O28  1  0.538869  0.355827  0.070990  1
  O  O29  1  0.163493  0.737635  0.814340  1
  O  O30  1  0.522475  0.181720  0.372273  1
  O  O31  1  0.489254  0.760274  0.844612  1
  O  O32  1  0.880590  0.132804  0.255822  1
  O  O33  1  0.204207  0.072831  0.763926  1
  O  O34  1  0.933173  0.035252  0.728711  1
  O  O35  1  0.536648  0.582933  0.502524  1
  O  O36  1  0.751700  0.555930  0.229761  1
  O  O37  1  0.473189  0.920871  0.478202  1
  O  O38  1  0.719716  0.867548  0.277530  1
  O  O39  1  0.805800  0.611863  0.945125  1
  O  O40  1  0.835367  0.407073  0.729162  1
  O  O41  1  0.783046  0.694918  0.548058  1
  O  O42  1  0.854260  0.927140  0.013127  1
  O  O43  1  0.846060  -0.032374  0.487262  1
