# generated using pymatgen
data_CrC5SO7
_symmetry_space_group_name_H-M   'P 1'
_cell_length_a   6.68962269
_cell_length_b   12.64696169
_cell_length_c   22.12043672
_cell_angle_alpha   90.00000000
_cell_angle_beta   90.00000000
_cell_angle_gamma   90.00000000
_symmetry_Int_Tables_number   1
_chemical_formula_structural   CrC5SO7
_chemical_formula_sum   'Cr8 C40 S8 O56'
_cell_volume   1871.46419761
_cell_formula_units_Z   8
loop_
 _symmetry_equiv_pos_site_id
 _symmetry_equiv_pos_as_xyz
  1  'x, y, z'
loop_
 _atom_site_type_symbol
 _atom_site_label
 _atom_site_symmetry_multiplicity
 _atom_site_fract_x
 _atom_site_fract_y
 _atom_site_fract_z
 _atom_site_occupancy
  Cr  Cr0  1  0.010835  0.740600  0.941739  1
  Cr  Cr1  1  0.997304  0.993315  0.686170  1
  Cr  Cr2  1  0.510835  0.759400  0.441739  1
  Cr  Cr3  1  0.989165  0.259400  0.441739  1
  Cr  Cr4  1  0.489165  0.240600  0.941739  1
  Cr  Cr5  1  0.002697  0.006685  0.186170  1
  Cr  Cr6  1  0.502696  0.493315  0.686170  1
  Cr  Cr7  1  0.497304  0.506685  0.186170  1
  C  C8  1  0.350896  0.542766  0.617714  1
  C  C9  1  0.862000  0.394914  0.451537  1
  C  C10  1  0.119491  0.122533  0.434846  1
  C  C11  1  0.716364  0.449009  0.634172  1
  C  C12  1  0.362000  0.105086  0.951537  1
  C  C13  1  0.660995  0.709173  0.510252  1
  C  C14  1  0.367894  0.370093  0.193022  1
  C  C15  1  0.132106  0.870093  0.193022  1
  C  C16  1  0.653445  0.440328  0.754746  1
  C  C17  1  0.346555  0.559672  0.254746  1
  C  C18  1  0.339005  0.290827  0.010252  1
  C  C19  1  0.202313  0.303894  0.493553  1
  C  C20  1  0.160995  0.790827  0.010252  1
  C  C21  1  0.863015  0.687172  0.872608  1
  C  C22  1  0.626395  0.642159  0.176215  1
  C  C23  1  0.363015  0.812828  0.372608  1
  C  C24  1  0.153445  0.059672  0.254746  1
  C  C25  1  0.136985  0.312828  0.372608  1
  C  C26  1  0.649104  0.457234  0.117714  1
  C  C27  1  0.702313  0.196106  0.993553  1
  C  C28  1  0.149104  0.042766  0.617714  1
  C  C29  1  0.126395  0.857841  0.676215  1
  C  C30  1  0.850896  0.957234  0.117714  1
  C  C31  1  0.380509  0.622533  0.434846  1
  C  C32  1  0.638000  0.894914  0.451537  1
  C  C33  1  0.783636  0.949009  0.634172  1
  C  C34  1  0.216364  0.050991  0.134172  1
  C  C35  1  0.797687  0.696106  0.993553  1
  C  C36  1  0.873605  0.142159  0.176215  1
  C  C37  1  0.283636  0.550991  0.134172  1
  C  C38  1  0.297687  0.803894  0.493553  1
  C  C39  1  0.632106  0.629907  0.693022  1
  C  C40  1  0.867894  0.129907  0.693022  1
  C  C41  1  0.839005  0.209173  0.510252  1
  C  C42  1  0.846555  0.940328  0.754746  1
  C  C43  1  0.619491  0.377467  0.934846  1
  C  C44  1  0.636985  0.187172  0.872608  1
  C  C45  1  0.138000  0.605086  0.951537  1
  C  C46  1  0.373605  0.357841  0.676215  1
  C  C47  1  0.880509  0.877467  0.934846  1
  S  S48  1  0.240264  0.294387  0.880934  1
  S  S49  1  0.759736  0.705613  0.380934  1
  S  S50  1  0.740264  0.205613  0.380934  1
  S  S51  1  0.259736  0.794387  0.880934  1
  S  S52  1  0.758847  0.954958  0.249747  1
  S  S53  1  0.241153  0.045042  0.749747  1
  S  S54  1  0.741153  0.454958  0.249747  1
  S  S55  1  0.258847  0.545042  0.749747  1
  O  O56  1  0.722582  0.661849  0.321165  1
  O  O57  1  0.776132  0.652244  0.832101  1
  O  O58  1  0.704370  0.723103  0.170152  1
  O  O59  1  0.668782  0.669781  0.024831  1
  O  O60  1  0.301010  0.576516  0.811719  1
  O  O61  1  0.277418  0.338151  0.821165  1
  O  O62  1  0.698990  0.423484  0.311719  1
  O  O63  1  0.260791  0.570149  0.575952  1
  O  O64  1  0.753478  0.677211  0.550410  1
  O  O65  1  0.276132  0.847756  0.332101  1
  O  O66  1  0.152466  0.576931  0.103526  1
  O  O67  1  0.723868  0.152244  0.832101  1
  O  O68  1  0.652466  0.923069  0.603526  1
  O  O69  1  0.704913  0.712571  0.695624  1
  O  O70  1  0.760791  0.929851  0.075952  1
  O  O71  1  0.758292  0.907660  0.795675  1
  O  O72  1  0.295087  0.287429  0.195624  1
  O  O73  1  0.777418  0.161849  0.321165  1
  O  O74  1  0.801010  0.923484  0.311719  1
  O  O75  1  0.746522  0.177211  0.550410  1
  O  O76  1  0.795630  0.223103  0.170152  1
  O  O77  1  0.034355  0.289627  0.901427  1
  O  O78  1  0.204370  0.776897  0.670152  1
  O  O79  1  0.534355  0.210373  0.401427  1
  O  O80  1  0.204913  0.787429  0.195624  1
  O  O81  1  0.198990  0.076516  0.811719  1
  O  O82  1  0.831218  0.169781  0.024831  1
  O  O83  1  0.304331  0.540904  0.432022  1
  O  O84  1  0.741708  0.407660  0.795675  1
  O  O85  1  0.195669  0.040904  0.432022  1
  O  O86  1  0.253478  0.822789  0.050410  1
  O  O87  1  0.717636  0.975248  0.457996  1
  O  O88  1  0.465645  0.789627  0.901427  1
  O  O89  1  0.965645  0.710373  0.401427  1
  O  O90  1  0.739209  0.429851  0.075952  1
  O  O91  1  0.695669  0.459096  0.932022  1
  O  O92  1  0.948121  0.451916  0.229944  1
  O  O93  1  0.295630  0.276897  0.670152  1
  O  O94  1  0.241708  0.092340  0.295675  1
  O  O95  1  0.168782  0.830219  0.524831  1
  O  O96  1  0.847534  0.423069  0.603526  1
  O  O97  1  0.239209  0.070149  0.575952  1
  O  O98  1  0.448121  0.048084  0.729944  1
  O  O99  1  0.217636  0.524752  0.957996  1
  O  O100  1  0.246522  0.322789  0.050410  1
  O  O101  1  0.282364  0.024752  0.957996  1
  O  O102  1  0.782364  0.475248  0.457996  1
  O  O103  1  0.331218  0.330219  0.524831  1
  O  O104  1  0.258292  0.592340  0.295675  1
  O  O105  1  0.804331  0.959096  0.932022  1
  O  O106  1  0.223868  0.347756  0.332101  1
  O  O107  1  0.222582  0.838151  0.821165  1
  O  O108  1  0.795087  0.212571  0.695624  1
  O  O109  1  0.051879  0.548084  0.729944  1
  O  O110  1  0.551879  0.951916  0.229944  1
  O  O111  1  0.347534  0.076931  0.103526  1
