# generated using pymatgen
data_Bi9Ir2I3
_symmetry_space_group_name_H-M   'P 1'
_cell_length_a   9.91315777
_cell_length_b   14.09327479
_cell_length_c   27.63633600
_cell_angle_alpha   90.00000000
_cell_angle_beta   90.00000000
_cell_angle_gamma   90.00000000
_symmetry_Int_Tables_number   1
_chemical_formula_structural   Bi9Ir2I3
_chemical_formula_sum   'Bi72 Ir16 I24'
_cell_volume   3861.04090011
_cell_formula_units_Z   8
loop_
 _symmetry_equiv_pos_site_id
 _symmetry_equiv_pos_as_xyz
  1  'x, y, z'
loop_
 _atom_site_type_symbol
 _atom_site_label
 _atom_site_symmetry_multiplicity
 _atom_site_fract_x
 _atom_site_fract_y
 _atom_site_fract_z
 _atom_site_occupancy
  Bi  Bi0  1  0.244168  0.963211  0.957270  1
  Bi  Bi1  1  0.986511  0.471562  0.417015  1
  Bi  Bi2  1  0.511850  0.250000  0.084094  1
  Bi  Bi3  1  0.642750  0.965713  0.210971  1
  Bi  Bi4  1  0.129541  0.250000  0.828784  1
  Bi  Bi5  1  0.899277  0.635545  0.322511  1
  Bi  Bi6  1  0.370459  0.250000  0.328784  1
  Bi  Bi7  1  0.989409  0.635978  0.079131  1
  Bi  Bi8  1  0.907082  0.031391  0.166469  1
  Bi  Bi9  1  0.328667  0.750000  0.790390  1
  Bi  Bi10  1  0.513489  0.028438  0.917015  1
  Bi  Bi11  1  0.011850  0.750000  0.415906  1
  Bi  Bi12  1  0.279086  0.250000  0.955130  1
  Bi  Bi13  1  0.164346  0.750000  0.892858  1
  Bi  Bi14  1  0.255832  0.963211  0.457270  1
  Bi  Bi15  1  0.642750  0.534287  0.210971  1
  Bi  Bi16  1  0.513489  0.471562  0.917015  1
  Bi  Bi17  1  0.779086  0.750000  0.544870  1
  Bi  Bi18  1  0.010591  0.135978  0.920869  1
  Bi  Bi19  1  0.828667  0.250000  0.709610  1
  Bi  Bi20  1  0.549253  0.750000  0.147065  1
  Bi  Bi21  1  0.988150  0.250000  0.584094  1
  Bi  Bi22  1  0.399277  0.364455  0.177489  1
  Bi  Bi23  1  0.592918  0.031391  0.666469  1
  Bi  Bi24  1  0.664346  0.250000  0.607142  1
  Bi  Bi25  1  0.100723  0.135545  0.677489  1
  Bi  Bi26  1  0.486511  0.528438  0.082985  1
  Bi  Bi27  1  0.835654  0.250000  0.107142  1
  Bi  Bi28  1  0.592918  0.468609  0.666469  1
  Bi  Bi29  1  0.013489  0.971562  0.582985  1
  Bi  Bi30  1  0.255832  0.536789  0.457270  1
  Bi  Bi31  1  0.857250  0.965713  0.710971  1
  Bi  Bi32  1  0.989409  0.864022  0.079131  1
  Bi  Bi33  1  0.357250  0.034287  0.789029  1
  Bi  Bi34  1  0.489409  0.364022  0.420869  1
  Bi  Bi35  1  0.244168  0.536789  0.957270  1
  Bi  Bi36  1  0.142750  0.465713  0.289029  1
  Bi  Bi37  1  0.335654  0.750000  0.392858  1
  Bi  Bi38  1  0.357250  0.465713  0.789029  1
  Bi  Bi39  1  0.220914  0.250000  0.455130  1
  Bi  Bi40  1  0.870459  0.750000  0.171216  1
  Bi  Bi41  1  0.407082  0.968609  0.333531  1
  Bi  Bi42  1  0.049253  0.250000  0.352935  1
  Bi  Bi43  1  0.407082  0.531391  0.333531  1
  Bi  Bi44  1  0.744168  0.036789  0.542730  1
  Bi  Bi45  1  0.510591  0.864022  0.579131  1
  Bi  Bi46  1  0.100723  0.364455  0.677489  1
  Bi  Bi47  1  0.950747  0.750000  0.647065  1
  Bi  Bi48  1  0.486511  0.971562  0.082985  1
  Bi  Bi49  1  0.720914  0.750000  0.044870  1
  Bi  Bi50  1  0.744168  0.463211  0.542730  1
  Bi  Bi51  1  0.142750  0.034287  0.289029  1
  Bi  Bi52  1  0.671333  0.250000  0.209610  1
  Bi  Bi53  1  0.013489  0.528438  0.582985  1
  Bi  Bi54  1  0.171333  0.750000  0.290390  1
  Bi  Bi55  1  0.986511  0.028438  0.417015  1
  Bi  Bi56  1  0.010591  0.364022  0.920869  1
  Bi  Bi57  1  0.092918  0.968609  0.833531  1
  Bi  Bi58  1  0.755832  0.463211  0.042730  1
  Bi  Bi59  1  0.755832  0.036789  0.042730  1
  Bi  Bi60  1  0.857250  0.534287  0.710971  1
  Bi  Bi61  1  0.489409  0.135978  0.420869  1
  Bi  Bi62  1  0.907082  0.468609  0.166469  1
  Bi  Bi63  1  0.600723  0.635545  0.822511  1
  Bi  Bi64  1  0.092918  0.531391  0.833531  1
  Bi  Bi65  1  0.600723  0.864455  0.822511  1
  Bi  Bi66  1  0.488150  0.750000  0.915906  1
  Bi  Bi67  1  0.399277  0.135545  0.177489  1
  Bi  Bi68  1  0.510591  0.635978  0.579131  1
  Bi  Bi69  1  0.629541  0.750000  0.671216  1
  Bi  Bi70  1  0.899277  0.864455  0.322511  1
  Bi  Bi71  1  0.450747  0.250000  0.852935  1
  Ir  Ir72  1  0.653819  0.399249  0.135102  1
  Ir  Ir73  1  0.268292  0.100751  0.881364  1
  Ir  Ir74  1  0.268292  0.399249  0.881364  1
  Ir  Ir75  1  0.231708  0.399249  0.381364  1
  Ir  Ir76  1  0.731708  0.600751  0.118636  1
  Ir  Ir77  1  0.153819  0.600750  0.364898  1
  Ir  Ir78  1  0.846181  0.399249  0.635102  1
  Ir  Ir79  1  0.231708  0.100751  0.381364  1
  Ir  Ir80  1  0.846181  0.100751  0.635102  1
  Ir  Ir81  1  0.153819  0.899250  0.364898  1
  Ir  Ir82  1  0.731708  0.899249  0.118636  1
  Ir  Ir83  1  0.768292  0.600751  0.618636  1
  Ir  Ir84  1  0.653819  0.100751  0.135102  1
  Ir  Ir85  1  0.346181  0.899250  0.864898  1
  Ir  Ir86  1  0.346181  0.600750  0.864898  1
  Ir  Ir87  1  0.768292  0.899249  0.618636  1
  I  I88  1  0.338577  0.397002  0.563128  1
  I  I89  1  0.773344  0.397356  0.821892  1
  I  I90  1  0.545142  0.750000  0.280242  1
  I  I91  1  0.670193  0.250000  0.968680  1
  I  I92  1  0.170193  0.750000  0.531320  1
  I  I93  1  0.838577  0.602998  0.936872  1
  I  I94  1  0.829807  0.250000  0.468680  1
  I  I95  1  0.045142  0.250000  0.219758  1
  I  I96  1  0.338577  0.102998  0.563128  1
  I  I97  1  0.773344  0.102644  0.821892  1
  I  I98  1  0.161423  0.102998  0.063128  1
  I  I99  1  0.726656  0.397356  0.321892  1
  I  I100  1  0.661423  0.897002  0.436872  1
  I  I101  1  0.161423  0.397002  0.063128  1
  I  I102  1  0.329807  0.750000  0.031320  1
  I  I103  1  0.838577  0.897002  0.936872  1
  I  I104  1  0.273344  0.897356  0.678108  1
  I  I105  1  0.226656  0.602644  0.178108  1
  I  I106  1  0.726656  0.102644  0.321892  1
  I  I107  1  0.454858  0.250000  0.719758  1
  I  I108  1  0.661423  0.602998  0.436872  1
  I  I109  1  0.954858  0.750000  0.780242  1
  I  I110  1  0.226656  0.897356  0.178108  1
  I  I111  1  0.273344  0.602644  0.678108  1
