# generated using pymatgen
data_K2ZnGeO4
_symmetry_space_group_name_H-M   'P 1'
_cell_length_a   5.62939707
_cell_length_b   11.29272426
_cell_length_c   16.05042591
_cell_angle_alpha   90.00000000
_cell_angle_beta   90.00000000
_cell_angle_gamma   90.00000000
_symmetry_Int_Tables_number   1
_chemical_formula_structural   K2ZnGeO4
_chemical_formula_sum   'K16 Zn8 Ge8 O32'
_cell_volume   1020.34529885
_cell_formula_units_Z   8
loop_
 _symmetry_equiv_pos_site_id
 _symmetry_equiv_pos_as_xyz
  1  'x, y, z'
loop_
 _atom_site_type_symbol
 _atom_site_label
 _atom_site_symmetry_multiplicity
 _atom_site_fract_x
 _atom_site_fract_y
 _atom_site_fract_z
 _atom_site_occupancy
  O  O0  1  0.707820  0.513145  0.895576  1
  O  O1  1  0.292180  0.486855  0.395576  1
  O  O2  1  0.292180  0.013145  0.895576  1
  O  O3  1  0.707820  0.986855  0.395576  1
  O  O4  1  0.177215  0.525251  0.969416  1
  O  O5  1  0.822785  0.474749  0.469416  1
  O  O6  1  0.822785  0.025251  0.969416  1
  O  O7  1  0.177215  0.974749  0.469416  1
  O  O8  1  0.611003  0.601002  0.088703  1
  O  O9  1  0.388997  0.398998  0.588703  1
  O  O10  1  0.388997  0.101002  0.088703  1
  O  O11  1  0.611003  0.898998  0.588703  1
  O  O12  1  0.102684  0.584422  0.792247  1
  O  O13  1  0.897316  0.415578  0.292247  1
  O  O14  1  0.897316  0.084422  0.792247  1
  O  O15  1  0.910327  0.840290  0.850370  1
  O  O16  1  0.203156  0.693601  0.172554  1
  O  O17  1  0.796844  0.306399  0.672554  1
  O  O18  1  0.796844  0.193601  0.172554  1
  O  O19  1  0.203156  0.806399  0.672554  1
  O  O20  1  0.672089  0.692467  0.692229  1
  O  O21  1  0.327911  0.307533  0.192229  1
  O  O22  1  0.327911  0.192467  0.692229  1
  O  O23  1  0.672089  0.807533  0.192229  1
  O  O24  1  0.409814  0.674893  0.533601  1
  O  O25  1  0.590186  0.325107  0.033601  1
  O  O26  1  0.590186  0.174893  0.533601  1
  O  O27  1  0.409814  0.825107  0.033601  1
  O  O28  1  0.910327  0.659710  0.350370  1
  O  O29  1  0.089673  0.340290  0.850370  1
  O  O30  1  0.089673  0.159710  0.350370  1
  O  O31  1  0.102684  0.915578  0.292247  1
  K  K32  1  0.955253  0.734773  0.004985  1
  K  K33  1  0.044747  0.265227  0.504985  1
  K  K34  1  0.044747  0.234773  0.004985  1
  K  K35  1  0.955253  0.765227  0.504985  1
  K  K36  1  0.453710  0.732083  0.872328  1
  K  K37  1  0.546290  0.267917  0.372328  1
  K  K38  1  0.546290  0.232083  0.872328  1
  K  K39  1  0.453710  0.767917  0.372328  1
  K  K40  1  0.994002  0.515067  0.626437  1
  K  K41  1  0.005998  0.484933  0.126437  1
  K  K42  1  0.005998  0.015067  0.626437  1
  K  K43  1  0.491549  0.986448  0.747105  1
  K  K44  1  0.491549  0.513552  0.247105  1
  K  K45  1  0.508451  0.486448  0.747105  1
  K  K46  1  0.508451  0.013552  0.247105  1
  K  K47  1  0.994002  0.984933  0.126437  1
  Zn  Zn48  1  0.486305  0.510125  0.498326  1
  Zn  Zn49  1  0.030170  0.239102  0.751992  1
  Zn  Zn50  1  0.030170  0.260898  0.251992  1
  Zn  Zn51  1  0.969830  0.739102  0.751992  1
  Zn  Zn52  1  0.486305  0.989875  0.998326  1
  Zn  Zn53  1  0.513695  0.010125  0.498326  1
  Zn  Zn54  1  0.513695  0.489875  0.998326  1
  Zn  Zn55  1  0.969830  0.760898  0.251992  1
  Ge  Ge56  1  0.983453  0.990180  0.876449  1
  Ge  Ge57  1  0.016547  0.009820  0.376449  1
  Ge  Ge58  1  0.016547  0.490180  0.876449  1
  Ge  Ge59  1  0.983453  0.509820  0.376449  1
  Ge  Ge60  1  0.473056  0.764507  0.622182  1
  Ge  Ge61  1  0.526944  0.235493  0.122182  1
  Ge  Ge62  1  0.526944  0.264507  0.622182  1
  Ge  Ge63  1  0.473056  0.735493  0.122182  1
