# generated using pymatgen
data_NaSi3BO8
_symmetry_space_group_name_H-M   'P 1'
_cell_length_a   7.26976357
_cell_length_b   7.50699998
_cell_length_c   6.87863913
_cell_angle_alpha   79.25240052
_cell_angle_beta   106.92387108
_cell_angle_gamma   64.75897888
_symmetry_Int_Tables_number   1
_chemical_formula_structural   NaSi3BO8
_chemical_formula_sum   'Na2 Si6 B2 O16'
_cell_volume   303.19956337
_cell_formula_units_Z   2
loop_
 _symmetry_equiv_pos_site_id
 _symmetry_equiv_pos_as_xyz
  1  'x, y, z'
loop_
 _atom_site_type_symbol
 _atom_site_label
 _atom_site_symmetry_multiplicity
 _atom_site_fract_x
 _atom_site_fract_y
 _atom_site_fract_z
 _atom_site_occupancy
  Na  Na0  1  0.734314  0.250793  0.866946  1
  Na  Na1  1  0.265686  0.749207  0.133054  1
  Si  Si2  1  0.184216  0.196212  0.790290  1
  Si  Si3  1  0.815784  0.803788  0.209710  1
  Si  Si4  1  0.195447  0.601230  0.679331  1
  Si  Si5  1  0.804553  0.398770  0.320669  1
  Si  Si6  1  0.451250  0.820384  0.645301  1
  Si  Si7  1  0.548750  0.179616  0.354699  1
  B  B8  1  0.825656  0.850418  0.778338  1
  B  B9  1  0.174344  0.149582  0.221662  1
  O  O10  1  0.856491  0.871388  0.995744  1
  O  O11  1  0.143509  0.128612  0.004256  1
  O  O12  1  0.426386  0.611436  0.724160  1
  O  O13  1  0.573614  0.388564  0.275840  1
  O  O14  1  0.055349  0.746607  0.788423  1
  O  O15  1  0.944651  0.253393  0.211577  1
  O  O16  1  0.349151  0.980937  0.766768  1
  O  O17  1  0.650849  0.019063  0.233232  1
  O  O18  1  0.718105  0.729457  0.728030  1
  O  O19  1  0.281895  0.270543  0.271970  1
  O  O20  1  0.292128  0.348784  0.793641  1
  O  O21  1  0.707872  0.651216  0.206359  1
  O  O22  1  0.689970  0.071460  0.618005  1
  O  O23  1  0.310030  0.928540  0.381995  1
  O  O24  1  0.938767  0.324238  0.583334  1
  O  O25  1  0.061233  0.675762  0.416666  1
