# generated using pymatgen
data_Na2Mo(H2O3)2
_symmetry_space_group_name_H-M   'P 1'
_cell_length_a   8.27600844
_cell_length_b   11.39756910
_cell_length_c   14.41427791
_cell_angle_alpha   90.00000000
_cell_angle_beta   90.00000000
_cell_angle_gamma   90.00000000
_symmetry_Int_Tables_number   1
_chemical_formula_structural   Na2Mo(H2O3)2
_chemical_formula_sum   'Na16 Mo8 H32 O48'
_cell_volume   1359.64662770
_cell_formula_units_Z   8
loop_
 _symmetry_equiv_pos_site_id
 _symmetry_equiv_pos_as_xyz
  1  'x, y, z'
loop_
 _atom_site_type_symbol
 _atom_site_label
 _atom_site_symmetry_multiplicity
 _atom_site_fract_x
 _atom_site_fract_y
 _atom_site_fract_z
 _atom_site_occupancy
  Na  Na0  1  0.822911  0.983475  0.162060  1
  Na  Na1  1  0.677089  0.483475  0.162060  1
  Na  Na2  1  0.183986  0.521514  0.569442  1
  Na  Na3  1  0.316014  0.478486  0.069442  1
  Na  Na4  1  0.822911  0.516525  0.662060  1
  Na  Na5  1  0.177089  0.483475  0.337940  1
  Na  Na6  1  0.683986  0.521514  0.930558  1
  Na  Na7  1  0.816014  0.021514  0.930558  1
  Na  Na8  1  0.816014  0.478486  0.430558  1
  Na  Na9  1  0.683986  0.978486  0.430558  1
  Na  Na10  1  0.322911  0.983475  0.337940  1
  Na  Na11  1  0.322911  0.516525  0.837940  1
  Na  Na12  1  0.316014  0.021514  0.569442  1
  Na  Na13  1  0.177089  0.016525  0.837940  1
  Na  Na14  1  0.183986  0.978486  0.069442  1
  Na  Na15  1  0.677089  0.016525  0.662060  1
  Mo  Mo16  1  0.970876  0.727808  0.045715  1
  Mo  Mo17  1  0.029124  0.272192  0.954285  1
  Mo  Mo18  1  0.470876  0.727808  0.454285  1
  Mo  Mo19  1  0.029124  0.227808  0.454285  1
  Mo  Mo20  1  0.529124  0.227808  0.045715  1
  Mo  Mo21  1  0.970876  0.772192  0.545715  1
  Mo  Mo22  1  0.529124  0.272192  0.545715  1
  Mo  Mo23  1  0.470876  0.772192  0.954285  1
  H  H24  1  0.019453  0.950947  0.663323  1
  H  H25  1  0.513668  0.916176  0.180441  1
  H  H26  1  0.122741  0.742014  0.901878  1
  H  H27  1  0.519453  0.549053  0.336677  1
  H  H28  1  0.980547  0.049053  0.336677  1
  H  H29  1  0.480547  0.450947  0.663323  1
  H  H30  1  0.120394  0.750839  0.194526  1
  H  H31  1  0.379606  0.250839  0.194526  1
  H  H32  1  0.620394  0.750839  0.305474  1
  H  H33  1  0.986332  0.416176  0.180441  1
  H  H34  1  0.377259  0.257986  0.401878  1
  H  H35  1  0.986332  0.083824  0.680441  1
  H  H36  1  0.486332  0.083824  0.819559  1
  H  H37  1  0.620394  0.749161  0.805474  1
  H  H38  1  0.379606  0.249161  0.694526  1
  H  H39  1  0.513668  0.583824  0.680441  1
  H  H40  1  0.980547  0.450947  0.836677  1
  H  H41  1  0.480547  0.049053  0.163323  1
  H  H42  1  0.013668  0.916176  0.319559  1
  H  H43  1  0.122741  0.757986  0.401878  1
  H  H44  1  0.877259  0.257986  0.098122  1
  H  H45  1  0.877259  0.242014  0.598122  1
  H  H46  1  0.486332  0.416176  0.319559  1
  H  H47  1  0.879606  0.250839  0.305474  1
  H  H48  1  0.019453  0.549053  0.163323  1
  H  H49  1  0.622741  0.742014  0.598122  1
  H  H50  1  0.879606  0.249161  0.805474  1
  H  H51  1  0.013668  0.583824  0.819559  1
  H  H52  1  0.377259  0.242014  0.901878  1
  H  H53  1  0.120394  0.749161  0.694526  1
  H  H54  1  0.519453  0.950947  0.836677  1
  H  H55  1  0.622741  0.757986  0.098122  1
  O  O56  1  0.066884  0.115595  0.974083  1
  O  O57  1  0.452176  0.307934  0.165376  1
  O  O58  1  0.047824  0.692066  0.665376  1
  O  O59  1  0.933116  0.615595  0.525917  1
  O  O60  1  0.021209  0.697469  0.912794  1
  O  O61  1  0.379586  0.120643  0.085722  1
  O  O62  1  0.120414  0.620643  0.085722  1
  O  O63  1  0.475719  0.493337  0.288220  1
  O  O64  1  0.478791  0.302531  0.412794  1
  O  O65  1  0.978791  0.197469  0.587206  1
  O  O66  1  0.521209  0.697469  0.587206  1
  O  O67  1  0.978791  0.302531  0.087206  1
  O  O68  1  0.933116  0.884405  0.025916  1
  O  O69  1  0.620414  0.879357  0.914278  1
  O  O70  1  0.952176  0.307934  0.334624  1
  O  O71  1  0.975719  0.493337  0.211780  1
  O  O72  1  0.280812  0.657498  0.432972  1
  O  O73  1  0.975719  0.006663  0.711780  1
  O  O74  1  0.620414  0.620643  0.414278  1
  O  O75  1  0.524281  0.506663  0.711780  1
  O  O76  1  0.024281  0.506663  0.788220  1
  O  O77  1  0.280812  0.842502  0.932972  1
  O  O78  1  0.433116  0.884405  0.474083  1
  O  O79  1  0.219188  0.157498  0.432972  1
  O  O80  1  0.566884  0.384405  0.025916  1
  O  O81  1  0.879586  0.379357  0.914278  1
  O  O82  1  0.879586  0.120643  0.414278  1
  O  O83  1  0.521209  0.802531  0.087206  1
  O  O84  1  0.566884  0.115595  0.525917  1
  O  O85  1  0.120414  0.879357  0.585722  1
  O  O86  1  0.433116  0.615595  0.974083  1
  O  O87  1  0.379586  0.379357  0.585722  1
  O  O88  1  0.475719  0.006663  0.788220  1
  O  O89  1  0.219188  0.342502  0.932972  1
  O  O90  1  0.780812  0.842502  0.567028  1
  O  O91  1  0.478791  0.197469  0.912794  1
  O  O92  1  0.547824  0.807934  0.334624  1
  O  O93  1  0.547824  0.692066  0.834624  1
  O  O94  1  0.452176  0.192066  0.665376  1
  O  O95  1  0.066884  0.384405  0.474083  1
  O  O96  1  0.719188  0.157498  0.067028  1
  O  O97  1  0.952176  0.192066  0.834624  1
  O  O98  1  0.047824  0.807934  0.165376  1
  O  O99  1  0.780812  0.657498  0.067028  1
  O  O100  1  0.524281  0.993337  0.211780  1
  O  O101  1  0.021209  0.802531  0.412794  1
  O  O102  1  0.024281  0.993337  0.288220  1
  O  O103  1  0.719188  0.342502  0.567028  1
