# generated using pymatgen
data_Pr27Se40
_symmetry_space_group_name_H-M   'P 1'
_cell_length_a   7.80314767
_cell_length_b   38.99654184
_cell_length_c   14.92899778
_cell_angle_alpha   29.52629028
_cell_angle_beta   121.35908292
_cell_angle_gamma   109.34956997
_symmetry_Int_Tables_number   1
_chemical_formula_structural   Pr27Se40
_chemical_formula_sum   'Pr27 Se40'
_cell_volume   1830.38081443
_cell_formula_units_Z   1
loop_
 _symmetry_equiv_pos_site_id
 _symmetry_equiv_pos_as_xyz
  1  'x, y, z'
loop_
 _atom_site_type_symbol
 _atom_site_label
 _atom_site_symmetry_multiplicity
 _atom_site_fract_x
 _atom_site_fract_y
 _atom_site_fract_z
 _atom_site_occupancy
  Pr  Pr0  1  0.126941  0.800782  0.872788  1
  Pr  Pr1  1  0.246917  0.976622  0.371189  1
  Pr  Pr2  1  0.120733  0.604366  0.860480  1
  Pr  Pr3  1  0.372725  0.799769  0.618905  1
  Pr  Pr4  1  0.881437  0.926569  0.750748  1
  Pr  Pr5  1  0.630177  0.977386  0.248952  1
  Pr  Pr6  1  0.370796  0.603858  0.617564  1
  Pr  Pr7  1  0.130764  0.196811  0.886793  1
  Pr  Pr8  1  0.246844  0.569702  0.390917  1
  Pr  Pr9  1  0.856217  0.725376  0.741591  1
  Pr  Pr10  1  0.631611  0.775300  0.254955  1
  Pr  Pr11  1  0.745814  0.925109  0.121993  1
  Pr  Pr12  1  0.375543  0.397564  0.630588  1
  Pr  Pr13  1  0.131213  0.993716  0.889401  1
  Pr  Pr14  1  0.253031  0.373232  0.379186  1
  Pr  Pr15  1  0.877307  0.522160  0.754203  1
  Pr  Pr16  1  0.638755  0.570849  0.264852  1
  Pr  Pr17  1  0.753495  0.725438  0.125550  1
  Pr  Pr18  1  0.382136  0.199349  0.632829  1
  Pr  Pr19  1  0.245127  0.180091  0.361881  1
  Pr  Pr20  1  0.876410  0.322356  0.760033  1
  Pr  Pr21  1  0.755917  0.525414  0.127076  1
  Pr  Pr22  1  0.612825  0.375470  0.241612  1
  Pr  Pr23  1  0.362269  0.004321  0.612747  1
  Pr  Pr24  1  0.880117  0.123998  0.753424  1
  Pr  Pr25  1  0.744851  0.328238  0.113924  1
  Pr  Pr26  1  0.621991  0.176023  0.239649  1
  Se  Se27  1  0.001888  0.966454  0.505801  1
  Se  Se28  1  0.002456  0.870346  0.499008  1
  Se  Se29  1  0.504968  0.858308  0.856171  1
  Se  Se30  1  0.994046  0.770389  0.502238  1
  Se  Se31  1  0.147916  0.968221  0.153308  1
  Se  Se32  1  0.505094  0.656465  0.864680  1
  Se  Se33  1  0.643931  0.869869  0.647800  1
  Se  Se34  1  0.997850  0.573483  0.492685  1
  Se  Se35  1  0.503876  0.863920  0.342509  1
  Se  Se36  1  0.146536  0.771719  0.140011  1
  Se  Se37  1  0.352069  0.901699  0.993143  1
  Se  Se38  1  0.994735  0.370803  0.497274  1
  Se  Se39  1  0.502522  0.464395  0.841171  1
  Se  Se40  1  0.657894  0.667567  0.658248  1
  Se  Se41  1  0.498307  0.659327  0.350776  1
  Se  Se42  1  0.998978  0.269785  0.503219  1
  Se  Se43  1  0.152475  0.571412  0.145259  1
  Se  Se44  1  0.353151  0.699921  0.999634  1
  Se  Se45  1  0.492506  0.263552  0.837324  1
  Se  Se46  1  0.636579  0.471416  0.643801  1
  Se  Se47  1  0.003522  0.171515  0.498281  1
  Se  Se48  1  0.839086  0.901075  0.996101  1
  Se  Se49  1  0.498687  0.459983  0.349270  1
  Se  Se50  1  0.995063  0.668213  0.499330  1
  Se  Se51  1  0.007833  0.069497  0.509531  1
  Se  Se52  1  0.154222  0.367775  0.159728  1
  Se  Se53  1  0.353287  0.500207  0.000425  1
  Se  Se54  1  0.498209  0.059037  0.852457  1
  Se  Se55  1  0.651179  0.273753  0.638555  1
  Se  Se56  1  0.851998  0.700671  0.997971  1
  Se  Se57  1  0.999492  0.467994  0.499565  1
  Se  Se58  1  0.510365  0.255384  0.365299  1
  Se  Se59  1  0.156905  0.169736  0.154506  1
  Se  Se60  1  0.357613  0.297924  0.003923  1
  Se  Se61  1  0.648713  0.072488  0.644820  1
  Se  Se62  1  0.856381  0.499449  0.002878  1
  Se  Se63  1  0.498170  0.056671  0.359410  1
  Se  Se64  1  0.341058  0.099697  0.999138  1
  Se  Se65  1  0.840980  0.300517  0.998011  1
  Se  Se66  1  0.852500  0.099491  0.997914  1
