# generated using pymatgen
data_BH6Ru3C6O19F4
_symmetry_space_group_name_H-M   'P 1'
_cell_length_a   11.21069015
_cell_length_b   6.81564932
_cell_length_c   14.50966952
_cell_angle_alpha   90.00000000
_cell_angle_beta   90.00000000
_cell_angle_gamma   90.00000000
_symmetry_Int_Tables_number   1
_chemical_formula_structural   BH6Ru3C6O19F4
_chemical_formula_sum   'B2 H12 Ru6 C12 O38 F8'
_cell_volume   1108.65675408
_cell_formula_units_Z   2
loop_
 _symmetry_equiv_pos_site_id
 _symmetry_equiv_pos_as_xyz
  1  'x, y, z'
loop_
 _atom_site_type_symbol
 _atom_site_label
 _atom_site_symmetry_multiplicity
 _atom_site_fract_x
 _atom_site_fract_y
 _atom_site_fract_z
 _atom_site_occupancy
  B  B0  1  0.500000  0.103348  0.287545  1
  B  B1  1  0.000000  0.896652  0.787545  1
  H  H2  1  0.763578  0.038023  0.895593  1
  H  H3  1  0.236422  0.038023  0.895593  1
  H  H4  1  0.736422  0.961977  0.395593  1
  H  H5  1  0.263578  0.961977  0.395593  1
  H  H6  1  0.758145  0.329763  0.733131  1
  H  H7  1  0.241855  0.329763  0.733131  1
  H  H8  1  0.741855  0.670237  0.233131  1
  H  H9  1  0.258145  0.670237  0.233131  1
  H  H10  1  0.500000  0.667410  0.219884  1
  H  H11  1  0.000000  0.332590  0.719884  1
  H  H12  1  0.500000  0.995911  0.039424  1
  H  H13  1  0.000000  0.004089  0.539424  1
  Ru  Ru14  1  0.500000  0.714571  0.789775  1
  Ru  Ru15  1  0.000000  0.285429  0.289775  1
  Ru  Ru16  1  0.658899  0.509467  0.983324  1
  Ru  Ru17  1  0.341101  0.509467  0.983324  1
  Ru  Ru18  1  0.841101  0.490533  0.483324  1
  Ru  Ru19  1  0.158899  0.490533  0.483324  1
  C  C20  1  0.704536  0.909366  0.894763  1
  C  C21  1  0.295464  0.909366  0.894763  1
  C  C22  1  0.795464  0.090634  0.394763  1
  C  C23  1  0.204536  0.090634  0.394763  1
  C  C24  1  0.702615  0.417132  0.780269  1
  C  C25  1  0.297385  0.417132  0.780269  1
  C  C26  1  0.797385  0.582868  0.280269  1
  C  C27  1  0.202615  0.582868  0.280269  1
  C  C28  1  0.500000  0.628872  0.146202  1
  C  C29  1  0.000000  0.371128  0.646202  1
  C  C30  1  0.500000  0.153242  0.022137  1
  C  C31  1  0.000000  0.846758  0.522137  1
  O  O32  1  0.500000  0.575884  0.922919  1
  O  O33  1  0.000000  0.424116  0.422919  1
  O  O34  1  0.625572  0.910270  0.832106  1
  O  O35  1  0.374428  0.910270  0.832106  1
  O  O36  1  0.874428  0.089730  0.332106  1
  O  O37  1  0.125572  0.089730  0.332106  1
  O  O38  1  0.624067  0.522409  0.742060  1
  O  O39  1  0.375933  0.522409  0.742060  1
  O  O40  1  0.875933  0.477591  0.242060  1
  O  O41  1  0.124067  0.477591  0.242060  1
  O  O42  1  0.722245  0.784140  0.957820  1
  O  O43  1  0.277755  0.784140  0.957820  1
  O  O44  1  0.777755  0.215860  0.457820  1
  O  O45  1  0.222245  0.215860  0.457820  1
  O  O46  1  0.725274  0.394043  0.865111  1
  O  O47  1  0.274726  0.394043  0.865111  1
  O  O48  1  0.774726  0.605957  0.365111  1
  O  O49  1  0.225274  0.605957  0.365111  1
  O  O50  1  0.602068  0.612014  0.109576  1
  O  O51  1  0.397932  0.612014  0.109576  1
  O  O52  1  0.897932  0.387986  0.609576  1
  O  O53  1  0.102068  0.387986  0.609576  1
  O  O54  1  0.602187  0.229085  0.012388  1
  O  O55  1  0.397813  0.229085  0.012388  1
  O  O56  1  0.897813  0.770915  0.512388  1
  O  O57  1  0.102187  0.770915  0.512388  1
  O  O58  1  0.500000  0.833200  0.685747  1
  O  O59  1  0.000000  0.166800  0.185747  1
  O  O60  1  0.790177  0.449707  0.036507  1
  O  O61  1  0.209823  0.449707  0.036507  1
  O  O62  1  0.709823  0.550293  0.536507  1
  O  O63  1  0.290177  0.550293  0.536507  1
  O  O64  1  0.500000  0.593168  0.438968  1
  O  O65  1  0.000000  0.406832  0.938968  1
  O  O66  1  0.698522  0.007307  0.629648  1
  O  O67  1  0.301478  0.007307  0.629648  1
  O  O68  1  0.801478  0.992693  0.129648  1
  O  O69  1  0.198522  0.992693  0.129648  1
  F  F70  1  0.603586  0.068839  0.233142  1
  F  F71  1  0.396414  0.068839  0.233142  1
  F  F72  1  0.896414  0.931161  0.733142  1
  F  F73  1  0.103586  0.931161  0.733142  1
  F  F74  1  0.500000  0.973867  0.364058  1
  F  F75  1  0.000000  0.026133  0.864058  1
  F  F76  1  0.500000  0.301212  0.317868  1
  F  F77  1  0.000000  0.698788  0.817868  1
