# generated using pymatgen
data_SiO2
_symmetry_space_group_name_H-M   'P 1'
_cell_length_a   13.59775627
_cell_length_b   15.76747936
_cell_length_c   15.76747890
_cell_angle_alpha   79.28495714
_cell_angle_beta   64.45702658
_cell_angle_gamma   64.45702690
_symmetry_Int_Tables_number   1
_chemical_formula_structural   SiO2
_chemical_formula_sum   'Si48 O96'
_cell_volume   2752.05587725
_cell_formula_units_Z   48
loop_
 _symmetry_equiv_pos_site_id
 _symmetry_equiv_pos_as_xyz
  1  'x, y, z'
loop_
 _atom_site_type_symbol
 _atom_site_label
 _atom_site_symmetry_multiplicity
 _atom_site_fract_x
 _atom_site_fract_y
 _atom_site_fract_z
 _atom_site_occupancy
  Si  Si0  1  0.078731  0.000000  0.842549  1
  Si  Si1  1  0.064155  0.519665  0.081768  1
  Si  Si2  1  0.665597  0.480330  0.918224  1
  Si  Si3  1  0.280140  0.698137  0.458196  1
  Si  Si4  1  0.416177  0.519670  0.918217  1
  Si  Si5  1  0.419277  0.307080  0.147436  1
  Si  Si6  1  0.436477  0.541798  0.301865  1
  Si  Si7  1  0.854070  0.480333  0.081766  1
  Si  Si8  1  0.273654  0.307079  0.852563  1
  Si  Si9  1  0.921268  0.157458  0.000003  1
  Si  Si10  1  0.307369  0.764843  0.617199  1
  Si  Si11  1  0.075423  0.617185  0.235150  1
  Si  Si12  1  0.261663  0.458201  0.301866  1
  Si  Si13  1  0.021728  0.541795  0.698139  1
  Si  Si14  1  0.433290  0.147441  0.692915  1
  Si  Si15  1  0.280140  0.458196  0.698137  1
  Si  Si16  1  0.927774  0.764845  0.382801  1
  Si  Si17  1  0.416177  0.918217  0.519670  1
  Si  Si18  1  0.321040  0.357933  -0.000000  1
  Si  Si19  1  0.419277  0.147436  0.307080  1
  Si  Si20  1  0.078731  0.842549  0.000000  1
  Si  Si21  1  0.321040  -0.000000  0.357933  1
  Si  Si22  1  0.921268  0.000003  0.157458  1
  Si  Si23  1  0.261820  0.684904  0.068565  1
  Si  Si24  1  0.689437  0.382808  0.235158  1
  Si  Si25  1  0.678964  0.000004  0.642061  1
  Si  Si26  1  0.075423  0.235150  0.617185  1
  Si  Si27  1  0.669617  0.068575  0.315097  1
  Si  Si28  1  0.261663  0.301866  0.458201  1
  Si  Si29  1  0.873774  0.692922  0.852567  1
  Si  Si30  1  0.021728  0.698139  0.541795  1
  Si  Si31  1  0.273654  0.852563  0.307079  1
  Si  Si32  1  0.669617  0.315097  0.068575  1
  Si  Si33  1  0.689437  0.235158  0.382808  1
  Si  Si34  1  0.927774  0.382801  0.764845  1
  Si  Si35  1  0.261820  0.068565  0.684904  1
  Si  Si36  1  0.678964  0.642061  0.000004  1
  Si  Si37  1  0.015286  0.931433  0.315090  1
  Si  Si38  1  0.064155  0.081768  0.519665  1
  Si  Si39  1  0.053261  0.684916  0.931436  1
  Si  Si40  1  0.307369  0.617199  0.764843  1
  Si  Si41  1  0.854070  0.081766  0.480333  1
  Si  Si42  1  0.433290  0.692915  0.147441  1
  Si  Si43  1  0.015286  0.315090  0.931433  1
  Si  Si44  1  0.665597  0.918224  0.480330  1
  Si  Si45  1  0.873774  0.852567  0.692922  1
  Si  Si46  1  0.053261  0.931436  0.684916  1
  Si  Si47  1  0.436477  0.301865  0.541798  1
  O  O48  1  0.180198  0.052799  0.421181  1
  O  O49  1  0.983387  0.092249  0.907753  1
  O  O50  1  0.980035  0.699362  0.459233  1
  O  O51  1  0.021726  0.776354  0.987451  1
  O  O52  1  0.387244  0.826033  0.565951  1
  O  O53  1  0.921187  0.992915  0.409534  1
  O  O54  1  0.389255  0.619809  0.380182  1
  O  O55  1  0.947973  0.589415  0.802861  1
  O  O56  1  0.163686  0.499994  0.672620  1
  O  O57  1  0.990818  0.987455  0.223661  1
  O  O58  1  0.552697  0.499995  0.894609  1
  O  O59  1  0.161567  0.167959  0.671109  1
  O  O60  1  0.341801  0.291916  0.920630  1
  O  O61  1  0.785516  0.012538  0.223666  1
  O  O62  1  0.767020  0.052789  0.578835  1
  O  O63  1  0.167307  0.671125  0.832053  1
  O  O64  1  0.786718  0.434053  0.826028  1
  O  O65  1  0.921187  0.409534  0.992915  1
  O  O66  1  0.180198  0.421181  0.052799  1
  O  O67  1  0.951461  0.304849  0.695146  1
  O  O68  1  0.554343  0.079374  0.708079  1
  O  O69  1  0.320592  0.699360  0.540767  1
  O  O70  1  0.785516  0.223666  0.012538  1
  O  O71  1  0.980035  0.459233  0.699362  1
  O  O72  1  0.936294  0.702769  0.915253  1
  O  O73  1  0.336317  0.327383  0.499995  1
  O  O74  1  0.353410  0.695146  0.695146  1
  O  O75  1  0.085876  0.992922  0.590470  1
  O  O76  1  0.201938  0.012547  0.776342  1
  O  O77  1  0.336317  0.499995  0.327383  1
  O  O78  1  0.936294  0.915253  0.702769  1
  O  O79  1  0.340239  0.197138  0.410587  1
  O  O80  1  0.554343  0.708079  0.079374  1
  O  O81  1  0.873745  0.771189  0.771189  1
  O  O82  1  0.000646  0.328875  0.832041  1
  O  O83  1  0.983387  0.907753  0.092249  1
  O  O84  1  0.366301  0.291903  0.079365  1
  O  O85  1  0.355040  0.228813  0.771187  1
  O  O86  1  0.779238  0.434056  0.173970  1
  O  O87  1  0.021726  0.987451  0.776354  1
  O  O88  1  0.767020  0.578835  0.052789  1
  O  O89  1  0.786718  0.826028  0.434053  1
  O  O90  1  0.462613  0.589407  0.197137  1
  O  O91  1  0.340239  0.410587  0.197138  1
  O  O92  1  0.737550  0.920627  0.708092  1
  O  O93  1  0.669278  0.409528  0.007084  1
  O  O94  1  0.389255  0.380182  0.619809  1
  O  O95  1  0.947973  0.802861  0.589415  1
  O  O96  1  0.108871  0.907751  0.907751  1
  O  O97  1  0.462613  0.197137  0.589407  1
  O  O98  1  0.366301  0.079365  0.291903  1
  O  O99  1  0.046791  0.565941  0.173968  1
  O  O100  1  0.000646  0.832041  0.328875  1
  O  O101  1  0.230557  0.380189  0.380189  1
  O  O102  1  0.148443  0.915244  0.297231  1
  O  O103  1  0.554336  0.297226  0.084753  1
  O  O104  1  0.360912  0.084760  0.702766  1
  O  O105  1  0.323643  0.007087  0.590468  1
  O  O106  1  0.387244  0.565951  0.826033  1
  O  O107  1  0.947302  0.499997  0.105387  1
  O  O108  1  0.201938  0.776342  0.012547  1
  O  O109  1  0.167307  0.832053  0.671125  1
  O  O110  1  0.148443  0.297231  0.915244  1
  O  O111  1  0.990818  0.223661  0.987455  1
  O  O112  1  0.951461  0.695146  0.304849  1
  O  O113  1  0.669278  0.007084  0.409528  1
  O  O114  1  0.360912  0.702766  0.084760  1
  O  O115  1  0.670490  0.167963  0.328880  1
  O  O116  1  0.320592  0.540767  0.699360  1
  O  O117  1  0.560741  0.300631  0.459238  1
  O  O118  1  0.670490  0.328880  0.167963  1
  O  O119  1  0.654152  0.578822  0.947218  1
  O  O120  1  0.085876  0.590470  0.992922  1
  O  O121  1  0.779238  0.173970  0.434056  1
  O  O122  1  0.947302  0.105387  0.499997  1
  O  O123  1  0.249198  0.410583  0.802866  1
  O  O124  1  0.416169  0.228817  0.228817  1
  O  O125  1  0.737550  0.708092  0.920627  1
  O  O126  1  0.249198  0.802866  0.410583  1
  O  O127  1  0.163686  0.672620  0.499994  1
  O  O128  1  0.046791  0.173968  0.565941  1
  O  O129  1  0.743712  0.304861  0.304861  1
  O  O130  1  0.323643  0.590468  0.007087  1
  O  O131  1  0.341801  0.920630  0.291916  1
  O  O132  1  0.398624  0.947203  0.421178  1
  O  O133  1  0.398624  0.421178  0.947203  1
  O  O134  1  0.138634  0.300629  0.540767  1
  O  O135  1  0.560741  0.459238  0.300631  1
  O  O136  1  0.138634  0.540767  0.300629  1
  O  O137  1  0.355040  0.771187  0.228813  1
  O  O138  1  0.554336  0.084753  0.297226  1
  O  O139  1  0.990946  0.619815  0.619815  1
  O  O140  1  0.654152  0.947218  0.578822  1
  O  O141  1  0.552697  0.894609  0.499995  1
  O  O142  1  0.161567  0.671109  0.167959  1
  O  O143  1  0.924355  0.092262  0.092262  1
