# generated using pymatgen
data_SrFeMoO5
_symmetry_space_group_name_H-M   'P 1'
_cell_length_a   4.84515118
_cell_length_b   4.98068263
_cell_length_c   6.08186696
_cell_angle_alpha   111.53972475
_cell_angle_beta   109.53212446
_cell_angle_gamma   93.37995707
_symmetry_Int_Tables_number   1
_chemical_formula_structural   SrFeMoO5
_chemical_formula_sum   'Sr1 Fe1 Mo1 O5'
_cell_volume   125.86838698
_cell_formula_units_Z   1
loop_
 _symmetry_equiv_pos_site_id
 _symmetry_equiv_pos_as_xyz
  1  'x, y, z'
loop_
 _atom_site_type_symbol
 _atom_site_label
 _atom_site_symmetry_multiplicity
 _atom_site_fract_x
 _atom_site_fract_y
 _atom_site_fract_z
 _atom_site_occupancy
  Sr  Sr0  1  0.281553  0.271736  0.489051  1
  Fe  Fe1  1  0.922933  0.925540  0.862149  1
  Mo  Mo2  1  0.555912  0.556521  0.112228  1
  O  O3  1  0.853515  0.874392  0.175549  1
  O  O4  1  0.669849  0.277326  0.884507  1
  O  O5  1  0.684685  0.687566  0.482437  1
  O  O6  1  0.255415  0.646010  0.888683  1
  O  O7  1  0.273237  0.258009  0.099595  1
