# generated using pymatgen
data_NaCaB5H16O17
_symmetry_space_group_name_H-M   'P 1'
_cell_length_a   9.29829979
_cell_length_b   13.42165770
_cell_length_c   6.61481474
_cell_angle_alpha   91.10313448
_cell_angle_beta   111.69465370
_cell_angle_gamma   102.16535841
_symmetry_Int_Tables_number   1
_chemical_formula_structural   NaCaB5H16O17
_chemical_formula_sum   'Na2 Ca2 B10 H32 O34'
_cell_volume   745.51896769
_cell_formula_units_Z   2
loop_
 _symmetry_equiv_pos_site_id
 _symmetry_equiv_pos_as_xyz
  1  'x, y, z'
loop_
 _atom_site_type_symbol
 _atom_site_label
 _atom_site_symmetry_multiplicity
 _atom_site_fract_x
 _atom_site_fract_y
 _atom_site_fract_z
 _atom_site_occupancy
  Na  Na0  1  0.532426  0.497137  0.775717  1
  Na  Na1  1  0.467574  0.502863  0.224283  1
  Ca  Ca2  1  0.843437  0.973149  0.718460  1
  Ca  Ca3  1  0.156563  0.026851  0.281540  1
  B  B4  1  0.940902  0.818024  0.336294  1
  B  B5  1  0.059097  0.181976  0.663706  1
  B  B6  1  0.622274  0.713812  0.091793  1
  B  B7  1  0.377726  0.286188  0.908207  1
  B  B8  1  0.156062  0.798947  0.176607  1
  B  B9  1  0.843938  0.201053  0.823393  1
  B  B10  1  0.825708  0.979979  0.280926  1
  B  B11  1  0.174292  0.020021  0.719074  1
  B  B12  1  0.197781  0.749016  0.592383  1
  B  B13  1  0.802219  0.250984  0.407617  1
  H  H14  1  0.480877  0.046642  0.301280  1
  H  H15  1  0.519123  0.953358  0.698720  1
  H  H16  1  0.214105  0.537284  0.209179  1
  H  H17  1  0.785895  0.462716  0.790821  1
  H  H18  1  0.782588  0.082970  0.986916  1
  H  H19  1  0.217412  0.917030  0.013084  1
  H  H20  1  0.476602  0.807079  0.047771  1
  H  H21  1  0.523398  0.192921  0.952229  1
  H  H22  1  0.336824  0.659213  0.753341  1
  H  H23  1  0.663176  0.340787  0.246659  1
  H  H24  1  0.195778  0.597219  0.004972  1
  H  H25  1  0.804222  0.402781  0.995028  1
  H  H26  1  0.995168  0.755110  0.657657  1
  H  H27  1  0.004832  0.244890  0.342343  1
  H  H28  1  0.888279  0.787420  0.914109  1
  H  H29  1  0.111721  0.212580  0.085891  1
  H  H30  1  0.574687  0.864206  0.831981  1
  H  H31  1  0.425313  0.135794  0.168019  1
  H  H32  1  0.374711  0.820104  0.505782  1
  H  H33  1  0.625289  0.179896  0.494218  1
  H  H34  1  0.733326  0.733167  0.706404  1
  H  H35  1  0.266674  0.266833  0.293596  1
  H  H36  1  0.422664  0.679007  0.418841  1
  H  H37  1  0.577336  0.320993  0.581159  1
  H  H38  1  0.012200  0.653687  0.057965  1
  H  H39  1  0.987800  0.346313  0.942035  1
  H  H40  1  0.893591  0.549207  0.423576  1
  H  H41  1  0.106409  0.450793  0.576424  1
  H  H42  1  0.812311  0.652465  0.251716  1
  H  H43  1  0.187689  0.347535  0.748284  1
  H  H44  1  0.854465  0.523842  0.306621  1
  H  H45  1  0.145535  0.476158  0.693379  1
  O  O46  1  0.794604  0.721609  0.227713  1
  O  O47  1  0.205396  0.278391  0.772287  1
  O  O48  1  0.888967  0.896453  0.404690  1
  O  O49  1  0.111033  0.103547  0.595310  1
  O  O50  1  0.041423  0.763849  0.543156  1
  O  O51  1  0.958577  0.236151  0.456844  1
  O  O52  1  0.027566  0.838408  0.200829  1
  O  O53  1  0.972434  0.161592  0.799171  1
  O  O54  1  0.589663  0.811406  0.077952  1
  O  O55  1  0.410337  0.188594  0.922048  1
  O  O56  1  0.262256  0.775002  0.433410  1
  O  O57  1  0.737744  0.224998  0.566590  1
  O  O58  1  0.747959  0.026761  0.373510  1
  O  O59  1  0.252041  0.973239  0.626490  1
  O  O60  1  0.097631  0.703310  0.039840  1
  O  O61  1  0.902369  0.296690  0.960160  1
  O  O62  1  0.871100  0.004277  0.108316  1
  O  O63  1  0.128900  0.995723  0.891684  1
  O  O64  1  0.270525  0.873396  0.134716  1
  O  O65  1  0.729475  0.126604  0.865284  1
  O  O66  1  0.534500  0.623973  0.008951  1
  O  O67  1  0.465500  0.376027  0.991049  1
  O  O68  1  0.269599  0.706138  0.770430  1
  O  O69  1  0.730401  0.293862  0.229570  1
  O  O70  1  0.835205  0.784434  0.752874  1
  O  O71  1  0.164795  0.215566  0.247126  1
  O  O72  1  0.554917  0.890952  0.685426  1
  O  O73  1  0.445083  0.109048  0.314574  1
  O  O74  1  0.472840  0.626402  0.494829  1
  O  O75  1  0.527160  0.373598  0.505171  1
  O  O76  1  0.795435  0.471054  0.946147  1
  O  O77  1  0.204565  0.528946  0.053853  1
  O  O78  1  0.671977  0.442351  0.484979  1
  O  O79  1  0.328023  0.557649  0.515021  1
