# generated using pymatgen
data_Ca4Si2H2CO11
_symmetry_space_group_name_H-M   'P 1'
_cell_length_a   7.64931320
_cell_length_b   11.67050069
_cell_length_c   23.62572475
_cell_angle_alpha   90.00000000
_cell_angle_beta   90.00000000
_cell_angle_gamma   109.16759291
_symmetry_Int_Tables_number   1
_chemical_formula_structural   Ca4Si2H2CO11
_chemical_formula_sum   'Ca32 Si16 H16 C8 O88'
_cell_volume   1992.17574005
_cell_formula_units_Z   8
loop_
 _symmetry_equiv_pos_site_id
 _symmetry_equiv_pos_as_xyz
  1  'x, y, z'
loop_
 _atom_site_type_symbol
 _atom_site_label
 _atom_site_symmetry_multiplicity
 _atom_site_fract_x
 _atom_site_fract_y
 _atom_site_fract_z
 _atom_site_occupancy
  Ca  Ca0  1  0.656499  0.059538  0.306656  1
  Ca  Ca1  1  0.348342  0.443948  0.807079  1
  Ca  Ca2  1  0.684530  0.623702  0.456116  1
  Ca  Ca3  1  0.156499  0.559538  0.193344  1
  Ca  Ca4  1  0.809027  0.374812  0.543565  1
  Ca  Ca5  1  0.437365  0.625873  0.045387  1
  Ca  Ca6  1  0.029938  0.806604  0.808891  1
  Ca  Ca7  1  0.562268  0.873401  0.545234  1
  Ca  Ca8  1  0.970062  0.193396  0.191109  1
  Ca  Ca9  1  0.315470  0.376298  0.543884  1
  Ca  Ca10  1  0.437732  0.126599  0.454766  1
  Ca  Ca11  1  0.526356  0.803437  0.809407  1
  Ca  Ca12  1  0.309027  0.874812  0.956435  1
  Ca  Ca13  1  0.062635  0.874127  0.545387  1
  Ca  Ca14  1  0.184530  0.123702  0.043884  1
  Ca  Ca15  1  0.473644  0.196563  0.190593  1
  Ca  Ca16  1  0.937732  0.626599  0.045234  1
  Ca  Ca17  1  0.848342  0.943948  0.692921  1
  Ca  Ca18  1  0.190973  0.625188  0.456435  1
  Ca  Ca19  1  0.843501  0.440462  0.806656  1
  Ca  Ca20  1  0.815470  0.876298  0.956116  1
  Ca  Ca21  1  0.026356  0.303437  0.690593  1
  Ca  Ca22  1  0.062268  0.373401  0.954766  1
  Ca  Ca23  1  0.562635  0.374127  0.954613  1
  Ca  Ca24  1  0.151658  0.056052  0.307079  1
  Ca  Ca25  1  0.470062  0.693396  0.308891  1
  Ca  Ca26  1  0.937365  0.125873  0.454613  1
  Ca  Ca27  1  0.690973  0.125188  0.043565  1
  Ca  Ca28  1  0.973644  0.696563  0.309407  1
  Ca  Ca29  1  0.343501  0.940462  0.693344  1
  Ca  Ca30  1  0.651658  0.556052  0.192921  1
  Ca  Ca31  1  0.529938  0.306604  0.691109  1
  Si  Si32  1  0.773266  0.874046  0.086058  1
  Si  Si33  1  0.851241  0.376510  0.414271  1
  Si  Si34  1  0.226734  0.125954  0.913942  1
  Si  Si35  1  0.728071  0.121465  0.781981  1
  Si  Si36  1  0.147037  0.127720  0.781714  1
  Si  Si37  1  0.271929  0.878535  0.218019  1
  Si  Si38  1  0.647037  0.627720  0.718286  1
  Si  Si39  1  0.852963  0.872280  0.218286  1
  Si  Si40  1  0.148759  0.623490  0.585729  1
  Si  Si41  1  0.273266  0.374046  0.413942  1
  Si  Si42  1  0.771929  0.378535  0.281981  1
  Si  Si43  1  0.352963  0.372280  0.281714  1
  Si  Si44  1  0.228071  0.621465  0.718019  1
  Si  Si45  1  0.351241  0.876510  0.085729  1
  Si  Si46  1  0.726734  0.625954  0.586058  1
  Si  Si47  1  0.648759  0.123490  0.914271  1
  H  H48  1  0.144678  0.039829  0.147847  1
  H  H49  1  0.151623  0.547194  0.348488  1
  H  H50  1  0.644678  0.539829  0.352153  1
  H  H51  1  0.348377  0.952806  0.848488  1
  H  H52  1  0.651623  0.047194  0.151512  1
  H  H53  1  0.479940  0.208147  0.349772  1
  H  H54  1  0.020060  0.291853  0.849772  1
  H  H55  1  0.848377  0.452806  0.651512  1
  H  H56  1  0.520060  0.791853  0.650228  1
  H  H57  1  0.355322  0.460171  0.647847  1
  H  H58  1  0.978034  0.205750  0.348576  1
  H  H59  1  0.521966  0.294250  0.848576  1
  H  H60  1  0.979940  0.708147  0.150228  1
  H  H61  1  0.855322  0.960171  0.852153  1
  H  H62  1  0.021966  0.794250  0.651424  1
  H  H63  1  0.478034  0.705750  0.151424  1
  C  C64  1  0.937251  0.623446  0.918483  1
  C  C65  1  0.063010  0.876092  0.420576  1
  C  C66  1  0.936990  0.123908  0.579424  1
  C  C67  1  0.562749  0.876554  0.418483  1
  C  C68  1  0.563010  0.376092  0.079424  1
  C  C69  1  0.062749  0.376554  0.081517  1
  C  C70  1  0.436990  0.623908  0.920576  1
  C  C71  1  0.437251  0.123446  0.581517  1
  O  O72  1  0.487648  0.726106  0.948536  1
  O  O73  1  0.567209  0.879101  0.643789  1
  O  O74  1  0.436402  0.621335  0.866455  1
  O  O75  1  0.512351  0.273894  0.051464  1
  O  O76  1  0.245445  0.623956  0.648038  1
  O  O77  1  0.288419  0.752961  0.242125  1
  O  O78  1  0.718871  0.744214  0.243247  1
  O  O79  1  0.838727  0.999575  0.240868  1
  O  O80  1  0.366536  0.369071  0.351626  1
  O  O81  1  0.808902  0.872128  0.856943  1
  O  O82  1  0.630406  0.003300  0.951418  1
  O  O83  1  0.788419  0.252961  0.257875  1
  O  O84  1  0.939286  0.627553  0.601686  1
  O  O85  1  0.130406  0.503300  0.548582  1
  O  O86  1  0.161273  0.000425  0.759132  1
  O  O87  1  0.436330  0.120861  0.635662  1
  O  O88  1  0.067209  0.379101  0.856211  1
  O  O89  1  0.937809  0.119095  0.357551  1
  O  O90  1  0.218871  0.244214  0.256753  1
  O  O91  1  0.866536  0.869071  0.148374  1
  O  O92  1  0.191098  0.127872  0.143057  1
  O  O93  1  0.405871  0.008323  0.241363  1
  O  O94  1  0.560714  0.872447  0.101686  1
  O  O95  1  0.747467  0.256534  0.452286  1
  O  O96  1  0.936402  0.121335  0.633545  1
  O  O97  1  0.281129  0.255786  0.756753  1
  O  O98  1  0.112340  0.477044  0.051270  1
  O  O99  1  0.757600  0.755933  0.046961  1
  O  O100  1  0.622747  0.504074  0.550357  1
  O  O101  1  0.377253  0.495926  0.449643  1
  O  O102  1  0.562525  0.375372  0.258427  1
  O  O103  1  0.513019  0.774284  0.446470  1
  O  O104  1  0.242400  0.244067  0.953039  1
  O  O105  1  0.987649  0.226106  0.551464  1
  O  O106  1  0.062191  0.880905  0.642449  1
  O  O107  1  0.752533  0.243466  0.952286  1
  O  O108  1  0.613378  0.476854  0.049414  1
  O  O109  1  0.437809  0.619095  0.142449  1
  O  O110  1  0.247467  0.756534  0.047714  1
  O  O111  1  0.905871  0.508323  0.258637  1
  O  O112  1  0.387660  0.022956  0.551270  1
  O  O113  1  0.308902  0.372128  0.643057  1
  O  O114  1  0.688272  0.133158  0.141569  1
  O  O115  1  0.486981  0.225716  0.553530  1
  O  O116  1  0.877253  0.995926  0.050357  1
  O  O117  1  0.691098  0.627872  0.356943  1
  O  O118  1  0.012351  0.773894  0.448536  1
  O  O119  1  0.711581  0.247039  0.757875  1
  O  O120  1  0.887660  0.522956  0.948730  1
  O  O121  1  0.886622  0.023146  0.549414  1
  O  O122  1  0.386622  0.523146  0.950586  1
  O  O123  1  0.254555  0.876044  0.148038  1
  O  O124  1  0.932791  0.620899  0.143789  1
  O  O125  1  0.338727  0.499575  0.259132  1
  O  O126  1  0.257600  0.255933  0.453039  1
  O  O127  1  0.188272  0.633158  0.358431  1
  O  O128  1  0.060714  0.372447  0.398314  1
  O  O129  1  0.563598  0.378665  0.133545  1
  O  O130  1  0.437475  0.624628  0.741573  1
  O  O131  1  0.133464  0.130929  0.851626  1
  O  O132  1  0.661273  0.500425  0.740868  1
  O  O133  1  0.937475  0.124628  0.758427  1
  O  O134  1  0.562191  0.380905  0.857551  1
  O  O135  1  0.113378  0.976854  0.450586  1
  O  O136  1  0.252533  0.743466  0.547714  1
  O  O137  1  0.754555  0.376044  0.351962  1
  O  O138  1  0.094129  0.491677  0.741363  1
  O  O139  1  0.211581  0.747039  0.742125  1
  O  O140  1  0.869594  0.496700  0.451418  1
  O  O141  1  0.311728  0.866842  0.858431  1
  O  O142  1  0.013019  0.274284  0.053530  1
  O  O143  1  0.742400  0.744067  0.546961  1
  O  O144  1  0.122747  0.004074  0.949643  1
  O  O145  1  0.594129  0.991677  0.758637  1
  O  O146  1  0.439286  0.127553  0.898314  1
  O  O147  1  0.986981  0.725716  0.946470  1
  O  O148  1  0.062525  0.875372  0.241573  1
  O  O149  1  0.432791  0.120899  0.356211  1
  O  O150  1  0.633464  0.630929  0.648374  1
  O  O151  1  0.936330  0.620861  0.864338  1
  O  O152  1  0.745445  0.123956  0.851962  1
  O  O153  1  0.563670  0.879139  0.364338  1
  O  O154  1  0.811728  0.366842  0.641569  1
  O  O155  1  0.369594  0.996700  0.048582  1
  O  O156  1  0.063598  0.878665  0.366455  1
  O  O157  1  0.612340  0.977044  0.448730  1
  O  O158  1  0.781129  0.755786  0.743247  1
  O  O159  1  0.063670  0.379139  0.135662  1
