# generated using pymatgen
data_Ca16Zr9Ta7N7O41
_symmetry_space_group_name_H-M   'P 1'
_cell_length_a   5.61687706
_cell_length_b   5.78648372
_cell_length_c   32.18943807
_cell_angle_alpha   89.96719124
_cell_angle_beta   89.87008840
_cell_angle_gamma   89.91321563
_symmetry_Int_Tables_number   1
_chemical_formula_structural   Ca16Zr9Ta7N7O41
_chemical_formula_sum   'Ca16 Zr9 Ta7 N7 O41'
_cell_volume   1046.21601695
_cell_formula_units_Z   1
loop_
 _symmetry_equiv_pos_site_id
 _symmetry_equiv_pos_as_xyz
  1  'x, y, z'
loop_
 _atom_site_type_symbol
 _atom_site_label
 _atom_site_symmetry_multiplicity
 _atom_site_fract_x
 _atom_site_fract_y
 _atom_site_fract_z
 _atom_site_occupancy
  Ca  Ca0  1  0.017266  0.043917  0.061779  1
  Ca  Ca1  1  0.009859  0.042294  0.312858  1
  Ca  Ca2  1  0.017269  0.043771  0.564755  1
  Ca  Ca3  1  0.015628  0.040751  0.814611  1
  Ca  Ca4  1  0.480452  0.548106  0.062278  1
  Ca  Ca5  1  0.486595  0.553015  0.312951  1
  Ca  Ca6  1  0.481788  0.549492  0.814124  1
  Ca  Ca7  1  0.487467  0.542103  0.565777  1
  Ca  Ca8  1  0.503632  0.466496  0.438718  1
  Ca  Ca9  1  0.508125  0.453785  0.186852  1
  Ca  Ca10  1  0.505002  0.449954  0.685324  1
  Ca  Ca11  1  0.506394  0.454963  0.935515  1
  Ca  Ca12  1  0.987063  0.942833  0.187146  1
  Ca  Ca13  1  0.976995  0.942184  0.438197  1
  Ca  Ca14  1  0.985549  0.943471  0.686363  1
  Ca  Ca15  1  0.992003  0.944090  0.934856  1
  Zr  Zr16  1  0.501763  0.002472  0.125341  1
  Zr  Zr17  1  0.994191  0.498522  0.122914  1
  Zr  Zr18  1  0.993410  0.498951  0.000913  1
  Zr  Zr19  1  0.996688  0.498687  0.251118  1
  Zr  Zr20  1  0.994732  0.497035  0.373248  1
  Zr  Zr21  1  0.995612  0.500177  0.624485  1
  Zr  Zr22  1  0.994141  0.497791  0.873258  1
  Zr  Zr23  1  0.993264  0.496786  0.751539  1
  Zr  Zr24  1  0.994745  0.497939  0.502840  1
  Ta  Ta25  1  0.490113  0.003802  0.379740  1
  Ta  Ta26  1  0.513323  0.987124  0.625049  1
  Ta  Ta27  1  0.516398  0.010324  0.874951  1
  Ta  Ta28  1  0.503322  -0.000068  0.998850  1
  Ta  Ta29  1  0.501429  0.002732  0.250738  1
  Ta  Ta30  1  0.498308  0.000626  0.749059  1
  Ta  Ta31  1  0.495323  0.004205  0.498449  1
  N  N32  1  0.404872  0.025619  0.437687  1
  N  N33  1  0.694976  0.716341  0.638202  1
  N  N34  1  0.786002  0.195350  0.888285  1
  N  N35  1  0.893424  0.459113  0.061748  1
  N  N36  1  0.898539  0.464131  0.312319  1
  N  N37  1  0.897496  0.468682  0.811667  1
  N  N38  1  0.900478  0.458669  0.562271  1
  O  O39  1  0.109706  0.544046  0.188239  1
  O  O40  1  0.102894  0.541538  0.437159  1
  O  O41  1  0.108416  0.543247  0.687839  1
  O  O42  1  0.106439  0.541610  0.937746  1
  O  O43  1  0.219361  0.800527  0.012414  1
  O  O44  1  0.217242  0.804457  0.263205  1
  O  O45  1  0.218702  0.804901  0.513240  1
  O  O46  1  0.202013  0.804821  0.111152  1
  O  O47  1  0.219111  0.801629  0.361493  1
  O  O48  1  0.217757  0.804272  0.762327  1
  O  O49  1  0.214243  0.807704  0.612415  1
  O  O50  1  0.212103  0.800798  0.862359  1
  O  O51  1  0.306213  0.279150  0.011958  1
  O  O52  1  0.309610  0.285695  0.263241  1
  O  O53  1  0.311871  0.288923  0.512154  1
  O  O54  1  0.308582  0.282829  0.762711  1
  O  O55  1  0.309313  0.284465  0.361889  1
  O  O56  1  0.309430  0.300975  0.112005  1
  O  O57  1  0.306317  0.288201  0.614077  1
  O  O58  1  0.302559  0.281207  0.862425  1
  O  O59  1  0.398754  0.036236  0.190206  1
  O  O60  1  0.402584  0.030766  0.688848  1
  O  O61  1  0.403498  0.029298  0.937961  1
  O  O62  1  0.600856  0.965391  0.059272  1
  O  O63  1  0.592591  0.969787  0.811674  1
  O  O64  1  0.597163  0.969303  0.310444  1
  O  O65  1  0.593911  0.976803  0.562673  1
  O  O66  1  0.698059  0.706258  0.140367  1
  O  O67  1  0.694791  0.717899  0.236400  1
  O  O68  1  0.694713  0.720080  0.736199  1
  O  O69  1  0.700825  0.722689  0.486632  1
  O  O70  1  0.695827  0.716636  0.387514  1
  O  O71  1  0.694169  0.716109  0.984903  1
  O  O72  1  0.689252  0.713055  0.888203  1
  O  O73  1  0.787939  0.194631  0.236316  1
  O  O74  1  0.784247  0.195210  0.735208  1
  O  O75  1  0.785354  0.199351  0.485606  1
  O  O76  1  0.785515  0.193482  0.985028  1
  O  O77  1  0.800720  0.199058  0.141692  1
  O  O78  1  0.788833  0.192350  0.388071  1
  O  O79  1  0.784882  0.198377  0.639963  1
