# generated using pymatgen
data_Ca(H8O5)2
_symmetry_space_group_name_H-M   'P 1'
_cell_length_a   6.28489990
_cell_length_b   6.20586357
_cell_length_c   11.33005958
_cell_angle_alpha   89.81515083
_cell_angle_beta   84.59901342
_cell_angle_gamma   89.51461045
_symmetry_Int_Tables_number   1
_chemical_formula_structural   Ca(H8O5)2
_chemical_formula_sum   'Ca2 H32 O20'
_cell_volume   439.92991481
_cell_formula_units_Z   2
loop_
 _symmetry_equiv_pos_site_id
 _symmetry_equiv_pos_as_xyz
  1  'x, y, z'
loop_
 _atom_site_type_symbol
 _atom_site_label
 _atom_site_symmetry_multiplicity
 _atom_site_fract_x
 _atom_site_fract_y
 _atom_site_fract_z
 _atom_site_occupancy
  Ca  Ca0  1  0.017261  0.996064  0.519816  1
  Ca  Ca1  1  0.025788  0.009558  0.019896  1
  H  H2  1  0.051542  0.348877  0.360781  1
  H  H3  1  0.299003  0.363650  0.392132  1
  H  H4  1  0.918963  0.718201  0.305107  1
  H  H5  1  0.720500  0.638843  0.393711  1
  H  H6  1  0.708422  0.040596  0.352108  1
  H  H7  1  0.644211  0.289538  0.396873  1
  H  H8  1  0.335221  0.895144  0.310910  1
  H  H9  1  0.376383  0.703237  0.400248  1
  H  H10  1  0.911526  0.278044  0.803778  1
  H  H11  1  0.723990  0.364573  0.897198  1
  H  H12  1  0.053084  0.652941  0.861441  1
  H  H13  1  0.300422  0.638504  0.893061  1
  H  H14  1  0.352996  0.099903  0.812471  1
  H  H15  1  0.382975  0.298744  0.898525  1
  H  H16  1  0.707996  0.960752  0.850223  1
  H  H17  1  0.645459  0.713383  0.896537  1
  H  H18  1  0.809111  0.721252  0.718575  1
  H  H19  1  0.722496  0.610770  0.602677  1
  H  H20  1  0.259381  0.381276  0.605591  1
  H  H21  1  0.017512  0.449501  0.631249  1
  H  H22  1  0.258721  0.809301  0.721525  1
  H  H23  1  0.381438  0.719409  0.603477  1
  H  H24  1  0.611830  0.260364  0.606780  1
  H  H25  1  0.556489  0.018519  0.638412  1
  H  H26  1  0.022629  0.555120  0.132284  1
  H  H27  1  0.265586  0.615527  0.105686  1
  H  H28  1  0.813461  0.282096  0.219713  1
  H  H29  1  0.721618  0.391747  0.104774  1
  H  H30  1  0.634217  0.748698  0.124489  1
  H  H31  1  0.555813  0.986954  0.137656  1
  H  H32  1  0.262254  0.187098  0.219149  1
  H  H33  1  0.383730  0.275692  0.100158  1
  O  O34  1  0.502130  0.483230  0.431773  1
  O  O35  1  0.504768  0.515872  0.932137  1
  O  O36  1  0.498463  0.491893  0.563928  1
  O  O37  1  0.495162  0.498677  0.064413  1
  O  O38  1  0.186088  0.268924  0.358955  1
  O  O39  1  0.853742  0.729953  0.386080  1
  O  O40  1  0.764836  0.184307  0.364468  1
  O  O41  1  0.303224  0.847494  0.392482  1
  O  O42  1  0.858201  0.271835  0.886902  1
  O  O43  1  0.184562  0.735146  0.862328  1
  O  O44  1  0.314369  0.152675  0.892445  1
  O  O45  1  0.763431  0.814798  0.859972  1
  O  O46  1  0.852296  0.677534  0.634348  1
  O  O47  1  0.111682  0.319253  0.626236  1
  O  O48  1  0.308455  0.855666  0.638533  1
  O  O49  1  0.674704  0.122341  0.637508  1
  O  O50  1  0.118503  0.682854  0.127433  1
  O  O51  1  0.855582  0.329811  0.136137  1
  O  O52  1  0.684619  0.894355  0.144032  1
  O  O53  1  0.311564  0.138872  0.136494  1
