# generated using pymatgen
data_Al2Si2H4O9
_symmetry_space_group_name_H-M   'P 1'
_cell_length_a   5.22136706
_cell_length_b   5.20383594
_cell_length_c   7.41852818
_cell_angle_alpha   84.12651754
_cell_angle_beta   98.83810609
_cell_angle_gamma   59.85369237
_symmetry_Int_Tables_number   1
_chemical_formula_structural   Al2Si2H4O9
_chemical_formula_sum   'Al2 Si2 H4 O9'
_cell_volume   168.39410426
_cell_formula_units_Z   1
loop_
 _symmetry_equiv_pos_site_id
 _symmetry_equiv_pos_as_xyz
  1  'x, y, z'
loop_
 _atom_site_type_symbol
 _atom_site_label
 _atom_site_symmetry_multiplicity
 _atom_site_fract_x
 _atom_site_fract_y
 _atom_site_fract_z
 _atom_site_occupancy
  Al  Al0  1  0.796424  0.194600  0.480637  1
  Al  Al1  1  0.125085  0.538083  0.476743  1
  Si  Si2  1  0.333817  0.343106  0.092646  1
  Si  Si3  1  0.676285  0.656930  0.094454  1
  H  H4  1  0.211273  0.916980  0.332283  1
  H  H5  1  0.244814  0.101805  0.731920  1
  H  H6  1  0.542869  0.466380  0.733898  1
  H  H7  1  0.871835  0.766039  0.733720  1
  O  O8  1  0.405259  0.302888  0.317409  1
  O  O9  1  0.784290  0.541257  0.318590  1
  O  O10  1  0.499495  0.500435  0.996724  1
  O  O11  1  0.436989  0.024137  0.022211  1
  O  O12  1  0.965636  0.566824  0.998201  1
  O  O13  1  0.021602  0.919249  0.326276  1
  O  O14  1  0.129724  0.205465  0.604861  1
  O  O15  1  0.509753  0.439702  0.606380  1
  O  O16  1  0.893551  0.819421  0.610147  1
