# generated using pymatgen
data_Ce3Ge5Pd14
_symmetry_space_group_name_H-M   'P 1'
_cell_length_a   9.13331610
_cell_length_b   9.12829182
_cell_length_c   18.37447473
_cell_angle_alpha   90.00000000
_cell_angle_beta   90.00000000
_cell_angle_gamma   90.00000000
_symmetry_Int_Tables_number   1
_chemical_formula_structural   Ce3Ge5Pd14
_chemical_formula_sum   'Ce12 Ge20 Pd56'
_cell_volume   1531.90889152
_cell_formula_units_Z   4
loop_
 _symmetry_equiv_pos_site_id
 _symmetry_equiv_pos_as_xyz
  1  'x, y, z'
loop_
 _atom_site_type_symbol
 _atom_site_label
 _atom_site_symmetry_multiplicity
 _atom_site_fract_x
 _atom_site_fract_y
 _atom_site_fract_z
 _atom_site_occupancy
  Ce  Ce0  1  0.626149  0.750000  0.296281  1
  Ce  Ce1  1  0.373851  0.250000  0.703719  1
  Ce  Ce2  1  0.873851  0.250000  0.796281  1
  Ce  Ce3  1  0.118624  0.250000  0.029581  1
  Ce  Ce4  1  0.628019  0.250000  0.042784  1
  Ce  Ce5  1  0.381376  0.750000  0.529581  1
  Ce  Ce6  1  0.126149  0.750000  0.203719  1
  Ce  Ce7  1  0.881376  0.750000  0.970419  1
  Ce  Ce8  1  0.871981  0.750000  0.542784  1
  Ce  Ce9  1  0.128019  0.250000  0.457216  1
  Ce  Ce10  1  0.371981  0.750000  0.957216  1
  Ce  Ce11  1  0.618624  0.250000  0.470419  1
  Ge  Ge12  1  0.868086  0.992155  0.396854  1
  Ge  Ge13  1  0.631914  0.007845  0.896854  1
  Ge  Ge14  1  0.375975  0.750000  0.764533  1
  Ge  Ge15  1  0.887149  0.501619  0.103293  1
  Ge  Ge16  1  0.612851  0.498381  0.603293  1
  Ge  Ge17  1  0.112851  0.498381  0.896707  1
  Ge  Ge18  1  0.631914  0.492155  0.896854  1
  Ge  Ge19  1  0.624025  0.250000  0.235467  1
  Ge  Ge20  1  0.887149  0.998381  0.103293  1
  Ge  Ge21  1  0.368086  0.992155  0.103146  1
  Ge  Ge22  1  0.868086  0.507845  0.396854  1
  Ge  Ge23  1  0.875975  0.750000  0.735467  1
  Ge  Ge24  1  0.112851  0.001619  0.896707  1
  Ge  Ge25  1  0.612851  0.001619  0.603293  1
  Ge  Ge26  1  0.387149  0.998381  0.396707  1
  Ge  Ge27  1  0.368086  0.507845  0.103146  1
  Ge  Ge28  1  0.387149  0.501619  0.396707  1
  Ge  Ge29  1  0.131914  0.007845  0.603146  1
  Ge  Ge30  1  0.124025  0.250000  0.264533  1
  Ge  Ge31  1  0.131914  0.492155  0.603146  1
  Pd  Pd32  1  0.127801  0.919029  0.032445  1
  Pd  Pd33  1  0.128452  0.068670  0.166732  1
  Pd  Pd34  1  0.214818  0.250000  0.857968  1
  Pd  Pd35  1  0.372200  0.080971  0.532445  1
  Pd  Pd36  1  0.127801  0.580971  0.032445  1
  Pd  Pd37  1  0.121099  0.589125  0.473063  1
  Pd  Pd38  1  0.372200  0.419029  0.532445  1
  Pd  Pd39  1  0.871548  0.931330  0.833268  1
  Pd  Pd40  1  0.714818  0.250000  0.642032  1
  Pd  Pd41  1  0.627800  0.919029  0.467555  1
  Pd  Pd42  1  0.376197  0.961118  0.249884  1
  Pd  Pd43  1  0.123803  0.038882  0.749884  1
  Pd  Pd44  1  0.623803  0.461118  0.750116  1
  Pd  Pd45  1  0.469070  0.750000  0.141775  1
  Pd  Pd46  1  0.628452  0.068670  0.333268  1
  Pd  Pd47  1  0.878901  0.410875  0.526937  1
  Pd  Pd48  1  0.128885  0.481749  0.331833  1
  Pd  Pd49  1  0.378901  0.410875  0.973063  1
  Pd  Pd50  1  0.628885  0.018251  0.168167  1
  Pd  Pd51  1  0.613313  0.750000  0.836098  1
  Pd  Pd52  1  0.371115  0.981749  0.831833  1
  Pd  Pd53  1  0.386687  0.250000  0.163902  1
  Pd  Pd54  1  0.627800  0.580971  0.467555  1
  Pd  Pd55  1  0.371548  0.931330  0.666732  1
  Pd  Pd56  1  0.969070  0.750000  0.358225  1
  Pd  Pd57  1  0.628885  0.481749  0.168167  1
  Pd  Pd58  1  0.371115  0.518251  0.831833  1
  Pd  Pd59  1  0.872200  0.080971  0.967555  1
  Pd  Pd60  1  0.285182  0.750000  0.357968  1
  Pd  Pd61  1  0.876197  0.538882  0.250116  1
  Pd  Pd62  1  0.134205  0.750000  0.828325  1
  Pd  Pd63  1  0.628452  0.431330  0.333268  1
  Pd  Pd64  1  0.865795  0.250000  0.171675  1
  Pd  Pd65  1  0.878901  0.089125  0.526937  1
  Pd  Pd66  1  0.030930  0.250000  0.641775  1
  Pd  Pd67  1  0.785182  0.750000  0.142032  1
  Pd  Pd68  1  0.871548  0.568670  0.833268  1
  Pd  Pd69  1  0.871115  0.981749  0.668167  1
  Pd  Pd70  1  0.378901  0.089125  0.973063  1
  Pd  Pd71  1  0.128885  0.018251  0.331833  1
  Pd  Pd72  1  0.872200  0.419029  0.967555  1
  Pd  Pd73  1  0.376197  0.538882  0.249884  1
  Pd  Pd74  1  0.121099  0.910875  0.473063  1
  Pd  Pd75  1  0.621099  0.910875  0.026937  1
  Pd  Pd76  1  0.871115  0.518251  0.668167  1
  Pd  Pd77  1  0.113313  0.750000  0.663902  1
  Pd  Pd78  1  0.128452  0.431330  0.166732  1
  Pd  Pd79  1  0.365795  0.250000  0.328325  1
  Pd  Pd80  1  0.623803  0.038882  0.750116  1
  Pd  Pd81  1  0.530930  0.250000  0.858225  1
  Pd  Pd82  1  0.886687  0.250000  0.336098  1
  Pd  Pd83  1  0.371548  0.568670  0.666732  1
  Pd  Pd84  1  0.123803  0.461118  0.749884  1
  Pd  Pd85  1  0.634205  0.750000  0.671675  1
  Pd  Pd86  1  0.876197  0.961118  0.250116  1
  Pd  Pd87  1  0.621099  0.589125  0.026937  1
