# generated using pymatgen
data_Li5GeAs3
_symmetry_space_group_name_H-M   'P 1'
_cell_length_a   8.69264786
_cell_length_b   12.90711213
_cell_length_c   10.60637221
_cell_angle_alpha   34.92106129
_cell_angle_beta   34.96363539
_cell_angle_gamma   59.54343931
_symmetry_Int_Tables_number   1
_chemical_formula_structural   Li5GeAs3
_chemical_formula_sum   'Li10 Ge2 As6'
_cell_volume   337.35084716
_cell_formula_units_Z   2
loop_
 _symmetry_equiv_pos_site_id
 _symmetry_equiv_pos_as_xyz
  1  'x, y, z'
loop_
 _atom_site_type_symbol
 _atom_site_label
 _atom_site_symmetry_multiplicity
 _atom_site_fract_x
 _atom_site_fract_y
 _atom_site_fract_z
 _atom_site_occupancy
  Li  Li0  1  0.001624  0.334100  0.245806  1
  Li  Li1  1  0.004697  0.668260  0.244981  1
  Li  Li2  1  0.513592  0.339850  0.236524  1
  Li  Li3  1  0.007978  0.999664  0.246540  1
  Li  Li4  1  0.487531  0.995020  0.760654  1
  Li  Li5  1  0.997871  0.667948  0.751462  1
  Li  Li6  1  0.508493  0.342848  0.740835  1
  Li  Li7  1  0.496256  0.994922  0.251817  1
  Li  Li8  1  0.000808  0.000070  0.752396  1
  Li  Li9  1  0.993879  0.334346  0.753038  1
  Ge  Ge10  1  0.482302  0.666032  0.263818  1
  Ge  Ge11  1  0.509152  0.666697  0.736804  1
  As  As12  1  0.971446  0.989738  0.033361  1
  As  As13  1  0.030152  0.344756  0.965947  1
  As  As14  1  0.507126  0.988983  0.997746  1
  As  As15  1  0.004818  0.668458  0.996410  1
  As  As16  1  0.496112  0.345214  0.999243  1
  As  As17  1  0.502519  0.667729  0.998587  1
