# generated using pymatgen
data_Na3Zr2Si2PO12
_symmetry_space_group_name_H-M   'P 1'
_cell_length_a   9.14256305
_cell_length_b   9.17178679
_cell_length_c   9.30179164
_cell_angle_alpha   61.40410859
_cell_angle_beta   61.09662262
_cell_angle_gamma   60.42078484
_symmetry_Int_Tables_number   1
_chemical_formula_structural   Na3Zr2Si2PO12
_chemical_formula_sum   'Na6 Zr4 Si4 P2 O24'
_cell_volume   563.55185891
_cell_formula_units_Z   2
loop_
 _symmetry_equiv_pos_site_id
 _symmetry_equiv_pos_as_xyz
  1  'x, y, z'
loop_
 _atom_site_type_symbol
 _atom_site_label
 _atom_site_symmetry_multiplicity
 _atom_site_fract_x
 _atom_site_fract_y
 _atom_site_fract_z
 _atom_site_occupancy
  Na  Na0  1  0.057921  0.292393  0.893118  1
  Na  Na1  1  0.445344  0.013750  0.475791  1
  Na  Na2  1  0.616041  0.395849  0.243375  1
  Na  Na3  1  0.387942  0.603295  0.754999  1
  Na  Na4  1  0.935188  0.712416  0.110180  1
  Na  Na5  1  0.749053  0.916353  0.659903  1
  Zr  Zr6  1  0.159104  0.644551  0.553859  1
  Zr  Zr7  1  0.642627  0.156026  0.054447  1
  Zr  Zr8  1  0.355628  0.844320  0.947761  1
  Zr  Zr9  1  0.851593  0.353972  0.438763  1
  Si  Si10  1  0.252394  0.464399  0.240402  1
  Si  Si11  1  0.467594  0.247443  0.735993  1
  Si  Si12  1  0.534289  0.752001  0.265156  1
  Si  Si13  1  0.748940  0.536416  0.755582  1
  P  P14  1  0.043949  0.963054  0.745956  1
  P  P15  1  0.953988  0.039810  0.252293  1
  O  O16  1  0.106421  0.002248  0.085112  1
  O  O17  1  0.002498  0.116921  0.585795  1
  O  O18  1  0.068436  0.436272  0.294633  1
  O  O19  1  0.270568  0.626754  0.055092  1
  O  O20  1  0.427139  0.282895  0.228955  1
  O  O21  1  0.251888  0.520414  0.384176  1
  O  O22  1  0.056389  0.788049  0.744330  1
  O  O23  1  0.427591  0.069279  0.789469  1
  O  O24  1  0.285283  0.420087  0.723261  1
  O  O25  1  0.479224  0.762548  0.114687  1
  O  O26  1  0.777015  0.056458  0.251345  1
  O  O27  1  0.374277  0.730798  0.450966  1
  O  O28  1  0.636147  0.255264  0.556304  1
  O  O29  1  0.222537  0.940371  0.748764  1
  O  O30  1  0.519095  0.240242  0.886850  1
  O  O31  1  0.714630  0.575522  0.275371  1
  O  O32  1  0.583080  0.924454  0.211834  1
  O  O33  1  0.933980  0.218343  0.250958  1
  O  O34  1  0.747782  0.481194  0.612919  1
  O  O35  1  0.576890  0.720378  0.770169  1
  O  O36  1  0.735499  0.372514  0.940128  1
  O  O37  1  0.927273  0.577486  0.701131  1
  O  O38  1  0.996417  0.887668  0.414137  1
  O  O39  1  0.892345  0.997797  0.914037  1
