# generated using pymatgen
data_Pb4SeBr6
_symmetry_space_group_name_H-M   'P 1'
_cell_length_a   4.37446151
_cell_length_b   9.75417252
_cell_length_c   9.73541288
_cell_angle_alpha   62.92374312
_cell_angle_beta   77.01997172
_cell_angle_gamma   77.20763637
_symmetry_Int_Tables_number   1
_chemical_formula_structural   Pb4SeBr6
_chemical_formula_sum   'Pb4 Se1 Br6'
_cell_volume   357.00795438
_cell_formula_units_Z   1
loop_
 _symmetry_equiv_pos_site_id
 _symmetry_equiv_pos_as_xyz
  1  'x, y, z'
loop_
 _atom_site_type_symbol
 _atom_site_label
 _atom_site_symmetry_multiplicity
 _atom_site_fract_x
 _atom_site_fract_y
 _atom_site_fract_z
 _atom_site_occupancy
  Pb  Pb0  1  0.995585  -0.004429  0.005771  1
  Pb  Pb1  1  0.248473  0.535571  0.981450  1
  Pb  Pb2  1  0.495671  0.538867  0.462264  1
  Pb  Pb3  1  0.755854  0.020446  0.466911  1
  Se  Se4  1  -0.001763  0.715058  0.283140  1
  Br  Br5  1  0.361700  0.101837  0.168466  1
  Br  Br6  1  0.629862  0.833771  0.897292  1
  Br  Br7  1  0.122674  0.169212  0.584174  1
  Br  Br8  1  0.872782  0.417270  0.831885  1
  Br  Br9  1  0.306808  0.767760  0.613464  1
  Br  Br10  1  0.690966  0.386318  0.233480  1
