# generated using pymatgen
data_CdH9C3NCl3
_symmetry_space_group_name_H-M   'P 1'
_cell_length_a   9.29712620
_cell_length_b   9.29711275
_cell_length_c   6.82666858
_cell_angle_alpha   90.00000000
_cell_angle_beta   90.00000000
_cell_angle_gamma   119.99967727
_symmetry_Int_Tables_number   1
_chemical_formula_structural   CdH9C3NCl3
_chemical_formula_sum   'Cd2 H18 C6 N2 Cl6'
_cell_volume   511.01975275
_cell_formula_units_Z   2
loop_
 _symmetry_equiv_pos_site_id
 _symmetry_equiv_pos_as_xyz
  1  'x, y, z'
loop_
 _atom_site_type_symbol
 _atom_site_label
 _atom_site_symmetry_multiplicity
 _atom_site_fract_x
 _atom_site_fract_y
 _atom_site_fract_z
 _atom_site_occupancy
  Cd  Cd0  1  0.000000  0.000000  0.500000  1
  Cd  Cd1  1  0.000000  0.000000  0.000000  1
  H  H2  1  0.270688  0.854381  0.250000  1
  H  H3  1  0.583707  0.729318  0.250000  1
  H  H4  1  0.145624  0.416307  0.250000  1
  H  H5  1  0.729312  0.145619  0.750000  1
  H  H6  1  0.416293  0.270682  0.750000  1
  H  H7  1  0.854376  0.583693  0.750000  1
  H  H8  1  0.459484  0.899585  0.378273  1
  H  H9  1  0.440104  0.540521  0.378270  1
  H  H10  1  0.100427  0.559904  0.378272  1
  H  H11  1  0.540516  0.100415  0.878273  1
  H  H12  1  0.559896  0.459479  0.878270  1
  H  H13  1  0.899573  0.440096  0.878272  1
  H  H14  1  0.540516  0.100415  0.621727  1
  H  H15  1  0.559896  0.459479  0.621730  1
  H  H16  1  0.899573  0.440096  0.621728  1
  H  H17  1  0.459484  0.899585  0.121727  1
  H  H18  1  0.440104  0.540521  0.121730  1
  H  H19  1  0.100427  0.559904  0.121728  1
  C  C20  1  0.379927  0.839044  0.250000  1
  C  C21  1  0.459111  0.620073  0.250000  1
  C  C22  1  0.160962  0.540882  0.250000  1
  C  C23  1  0.620073  0.160956  0.750000  1
  C  C24  1  0.540889  0.379927  0.750000  1
  C  C25  1  0.839038  0.459118  0.750000  1
  N  N26  1  0.333344  0.666674  0.250000  1
  N  N27  1  0.666656  0.333326  0.750000  1
  Cl  Cl28  1  0.848141  0.104728  0.250000  1
  Cl  Cl29  1  0.256590  0.151861  0.250000  1
  Cl  Cl30  1  0.895274  0.743413  0.250000  1
  Cl  Cl31  1  0.151859  0.895272  0.750000  1
  Cl  Cl32  1  0.743410  0.848139  0.750000  1
  Cl  Cl33  1  0.104726  0.256587  0.750000  1
