# generated using pymatgen
data_K2MnSnSe4
_symmetry_space_group_name_H-M   'P 1'
_cell_length_a   8.42011486
_cell_length_b   10.74336414
_cell_length_c   10.74336414
_cell_angle_alpha   90.00000000
_cell_angle_beta   90.00000000
_cell_angle_gamma   90.00000000
_symmetry_Int_Tables_number   1
_chemical_formula_structural   K2MnSnSe4
_chemical_formula_sum   'K8 Mn4 Sn4 Se16'
_cell_volume   971.84858816
_cell_formula_units_Z   4
loop_
 _symmetry_equiv_pos_site_id
 _symmetry_equiv_pos_as_xyz
  1  'x, y, z'
loop_
 _atom_site_type_symbol
 _atom_site_label
 _atom_site_symmetry_multiplicity
 _atom_site_fract_x
 _atom_site_fract_y
 _atom_site_fract_z
 _atom_site_occupancy
  K  K0  1  0.750000  0.252822  0.247178  1
  K  K1  1  0.500000  0.500000  0.500000  1
  K  K2  1  0.000000  0.000000  0.000000  1
  K  K3  1  0.750000  0.747178  0.752822  1
  K  K4  1  0.250000  0.000000  0.500000  1
  K  K5  1  0.750000  0.500000  0.000000  1
  K  K6  1  0.250000  0.247178  0.747178  1
  K  K7  1  0.250000  0.752822  0.252822  1
  Mn  Mn8  1  0.000000  0.500000  0.500000  1
  Mn  Mn9  1  0.500000  0.000000  0.000000  1
  Mn  Mn10  1  0.750000  0.000000  0.500000  1
  Mn  Mn11  1  0.250000  0.500000  0.000000  1
  Sn  Sn12  1  0.250000  0.278435  0.221565  1
  Sn  Sn13  1  0.250000  0.721565  0.778435  1
  Sn  Sn14  1  0.750000  0.221565  0.721565  1
  Sn  Sn15  1  0.750000  0.778435  0.278435  1
  Se  Se16  1  0.106882  0.288205  0.434578  1
  Se  Se17  1  0.929254  0.971393  0.304768  1
  Se  Se18  1  0.429254  0.471393  0.195232  1
  Se  Se19  1  0.106882  0.711795  0.565422  1
  Se  Se20  1  0.929254  0.028607  0.695232  1
  Se  Se21  1  0.070746  0.695232  0.971393  1
  Se  Se22  1  0.429254  0.528607  0.804768  1
  Se  Se23  1  0.570746  0.804768  0.471393  1
  Se  Se24  1  0.606882  0.211795  0.934578  1
  Se  Se25  1  0.606882  0.788205  0.065422  1
  Se  Se26  1  0.570746  0.195232  0.528607  1
  Se  Se27  1  0.893118  0.565422  0.288205  1
  Se  Se28  1  0.893118  0.434578  0.711795  1
  Se  Se29  1  0.393118  0.934578  0.788205  1
  Se  Se30  1  0.070746  0.304768  0.028607  1
  Se  Se31  1  0.393118  0.065422  0.211795  1
