# generated using pymatgen
data_Fe2Co4Ge2(CO)21
_symmetry_space_group_name_H-M   'P 1'
_cell_length_a   9.35717209
_cell_length_b   19.28317668
_cell_length_c   20.06736594
_cell_angle_alpha   107.23764067
_cell_angle_beta   103.48224023
_cell_angle_gamma   90.00000112
_symmetry_Int_Tables_number   1
_chemical_formula_structural   Fe2Co4Ge2(CO)21
_chemical_formula_sum   'Fe8 Co16 Ge8 C84 O84'
_cell_volume   3353.62086376
_cell_formula_units_Z   4
loop_
 _symmetry_equiv_pos_site_id
 _symmetry_equiv_pos_as_xyz
  1  'x, y, z'
loop_
 _atom_site_type_symbol
 _atom_site_label
 _atom_site_symmetry_multiplicity
 _atom_site_fract_x
 _atom_site_fract_y
 _atom_site_fract_z
 _atom_site_occupancy
  Fe  Fe0  1  0.511510  0.442572  0.317169  1
  Fe  Fe1  1  0.488490  0.557428  0.682831  1
  Fe  Fe2  1  0.521641  0.680914  0.792780  1
  Fe  Fe3  1  0.271140  0.180914  0.792780  1
  Fe  Fe4  1  0.478359  0.319086  0.207220  1
  Fe  Fe5  1  0.805659  0.942572  0.317169  1
  Fe  Fe6  1  0.728860  0.819086  0.207220  1
  Fe  Fe7  1  0.194341  0.057428  0.682831  1
  Co  Co8  1  0.620506  0.503186  0.888969  1
  Co  Co9  1  0.140460  0.472915  0.146560  1
  Co  Co10  1  0.859540  0.527085  0.853440  1
  Co  Co11  1  0.019174  0.243984  0.610419  1
  Co  Co12  1  0.006100  0.972915  0.146560  1
  Co  Co13  1  0.379494  0.496814  0.111031  1
  Co  Co14  1  0.268463  0.003186  0.888969  1
  Co  Co15  1  0.824848  0.208719  0.668462  1
  Co  Co16  1  0.156387  0.291281  0.331538  1
  Co  Co17  1  0.843613  0.708719  0.668462  1
  Co  Co18  1  0.980826  0.756016  0.389581  1
  Co  Co19  1  0.993900  0.027085  0.853440  1
  Co  Co20  1  0.591246  0.743984  0.610419  1
  Co  Co21  1  0.175152  0.791281  0.331538  1
  Co  Co22  1  0.408754  0.256016  0.389581  1
  Co  Co23  1  0.731537  0.996814  0.111031  1
  Ge  Ge24  1  0.367784  0.334665  0.310335  1
  Ge  Ge25  1  0.633271  0.571992  0.807459  1
  Ge  Ge26  1  0.366729  0.428008  0.192541  1
  Ge  Ge27  1  0.632216  0.665335  0.689665  1
  Ge  Ge28  1  0.174188  0.071992  0.807459  1
  Ge  Ge29  1  0.057449  0.165335  0.689665  1
  Ge  Ge30  1  0.942551  0.834665  0.310335  1
  Ge  Ge31  1  0.825812  0.928008  0.192541  1
  C  C32  1  0.879142  0.620856  0.616546  1
  C  C33  1  0.558964  0.239832  0.221686  1
  C  C34  1  0.618792  0.517877  0.315012  1
  C  C35  1  0.594084  0.262533  0.387373  1
  C  C36  1  0.423796  0.987973  0.852923  1
  C  C37  1  0.433130  0.678683  0.861585  1
  C  C38  1  0.737404  0.120856  0.616546  1
  C  C39  1  0.378577  0.122361  0.721920  1
  C  C40  1  0.895137  0.055041  0.183135  1
  C  C41  1  0.930868  0.613881  0.918552  1
  C  C42  1  0.336872  0.559691  0.061053  1
  C  C43  1  0.576204  0.012027  0.147077  1
  C  C44  1  0.307140  0.738712  0.369024  1
  C  C45  1  0.640304  0.585387  0.962536  1
  C  C46  1  0.428454  0.178683  0.861585  1
  C  C47  1  0.702783  0.802577  0.696294  1
  C  C48  1  0.987683  0.113881  0.918552  1
  C  C49  1  0.061885  0.238712  0.369024  1
  C  C50  1  0.006490  0.697423  0.303706  1
  C  C51  1  0.955135  0.725602  0.755730  1
  C  C52  1  0.065572  0.475686  0.219924  1
  C  C53  1  0.120858  0.379144  0.383454  1
  C  C54  1  0.677767  0.914613  0.037464  1
  C  C55  1  0.343344  0.622361  0.721920  1
  C  C56  1  0.441036  0.760168  0.778314  1
  C  C57  1  0.570873  0.512027  0.147077  1
  C  C58  1  0.297217  0.197423  0.303706  1
  C  C59  1  0.429127  0.487973  0.852923  1
  C  C60  1  0.973155  0.313133  0.569257  1
  C  C61  1  0.359696  0.414613  0.037464  1
  C  C62  1  0.663128  0.440309  0.938947  1
  C  C63  1  0.199404  0.774398  0.244270  1
  C  C64  1  0.631163  0.503772  0.654755  1
  C  C65  1  0.927163  0.169260  0.535832  1
  C  C66  1  0.391331  0.330740  0.464168  1
  C  C67  1  0.606897  0.441743  0.404613  1
  C  C68  1  0.104863  0.944959  0.816865  1
  C  C69  1  0.938115  0.761288  0.630976  1
  C  C70  1  0.621423  0.877639  0.278080  1
  C  C71  1  0.712001  0.444959  0.816865  1
  C  C72  1  0.206711  0.237467  0.612627  1
  C  C73  1  0.202284  0.058257  0.595387  1
  C  C74  1  0.800596  0.225602  0.755730  1
  C  C75  1  0.696220  0.017877  0.315012  1
  C  C76  1  0.976408  0.996228  0.345245  1
  C  C77  1  0.154352  0.975686  0.219924  1
  C  C78  1  0.980016  0.473987  0.896225  1
  C  C79  1  0.287999  0.555041  0.183135  1
  C  C80  1  0.023592  0.003772  0.654755  1
  C  C81  1  0.153599  0.227695  0.846841  1
  C  C82  1  0.571546  0.821317  0.138415  1
  C  C83  1  0.797716  0.941743  0.404613  1
  C  C84  1  0.608669  0.669260  0.535832  1
  C  C85  1  0.368837  0.496228  0.345245  1
  C  C86  1  0.306758  0.272305  0.153159  1
  C  C87  1  0.724180  0.059691  0.061053  1
  C  C88  1  0.019984  0.526013  0.103775  1
  C  C89  1  0.044865  0.274398  0.244270  1
  C  C90  1  0.656656  0.377639  0.278080  1
  C  C91  1  0.566870  0.321317  0.138415  1
  C  C92  1  0.845648  0.024314  0.780076  1
  C  C93  1  0.275820  0.940309  0.938947  1
  C  C94  1  0.846401  0.772305  0.153159  1
  C  C95  1  0.262596  0.879144  0.383454  1
  C  C96  1  0.693242  0.727695  0.846841  1
  C  C97  1  0.403899  0.186867  0.430743  1
  C  C98  1  0.322233  0.085387  0.962536  1
  C  C99  1  0.405916  0.737467  0.612627  1
  C  C100  1  0.303780  0.982123  0.684988  1
  C  C101  1  0.692860  0.261288  0.630976  1
  C  C102  1  0.916209  0.973987  0.896225  1
  C  C103  1  0.793289  0.762533  0.387373  1
  C  C104  1  0.083791  0.026013  0.103775  1
  C  C105  1  0.026845  0.686867  0.430743  1
  C  C106  1  0.072837  0.830740  0.464168  1
  C  C107  1  0.012317  0.886119  0.081448  1
  C  C108  1  0.069132  0.386119  0.081448  1
  C  C109  1  0.381208  0.482123  0.684988  1
  C  C110  1  0.337278  0.260168  0.778314  1
  C  C111  1  0.596101  0.813133  0.569257  1
  C  C112  1  0.393103  0.558257  0.595387  1
  C  C113  1  0.662722  0.739832  0.221686  1
  C  C114  1  0.993510  0.302577  0.696294  1
  C  C115  1  0.934428  0.524314  0.780076  1
  O  O116  1  0.052791  0.641846  0.457997  1
  O  O117  1  0.913112  0.736986  0.115454  1
  O  O118  1  0.057733  0.438536  0.923755  1
  O  O119  1  0.025062  0.832611  0.038976  1
  O  O120  1  0.915071  0.565860  0.584984  1
  O  O121  1  0.279973  0.899445  0.971417  1
  O  O122  1  0.405206  0.141846  0.457997  1
  O  O123  1  0.278180  0.144443  0.253983  1
  O  O124  1  0.712022  0.463978  0.631107  1
  O  O125  1  0.947209  0.358154  0.542003  1
  O  O126  1  0.793544  0.946715  0.462993  1
  O  O127  1  0.720027  0.100555  0.028583  1
  O  O128  1  0.388212  0.703700  0.395541  1
  O  O129  1  0.494707  0.125717  0.709431  1
  O  O130  1  0.373156  0.681391  0.906422  1
  O  O131  1  0.327333  0.232681  0.607065  1
  O  O132  1  0.133978  0.061464  0.076245  1
  O  O133  1  0.785276  0.374283  0.290569  1
  O  O134  1  0.007329  0.203700  0.395541  1
  O  O135  1  0.769079  0.233387  0.809974  1
  O  O136  1  0.942267  0.561464  0.076245  1
  O  O137  1  0.919640  0.112462  0.227888  1
  O  O138  1  0.691752  0.387538  0.772112  1
  O  O139  1  0.992671  0.796300  0.604459  1
  O  O140  1  0.959105  0.266613  0.190026  1
  O  O141  1  0.086888  0.263014  0.884546  1
  O  O142  1  0.651475  0.638554  0.009935  1
  O  O143  1  0.287978  0.536022  0.368893  1
  O  O144  1  0.611788  0.296300  0.604459  1
  O  O145  1  0.919085  0.963978  0.631107  1
  O  O146  1  0.533266  0.181391  0.906422  1
  O  O147  1  0.669449  0.446715  0.462993  1
  O  O148  1  0.997579  0.523649  0.736716  1
  O  O149  1  0.310312  0.430623  0.679121  1
  O  O150  1  0.301082  0.482034  0.837665  1
  O  O151  1  0.385756  0.378005  0.514923  1
  O  O152  1  0.720268  0.267319  0.392935  1
  O  O153  1  0.721820  0.855557  0.746017  1
  O  O154  1  0.388027  0.813861  0.776445  1
  O  O155  1  0.368809  0.930623  0.679121  1
  O  O156  1  0.308555  0.600555  0.028583  1
  O  O157  1  0.691445  0.399445  0.971417  1
  O  O158  1  0.866022  0.938536  0.923755  1
  O  O159  1  0.689688  0.569377  0.320879  1
  O  O160  1  0.463418  0.017966  0.162335  1
  O  O161  1  0.080360  0.887538  0.772112  1
  O  O162  1  0.505293  0.874283  0.290569  1
  O  O163  1  0.611582  0.686139  0.223555  1
  O  O164  1  0.358460  0.138554  0.009935  1
  O  O165  1  0.330086  0.934140  0.415016  1
  O  O166  1  0.002421  0.476351  0.263284  1
  O  O167  1  0.870833  0.121995  0.485077  1
  O  O168  1  0.308248  0.612462  0.227888  1
  O  O169  1  0.388418  0.313861  0.776445  1
  O  O170  1  0.986087  0.667389  0.961024  1
  O  O171  1  0.536582  0.982034  0.837665  1
  O  O172  1  0.698918  0.517966  0.162335  1
  O  O173  1  0.611973  0.186139  0.223555  1
  O  O174  1  0.129167  0.878005  0.514923  1
  O  O175  1  0.641540  0.861446  0.990065  1
  O  O176  1  0.260863  0.976351  0.263284  1
  O  O177  1  0.672667  0.767319  0.392935  1
  O  O178  1  0.974938  0.167389  0.961024  1
  O  O179  1  0.202342  0.236986  0.115454  1
  O  O180  1  0.975803  0.644443  0.253983  1
  O  O181  1  0.230921  0.766613  0.190026  1
  O  O182  1  0.348525  0.361446  0.990065  1
  O  O183  1  0.594794  0.858154  0.542003  1
  O  O184  1  0.739137  0.023649  0.736716  1
  O  O185  1  0.279732  0.732681  0.607065  1
  O  O186  1  0.797658  0.763014  0.884546  1
  O  O187  1  0.626844  0.318609  0.093578  1
  O  O188  1  0.084929  0.434140  0.415016  1
  O  O189  1  0.024197  0.355557  0.746017  1
  O  O190  1  0.206456  0.053285  0.537007  1
  O  O191  1  0.040895  0.733387  0.809974  1
  O  O192  1  0.614244  0.621995  0.485077  1
  O  O193  1  0.631191  0.069377  0.320879  1
  O  O194  1  0.214724  0.625717  0.709431  1
  O  O195  1  0.330551  0.553285  0.537007  1
  O  O196  1  0.466734  0.818609  0.093578  1
  O  O197  1  0.013913  0.332611  0.038976  1
  O  O198  1  0.669914  0.065860  0.584984  1
  O  O199  1  0.080915  0.036022  0.368893  1
