# generated using pymatgen
data_NaLiSO4
_symmetry_space_group_name_H-M   'P 1'
_cell_length_a   7.76769060
_cell_length_b   7.76769060
_cell_length_c   9.95878376
_cell_angle_alpha   90.00000000
_cell_angle_beta   90.00000000
_cell_angle_gamma   119.99999999
_symmetry_Int_Tables_number   1
_chemical_formula_structural   NaLiSO4
_chemical_formula_sum   'Na6 Li6 S6 O24'
_cell_volume   520.38020921
_cell_formula_units_Z   6
loop_
 _symmetry_equiv_pos_site_id
 _symmetry_equiv_pos_as_xyz
  1  'x, y, z'
loop_
 _atom_site_type_symbol
 _atom_site_label
 _atom_site_symmetry_multiplicity
 _atom_site_fract_x
 _atom_site_fract_y
 _atom_site_fract_z
 _atom_site_occupancy
  Li  Li0  1  0.033765  0.787536  0.759905  1
  Li  Li1  1  0.212464  0.246229  0.759905  1
  Li  Li2  1  0.753771  0.966235  0.759905  1
  Li  Li3  1  0.787536  0.033765  0.259905  1
  Li  Li4  1  0.246229  0.212464  0.259905  1
  Li  Li5  1  0.966235  0.753771  0.259905  1
  O  O6  1  0.481336  0.322780  0.815131  1
  O  O7  1  0.677220  0.158556  0.815131  1
  O  O8  1  0.841444  0.518664  0.815131  1
  O  O9  1  0.322780  0.481336  0.315131  1
  O  O10  1  0.158556  0.677220  0.315131  1
  O  O11  1  0.518664  0.841444  0.315131  1
  O  O12  1  0.000000  0.000000  0.152006  1
  O  O13  1  0.000000  0.000000  0.652006  1
  O  O14  1  0.666667  0.333333  0.346710  1
  O  O15  1  0.333333  0.666667  0.846710  1
  O  O16  1  0.333333  0.666667  0.114699  1
  O  O17  1  0.666667  0.333333  0.614699  1
  O  O18  1  0.791319  0.888252  0.949652  1
  O  O19  1  0.111748  0.903067  0.949652  1
  O  O20  1  0.096933  0.208681  0.949652  1
  O  O21  1  0.888252  0.791319  0.449652  1
  O  O22  1  0.903067  0.111748  0.449652  1
  O  O23  1  0.208681  0.096933  0.449652  1
  O  O24  1  0.768413  0.541909  0.145575  1
  O  O25  1  0.458091  0.226504  0.145575  1
  O  O26  1  0.773496  0.231587  0.145575  1
  O  O27  1  0.541909  0.768413  0.645575  1
  O  O28  1  0.226504  0.458091  0.645575  1
  O  O29  1  0.231587  0.773496  0.645575  1
  Na  Na30  1  0.973993  0.448242  0.490241  1
  Na  Na31  1  0.551758  0.525752  0.490241  1
  Na  Na32  1  0.474248  0.026007  0.490241  1
  Na  Na33  1  0.448242  0.973993  0.990241  1
  Na  Na34  1  0.525752  0.551758  0.990241  1
  Na  Na35  1  0.026007  0.474248  0.990241  1
  S  S36  1  0.000000  0.000000  0.999297  1
  S  S37  1  0.000000  0.000000  0.499297  1
  S  S38  1  0.666667  0.333333  0.197581  1
  S  S39  1  0.333333  0.666667  0.697581  1
  S  S40  1  0.333333  0.666667  0.264194  1
  S  S41  1  0.666667  0.333333  0.764194  1
