# generated using pymatgen
data_CaAlSiO4F
_symmetry_space_group_name_H-M   'P 1'
_cell_length_a   5.39074833
_cell_length_b   5.39074833
_cell_length_c   7.03942022
_cell_angle_alpha   104.90505942
_cell_angle_beta   104.90505941
_cell_angle_gamma   105.48565638
_symmetry_Int_Tables_number   1
_chemical_formula_structural   CaAlSiO4F
_chemical_formula_sum   'Ca2 Al2 Si2 O8 F2'
_cell_volume   178.46152645
_cell_formula_units_Z   2
loop_
 _symmetry_equiv_pos_site_id
 _symmetry_equiv_pos_as_xyz
  1  'x, y, z'
loop_
 _atom_site_type_symbol
 _atom_site_label
 _atom_site_symmetry_multiplicity
 _atom_site_fract_x
 _atom_site_fract_y
 _atom_site_fract_z
 _atom_site_occupancy
  O  O0  1  0.391207  0.802480  0.111202  1
  O  O1  1  0.197520  0.608793  0.388798  1
  O  O2  1  0.608793  0.197520  0.888798  1
  O  O3  1  0.802480  0.391207  0.611202  1
  O  O4  1  0.868271  0.739244  0.094993  1
  O  O5  1  0.131729  0.260756  0.905007  1
  O  O6  1  0.260756  0.131729  0.405007  1
  O  O7  1  0.739244  0.868271  0.594993  1
  F  F8  1  0.567778  0.432222  0.250000  1
  F  F9  1  0.432222  0.567778  0.750000  1
  Al  Al10  1  0.500000  0.500000  0.500000  1
  Al  Al11  1  0.500000  0.500000  0.000000  1
  Si  Si12  1  0.185463  0.814537  0.250000  1
  Si  Si13  1  0.814537  0.185463  0.750000  1
  Ca  Ca14  1  0.835633  0.164367  0.250000  1
  Ca  Ca15  1  0.164367  0.835633  0.750000  1
