# generated using pymatgen
data_La3LuSe6
_symmetry_space_group_name_H-M   'P 1'
_cell_length_a   4.20360490
_cell_length_b   14.80810294
_cell_length_c   17.78692869
_cell_angle_alpha   90.00000000
_cell_angle_beta   90.00000000
_cell_angle_gamma   90.00000000
_symmetry_Int_Tables_number   1
_chemical_formula_structural   La3LuSe6
_chemical_formula_sum   'La12 Lu4 Se24'
_cell_volume   1107.19031535
_cell_formula_units_Z   4
loop_
 _symmetry_equiv_pos_site_id
 _symmetry_equiv_pos_as_xyz
  1  'x, y, z'
loop_
 _atom_site_type_symbol
 _atom_site_label
 _atom_site_symmetry_multiplicity
 _atom_site_fract_x
 _atom_site_fract_y
 _atom_site_fract_z
 _atom_site_occupancy
  La  La0  1  0.000000  0.251521  0.399992  1
  La  La1  1  0.500000  0.248479  0.899992  1
  La  La2  1  0.000000  0.950969  0.781479  1
  La  La3  1  0.500000  0.319301  0.151106  1
  La  La4  1  0.000000  0.748479  0.600008  1
  La  La5  1  0.500000  0.751521  0.100008  1
  La  La6  1  0.500000  0.450969  0.718521  1
  La  La7  1  0.000000  0.049031  0.218521  1
  La  La8  1  0.000000  0.180699  0.651106  1
  La  La9  1  0.500000  0.549031  0.281479  1
  La  La10  1  0.500000  0.680699  0.848894  1
  La  La11  1  0.000000  0.819301  0.348894  1
  Lu  Lu12  1  0.000000  0.500000  0.000000  1
  Lu  Lu13  1  0.000000  0.500000  0.500000  1
  Lu  Lu14  1  0.500000  0.000000  0.500000  1
  Lu  Lu15  1  0.500000  0.000000  0.000000  1
  Se  Se16  1  0.000000  0.313478  0.789879  1
  Se  Se17  1  0.500000  0.590904  0.578306  1
  Se  Se18  1  0.500000  0.186522  0.289879  1
  Se  Se19  1  0.500000  0.813478  0.710121  1
  Se  Se20  1  0.000000  0.604505  0.745545  1
  Se  Se21  1  0.500000  0.409096  0.421694  1
  Se  Se22  1  0.000000  0.090904  0.921694  1
  Se  Se23  1  0.500000  0.104505  0.754455  1
  Se  Se24  1  0.000000  0.374714  0.610190  1
  Se  Se25  1  0.500000  0.874714  0.889810  1
  Se  Se26  1  0.000000  0.686522  0.210121  1
  Se  Se27  1  0.000000  0.625286  0.389810  1
  Se  Se28  1  0.500000  0.895495  0.245545  1
  Se  Se29  1  0.000000  0.687457  0.976558  1
  Se  Se30  1  0.000000  0.395495  0.254455  1
  Se  Se31  1  0.500000  0.812543  0.476558  1
  Se  Se32  1  0.000000  0.976693  0.604998  1
  Se  Se33  1  0.500000  0.476693  0.895002  1
  Se  Se34  1  0.000000  0.023307  0.395002  1
  Se  Se35  1  0.500000  0.125286  0.110190  1
  Se  Se36  1  0.000000  0.312543  0.023442  1
  Se  Se37  1  0.500000  0.187457  0.523442  1
  Se  Se38  1  0.500000  0.523307  0.104998  1
  Se  Se39  1  0.000000  0.909096  0.078306  1
