# generated using pymatgen
data_La(HO)3
_symmetry_space_group_name_H-M   'P 1'
_cell_length_a   6.55985113
_cell_length_b   6.55983847
_cell_length_c   3.86368319
_cell_angle_alpha   90.00000000
_cell_angle_beta   90.00000000
_cell_angle_gamma   119.99917102
_symmetry_Int_Tables_number   1
_chemical_formula_structural   La(HO)3
_chemical_formula_sum   'La2 H6 O6'
_cell_volume   143.98687191
_cell_formula_units_Z   2
loop_
 _symmetry_equiv_pos_site_id
 _symmetry_equiv_pos_as_xyz
  1  'x, y, z'
loop_
 _atom_site_type_symbol
 _atom_site_label
 _atom_site_symmetry_multiplicity
 _atom_site_fract_x
 _atom_site_fract_y
 _atom_site_fract_z
 _atom_site_occupancy
  La  La0  1  0.333311  0.666643  0.250000  1
  La  La1  1  0.666689  0.333357  0.750000  1
  H  H2  1  0.862688  0.723778  0.250000  1
  H  H3  1  0.861083  0.137311  0.250000  1
  H  H4  1  0.276225  0.138914  0.250000  1
  H  H5  1  0.137312  0.276222  0.750000  1
  H  H6  1  0.138917  0.862689  0.750000  1
  H  H7  1  0.723775  0.861086  0.750000  1
  O  O8  1  0.917339  0.609828  0.250000  1
  O  O9  1  0.692494  0.082662  0.250000  1
  O  O10  1  0.390175  0.307511  0.250000  1
  O  O11  1  0.082661  0.390172  0.750000  1
  O  O12  1  0.307506  0.917338  0.750000  1
  O  O13  1  0.609825  0.692489  0.750000  1
