# generated using pymatgen
data_NaAlSiO4
_symmetry_space_group_name_H-M   'P 1'
_cell_length_a   9.72883913
_cell_length_b   9.73329280
_cell_length_c   9.65440246
_cell_angle_alpha   90.03032009
_cell_angle_beta   90.01209052
_cell_angle_gamma   120.01766384
_symmetry_Int_Tables_number   1
_chemical_formula_structural   NaAlSiO4
_chemical_formula_sum   'Na8 Al8 Si8 O32'
_cell_volume   791.58833597
_cell_formula_units_Z   8
loop_
 _symmetry_equiv_pos_site_id
 _symmetry_equiv_pos_as_xyz
  1  'x, y, z'
loop_
 _atom_site_type_symbol
 _atom_site_label
 _atom_site_symmetry_multiplicity
 _atom_site_fract_x
 _atom_site_fract_y
 _atom_site_fract_z
 _atom_site_occupancy
  Na  Na0  1  0.587225  0.021616  0.487430  1
  Na  Na1  1  0.412815  0.978023  0.987436  1
  Na  Na2  1  0.021631  0.434695  0.987459  1
  Na  Na3  1  0.978526  0.565466  0.487397  1
  Na  Na4  1  0.434622  0.412938  0.487623  1
  Na  Na5  1  -0.000129  -0.000111  0.008359  1
  Na  Na6  1  0.565630  0.587084  0.987558  1
  Na  Na7  1  -0.000065  -0.000032  0.508553  1
  Al  Al8  1  0.083066  0.323755  0.683764  1
  Al  Al9  1  0.323968  0.240919  0.183919  1
  Al  Al10  1  0.917507  0.676813  0.183761  1
  Al  Al11  1  0.676581  0.759127  0.683774  1
  Al  Al12  1  0.240982  0.917027  0.683721  1
  Al  Al13  1  0.333693  0.666884  0.172378  1
  Al  Al14  1  0.666831  0.333713  0.671742  1
  Al  Al15  1  0.759011  0.083007  0.183665  1
  Si  Si16  1  0.666972  0.333587  0.322179  1
  Si  Si17  1  0.333291  0.666584  0.822420  1
  Si  Si18  1  0.193972  0.883531  0.255675  1
  Si  Si19  1  0.310670  0.194512  0.755866  1
  Si  Si20  1  0.805094  0.115746  0.755965  1
  Si  Si21  1  0.689292  0.805540  0.255946  1
  Si  Si22  1  0.115967  0.310824  0.256348  1
  Si  Si23  1  0.884138  0.689458  0.755644  1
  O  O24  1  0.667566  0.161944  0.725921  1
  O  O25  1  0.251184  0.236771  0.912789  1
  O  O26  1  0.772162  0.966391  0.652206  1
  O  O27  1  0.228241  0.033703  0.151840  1
  O  O28  1  0.162014  0.494528  0.225828  1
  O  O29  1  0.494258  0.332123  0.726196  1
  O  O30  1  0.505745  0.667709  0.225966  1
  O  O31  1  0.388110  0.318769  0.010540  1
  O  O32  1  0.748433  0.763022  0.412696  1
  O  O33  1  0.666456  0.333332  0.491012  1
  O  O34  1  0.681433  0.070079  0.010167  1
  O  O35  1  0.328706  0.824942  0.773364  1
  O  O36  1  0.174817  0.503188  0.773715  1
  O  O37  1  0.318782  0.930565  0.510617  1
  O  O38  1  0.805187  0.771782  0.152341  1
  O  O39  1  0.236899  -0.014386  0.412785  1
  O  O40  1  0.069664  0.388132  0.510197  1
  O  O41  1  0.194696  0.227908  0.651909  1
  O  O42  1  0.824933  0.496775  0.273339  1
  O  O43  1  0.014422  0.251275  0.412791  1
  O  O44  1  0.503136  0.328594  0.273516  1
  O  O45  1  -0.014437  0.748446  0.912953  1
  O  O46  1  0.332234  0.837892  0.226272  1
  O  O47  1  0.671782  0.174763  0.273682  1
  O  O48  1  0.966348  0.194487  0.152192  1
  O  O49  1  0.033392  0.805319  0.651705  1
  O  O50  1  0.930161  0.611653  0.010642  1
  O  O51  1  0.762847  0.014227  0.913133  1
  O  O52  1  0.496909  0.671550  0.773410  1
  O  O53  1  0.838152  0.505693  0.726459  1
  O  O54  1  0.611597  0.681453  0.510342  1
  O  O55  1  0.332882  0.666663  0.990890  1
