# generated using pymatgen
data_Fe15(Ge2O9)4
_symmetry_space_group_name_H-M   'P 1'
_cell_length_a   7.96003469
_cell_length_b   9.13019959
_cell_length_c   10.61406067
_cell_angle_alpha   65.61020932
_cell_angle_beta   81.30159876
_cell_angle_gamma   79.54103595
_symmetry_Int_Tables_number   1
_chemical_formula_structural   Fe15(Ge2O9)4
_chemical_formula_sum   'Fe15 Ge8 O36'
_cell_volume   688.37098963
_cell_formula_units_Z   1
loop_
 _symmetry_equiv_pos_site_id
 _symmetry_equiv_pos_as_xyz
  1  'x, y, z'
loop_
 _atom_site_type_symbol
 _atom_site_label
 _atom_site_symmetry_multiplicity
 _atom_site_fract_x
 _atom_site_fract_y
 _atom_site_fract_z
 _atom_site_occupancy
  Fe  Fe0  1  0.810062  0.611264  0.510295  1
  Fe  Fe1  1  0.687618  0.560216  0.000802  1
  Fe  Fe2  1  0.189938  0.388736  0.489705  1
  Fe  Fe3  1  0.962720  0.239524  0.192853  1
  Fe  Fe4  1  0.816234  0.948773  0.513512  1
  Fe  Fe5  1  0.661163  0.221159  0.994454  1
  Fe  Fe6  1  0.183766  0.051227  0.486488  1
  Fe  Fe7  1  0.739040  0.909808  0.254879  1
  Fe  Fe8  1  0.037280  0.760476  0.807147  1
  Fe  Fe9  1  0.834199  0.273651  0.513034  1
  Fe  Fe10  1  0.312382  0.439784  0.999198  1
  Fe  Fe11  1  0.000000  0.000000  0.000000  1
  Fe  Fe12  1  0.165801  0.726349  0.486966  1
  Fe  Fe13  1  0.260960  0.090192  0.745121  1
  Fe  Fe14  1  0.338837  0.778841  0.005546  1
  Ge  Ge15  1  0.520012  0.590185  0.308916  1
  Ge  Ge16  1  0.684842  0.976153  0.821754  1
  Ge  Ge17  1  0.479988  0.409815  0.691084  1
  Ge  Ge18  1  0.992440  0.592144  0.191521  1
  Ge  Ge19  1  0.007560  0.407856  0.808479  1
  Ge  Ge20  1  0.315158  0.023847  0.178246  1
  Ge  Ge21  1  0.524572  0.249854  0.308083  1
  Ge  Ge22  1  0.475428  0.750146  0.691917  1
  O  O23  1  0.956645  0.141259  0.390977  1
  O  O24  1  0.102371  0.202936  0.863181  1
  O  O25  1  0.026135  0.507218  0.619819  1
  O  O26  1  0.616051  0.377874  0.366574  1
  O  O27  1  0.537538  0.029506  0.132683  1
  O  O28  1  0.693878  0.414166  0.614095  1
  O  O29  1  0.691520  0.745396  0.622006  1
  O  O30  1  0.546779  0.343064  0.121340  1
  O  O31  1  0.111520  0.531125  0.860194  1
  O  O32  1  0.136131  0.887322  0.879902  1
  O  O33  1  0.453221  0.656936  0.878660  1
  O  O34  1  0.308480  0.254604  0.377994  1
  O  O35  1  0.863869  0.112678  0.120098  1
  O  O36  1  0.470058  0.329745  0.874239  1
  O  O37  1  0.360438  0.305791  0.636514  1
  O  O38  1  0.220616  0.917911  0.105594  1
  O  O39  1  0.358104  0.945247  0.629110  1
  O  O40  1  0.641896  0.054753  0.370890  1
  O  O41  1  0.529942  0.670255  0.125761  1
  O  O42  1  0.915972  0.811707  0.405022  1
  O  O43  1  0.973865  0.492782  0.380182  1
  O  O44  1  0.043355  0.858741  0.609023  1
  O  O45  1  0.888480  0.468875  0.139806  1
  O  O46  1  0.462462  0.970494  0.867317  1
  O  O47  1  0.276259  0.936509  0.361864  1
  O  O48  1  0.723741  0.063491  0.638136  1
  O  O49  1  0.306122  0.585834  0.385905  1
  O  O50  1  0.779384  0.082089  0.894406  1
  O  O51  1  0.199612  0.224536  0.124934  1
  O  O52  1  0.897629  0.797064  0.136819  1
  O  O53  1  0.796635  0.414589  0.892255  1
  O  O54  1  0.203365  0.585411  0.107745  1
  O  O55  1  0.084028  0.188293  0.594978  1
  O  O56  1  0.383949  0.622126  0.633426  1
  O  O57  1  0.639562  0.694209  0.363486  1
  O  O58  1  0.800388  0.775464  0.875066  1
