# generated using pymatgen
data_Sr2La14Mg4(Ga4O15)3
_symmetry_space_group_name_H-M   'P 1'
_cell_length_a   5.58209403
_cell_length_b   5.62825361
_cell_length_c   44.86544276
_cell_angle_alpha   59.74111031
_cell_angle_beta   59.59781958
_cell_angle_gamma   59.69246122
_symmetry_Int_Tables_number   1
_chemical_formula_structural   Sr2La14Mg4(Ga4O15)3
_chemical_formula_sum   'Sr2 La14 Mg4 Ga12 O45'
_cell_volume   989.39353134
_cell_formula_units_Z   1
loop_
 _symmetry_equiv_pos_site_id
 _symmetry_equiv_pos_as_xyz
  1  'x, y, z'
loop_
 _atom_site_type_symbol
 _atom_site_label
 _atom_site_symmetry_multiplicity
 _atom_site_fract_x
 _atom_site_fract_y
 _atom_site_fract_z
 _atom_site_occupancy
  Sr  Sr0  1  0.240493  0.745724  0.096560  1
  Sr  Sr1  1  0.234679  0.748396  0.222947  1
  La  La2  1  0.740301  0.282000  0.029064  1
  La  La3  1  0.735126  0.282837  0.154442  1
  La  La4  1  0.256994  0.694733  0.348181  1
  La  La5  1  0.737056  0.279535  0.280348  1
  La  La6  1  0.252177  0.740383  0.469280  1
  La  La7  1  0.757066  0.247291  0.404756  1
  La  La8  1  0.250472  0.741155  0.594703  1
  La  La9  1  0.749528  0.258620  0.530390  1
  La  La10  1  0.250783  0.741475  0.719562  1
  La  La11  1  0.749885  0.259439  0.655142  1
  La  La12  1  0.249586  0.740074  0.845010  1
  La  La13  1  0.750253  0.259673  0.780054  1
  La  La14  1  0.258052  0.739225  0.968765  1
  La  La15  1  0.754752  0.261950  0.903760  1
  Mg  Mg16  1  0.527231  0.979289  0.995802  1
  Mg  Mg17  1  0.522554  0.984180  0.120894  1
  Mg  Mg18  1  0.520830  0.986037  0.246223  1
  Mg  Mg19  1  0.973386  0.537143  0.314515  1
  Ga  Ga20  1  0.972521  0.532276  0.065497  1
  Ga  Ga21  1  0.505436  0.993216  0.374872  1
  Ga  Ga22  1  0.970131  0.535512  0.190837  1
  Ga  Ga23  1  0.000512  0.500299  0.562321  1
  Ga  Ga24  1  0.499997  0.999677  0.500039  1
  Ga  Ga25  1  0.500206  0.000310  0.624934  1
  Ga  Ga26  1  0.999052  0.495656  0.438274  1
  Ga  Ga27  1  0.000967  0.501048  0.812048  1
  Ga  Ga28  1  0.500058  0.000152  0.749996  1
  Ga  Ga29  1  0.997727  0.498437  0.938507  1
  Ga  Ga30  1  0.501282  0.998126  0.874896  1
  Ga  Ga31  1  0.000049  0.500329  0.687421  1
  O  O32  1  0.294150  0.691581  0.024351  1
  O  O33  1  0.211519  0.297291  0.096963  1
  O  O34  1  0.295992  0.691246  0.150876  1
  O  O35  1  0.807631  0.670429  0.027362  1
  O  O36  1  0.206205  0.301055  0.222719  1
  O  O37  1  0.715376  0.281157  0.101995  1
  O  O38  1  0.756121  0.856137  0.079583  1
  O  O39  1  0.287550  0.708448  0.277059  1
  O  O40  1  0.806566  0.662140  0.153272  1
  O  O41  1  0.219098  0.295343  0.348462  1
  O  O42  1  0.712347  0.283451  0.228216  1
  O  O43  1  0.253231  0.172302  0.415332  1
  O  O44  1  0.750422  0.862210  0.204362  1
  O  O45  1  0.283640  0.705618  0.399938  1
  O  O46  1  0.776078  0.675641  0.279367  1
  O  O47  1  0.216064  0.306382  0.473356  1
  O  O48  1  0.733693  0.263120  0.350939  1
  O  O49  1  0.250152  0.167086  0.541578  1
  O  O50  1  0.733731  0.847915  0.334936  1
  O  O51  1  0.282574  0.716339  0.523855  1
  O  O52  1  0.783419  0.680261  0.403123  1
  O  O53  1  0.217985  0.307969  0.597821  1
  O  O54  1  0.718895  0.280192  0.476342  1
  O  O55  1  0.250042  0.168024  0.666478  1
  O  O56  1  0.749533  0.831137  0.458673  1
  O  O57  1  0.282348  0.716874  0.649082  1
  O  O58  1  0.783149  0.691640  0.527030  1
  O  O59  1  0.218029  0.307727  0.722836  1
  O  O60  1  0.717695  0.283157  0.600918  1
  O  O61  1  0.249989  0.167477  0.791583  1
  O  O62  1  0.750062  0.831269  0.583612  1
  O  O63  1  0.283598  0.716286  0.773935  1
  O  O64  1  0.782230  0.692118  0.652151  1
  O  O65  1  0.218661  0.306556  0.847846  1
  O  O66  1  0.717593  0.283108  0.725886  1
  O  O67  1  0.243566  0.174954  0.917051  1
  O  O68  1  0.750057  0.831890  0.708523  1
  O  O69  1  0.289666  0.713014  0.898753  1
  O  O70  1  0.782840  0.692054  0.776994  1
  O  O71  1  0.201171  0.309336  0.976027  1
  O  O72  1  0.716964  0.282517  0.850607  1
  O  O73  1  0.752237  0.831114  0.833132  1
  O  O74  1  0.781553  0.691215  0.901905  1
  O  O75  1  0.695629  0.289258  0.978675  1
  O  O76  1  0.761811  0.831767  0.955206  1
