# generated using pymatgen
data_H4N2O3
_symmetry_space_group_name_H-M   'P 1'
_cell_length_a   7.60983624
_cell_length_b   8.15147735
_cell_length_c   6.45576326
_cell_angle_alpha   90.00000000
_cell_angle_beta   90.00000000
_cell_angle_gamma   90.00000000
_symmetry_Int_Tables_number   1
_chemical_formula_structural   H4N2O3
_chemical_formula_sum   'H16 N8 O12'
_cell_volume   400.46008310
_cell_formula_units_Z   4
loop_
 _symmetry_equiv_pos_site_id
 _symmetry_equiv_pos_as_xyz
  1  'x, y, z'
loop_
 _atom_site_type_symbol
 _atom_site_label
 _atom_site_symmetry_multiplicity
 _atom_site_fract_x
 _atom_site_fract_y
 _atom_site_fract_z
 _atom_site_occupancy
  H  H0  1  0.762882  0.540772  0.252043  1
  H  H1  1  0.737118  0.040772  0.252043  1
  H  H2  1  0.237118  0.459228  0.752043  1
  H  H3  1  0.262882  0.959228  0.752043  1
  H  H4  1  0.683701  0.245882  0.940266  1
  H  H5  1  0.014135  0.641680  0.584783  1
  H  H6  1  0.889608  0.792381  0.551429  1
  H  H7  1  0.316299  0.754118  0.440266  1
  H  H8  1  0.985865  0.358320  0.084783  1
  H  H9  1  0.110392  0.207619  0.051429  1
  H  H10  1  0.514135  0.858320  0.084783  1
  H  H11  1  0.389608  0.707619  0.051429  1
  H  H12  1  0.183701  0.254118  0.440266  1
  H  H13  1  0.485865  0.141680  0.584783  1
  H  H14  1  0.610392  0.292381  0.551429  1
  H  H15  1  0.816299  0.745882  0.940266  1
  N  N16  1  0.254777  0.044765  0.233317  1
  N  N17  1  0.245223  0.544765  0.233317  1
  N  N18  1  0.745223  0.955235  0.733317  1
  N  N19  1  0.754777  0.455235  0.733317  1
  N  N20  1  0.583464  0.397237  0.139597  1
  N  N21  1  0.916536  0.897237  0.139597  1
  N  N22  1  0.416536  0.602763  0.639597  1
  N  N23  1  0.083464  0.102763  0.639597  1
  O  O24  1  0.758806  0.429280  0.191731  1
  O  O25  1  0.741194  0.929280  0.191731  1
  O  O26  1  0.241194  0.570720  0.691731  1
  O  O27  1  0.258806  0.070720  0.691731  1
  O  O28  1  0.584550  0.249537  0.040386  1
  O  O29  1  0.906397  0.676496  0.514590  1
  O  O30  1  0.415450  0.750463  0.540386  1
  O  O31  1  0.093603  0.323504  0.014590  1
  O  O32  1  0.406397  0.823504  0.014590  1
  O  O33  1  0.084550  0.250463  0.540386  1
  O  O34  1  0.593603  0.176496  0.514590  1
  O  O35  1  0.915450  0.749537  0.040386  1
