# generated using pymatgen
data_CaLa3Mn4O12
_symmetry_space_group_name_H-M   'P 1'
_cell_length_a   11.01382150
_cell_length_b   11.01382153
_cell_length_c   13.40296732
_cell_angle_alpha   35.77865306
_cell_angle_beta   35.77865290
_cell_angle_gamma   60.83889248
_symmetry_Int_Tables_number   1
_chemical_formula_structural   CaLa3Mn4O12
_chemical_formula_sum   'Ca2 La6 Mn8 O24'
_cell_volume   481.29091876
_cell_formula_units_Z   2
loop_
 _symmetry_equiv_pos_site_id
 _symmetry_equiv_pos_as_xyz
  1  'x, y, z'
loop_
 _atom_site_type_symbol
 _atom_site_label
 _atom_site_symmetry_multiplicity
 _atom_site_fract_x
 _atom_site_fract_y
 _atom_site_fract_z
 _atom_site_occupancy
  Ca  Ca0  1  0.500000  0.500000  0.250000  1
  Ca  Ca1  1  0.500000  0.500000  0.750000  1
  La  La2  1  0.999584  0.499169  0.250831  1
  La  La3  1  0.500831  0.000416  0.249169  1
  La  La4  1  0.499169  0.999584  0.750831  1
  La  La5  1  0.999584  0.000416  0.250000  1
  La  La6  1  0.000416  0.999584  0.750000  1
  La  La7  1  0.000416  0.500831  0.749169  1
  Mn  Mn8  1  0.000000  0.000000  0.000000  1
  Mn  Mn9  1  0.000000  0.500000  0.000000  1
  Mn  Mn10  1  0.500000  0.000000  0.000000  1
  Mn  Mn11  1  0.000000  0.500000  0.500000  1
  Mn  Mn12  1  0.500000  0.500000  0.000000  1
  Mn  Mn13  1  0.500000  0.000000  0.500000  1
  Mn  Mn14  1  0.500000  0.500000  0.500000  1
  Mn  Mn15  1  0.000000  0.000000  0.500000  1
  O  O16  1  0.283370  0.066741  0.183259  1
  O  O17  1  0.214598  0.279452  0.255609  1
  O  O18  1  0.279452  0.564854  0.185487  1
  O  O19  1  0.216183  0.783817  0.250000  1
  O  O20  1  0.435146  0.214598  0.315194  1
  O  O21  1  0.066741  0.283370  0.683259  1
  O  O22  1  0.783817  0.067634  0.182366  1
  O  O23  1  0.435146  0.720548  0.314513  1
  O  O24  1  0.716630  0.283370  0.250000  1
  O  O25  1  0.067634  0.783817  0.682366  1
  O  O26  1  0.279452  0.214598  0.755609  1
  O  O27  1  0.214598  0.435146  0.815194  1
  O  O28  1  0.785402  0.564854  0.184806  1
  O  O29  1  0.720548  0.785402  0.244391  1
  O  O30  1  0.932366  0.216183  0.317634  1
  O  O31  1  0.283370  0.716630  0.750000  1
  O  O32  1  0.564854  0.279452  0.685487  1
  O  O33  1  0.216183  0.932366  0.817634  1
  O  O34  1  0.933259  0.716630  0.316741  1
  O  O35  1  0.564854  0.785402  0.684806  1
  O  O36  1  0.783817  0.216183  0.750000  1
  O  O37  1  0.720548  0.435146  0.814513  1
  O  O38  1  0.785402  0.720548  0.744391  1
  O  O39  1  0.716630  0.933259  0.816741  1
