# generated using pymatgen
data_NaLiLa2Ti4O12
_symmetry_space_group_name_H-M   'P 1'
_cell_length_a   5.49548503
_cell_length_b   11.15919969
_cell_length_c   9.70223369
_cell_angle_alpha   29.48823312
_cell_angle_beta   55.40959624
_cell_angle_gamma   60.46127933
_symmetry_Int_Tables_number   1
_chemical_formula_structural   NaLiLa2Ti4O12
_chemical_formula_sum   'Na1 Li1 La2 Ti4 O12'
_cell_volume   241.10829708
_cell_formula_units_Z   1
loop_
 _symmetry_equiv_pos_site_id
 _symmetry_equiv_pos_as_xyz
  1  'x, y, z'
loop_
 _atom_site_type_symbol
 _atom_site_label
 _atom_site_symmetry_multiplicity
 _atom_site_fract_x
 _atom_site_fract_y
 _atom_site_fract_z
 _atom_site_occupancy
  Na  Na0  1  0.802375  0.510595  0.676393  1
  Li  Li1  1  0.379483  0.485324  0.131625  1
  La  La2  1  0.266402  0.999940  0.227282  1
  La  La3  1  0.763243  0.997786  0.737730  1
  Ti  Ti4  1  0.021018  0.003334  0.973087  1
  Ti  Ti5  1  0.517951  0.494526  0.484528  1
  Ti  Ti6  1  0.017466  0.501502  0.980519  1
  Ti  Ti7  1  0.518795  0.993843  0.486798  1
  O  O8  1  0.277602  0.253125  0.227543  1
  O  O9  1  0.248770  0.059912  0.692136  1
  O  O10  1  0.217720  0.254908  0.778113  1
  O  O11  1  0.296736  0.780787  0.199512  1
  O  O12  1  0.790813  0.226900  0.254604  1
  O  O13  1  0.245808  0.552273  0.702121  1
  O  O14  1  0.747107  0.447901  0.304885  1
  O  O15  1  0.206322  0.760697  0.770906  1
  O  O16  1  0.700937  0.233855  0.795152  1
  O  O17  1  0.769882  0.755548  0.225189  1
  O  O18  1  0.749456  0.946213  0.308091  1
  O  O19  1  0.712114  0.741031  0.793787  1
