# generated using pymatgen
data_NaP(HO)6
_symmetry_space_group_name_H-M   'P 1'
_cell_length_a   7.25128360
_cell_length_b   11.40523371
_cell_length_c   6.69630570
_cell_angle_alpha   90.00000000
_cell_angle_beta   90.00000000
_cell_angle_gamma   90.00000000
_symmetry_Int_Tables_number   1
_chemical_formula_structural   NaP(HO)6
_chemical_formula_sum   'Na4 P4 H24 O24'
_cell_volume   553.80178569
_cell_formula_units_Z   4
loop_
 _symmetry_equiv_pos_site_id
 _symmetry_equiv_pos_as_xyz
  1  'x, y, z'
loop_
 _atom_site_type_symbol
 _atom_site_label
 _atom_site_symmetry_multiplicity
 _atom_site_fract_x
 _atom_site_fract_y
 _atom_site_fract_z
 _atom_site_occupancy
  Na  Na0  1  0.612969  0.921000  0.720024  1
  Na  Na1  1  0.887031  0.079000  0.220024  1
  Na  Na2  1  0.112969  0.579000  0.279976  1
  Na  Na3  1  0.387031  0.421000  0.779976  1
  P  P4  1  0.281348  0.150735  0.544772  1
  P  P5  1  0.218652  0.849265  0.044772  1
  P  P6  1  0.781348  0.349265  0.455228  1
  P  P7  1  0.718652  0.650735  0.955228  1
  H  H8  1  0.594573  0.154718  0.516319  1
  H  H9  1  0.905427  0.845282  0.016319  1
  H  H10  1  0.094574  0.345282  0.483681  1
  H  H11  1  0.405427  0.654718  0.983681  1
  H  H12  1  0.266658  0.031249  0.279608  1
  H  H13  1  0.233342  0.968751  0.779608  1
  H  H14  1  0.766658  0.468751  0.720392  1
  H  H15  1  0.733342  0.531249  0.220392  1
  H  H16  1  0.017422  0.180875  0.851001  1
  H  H17  1  0.482578  0.819125  0.351001  1
  H  H18  1  0.517422  0.319125  0.148999  1
  H  H19  1  0.982578  0.680875  0.648999  1
  H  H20  1  0.843270  0.258037  0.887752  1
  H  H21  1  0.656730  0.741963  0.387752  1
  H  H22  1  0.343270  0.241963  0.112248  1
  H  H23  1  0.156730  0.758037  0.612248  1
  H  H24  1  0.979646  0.003596  0.596625  1
  H  H25  1  0.520354  0.996404  0.096625  1
  H  H26  1  0.479646  0.496404  0.403375  1
  H  H27  1  0.020354  0.503596  0.903375  1
  H  H28  1  0.936454  0.878736  0.511139  1
  H  H29  1  0.563546  0.121264  0.011139  1
  H  H30  1  0.436454  0.621264  0.488861  1
  H  H31  1  0.063546  0.378736  0.988861  1
  O  O32  1  0.265313  0.283041  0.554698  1
  O  O33  1  0.234687  0.716959  0.054698  1
  O  O34  1  0.765313  0.216959  0.445302  1
  O  O35  1  0.734687  0.783041  0.945302  1
  O  O36  1  0.164432  0.084942  0.699740  1
  O  O37  1  0.335568  0.915058  0.199740  1
  O  O38  1  0.664432  0.415058  0.300260  1
  O  O39  1  0.835568  0.584942  0.800260  1
  O  O40  1  0.486140  0.104981  0.573085  1
  O  O41  1  0.013860  0.895019  0.073085  1
  O  O42  1  0.986140  0.395019  0.426915  1
  O  O43  1  0.513860  0.604981  0.926915  1
  O  O44  1  0.220150  0.113522  0.323337  1
  O  O45  1  0.279850  0.886478  0.823337  1
  O  O46  1  0.720150  0.386478  0.676663  1
  O  O47  1  0.779850  0.613522  0.176663  1
  O  O48  1  0.950221  0.224735  0.956833  1
  O  O49  1  0.549779  0.775265  0.456833  1
  O  O50  1  0.450221  0.275265  0.043167  1
  O  O51  1  0.049779  0.724735  0.543167  1
  O  O52  1  0.882562  0.957825  0.526147  1
  O  O53  1  0.617438  0.042175  0.026147  1
  O  O54  1  0.382562  0.542175  0.473853  1
  O  O55  1  0.117438  0.457825  0.973853  1
