# generated using pymatgen
data_K4Pt2I9
_symmetry_space_group_name_H-M   'P 1'
_cell_length_a   40.04933834
_cell_length_b   9.78530483
_cell_length_c   10.79270847
_cell_angle_alpha   90.00000000
_cell_angle_beta   90.00000000
_cell_angle_gamma   52.35059769
_symmetry_Int_Tables_number   1
_chemical_formula_structural   K4Pt2I9
_chemical_formula_sum   'K20 Pt10 I45'
_cell_volume   3348.84847327
_cell_formula_units_Z   5
loop_
 _symmetry_equiv_pos_site_id
 _symmetry_equiv_pos_as_xyz
  1  'x, y, z'
loop_
 _atom_site_type_symbol
 _atom_site_label
 _atom_site_symmetry_multiplicity
 _atom_site_fract_x
 _atom_site_fract_y
 _atom_site_fract_z
 _atom_site_occupancy
  K  K0  1  0.091802  0.053258  0.750000  1
  K  K1  1  0.074244  0.566918  0.250000  1
  K  K2  1  0.126111  0.431876  0.750000  1
  K  K3  1  0.108719  0.945781  0.250000  1
  K  K4  1  0.273889  0.062433  0.750000  1
  K  K5  1  0.291281  0.489376  0.250000  1
  K  K6  1  0.308198  0.512268  0.750000  1
  K  K7  1  0.325756  0.938136  0.250000  1
  K  K8  1  0.491380  0.054786  0.750000  1
  K  K9  1  0.473236  0.571075  0.250000  1
  K  K10  1  0.524989  0.436957  0.750000  1
  K  K11  1  0.507657  0.948110  0.250000  1
  K  K12  1  0.674782  0.070076  0.750000  1
  K  K13  1  0.687613  0.521682  0.250000  1
  K  K14  1  0.725218  0.443988  0.750000  1
  K  K15  1  0.712387  0.959746  0.250000  1
  K  K16  1  0.875011  0.061900  0.750000  1
  K  K17  1  0.892343  0.486397  0.250000  1
  K  K18  1  0.908620  0.511689  0.750000  1
  K  K19  1  0.926764  0.937252  0.250000  1
  Pt  Pt20  1  0.000095  0.000688  0.978681  1
  Pt  Pt21  1  0.000095  0.000688  0.521319  1
  Pt  Pt22  1  0.200000  -0.000876  0.021192  1
  Pt  Pt23  1  0.200000  -0.000876  0.478808  1
  Pt  Pt24  1  0.399905  0.001162  0.978681  1
  Pt  Pt25  1  0.399905  0.001162  0.521319  1
  Pt  Pt26  1  0.599690  -0.000324  0.018367  1
  Pt  Pt27  1  0.599690  -0.000324  0.481633  1
  Pt  Pt28  1  0.800310  0.998126  0.018367  1
  Pt  Pt29  1  0.800310  0.998126  0.481633  1
  I  I30  1  0.000267  0.031251  0.250000  1
  I  I31  1  0.000028  0.273061  0.543292  1
  I  I32  1  0.000099  0.726730  0.979676  1
  I  I33  1  0.000099  0.726730  0.520324  1
  I  I34  1  0.115506  0.212423  0.029752  1
  I  I35  1  0.115506  0.212423  0.470248  1
  I  I36  1  0.084499  0.787573  0.529171  1
  I  I37  1  0.084499  0.787573  0.970829  1
  I  I38  1  0.200000  0.272945  0.020735  1
  I  I39  1  0.200000  0.272945  0.479265  1
  I  I40  1  0.200000  0.726858  0.456285  1
  I  I41  1  0.200000  0.726858  0.043715  1
  I  I42  1  0.200000  0.968138  0.750000  1
  I  I43  1  0.315501  0.210069  0.970829  1
  I  I44  1  0.315501  0.210069  0.529171  1
  I  I45  1  0.284494  0.789954  0.029752  1
  I  I46  1  0.284494  0.789954  0.470248  1
  I  I47  1  0.399733  0.032584  0.250000  1
  I  I48  1  0.399972  0.273201  0.543292  1
  I  I49  1  0.399972  0.273201  0.956708  1
  I  I50  1  0.399901  0.727224  0.520324  1
  I  I51  1  0.399901  0.727224  0.979676  1
  I  I52  1  0.515284  0.215905  0.031297  1
  I  I53  1  0.515284  0.215905  0.468703  1
  I  I54  1  0.484399  0.787872  0.971010  1
  I  I55  1  0.484399  0.787872  0.528990  1
  I  I56  1  0.601074  0.270454  0.479340  1
  I  I57  1  0.601074  0.270454  0.020660  1
  I  I58  1  0.598484  0.729819  0.461074  1
  I  I59  1  0.598484  0.729819  0.038926  1
  I  I60  1  0.597871  0.978908  0.750000  1
  I  I61  1  0.715482  0.207951  0.013710  1
  I  I62  1  0.715482  0.207951  0.486290  1
  I  I63  1  0.684518  0.785360  0.013710  1
  I  I64  1  0.684518  0.785360  0.486290  1
  I  I65  1  0.798926  0.275825  0.479340  1
  I  I66  1  0.798926  0.275825  0.020660  1
  I  I67  1  0.801516  0.722240  0.461074  1
  I  I68  1  0.801516  0.722240  0.038926  1
  I  I69  1  0.802129  0.968261  0.750000  1
  I  I70  1  0.915601  0.209864  0.971010  1
  I  I71  1  0.915601  0.209864  0.528990  1
  I  I72  1  0.884716  0.792325  0.031297  1
  I  I73  1  0.884716  0.792325  0.468703  1
  I  I74  1  0.000028  0.273061  0.956708  1
