# generated using pymatgen
data_CuH12C5S4N
_symmetry_space_group_name_H-M   'P 1'
_cell_length_a   14.16832792
_cell_length_b   14.16832792
_cell_length_c   11.49021151
_cell_angle_alpha   90.00000000
_cell_angle_beta   90.00000000
_cell_angle_gamma   90.00000000
_symmetry_Int_Tables_number   1
_chemical_formula_structural   CuH12C5S4N
_chemical_formula_sum   'Cu8 H96 C40 S32 N8'
_cell_volume   2306.56247824
_cell_formula_units_Z   8
loop_
 _symmetry_equiv_pos_site_id
 _symmetry_equiv_pos_as_xyz
  1  'x, y, z'
loop_
 _atom_site_type_symbol
 _atom_site_label
 _atom_site_symmetry_multiplicity
 _atom_site_fract_x
 _atom_site_fract_y
 _atom_site_fract_z
 _atom_site_occupancy
  Cu  Cu0  1  0.414970  0.439949  0.416575  1
  Cu  Cu1  1  0.914970  0.060051  0.083425  1
  Cu  Cu2  1  0.585030  0.560051  0.416575  1
  Cu  Cu3  1  0.085030  0.939949  0.083425  1
  Cu  Cu4  1  0.439949  0.585030  0.583425  1
  Cu  Cu5  1  0.060051  0.085030  0.916575  1
  Cu  Cu6  1  0.560051  0.414970  0.583425  1
  Cu  Cu7  1  0.939949  0.914970  0.916575  1
  H  H8  1  0.038828  0.766100  0.363822  1
  H  H9  1  0.538828  0.733900  0.136178  1
  H  H10  1  0.961172  0.233900  0.363822  1
  H  H11  1  0.461172  0.266100  0.136178  1
  H  H12  1  0.766100  0.961172  0.636178  1
  H  H13  1  0.733900  0.461172  0.863822  1
  H  H14  1  0.233900  0.038828  0.636178  1
  H  H15  1  0.266100  0.538828  0.863822  1
  H  H16  1  0.943600  0.850551  0.364540  1
  H  H17  1  0.443600  0.649449  0.135460  1
  H  H18  1  0.056400  0.149449  0.364540  1
  H  H19  1  0.556400  0.350551  0.135460  1
  H  H20  1  0.850551  0.056400  0.635460  1
  H  H21  1  0.649449  0.556400  0.864540  1
  H  H22  1  0.149449  0.943600  0.635460  1
  H  H23  1  0.350551  0.443600  0.864540  1
  H  H24  1  0.003183  0.820484  0.498921  1
  H  H25  1  0.503183  0.679516  0.001079  1
  H  H26  1  0.996817  0.179516  0.498921  1
  H  H27  1  0.496817  0.320484  0.001079  1
  H  H28  1  0.820484  0.996817  0.501079  1
  H  H29  1  0.679516  0.496817  0.998921  1
  H  H30  1  0.179516  0.003183  0.501079  1
  H  H31  1  0.320484  0.503183  0.998921  1
  H  H32  1  0.978954  0.669469  0.588751  1
  H  H33  1  0.478954  0.830531  0.911249  1
  H  H34  1  0.021046  0.330531  0.588751  1
  H  H35  1  0.521046  0.169469  0.911249  1
  H  H36  1  0.669469  0.021046  0.411249  1
  H  H37  1  0.830531  0.521046  0.088751  1
  H  H38  1  0.330531  0.978954  0.411249  1
  H  H39  1  0.169469  0.478954  0.088751  1
  H  H40  1  0.910473  0.580402  0.513170  1
  H  H41  1  0.410473  0.919598  0.986830  1
  H  H42  1  0.089527  0.419598  0.513170  1
  H  H43  1  0.589527  0.080402  0.986830  1
  H  H44  1  0.580402  0.089527  0.486830  1
  H  H45  1  0.919598  0.589527  0.013170  1
  H  H46  1  0.419598  0.910473  0.486830  1
  H  H47  1  0.080402  0.410473  0.013170  1
  H  H48  1  0.023241  0.619024  0.456897  1
  H  H49  1  0.523241  0.880976  0.043103  1
  H  H50  1  0.976759  0.380976  0.456897  1
  H  H51  1  0.476759  0.119024  0.043103  1
  H  H52  1  0.619024  0.976759  0.543103  1
  H  H53  1  0.880976  0.476759  0.956897  1
  H  H54  1  0.380976  0.023241  0.543103  1
  H  H55  1  0.119024  0.523241  0.956897  1
  H  H56  1  0.793409  0.808125  0.456536  1
  H  H57  1  0.293409  0.691875  0.043464  1
  H  H58  1  0.206591  0.191875  0.456536  1
  H  H59  1  0.706591  0.308125  0.043464  1
  H  H60  1  0.808125  0.206591  0.543464  1
  H  H61  1  0.691875  0.706591  0.956536  1
  H  H62  1  0.191875  0.793409  0.543464  1
  H  H63  1  0.308125  0.293409  0.956536  1
  H  H64  1  0.778343  0.692077  0.515419  1
  H  H65  1  0.278343  0.807923  0.984581  1
  H  H66  1  0.221657  0.307923  0.515419  1
  H  H67  1  0.721657  0.192077  0.984581  1
  H  H68  1  0.692077  0.221657  0.484581  1
  H  H69  1  0.807923  0.721657  0.015419  1
  H  H70  1  0.307923  0.778343  0.484581  1
  H  H71  1  0.192077  0.278343  0.015419  1
  H  H72  1  0.853808  0.774841  0.589567  1
  H  H73  1  0.353808  0.725159  0.910433  1
  H  H74  1  0.146192  0.225159  0.589567  1
  H  H75  1  0.646192  0.274841  0.910433  1
  H  H76  1  0.774841  0.146192  0.410433  1
  H  H77  1  0.725159  0.646192  0.089567  1
  H  H78  1  0.225159  0.853808  0.410433  1
  H  H79  1  0.274841  0.353808  0.089567  1
  H  H80  1  0.934184  0.642231  0.277089  1
  H  H81  1  0.434184  0.857769  0.222911  1
  H  H82  1  0.065816  0.357769  0.277089  1
  H  H83  1  0.565816  0.142231  0.222911  1
  H  H84  1  0.642231  0.065816  0.722911  1
  H  H85  1  0.857769  0.565816  0.777089  1
  H  H86  1  0.357769  0.934184  0.722911  1
  H  H87  1  0.142231  0.434184  0.777089  1
  H  H88  1  0.818722  0.626682  0.340197  1
  H  H89  1  0.318722  0.873318  0.159803  1
  H  H90  1  0.181278  0.373318  0.340197  1
  H  H91  1  0.681278  0.126682  0.159803  1
  H  H92  1  0.626682  0.181278  0.659803  1
  H  H93  1  0.873318  0.681278  0.840197  1
  H  H94  1  0.373318  0.818722  0.659803  1
  H  H95  1  0.126682  0.318722  0.840197  1
  H  H96  1  0.848246  0.735664  0.269322  1
  H  H97  1  0.348246  0.764336  0.230678  1
  H  H98  1  0.151754  0.264336  0.269322  1
  H  H99  1  0.651754  0.235664  0.230678  1
  H  H100  1  0.735664  0.151754  0.730678  1
  H  H101  1  0.764336  0.651754  0.769322  1
  H  H102  1  0.264336  0.848246  0.730678  1
  H  H103  1  0.235664  0.348246  0.769322  1
  C  C104  1  0.249277  0.569119  0.321973  1
  C  C105  1  0.749277  0.930881  0.178027  1
  C  C106  1  0.750723  0.430881  0.321973  1
  C  C107  1  0.250723  0.069119  0.178027  1
  C  C108  1  0.569119  0.750723  0.678027  1
  C  C109  1  0.930881  0.250723  0.821973  1
  C  C110  1  0.430881  0.249277  0.678027  1
  C  C111  1  0.069119  0.749277  0.821973  1
  C  C112  1  0.979351  0.794682  0.413818  1
  C  C113  1  0.479351  0.705318  0.086182  1
  C  C114  1  0.020649  0.205318  0.413818  1
  C  C115  1  0.520649  0.294682  0.086182  1
  C  C116  1  0.794682  0.020649  0.586182  1
  C  C117  1  0.705318  0.520649  0.913818  1
  C  C118  1  0.205318  0.979351  0.586182  1
  C  C119  1  0.294682  0.479351  0.913818  1
  C  C120  1  0.959299  0.639954  0.503697  1
  C  C121  1  0.459299  0.860046  0.996303  1
  C  C122  1  0.040701  0.360046  0.503697  1
  C  C123  1  0.540701  0.139954  0.996303  1
  C  C124  1  0.639954  0.040701  0.496303  1
  C  C125  1  0.860046  0.540701  0.003697  1
  C  C126  1  0.360046  0.959299  0.496303  1
  C  C127  1  0.139954  0.459299  0.003697  1
  C  C128  1  0.827809  0.751006  0.504770  1
  C  C129  1  0.327809  0.748994  0.995230  1
  C  C130  1  0.172191  0.248994  0.504770  1
  C  C131  1  0.672191  0.251006  0.995230  1
  C  C132  1  0.751006  0.172191  0.495230  1
  C  C133  1  0.748994  0.672191  0.004770  1
  C  C134  1  0.248994  0.827809  0.495230  1
  C  C135  1  0.251006  0.327809  0.004770  1
  C  C136  1  0.875500  0.676848  0.321474  1
  C  C137  1  0.375500  0.823152  0.178526  1
  C  C138  1  0.124500  0.323152  0.321474  1
  C  C139  1  0.624500  0.176848  0.178526  1
  C  C140  1  0.676848  0.124500  0.678526  1
  C  C141  1  0.823152  0.624500  0.821474  1
  C  C142  1  0.323152  0.875500  0.678526  1
  C  C143  1  0.176848  0.375500  0.821474  1
  S  S144  1  0.343472  0.508932  0.265891  1
  S  S145  1  0.843472  0.991068  0.234109  1
  S  S146  1  0.656528  0.491068  0.265891  1
  S  S147  1  0.156528  0.008932  0.234109  1
  S  S148  1  0.508932  0.656528  0.734109  1
  S  S149  1  0.991068  0.156528  0.765891  1
  S  S150  1  0.491068  0.343472  0.734109  1
  S  S151  1  0.008932  0.843472  0.765891  1
  S  S152  1  0.317508  0.487419  0.562749  1
  S  S153  1  0.817508  0.012581  0.937251  1
  S  S154  1  0.682492  0.512581  0.562749  1
  S  S155  1  0.182492  0.987419  0.937251  1
  S  S156  1  0.487419  0.682492  0.437251  1
  S  S157  1  0.012581  0.182492  0.062749  1
  S  S158  1  0.512581  0.317508  0.437251  1
  S  S159  1  0.987419  0.817508  0.062749  1
  S  S160  1  0.221388  0.569138  0.470194  1
  S  S161  1  0.721388  0.930862  0.029806  1
  S  S162  1  0.778612  0.430862  0.470194  1
  S  S163  1  0.278612  0.069138  0.029806  1
  S  S164  1  0.569138  0.778612  0.529806  1
  S  S165  1  0.930862  0.278612  0.970194  1
  S  S166  1  0.430862  0.221388  0.529806  1
  S  S167  1  0.069138  0.721388  0.970194  1
  S  S168  1  0.172560  0.636354  0.245540  1
  S  S169  1  0.672560  0.863646  0.254460  1
  S  S170  1  0.827440  0.363646  0.245540  1
  S  S171  1  0.327440  0.136354  0.254460  1
  S  S172  1  0.636354  0.827440  0.754460  1
  S  S173  1  0.863646  0.327440  0.745540  1
  S  S174  1  0.363646  0.172560  0.754460  1
  S  S175  1  0.136354  0.672560  0.745540  1
  N  N176  1  0.910570  0.715898  0.435479  1
  N  N177  1  0.410570  0.784102  0.064521  1
  N  N178  1  0.089430  0.284102  0.435479  1
  N  N179  1  0.589430  0.215898  0.064521  1
  N  N180  1  0.715898  0.089430  0.564521  1
  N  N181  1  0.784102  0.589430  0.935479  1
  N  N182  1  0.284102  0.910570  0.564521  1
  N  N183  1  0.215898  0.410570  0.935479  1
