# generated using pymatgen
data_Cd2Bi6O11
_symmetry_space_group_name_H-M   'P 1'
_cell_length_a   3.68728000
_cell_length_b   3.67554166
_cell_length_c   31.87538745
_cell_angle_alpha   116.95242633
_cell_angle_beta   118.57544667
_cell_angle_gamma   90.77371644
_symmetry_Int_Tables_number   1
_chemical_formula_structural   Cd2Bi6O11
_chemical_formula_sum   'Cd2 Bi6 O11'
_cell_volume   323.20377550
_cell_formula_units_Z   1
loop_
 _symmetry_equiv_pos_site_id
 _symmetry_equiv_pos_as_xyz
  1  'x, y, z'
loop_
 _atom_site_type_symbol
 _atom_site_label
 _atom_site_symmetry_multiplicity
 _atom_site_fract_x
 _atom_site_fract_y
 _atom_site_fract_z
 _atom_site_occupancy
  Cd  Cd0  1  0.122096  0.925579  0.247118  1
  Cd  Cd1  1  0.173010  0.011037  0.140670  1
  Bi  Bi2  1  0.181155  0.937386  0.890289  1
  Bi  Bi3  1  0.977322  -0.014544  0.749387  1
  Bi  Bi4  1  0.939442  0.920073  0.610133  1
  Bi  Bi5  1  0.847514  0.851941  0.477249  1
  Bi  Bi6  1  0.905322  0.899131  0.362924  1
  Bi  Bi7  1  0.090662  0.042356  0.019295  1
  O  O8  1  0.783709  0.715253  0.914920  1
  O  O9  1  0.661854  0.429795  0.990566  1
  O  O10  1  0.876822  0.247052  0.818383  1
  O  O11  1  0.577303  0.377208  0.722295  1
  O  O12  1  0.122508  0.632199  0.420761  1
  O  O13  1  0.609999  0.436806  0.618982  1
  O  O14  1  0.579891  0.566290  0.521081  1
  O  O15  1  0.608660  0.122781  0.417838  1
  O  O16  1  0.854986  0.149181  0.300226  1
  O  O17  1  0.890222  0.206039  0.191966  1
  O  O18  1  0.947523  0.294438  0.085916  1
