# generated using pymatgen
data_Li7Zr3Nb(TeO6)4
_symmetry_space_group_name_H-M   'P 1'
_cell_length_a   5.53868646
_cell_length_b   5.53573160
_cell_length_c   44.28366736
_cell_angle_alpha   56.82066647
_cell_angle_beta   56.81590668
_cell_angle_gamma   56.78633815
_symmetry_Int_Tables_number   1
_chemical_formula_structural   Li7Zr3Nb(TeO6)4
_chemical_formula_sum   'Li14 Zr6 Nb2 Te8 O48'
_cell_volume   889.34902912
_cell_formula_units_Z   2
loop_
 _symmetry_equiv_pos_site_id
 _symmetry_equiv_pos_as_xyz
  1  'x, y, z'
loop_
 _atom_site_type_symbol
 _atom_site_label
 _atom_site_symmetry_multiplicity
 _atom_site_fract_x
 _atom_site_fract_y
 _atom_site_fract_z
 _atom_site_occupancy
  Li  Li0  1  0.286674  0.288361  0.034297  1
  Li  Li1  1  0.284213  0.283964  0.159982  1
  Li  Li2  1  0.778960  0.778896  0.094194  1
  Li  Li3  1  0.282481  0.282964  0.285654  1
  Li  Li4  1  0.773232  0.773659  0.221542  1
  Li  Li5  1  0.282257  0.282754  0.410750  1
  Li  Li6  1  0.773132  0.772557  0.346826  1
  Li  Li7  1  0.282077  0.282586  0.535808  1
  Li  Li8  1  0.772954  0.772363  0.471876  1
  Li  Li9  1  0.279935  0.279893  0.661521  1
  Li  Li10  1  0.772034  0.772248  0.596982  1
  Li  Li11  1  0.286726  0.279198  0.785912  1
  Li  Li12  1  0.766500  0.770927  0.722868  1
  Li  Li13  1  0.287226  0.292204  0.909412  1
  Zr  Zr14  1  0.003962  0.001798  0.124915  1
  Zr  Zr15  1  0.002078  0.001444  0.250292  1
  Zr  Zr16  1  0.001736  0.000716  0.375516  1
  Zr  Zr17  1  0.001650  0.000614  0.500564  1
  Zr  Zr18  1  0.000785  0.000682  0.625744  1
  Zr  Zr19  1  0.996619  0.001165  0.751894  1
  Nb  Nb20  1  0.002847  0.007352  0.874806  1
  Nb  Nb21  1  0.012111  0.006131  0.997636  1
  Te  Te22  1  0.503054  0.508888  0.060886  1
  Te  Te23  1  0.501013  0.501661  0.187079  1
  Te  Te24  1  0.499726  0.500606  0.312552  1
  Te  Te25  1  0.499368  0.500331  0.437682  1
  Te  Te26  1  0.499199  0.500351  0.562727  1
  Te  Te27  1  0.498062  0.500271  0.688032  1
  Te  Te28  1  0.506431  0.491379  0.813869  1
  Te  Te29  1  0.508974  0.500763  0.937017  1
  O  O30  1  0.144302  0.383706  0.089371  1
  O  O31  1  0.346385  0.734026  0.018182  1
  O  O32  1  0.727185  0.149857  0.044340  1
  O  O33  1  0.252905  0.869000  0.075275  1
  O  O34  1  0.620539  0.252210  0.105876  1
  O  O35  1  0.134059  0.390765  0.214294  1
  O  O36  1  0.862447  0.628202  0.030921  1
  O  O37  1  0.394399  0.717900  0.140662  1
  O  O38  1  0.719895  0.133545  0.173100  1
  O  O39  1  0.252388  0.866464  0.200796  1
  O  O40  1  0.611947  0.252769  0.232622  1
  O  O41  1  0.132937  0.390203  0.339568  1
  O  O42  1  0.865692  0.612330  0.155970  1
  O  O43  1  0.390491  0.718752  0.266368  1
  O  O44  1  0.719492  0.132561  0.298597  1
  O  O45  1  0.252010  0.865531  0.326165  1
  O  O46  1  0.610660  0.252648  0.358001  1
  O  O47  1  0.132768  0.390241  0.464590  1
  O  O48  1  0.864565  0.611451  0.281231  1
  O  O49  1  0.390539  0.718528  0.391457  1
  O  O50  1  0.719279  0.132189  0.423736  1
  O  O51  1  0.251922  0.865439  0.451211  1
  O  O52  1  0.610473  0.252651  0.483054  1
  O  O53  1  0.132195  0.390011  0.589684  1
  O  O54  1  0.864556  0.611014  0.406285  1
  O  O55  1  0.390324  0.718455  0.516546  1
  O  O56  1  0.719012  0.132284  0.548808  1
  O  O57  1  0.251348  0.865244  0.576394  1
  O  O58  1  0.609892  0.252542  0.608241  1
  O  O59  1  0.131489  0.388865  0.714992  1
  O  O60  1  0.864073  0.610978  0.531349  1
  O  O61  1  0.389007  0.719480  0.641913  1
  O  O62  1  0.718558  0.132044  0.674162  1
  O  O63  1  0.251989  0.862026  0.702358  1
  O  O64  1  0.608814  0.250070  0.733754  1
  O  O65  1  0.153756  0.344419  0.842926  1
  O  O66  1  0.862701  0.610674  0.656748  1
  O  O67  1  0.377162  0.722652  0.769591  1
  O  O68  1  0.717559  0.146491  0.797617  1
  O  O69  1  0.252753  0.852328  0.829743  1
  O  O70  1  0.619357  0.248687  0.859588  1
  O  O71  1  0.163800  0.342257  0.967098  1
  O  O72  1  0.865938  0.605869  0.782618  1
  O  O73  1  0.333375  0.731072  0.896657  1
  O  O74  1  0.725723  0.161641  0.918516  1
  O  O75  1  0.252027  0.862336  0.952692  1
  O  O76  1  0.624506  0.255871  0.982417  1
  O  O77  1  0.862792  0.620997  0.907085  1
