# generated using pymatgen
data_ZnPH7C2N4O5
_symmetry_space_group_name_H-M   'P 1'
_cell_length_a   13.81910858
_cell_length_b   5.15398879
_cell_length_c   10.73243682
_cell_angle_alpha   90.00000000
_cell_angle_beta   96.02247134
_cell_angle_gamma   90.00000000
_symmetry_Int_Tables_number   1
_chemical_formula_structural   ZnPH7C2N4O5
_chemical_formula_sum   'Zn4 P4 H28 C8 N16 O20'
_cell_volume   760.18317343
_cell_formula_units_Z   4
loop_
 _symmetry_equiv_pos_site_id
 _symmetry_equiv_pos_as_xyz
  1  'x, y, z'
loop_
 _atom_site_type_symbol
 _atom_site_label
 _atom_site_symmetry_multiplicity
 _atom_site_fract_x
 _atom_site_fract_y
 _atom_site_fract_z
 _atom_site_occupancy
  Zn  Zn0  1  0.999318  0.796298  0.357886  1
  Zn  Zn1  1  0.000682  0.296298  0.142114  1
  Zn  Zn2  1  0.000682  0.203702  0.642114  1
  Zn  Zn3  1  0.999318  0.703702  0.857886  1
  P  P4  1  0.125802  0.774977  0.118500  1
  P  P5  1  0.874198  0.274977  0.381500  1
  P  P6  1  0.874198  0.225023  0.881500  1
  P  P7  1  0.125802  0.725023  0.618500  1
  H  H8  1  0.446245  0.002510  0.069461  1
  H  H9  1  0.553755  0.502510  0.430539  1
  H  H10  1  0.553755  0.997490  0.930539  1
  H  H11  1  0.446245  0.497490  0.569461  1
  H  H12  1  0.340019  0.844497  0.113812  1
  H  H13  1  0.659981  0.344497  0.386188  1
  H  H14  1  0.659981  0.155503  0.886188  1
  H  H15  1  0.340019  0.655503  0.613812  1
  H  H16  1  0.269230  0.546703  0.015457  1
  H  H17  1  0.730770  0.046703  0.484543  1
  H  H18  1  0.730770  0.453297  0.984543  1
  H  H19  1  0.269230  0.953297  0.515457  1
  H  H20  1  0.348619  0.098541  0.731702  1
  H  H21  1  0.651381  0.598541  0.768298  1
  H  H22  1  0.651381  0.901459  0.268298  1
  H  H23  1  0.348619  0.401459  0.231702  1
  H  H24  1  0.425476  0.362751  0.788291  1
  H  H25  1  0.574524  0.862751  0.711709  1
  H  H26  1  0.574524  0.637249  0.211709  1
  H  H27  1  0.425476  0.137249  0.288291  1
  H  H28  1  0.209982  0.019263  0.819264  1
  H  H29  1  0.790018  0.519263  0.680736  1
  H  H30  1  0.790018  0.980737  0.180736  1
  H  H31  1  0.209982  0.480737  0.319264  1
  H  H32  1  0.172257  0.228482  0.937082  1
  H  H33  1  0.827743  0.728482  0.562918  1
  H  H34  1  0.827743  0.771518  0.062918  1
  H  H35  1  0.172257  0.271518  0.437082  1
  C  C36  1  0.398498  0.688553  0.962503  1
  C  C37  1  0.601502  0.188553  0.537497  1
  C  C38  1  0.601502  0.311447  0.037497  1
  C  C39  1  0.398498  0.811447  0.462503  1
  C  C40  1  0.302072  0.314818  0.870996  1
  C  C41  1  0.697928  0.814818  0.629004  1
  C  C42  1  0.697928  0.685182  0.129004  1
  C  C43  1  0.302072  0.185182  0.370996  1
  N  N44  1  0.397116  0.853465  0.059158  1
  N  N45  1  0.602884  0.353465  0.440842  1
  N  N46  1  0.602884  0.146535  0.940842  1
  N  N47  1  0.397116  0.646535  0.559158  1
  N  N48  1  0.320550  0.513202  0.954196  1
  N  N49  1  0.679450  0.013202  0.545804  1
  N  N50  1  0.679450  0.486798  0.045804  1
  N  N51  1  0.320550  0.986798  0.454196  1
  N  N52  1  0.364742  0.252337  0.789785  1
  N  N53  1  0.635258  0.752337  0.710215  1
  N  N54  1  0.635258  0.747663  0.210215  1
  N  N55  1  0.364742  0.247663  0.289785  1
  N  N56  1  0.221125  0.178616  0.876465  1
  N  N57  1  0.778875  0.678616  0.623535  1
  N  N58  1  0.778875  0.821384  0.123535  1
  N  N59  1  0.221125  0.321384  0.376465  1
  O  O60  1  0.892688  0.570047  0.391677  1
  O  O61  1  0.107312  0.070047  0.108323  1
  O  O62  1  0.107312  0.429953  0.608323  1
  O  O63  1  0.892688  0.929953  0.891677  1
  O  O64  1  0.049514  0.649309  0.203079  1
  O  O65  1  0.950486  0.149309  0.296921  1
  O  O66  1  0.950486  0.350691  0.796921  1
  O  O67  1  0.049514  0.850691  0.703079  1
  O  O68  1  0.106683  0.857786  0.487565  1
  O  O69  1  0.893317  0.357786  0.012435  1
  O  O70  1  0.893317  0.142214  0.512435  1
  O  O71  1  0.106683  0.642214  0.987565  1
  O  O72  1  0.229575  0.709205  0.175237  1
  O  O73  1  0.770425  0.209205  0.324763  1
  O  O74  1  0.770425  0.290795  0.824763  1
  O  O75  1  0.229575  0.790795  0.675237  1
  O  O76  1  0.461951  0.687690  0.887015  1
  O  O77  1  0.538049  0.187690  0.612985  1
  O  O78  1  0.538049  0.312310  0.112985  1
  O  O79  1  0.461951  0.812310  0.387015  1
