# generated using pymatgen
data_Cs3Nb2S11
_symmetry_space_group_name_H-M   'P 1'
_cell_length_a   8.36765952
_cell_length_b   12.35045277
_cell_length_c   20.12138106
_cell_angle_alpha   102.47907920
_cell_angle_beta   90.00000000
_cell_angle_gamma   90.00000000
_symmetry_Int_Tables_number   1
_chemical_formula_structural   Cs3Nb2S11
_chemical_formula_sum   'Cs12 Nb8 S44'
_cell_volume   2030.30509261
_cell_formula_units_Z   4
loop_
 _symmetry_equiv_pos_site_id
 _symmetry_equiv_pos_as_xyz
  1  'x, y, z'
loop_
 _atom_site_type_symbol
 _atom_site_label
 _atom_site_symmetry_multiplicity
 _atom_site_fract_x
 _atom_site_fract_y
 _atom_site_fract_z
 _atom_site_occupancy
  Cs  Cs0  1  0.318658  0.005785  0.838377  1
  Cs  Cs1  1  0.681342  0.994215  0.161623  1
  Cs  Cs2  1  0.659249  0.536730  0.142234  1
  Cs  Cs3  1  0.181473  0.226474  0.118646  1
  Cs  Cs4  1  0.159249  0.463270  0.357766  1
  Cs  Cs5  1  0.818658  0.994215  0.661623  1
  Cs  Cs6  1  0.818527  0.773526  0.881354  1
  Cs  Cs7  1  0.681473  0.773526  0.381354  1
  Cs  Cs8  1  0.340751  0.463270  0.857766  1
  Cs  Cs9  1  0.181342  0.005785  0.338377  1
  Cs  Cs10  1  0.318527  0.226474  0.618646  1
  Cs  Cs11  1  0.840751  0.536730  0.642234  1
  Nb  Nb12  1  0.855335  0.291856  0.841202  1
  Nb  Nb13  1  0.355335  0.708144  0.658798  1
  Nb  Nb14  1  0.722312  0.195235  0.994035  1
  Nb  Nb15  1  0.277688  0.804765  0.005965  1
  Nb  Nb16  1  0.644665  0.291856  0.341202  1
  Nb  Nb17  1  0.144665  0.708144  0.158798  1
  Nb  Nb18  1  0.222312  0.804765  0.505965  1
  Nb  Nb19  1  0.777688  0.195235  0.494035  1
  S  S20  1  0.528788  0.086753  0.454972  1
  S  S21  1  0.371847  0.635871  0.039777  1
  S  S22  1  0.128153  0.635871  0.539777  1
  S  S23  1  0.620483  0.001034  0.985805  1
  S  S24  1  0.984721  0.253171  0.950564  1
  S  S25  1  0.889363  0.210441  0.283237  1
  S  S26  1  0.278542  0.524431  0.679913  1
  S  S27  1  0.776790  0.114328  0.342746  1
  S  S28  1  0.449805  0.250277  0.969922  1
  S  S29  1  0.439730  0.238031  0.270282  1
  S  S30  1  0.579466  0.480632  0.405418  1
  S  S31  1  0.560270  0.761969  0.729718  1
  S  S32  1  0.379517  0.998966  0.014195  1
  S  S33  1  0.550195  0.749723  0.030078  1
  S  S34  1  0.920534  0.480632  0.905418  1
  S  S35  1  0.515279  0.253171  0.450564  1
  S  S36  1  0.420534  0.519368  0.594582  1
  S  S37  1  0.246821  0.749832  0.893310  1
  S  S38  1  0.028788  0.913247  0.045028  1
  S  S39  1  0.079466  0.519368  0.094582  1
  S  S40  1  0.015279  0.746829  0.049436  1
  S  S41  1  0.778542  0.475569  0.820087  1
  S  S42  1  0.471212  0.913247  0.545028  1
  S  S43  1  0.721458  0.475569  0.320087  1
  S  S44  1  0.879517  0.001034  0.485805  1
  S  S45  1  0.110637  0.789559  0.716763  1
  S  S46  1  0.723210  0.114328  0.842746  1
  S  S47  1  0.628153  0.364129  0.960223  1
  S  S48  1  0.610637  0.210441  0.783237  1
  S  S49  1  0.389363  0.789559  0.216763  1
  S  S50  1  0.276790  0.885672  0.157254  1
  S  S51  1  0.871847  0.364129  0.460223  1
  S  S52  1  0.060270  0.238031  0.770282  1
  S  S53  1  0.746821  0.250168  0.606690  1
  S  S54  1  0.050195  0.250277  0.469922  1
  S  S55  1  0.484721  0.746829  0.549436  1
  S  S56  1  0.120483  0.998966  0.514195  1
  S  S57  1  0.223210  0.885672  0.657254  1
  S  S58  1  0.971212  0.086753  0.954972  1
  S  S59  1  0.949805  0.749723  0.530078  1
  S  S60  1  0.753179  0.250168  0.106690  1
  S  S61  1  0.939730  0.761969  0.229718  1
  S  S62  1  0.253179  0.749832  0.393310  1
  S  S63  1  0.221458  0.524431  0.179913  1
