# generated using pymatgen
data_Sr7PrFe4(MoO6)4
_symmetry_space_group_name_H-M   'P 1'
_cell_length_a   5.61864731
_cell_length_b   22.57447168
_cell_length_c   5.68447638
_cell_angle_alpha   119.64612454
_cell_angle_beta   119.64831153
_cell_angle_gamma   90.01908398
_symmetry_Int_Tables_number   1
_chemical_formula_structural   Sr7PrFe4(MoO6)4
_chemical_formula_sum   'Sr7 Pr1 Fe4 Mo4 O24'
_cell_volume   515.13623163
_cell_formula_units_Z   1
loop_
 _symmetry_equiv_pos_site_id
 _symmetry_equiv_pos_as_xyz
  1  'x, y, z'
loop_
 _atom_site_type_symbol
 _atom_site_label
 _atom_site_symmetry_multiplicity
 _atom_site_fract_x
 _atom_site_fract_y
 _atom_site_fract_z
 _atom_site_occupancy
  Sr  Sr0  1  0.256124  0.191633  0.511281  1
  Sr  Sr1  1  0.245704  0.436796  0.496308  1
  Sr  Sr2  1  0.258470  0.691035  0.515438  1
  Sr  Sr3  1  0.237463  0.929933  0.476719  1
  Sr  Sr4  1  0.753504  0.311859  0.497712  1
  Sr  Sr5  1  0.754478  0.066501  0.514597  1
  Sr  Sr6  1  0.746707  0.561355  0.495639  1
  Pr  Pr7  1  0.743941  0.809693  0.493484  1
  Fe  Fe8  1  0.997946  0.250543  0.003278  1
  Fe  Fe9  1  0.004651  0.500455  0.001325  1
  Fe  Fe10  1  0.002348  0.752153  0.004300  1
  Fe  Fe11  1  0.494289  0.870729  0.990673  1
  Mo  Mo12  1  0.993680  0.996330  0.992395  1
  Mo  Mo13  1  0.501324  0.125550  0.003337  1
  Mo  Mo14  1  0.502166  0.376231  0.002387  1
  Mo  Mo15  1  0.499279  0.625120  -0.000148  1
  O  O16  1  0.251247  0.058792  0.496691  1
  O  O17  1  0.260166  0.313901  0.501702  1
  O  O18  1  0.243685  0.563982  0.500868  1
  O  O19  1  0.241267  0.812319  0.498917  1
  O  O20  1  0.209420  0.177214  0.994038  1
  O  O21  1  0.208037  0.428497  0.002456  1
  O  O22  1  0.221410  0.676542  0.007228  1
  O  O23  1  0.182108  0.919347  0.973531  1
  O  O24  1  0.278134  0.046935  0.996878  1
  O  O25  1  0.296022  0.306730  0.000570  1
  O  O26  1  0.288507  0.552461  0.998584  1
  O  O27  1  0.323984  0.801614  0.031949  1
  O  O28  1  0.754534  0.187264  0.498562  1
  O  O29  1  0.744508  0.439586  0.504807  1
  O  O30  1  0.758924  0.690748  0.503053  1
  O  O31  1  0.748619  0.934220  0.495869  1
  O  O32  1  0.710197  0.200196  0.998753  1
  O  O33  1  0.704820  0.447676  0.006194  1
  O  O34  1  0.709535  0.702336  0.015797  1
  O  O35  1  0.711904  0.949631  0.001341  1
  O  O36  1  0.796090  0.072325  0.002288  1
  O  O37  1  0.793273  0.323970  -0.000097  1
  O  O38  1  0.780146  0.575339  0.003276  1
  O  O39  1  0.791391  0.822458  0.968019  1
