# generated using pymatgen
data_Yb7Mg3Ge8
_symmetry_space_group_name_H-M   'P 1'
_cell_length_a   7.66619422
_cell_length_b   18.34745209
_cell_length_c   16.06260024
_cell_angle_alpha   50.82908839
_cell_angle_beta   90.00000000
_cell_angle_gamma   90.00000000
_symmetry_Int_Tables_number   1
_chemical_formula_structural   Yb7Mg3Ge8
_chemical_formula_sum   'Yb28 Mg12 Ge32'
_cell_volume   1751.54684108
_cell_formula_units_Z   4
loop_
 _symmetry_equiv_pos_site_id
 _symmetry_equiv_pos_as_xyz
  1  'x, y, z'
loop_
 _atom_site_type_symbol
 _atom_site_label
 _atom_site_symmetry_multiplicity
 _atom_site_fract_x
 _atom_site_fract_y
 _atom_site_fract_z
 _atom_site_occupancy
  Yb  Yb0  1  0.988092  0.385577  0.101585  1
  Yb  Yb1  1  0.000651  0.256287  0.378963  1
  Yb  Yb2  1  0.028589  0.874375  0.114897  1
  Yb  Yb3  1  0.927464  0.716745  0.396456  1
  Yb  Yb4  1  0.214096  0.086036  0.127018  1
  Yb  Yb5  1  0.213319  0.490815  0.350981  1
  Yb  Yb6  1  0.190581  0.963484  0.391487  1
  Yb  Yb7  1  0.285904  0.586036  0.627018  1
  Yb  Yb8  1  0.309419  0.463484  0.891486  1
  Yb  Yb9  1  0.286681  0.990815  0.850981  1
  Yb  Yb10  1  0.572536  0.216745  0.896456  1
  Yb  Yb11  1  0.471411  0.374375  0.614897  1
  Yb  Yb12  1  0.511908  0.885577  0.601585  1
  Yb  Yb13  1  0.499349  0.756287  0.878963  1
  Yb  Yb14  1  0.488092  0.114423  0.398415  1
  Yb  Yb15  1  0.500651  0.243713  0.121037  1
  Yb  Yb16  1  0.528589  0.625625  0.385103  1
  Yb  Yb17  1  0.427464  0.783255  0.103544  1
  Yb  Yb18  1  0.713319  0.009185  0.149019  1
  Yb  Yb19  1  0.714096  0.413964  0.372982  1
  Yb  Yb20  1  0.690581  0.536516  0.108513  1
  Yb  Yb21  1  0.809419  0.036516  0.608514  1
  Yb  Yb22  1  0.786681  0.509185  0.649019  1
  Yb  Yb23  1  0.785904  0.913964  0.872982  1
  Yb  Yb24  1  0.072536  0.283255  0.603544  1
  Yb  Yb25  1  0.971411  0.125625  0.885103  1
  Yb  Yb26  1  0.999349  0.743713  0.621037  1
  Yb  Yb27  1  0.011908  0.614423  0.898415  1
  Mg  Mg28  1  0.141779  0.341847  0.788847  1
  Mg  Mg29  1  0.146717  0.860509  0.740441  1
  Mg  Mg30  1  0.241981  0.620674  0.094655  1
  Mg  Mg31  1  0.258019  0.120674  0.594655  1
  Mg  Mg32  1  0.353283  0.360509  0.240441  1
  Mg  Mg33  1  0.358221  0.841847  0.288847  1
  Mg  Mg34  1  0.641779  0.158153  0.711153  1
  Mg  Mg35  1  0.646717  0.639491  0.759559  1
  Mg  Mg36  1  0.741981  0.879326  0.405345  1
  Mg  Mg37  1  0.758019  0.379326  0.905345  1
  Mg  Mg38  1  0.853283  0.139491  0.259559  1
  Mg  Mg39  1  0.858221  0.658153  0.211153  1
  Ge  Ge40  1  0.968020  0.090300  0.725065  1
  Ge  Ge41  1  0.961900  0.531841  0.790260  1
  Ge  Ge42  1  0.150380  0.525849  0.507570  1
  Ge  Ge43  1  0.123081  0.278215  0.037896  1
  Ge  Ge44  1  0.140035  0.043652  0.495891  1
  Ge  Ge45  1  0.134923  0.805026  0.962507  1
  Ge  Ge46  1  0.178757  0.199022  0.256334  1
  Ge  Ge47  1  0.176816  0.679392  0.291829  1
  Ge  Ge48  1  0.323184  0.179392  0.791829  1
  Ge  Ge49  1  0.321243  0.699022  0.756334  1
  Ge  Ge50  1  0.365077  0.305026  0.462507  1
  Ge  Ge51  1  0.376919  0.778215  0.537896  1
  Ge  Ge52  1  0.359965  0.543652  0.995891  1
  Ge  Ge53  1  0.349620  0.025849  0.007570  1
  Ge  Ge54  1  0.538100  0.031841  0.290260  1
  Ge  Ge55  1  0.531980  0.590300  0.225065  1
  Ge  Ge56  1  0.468020  0.409700  0.774935  1
  Ge  Ge57  1  0.461900  0.968159  0.709740  1
  Ge  Ge58  1  0.650380  0.974151  0.992430  1
  Ge  Ge59  1  0.640035  0.456348  0.004109  1
  Ge  Ge60  1  0.623081  0.221785  0.462104  1
  Ge  Ge61  1  0.634923  0.694974  0.537493  1
  Ge  Ge62  1  0.678757  0.300978  0.243666  1
  Ge  Ge63  1  0.676816  0.820608  0.208171  1
  Ge  Ge64  1  0.823184  0.320608  0.708171  1
  Ge  Ge65  1  0.821243  0.800978  0.743666  1
  Ge  Ge66  1  0.859965  0.956348  0.504109  1
  Ge  Ge67  1  0.865077  0.194974  0.037493  1
  Ge  Ge68  1  0.849620  0.474151  0.492430  1
  Ge  Ge69  1  0.876919  0.721785  0.962104  1
  Ge  Ge70  1  0.038100  0.468159  0.209740  1
  Ge  Ge71  1  0.031980  0.909700  0.274935  1
