# generated using pymatgen
data_Na2Al2Si3(HO3)4
_symmetry_space_group_name_H-M   'P 1'
_cell_length_a   9.06646742
_cell_length_b   8.94979024
_cell_length_c   7.64012093
_cell_angle_alpha   91.54146730
_cell_angle_beta   79.48017412
_cell_angle_gamma   60.73830301
_symmetry_Int_Tables_number   1
_chemical_formula_structural   Na2Al2Si3(HO3)4
_chemical_formula_sum   'Na4 Al4 Si6 H8 O24'
_cell_volume   526.84739956
_cell_formula_units_Z   2
loop_
 _symmetry_equiv_pos_site_id
 _symmetry_equiv_pos_as_xyz
  1  'x, y, z'
loop_
 _atom_site_type_symbol
 _atom_site_label
 _atom_site_symmetry_multiplicity
 _atom_site_fract_x
 _atom_site_fract_y
 _atom_site_fract_z
 _atom_site_occupancy
  Na  Na0  1  0.471501  0.648669  0.844034  1
  Na  Na1  1  0.105711  0.001325  0.361263  1
  Na  Na2  1  0.340997  0.282439  0.723780  1
  Na  Na3  1  0.925506  0.307422  0.925243  1
  Al  Al4  1  0.925836  0.680055  0.932107  1
  Al  Al5  1  0.677231  0.866845  0.716115  1
  Al  Al6  1  0.437788  0.579912  0.444536  1
  Al  Al7  1  0.598406  0.210696  0.954090  1
  Si  Si8  1  0.740081  0.057817  0.295913  1
  Si  Si9  1  -0.006431  0.459244  0.583661  1
  Si  Si10  1  0.071460  0.901899  0.032125  1
  Si  Si11  1  0.331280  0.952173  0.602298  1
  Si  Si12  1  0.738062  0.298273  0.601489  1
  Si  Si13  1  0.270269  0.552204  0.147539  1
  H  H14  1  0.894641  0.824083  0.789795  1
  H  H15  1  0.038626  0.545088  0.438376  1
  H  H16  1  0.114225  0.835509  0.839714  1
  H  H17  1  0.812425  0.647327  0.648853  1
  H  H18  1  0.702378  0.408770  0.264333  1
  H  H19  1  0.651596  0.584596  0.122530  1
  H  H20  1  0.186134  0.075586  0.899649  1
  H  H21  1  0.132035  0.356389  0.245186  1
  O  O22  1  0.042484  0.481984  0.781219  1
  O  O23  1  0.276899  0.081657  0.437694  1
  O  O24  1  0.878612  0.365017  0.569795  1
  O  O25  1  0.205676  0.276501  0.459549  1
  O  O26  1  0.597500  0.018090  0.421166  1
  O  O27  1  0.293276  0.804101  0.524262  1
  O  O28  1  0.697839  0.751558  -0.015749  1
  O  O29  1  0.412566  0.420467  -0.022055  1
  O  O30  1  0.811674  0.151475  0.422368  1
  O  O31  1  0.649864  0.197874  0.164206  1
  O  O32  1  0.075385  0.561771  0.119271  1
  O  O33  1  0.763398  0.892873  0.482566  1
  O  O34  1  0.631395  0.533997  0.288727  1
  O  O35  1  0.057718  0.080958  0.081591  1
  O  O36  1  0.117136  0.377909  0.118665  1
  O  O37  1  0.232361  0.747377  0.110544  1
  O  O38  1  0.309245  0.524530  0.341922  1
  O  O39  1  0.199766  0.103559  0.772569  1
  O  O40  1  0.899800  0.887665  0.135825  1
  O  O41  1  0.756893  0.226206  0.792462  1
  O  O42  1  0.509833  0.834093  0.664559  1
  O  O43  1  0.557504  0.069085  0.847721  1
  O  O44  1  0.533891  0.442683  0.605288  1
  O  O45  1  0.685889  0.592253  -0.016796  1
