# generated using pymatgen
data_CsXe3O3F13
_symmetry_space_group_name_H-M   'P 1'
_cell_length_a   14.37818810
_cell_length_b   14.37818810
_cell_length_c   14.37818810
_cell_angle_alpha   90.00000000
_cell_angle_beta   90.00000000
_cell_angle_gamma   90.00000000
_symmetry_Int_Tables_number   1
_chemical_formula_structural   CsXe3O3F13
_chemical_formula_sum   'Cs8 Xe24 O24 F104'
_cell_volume   2972.43579566
_cell_formula_units_Z   8
loop_
 _symmetry_equiv_pos_site_id
 _symmetry_equiv_pos_as_xyz
  1  'x, y, z'
loop_
 _atom_site_type_symbol
 _atom_site_label
 _atom_site_symmetry_multiplicity
 _atom_site_fract_x
 _atom_site_fract_y
 _atom_site_fract_z
 _atom_site_occupancy
  Cs  Cs0  1  0.500000  0.500000  0.500000  1
  Cs  Cs1  1  0.000000  0.000000  0.000000  1
  Cs  Cs2  1  0.000000  0.500000  0.500000  1
  Cs  Cs3  1  0.500000  0.500000  0.000000  1
  Cs  Cs4  1  0.500000  0.000000  0.000000  1
  Cs  Cs5  1  0.000000  0.000000  0.500000  1
  Cs  Cs6  1  0.500000  0.000000  0.500000  1
  Cs  Cs7  1  0.000000  0.500000  0.000000  1
  Xe  Xe8  1  0.023872  0.744617  0.251284  1
  Xe  Xe9  1  0.748716  0.976128  0.255383  1
  Xe  Xe10  1  0.748716  0.523872  0.755383  1
  Xe  Xe11  1  0.744617  0.251284  0.023872  1
  Xe  Xe12  1  0.248716  0.976128  0.244617  1
  Xe  Xe13  1  0.976128  0.255383  0.748716  1
  Xe  Xe14  1  0.523872  0.755383  0.748716  1
  Xe  Xe15  1  0.244617  0.251284  0.476128  1
  Xe  Xe16  1  0.744617  0.248716  0.523872  1
  Xe  Xe17  1  0.476128  0.255383  0.751284  1
  Xe  Xe18  1  0.251284  0.476128  0.244617  1
  Xe  Xe19  1  0.755383  0.751284  0.023872  1
  Xe  Xe20  1  0.255383  0.751284  0.476128  1
  Xe  Xe21  1  0.476128  0.244617  0.251284  1
  Xe  Xe22  1  0.751284  0.023872  0.755383  1
  Xe  Xe23  1  0.244617  0.248716  0.976128  1
  Xe  Xe24  1  0.251284  0.023872  0.744617  1
  Xe  Xe25  1  0.023872  0.755383  0.751284  1
  Xe  Xe26  1  0.755383  0.748716  0.523872  1
  Xe  Xe27  1  0.255383  0.748716  0.976128  1
  Xe  Xe28  1  0.751284  0.476128  0.255383  1
  Xe  Xe29  1  0.976128  0.244617  0.248716  1
  Xe  Xe30  1  0.248716  0.523872  0.744617  1
  Xe  Xe31  1  0.523872  0.744617  0.248716  1
  O  O32  1  0.100392  0.255852  0.778934  1
  O  O33  1  0.255852  0.721066  0.600392  1
  O  O34  1  0.755852  0.721066  0.899608  1
  O  O35  1  0.221066  0.899608  0.744148  1
  O  O36  1  0.600392  0.244148  0.221066  1
  O  O37  1  0.399608  0.744148  0.278934  1
  O  O38  1  0.278934  0.100392  0.244148  1
  O  O39  1  0.278934  0.399608  0.744148  1
  O  O40  1  0.600392  0.255852  0.721066  1
  O  O41  1  0.721066  0.899608  0.755852  1
  O  O42  1  0.778934  0.100392  0.255852  1
  O  O43  1  0.221066  0.600392  0.244148  1
  O  O44  1  0.244148  0.221066  0.600392  1
  O  O45  1  0.100392  0.244148  0.278934  1
  O  O46  1  0.255852  0.778934  0.100392  1
  O  O47  1  0.899608  0.755852  0.721066  1
  O  O48  1  0.755852  0.778934  0.399608  1
  O  O49  1  0.744148  0.221066  0.899608  1
  O  O50  1  0.778934  0.399608  0.755852  1
  O  O51  1  0.744148  0.278934  0.399608  1
  O  O52  1  0.899608  0.744148  0.221066  1
  O  O53  1  0.399608  0.755852  0.778934  1
  O  O54  1  0.244148  0.278934  0.100392  1
  O  O55  1  0.721066  0.600392  0.255852  1
  F  F56  1  0.502366  0.313379  0.372390  1
  F  F57  1  0.678502  0.456556  0.134792  1
  F  F58  1  0.489951  0.120308  0.320162  1
  F  F59  1  0.956556  0.134792  0.821498  1
  F  F60  1  0.678502  0.043444  0.634792  1
  F  F61  1  0.372390  0.502366  0.313379  1
  F  F62  1  0.456556  0.365208  0.178502  1
  F  F63  1  0.632292  0.052583  0.828583  1
  F  F64  1  0.620308  0.320162  0.010049  1
  F  F65  1  0.052583  0.671417  0.132292  1
  F  F66  1  0.043444  0.865208  0.178502  1
  F  F67  1  0.956556  0.365208  0.321498  1
  F  F68  1  0.120308  0.320162  0.489951  1
  F  F69  1  0.305991  0.305991  0.305991  1
  F  F70  1  0.828583  0.867708  0.552583  1
  F  F71  1  0.510049  0.879692  0.679838  1
  F  F72  1  0.447417  0.171417  0.132292  1
  F  F73  1  0.620308  0.179838  0.510049  1
  F  F74  1  0.947417  0.171417  0.367708  1
  F  F75  1  0.552583  0.828583  0.867708  1
  F  F76  1  0.194009  0.694009  0.805991  1
  F  F77  1  0.828583  0.632292  0.052583  1
  F  F78  1  0.186621  0.872390  0.502366  1
  F  F79  1  0.171417  0.132292  0.447417  1
  F  F80  1  0.867708  0.552583  0.828583  1
  F  F81  1  0.313379  0.372390  0.502366  1
  F  F82  1  0.052583  0.828583  0.632292  1
  F  F83  1  0.947417  0.328583  0.867708  1
  F  F84  1  0.120308  0.179838  0.989951  1
  F  F85  1  0.497634  0.813379  0.127610  1
  F  F86  1  0.867708  0.947417  0.328583  1
  F  F87  1  0.813379  0.372390  0.997634  1
  F  F88  1  0.821498  0.543444  0.634792  1
  F  F89  1  0.805991  0.305991  0.194009  1
  F  F90  1  0.879692  0.679838  0.510049  1
  F  F91  1  0.872390  0.997634  0.686621  1
  F  F92  1  0.694009  0.805991  0.194009  1
  F  F93  1  0.543444  0.865208  0.321498  1
  F  F94  1  0.002366  0.186621  0.627610  1
  F  F95  1  0.171417  0.367708  0.947417  1
  F  F96  1  0.997634  0.813379  0.372390  1
  F  F97  1  0.497634  0.686621  0.627610  1
  F  F98  1  0.305991  0.194009  0.805991  1
  F  F99  1  0.634792  0.821498  0.543444  1
  F  F100  1  0.632292  0.447417  0.328583  1
  F  F101  1  0.194009  0.805991  0.305991  1
  F  F102  1  0.686621  0.627610  0.497634  1
  F  F103  1  0.367708  0.552583  0.671417  1
  F  F104  1  0.865208  0.321498  0.543444  1
  F  F105  1  0.679838  0.510049  0.879692  1
  F  F106  1  0.627610  0.497634  0.686621  1
  F  F107  1  0.820162  0.010049  0.879692  1
  F  F108  1  0.002366  0.313379  0.127610  1
  F  F109  1  0.989951  0.120308  0.179838  1
  F  F110  1  0.679838  0.989951  0.379692  1
  F  F111  1  0.367708  0.947417  0.171417  1
  F  F112  1  0.627610  0.002366  0.186621  1
  F  F113  1  0.686621  0.872390  0.997634  1
  F  F114  1  0.456556  0.134792  0.678502  1
  F  F115  1  0.872390  0.502366  0.186621  1
  F  F116  1  0.989951  0.379692  0.679838  1
  F  F117  1  0.127610  0.497634  0.813379  1
  F  F118  1  0.328583  0.867708  0.947417  1
  F  F119  1  0.865208  0.178502  0.043444  1
  F  F120  1  0.821498  0.956556  0.134792  1
  F  F121  1  0.694009  0.694009  0.694009  1
  F  F122  1  0.043444  0.634792  0.678502  1
  F  F123  1  0.447417  0.328583  0.632292  1
  F  F124  1  0.132292  0.447417  0.171417  1
  F  F125  1  0.127610  0.002366  0.313379  1
  F  F126  1  0.379692  0.679838  0.989951  1
  F  F127  1  0.879692  0.820162  0.010049  1
  F  F128  1  0.134792  0.678502  0.456556  1
  F  F129  1  0.502366  0.186621  0.872390  1
  F  F130  1  0.543444  0.634792  0.821498  1
  F  F131  1  0.132292  0.052583  0.671417  1
  F  F132  1  0.178502  0.456556  0.365208  1
  F  F133  1  0.372390  0.997634  0.813379  1
  F  F134  1  0.179838  0.510049  0.620308  1
  F  F135  1  0.320162  0.489951  0.120308  1
  F  F136  1  0.634792  0.678502  0.043444  1
  F  F137  1  0.010049  0.620308  0.320162  1
  F  F138  1  0.813379  0.127610  0.497634  1
  F  F139  1  0.365208  0.178502  0.456556  1
  F  F140  1  0.178502  0.043444  0.865208  1
  F  F141  1  0.321498  0.543444  0.865208  1
  F  F142  1  0.010049  0.879692  0.820162  1
  F  F143  1  0.671417  0.367708  0.552583  1
  F  F144  1  0.510049  0.620308  0.179838  1
  F  F145  1  0.805991  0.194009  0.694009  1
  F  F146  1  0.997634  0.686621  0.872390  1
  F  F147  1  0.379692  0.820162  0.489951  1
  F  F148  1  0.186621  0.627610  0.002366  1
  F  F149  1  0.328583  0.632292  0.447417  1
  F  F150  1  0.820162  0.489951  0.379692  1
  F  F151  1  0.552583  0.671417  0.367708  1
  F  F152  1  0.320162  0.010049  0.620308  1
  F  F153  1  0.313379  0.127610  0.002366  1
  F  F154  1  0.321498  0.956556  0.365208  1
  F  F155  1  0.365208  0.321498  0.956556  1
  F  F156  1  0.179838  0.989951  0.120308  1
  F  F157  1  0.134792  0.821498  0.956556  1
  F  F158  1  0.489951  0.379692  0.820162  1
  F  F159  1  0.671417  0.132292  0.052583  1
