# generated using pymatgen
data_C2F
_symmetry_space_group_name_H-M   'P 1'
_cell_length_a   12.44841572
_cell_length_b   12.44841554
_cell_length_c   12.44841578
_cell_angle_alpha   113.42186229
_cell_angle_beta   113.42186195
_cell_angle_gamma   113.42186524
_symmetry_Int_Tables_number   1
_chemical_formula_structural   C2F
_chemical_formula_sum   'C72 F36'
_cell_volume   1220.60317512
_cell_formula_units_Z   36
loop_
 _symmetry_equiv_pos_site_id
 _symmetry_equiv_pos_as_xyz
  1  'x, y, z'
loop_
 _atom_site_type_symbol
 _atom_site_label
 _atom_site_symmetry_multiplicity
 _atom_site_fract_x
 _atom_site_fract_y
 _atom_site_fract_z
 _atom_site_occupancy
  C  C0  1  0.115259  0.775834  0.928945  1
  C  C1  1  0.240704  0.866638  0.748911  1
  C  C2  1  0.222029  0.051963  0.364452  1
  C  C3  1  0.322518  0.322162  0.103925  1
  C  C4  1  0.713908  0.592626  0.708329  1
  C  C5  1  0.162134  0.390178  0.188258  1
  C  C6  1  0.478980  0.681352  0.910896  1
  C  C7  1  0.866638  0.748911  0.240704  1
  C  C8  1  0.592626  0.708329  0.713908  1
  C  C9  1  0.811742  0.837866  0.609822  1
  C  C10  1  0.198804  0.300460  0.002523  1
  C  C11  1  0.609822  0.811742  0.837866  1
  C  C12  1  0.635221  0.626965  0.749949  1
  C  C13  1  0.050271  0.787548  0.099875  1
  C  C14  1  0.099875  0.050271  0.787548  1
  C  C15  1  0.407373  0.291671  0.286092  1
  C  C16  1  0.300460  0.002523  0.198804  1
  C  C17  1  0.318648  0.089104  0.521020  1
  C  C18  1  0.328460  0.042112  0.114010  1
  C  C19  1  0.114010  0.328460  0.042112  1
  C  C20  1  0.677838  0.896075  0.677482  1
  C  C21  1  0.286092  0.407373  0.291671  1
  C  C22  1  0.042112  0.114010  0.328460  1
  C  C23  1  0.787548  0.099875  0.050271  1
  C  C24  1  0.885990  0.671540  0.957888  1
  C  C25  1  0.677482  0.677838  0.896075  1
  C  C26  1  0.708329  0.713908  0.592626  1
  C  C27  1  0.824064  0.174331  0.910031  1
  C  C28  1  0.997477  0.801196  0.699540  1
  C  C29  1  0.174331  0.910031  0.824064  1
  C  C30  1  0.373035  0.250051  0.364779  1
  C  C31  1  0.071055  0.884741  0.224166  1
  C  C32  1  0.364452  0.222029  0.051963  1
  C  C33  1  0.801196  0.699540  0.997477  1
  C  C34  1  0.928945  0.115259  0.775834  1
  C  C35  1  0.089104  0.521020  0.318648  1
  C  C36  1  0.749949  0.635221  0.626965  1
  C  C37  1  0.681352  0.910896  0.478980  1
  C  C38  1  0.103925  0.322518  0.322162  1
  C  C39  1  0.896075  0.677482  0.677838  1
  C  C40  1  0.900125  0.949729  0.212452  1
  C  C41  1  0.635548  0.777971  0.948037  1
  C  C42  1  0.224166  0.071055  0.884741  1
  C  C43  1  0.777971  0.948037  0.635548  1
  C  C44  1  0.212452  0.900125  0.949729  1
  C  C45  1  0.775834  0.928945  0.115259  1
  C  C46  1  0.521020  0.318648  0.089104  1
  C  C47  1  0.089969  0.175936  0.825669  1
  C  C48  1  0.626965  0.749949  0.635221  1
  C  C49  1  0.949729  0.212452  0.900125  1
  C  C50  1  0.748911  0.240704  0.866638  1
  C  C51  1  0.957888  0.885990  0.671540  1
  C  C52  1  0.188258  0.162134  0.390178  1
  C  C53  1  0.251089  0.759296  0.133362  1
  C  C54  1  0.825669  0.089969  0.175936  1
  C  C55  1  0.910896  0.478980  0.681352  1
  C  C56  1  0.671540  0.957888  0.885990  1
  C  C57  1  0.322162  0.103925  0.322518  1
  C  C58  1  0.699540  0.997477  0.801196  1
  C  C59  1  0.250051  0.364779  0.373035  1
  C  C60  1  0.002523  0.198804  0.300460  1
  C  C61  1  0.051963  0.364452  0.222029  1
  C  C62  1  0.948037  0.635548  0.777971  1
  C  C63  1  0.364779  0.373035  0.250051  1
  C  C64  1  0.884741  0.224166  0.071055  1
  C  C65  1  0.910031  0.824064  0.174331  1
  C  C66  1  0.175936  0.825669  0.089969  1
  C  C67  1  0.390178  0.188258  0.162134  1
  C  C68  1  0.759296  0.133362  0.251089  1
  C  C69  1  0.291671  0.286092  0.407373  1
  C  C70  1  0.837866  0.609822  0.811742  1
  C  C71  1  0.133362  0.251089  0.759296  1
  F  F72  1  0.503643  0.334391  0.983578  1
  F  F73  1  0.602297  0.040153  0.144338  1
  F  F74  1  0.717932  0.679168  0.178856  1
  F  F75  1  0.794057  0.120601  0.361088  1
  F  F76  1  0.016422  0.496357  0.665609  1
  F  F77  1  0.232461  0.626320  0.464327  1
  F  F78  1  0.496357  0.665609  0.016422  1
  F  F79  1  0.464327  0.232461  0.626320  1
  F  F80  1  0.414568  0.746886  0.905430  1
  F  F81  1  0.679168  0.178856  0.717932  1
  F  F82  1  0.767539  0.373680  0.535673  1
  F  F83  1  0.144338  0.602297  0.040153  1
  F  F84  1  0.334391  0.983578  0.503643  1
  F  F85  1  0.905430  0.414568  0.746886  1
  F  F86  1  0.040153  0.144338  0.602297  1
  F  F87  1  0.120601  0.361088  0.794057  1
  F  F88  1  0.879399  0.638912  0.205943  1
  F  F89  1  0.253114  0.094570  0.585432  1
  F  F90  1  0.959847  0.855662  0.397703  1
  F  F91  1  0.373680  0.535673  0.767539  1
  F  F92  1  0.746886  0.905430  0.414568  1
  F  F93  1  0.397703  0.959847  0.855662  1
  F  F94  1  0.638912  0.205943  0.879399  1
  F  F95  1  0.855662  0.397703  0.959847  1
  F  F96  1  0.821144  0.282068  0.320832  1
  F  F97  1  0.535673  0.767539  0.373680  1
  F  F98  1  0.361088  0.794057  0.120601  1
  F  F99  1  0.585432  0.253114  0.094570  1
  F  F100  1  0.205943  0.879399  0.638912  1
  F  F101  1  0.983578  0.503643  0.334391  1
  F  F102  1  0.178856  0.717932  0.679168  1
  F  F103  1  0.320832  0.821144  0.282068  1
  F  F104  1  0.665609  0.016422  0.496357  1
  F  F105  1  0.626320  0.464327  0.232461  1
  F  F106  1  0.282068  0.320832  0.821144  1
  F  F107  1  0.094570  0.585432  0.253114  1
