# generated using pymatgen
data_Ga6SnTe10
_symmetry_space_group_name_H-M   'P 1'
_cell_length_a   10.47087863
_cell_length_b   10.45662362
_cell_length_c   10.45662368
_cell_angle_alpha   89.43900177
_cell_angle_beta   89.86306632
_cell_angle_gamma   89.86306657
_symmetry_Int_Tables_number   1
_chemical_formula_structural   Ga6SnTe10
_chemical_formula_sum   'Ga12 Sn2 Te20'
_cell_volume   1144.83475606
_cell_formula_units_Z   2
loop_
 _symmetry_equiv_pos_site_id
 _symmetry_equiv_pos_as_xyz
  1  'x, y, z'
loop_
 _atom_site_type_symbol
 _atom_site_label
 _atom_site_symmetry_multiplicity
 _atom_site_fract_x
 _atom_site_fract_y
 _atom_site_fract_z
 _atom_site_occupancy
  Ga  Ga0  1  0.122151  0.426206  0.159079  1
  Ga  Ga1  1  0.160444  0.126406  0.428105  1
  Ga  Ga2  1  0.170926  0.743910  0.344425  1
  Ga  Ga3  1  0.255414  0.830232  0.658323  1
  Ga  Ga4  1  0.337776  0.172588  0.742019  1
  Ga  Ga5  1  0.424534  0.161195  0.122812  1
  Ga  Ga6  1  0.575466  0.877188  0.838805  1
  Ga  Ga7  1  0.662224  0.257981  0.827412  1
  Ga  Ga8  1  0.744586  0.341677  0.169768  1
  Ga  Ga9  1  0.829074  0.655575  0.256090  1
  Ga  Ga10  1  0.839556  0.571895  0.873594  1
  Ga  Ga11  1  0.877849  0.840921  0.573794  1
  Sn  Sn12  1  0.254433  0.738443  0.996106  1
  Sn  Sn13  1  0.745567  0.003894  0.261557  1
  Te  Te14  1  1.000000  0.825951  0.174049  1
  Te  Te15  1  0.070880  0.669190  0.571709  1
  Te  Te16  1  0.083249  0.498008  0.916805  1
  Te  Te17  1  0.168679  0.168847  0.169661  1
  Te  Te18  1  0.170310  0.999080  0.823923  1
  Te  Te19  1  0.249551  0.318866  0.559222  1
  Te  Te20  1  0.319831  0.562449  0.245223  1
  Te  Te21  1  0.328854  0.928744  0.428660  1
  Te  Te22  1  0.429945  0.328150  0.928528  1
  Te  Te23  1  0.436959  0.679022  0.756741  1
  Te  Te24  1  0.500000  0.917559  0.082441  1
  Te  Te25  1  0.563041  0.243259  0.320978  1
  Te  Te26  1  0.570055  0.071472  0.671850  1
  Te  Te27  1  0.671146  0.571340  0.071256  1
  Te  Te28  1  0.680169  0.754777  0.437551  1
  Te  Te29  1  0.750449  0.440778  0.681134  1
  Te  Te30  1  0.829690  0.176077  0.000920  1
  Te  Te31  1  0.831321  0.830339  0.831153  1
  Te  Te32  1  0.916751  0.083195  0.501992  1
  Te  Te33  1  0.929120  0.428291  0.330810  1
