# generated using pymatgen
data_Sr5Al11TlSi13O48
_symmetry_space_group_name_H-M   'P 1'
_cell_length_a   12.50276955
_cell_length_b   12.41869312
_cell_length_c   12.32323667
_cell_angle_alpha   90.63957801
_cell_angle_beta   89.86925025
_cell_angle_gamma   89.42089089
_symmetry_Int_Tables_number   1
_chemical_formula_structural   Sr5Al11TlSi13O48
_chemical_formula_sum   'Sr5 Al11 Tl1 Si13 O48'
_cell_volume   1913.18260210
_cell_formula_units_Z   1
loop_
 _symmetry_equiv_pos_site_id
 _symmetry_equiv_pos_as_xyz
  1  'x, y, z'
loop_
 _atom_site_type_symbol
 _atom_site_label
 _atom_site_symmetry_multiplicity
 _atom_site_fract_x
 _atom_site_fract_y
 _atom_site_fract_z
 _atom_site_occupancy
  Sr  Sr0  1  0.223000  0.769290  0.218132  1
  Sr  Sr1  1  0.772691  0.208826  0.208436  1
  Sr  Sr2  1  0.764413  0.203013  0.796276  1
  Sr  Sr3  1  0.762559  0.794567  0.205888  1
  Sr  Sr4  1  0.869358  0.860629  0.853050  1
  Al  Al5  1  0.189900  0.618050  0.994923  1
  Al  Al6  1  0.609352  0.013387  0.186908  1
  Al  Al7  1  0.606490  0.190855  0.001620  1
  Al  Al8  1  0.619728  0.814992  0.992585  1
  Al  Al9  1  0.620304  0.987441  0.810331  1
  Al  Al10  1  0.827078  0.008346  0.624497  1
  Al  Al11  1  0.826404  0.365671  0.996625  1
  Al  Al12  1  0.822140  0.626579  0.001012  1
  Al  Al13  1  0.825594  0.002973  0.364154  1
  Al  Al14  1  0.999034  0.625965  0.810757  1
  Al  Al15  1  0.001507  0.815973  0.369467  1
  Tl  Tl16  1  0.683953  0.681788  0.756700  1
  Si  Si17  1  0.007494  0.370800  0.184681  1
  Si  Si18  1  0.012001  0.189259  0.624722  1
  Si  Si19  1  0.187777  0.000284  0.622958  1
  Si  Si20  1  0.185047  0.370805  0.996103  1
  Si  Si21  1  0.185072  0.002642  0.371391  1
  Si  Si22  1  0.370719  0.006169  0.183528  1
  Si  Si23  1  0.364710  0.182350  0.993572  1
  Si  Si24  1  0.366158  0.818742  0.995662  1
  Si  Si25  1  0.366154  0.991893  0.813971  1
  Si  Si26  1  0.010460  0.189250  0.371212  1
  Si  Si27  1  0.005692  0.370843  0.810925  1
  Si  Si28  1  0.009622  0.619925  0.187113  1
  Si  Si29  1  0.007724  0.820263  0.626306  1
  O  O30  1  0.016658  0.293924  0.292119  1
  O  O31  1  0.993689  0.495473  0.228787  1
  O  O32  1  0.023792  0.292496  0.704122  1
  O  O33  1  0.029450  0.702029  0.288850  1
  O  O34  1  0.994012  0.781292  0.503453  1
  O  O35  1  0.005563  0.723343  0.710548  1
  O  O36  1  0.116486  0.112906  0.353398  1
  O  O37  1  0.112235  0.359033  0.108071  1
  O  O38  1  0.115028  0.109040  0.640210  1
  O  O39  1  0.123439  0.631331  0.123830  1
  O  O40  1  0.107771  0.353352  0.890849  1
  O  O41  1  0.118470  0.893299  0.342832  1
  O  O42  1  0.098611  0.654030  0.900630  1
  O  O43  1  0.115413  0.894414  0.642209  1
  O  O44  1  0.232174  0.999279  0.495700  1
  O  O45  1  0.242291  0.486456  0.992552  1
  O  O46  1  0.278471  0.996636  0.278671  1
  O  O47  1  0.267443  0.269101  0.997273  1
  O  O48  1  0.285274  0.000062  0.709388  1
  O  O49  1  0.284404  0.721819  0.024565  1
  O  O50  1  0.353506  0.110192  0.106344  1
  O  O51  1  0.348232  0.100433  0.889017  1
  O  O52  1  0.348457  0.893816  0.110254  1
  O  O53  1  0.330345  0.888970  0.890128  1
  O  O54  1  0.477451  0.243342  0.985868  1
  O  O55  1  0.487082  0.974957  0.769666  1
  O  O56  1  0.487072  0.775312  0.982558  1
  O  O57  1  0.482650  0.998079  0.245091  1
  O  O58  1  0.616651  0.140969  0.131898  1
  O  O59  1  0.635009  0.097241  0.898358  1
  O  O60  1  0.637411  0.903392  0.101375  1
  O  O61  1  0.667611  0.860886  0.863920  1
  O  O62  1  0.723221  0.015771  0.269648  1
  O  O63  1  0.730581  0.017575  0.726582  1
  O  O64  1  0.723999  0.270430  0.994000  1
  O  O65  1  0.718723  0.720064  0.025781  1
  O  O66  1  0.784053  0.000525  0.495276  1
  O  O67  1  0.784079  0.495895  0.999275  1
  O  O68  1  0.902781  0.123533  0.336588  1
  O  O69  1  0.900873  0.128771  0.657830  1
  O  O70  1  0.898819  0.333455  0.119967  1
  O  O71  1  0.898152  0.327040  0.875330  1
  O  O72  1  0.903865  0.660500  0.119018  1
  O  O73  1  0.872185  0.670366  0.872620  1
  O  O74  1  0.889615  0.882556  0.319517  1
  O  O75  1  0.906065  0.897616  0.667539  1
  O  O76  1  0.006805  0.229900  0.497890  1
  O  O77  1  0.988297  0.491926  0.769501  1
