# generated using pymatgen
data_Ta21Te13
_symmetry_space_group_name_H-M   'P 1'
_cell_length_a   19.57124417
_cell_length_b   19.57112545
_cell_length_c   10.70023405
_cell_angle_alpha   89.97603711
_cell_angle_beta   89.99454508
_cell_angle_gamma   120.00106285
_symmetry_Int_Tables_number   1
_chemical_formula_structural   Ta21Te13
_chemical_formula_sum   'Ta84 Te52'
_cell_volume   3549.38760737
_cell_formula_units_Z   4
loop_
 _symmetry_equiv_pos_site_id
 _symmetry_equiv_pos_as_xyz
  1  'x, y, z'
loop_
 _atom_site_type_symbol
 _atom_site_label
 _atom_site_symmetry_multiplicity
 _atom_site_fract_x
 _atom_site_fract_y
 _atom_site_fract_z
 _atom_site_occupancy
  Ta  Ta0  1  0.287234  0.428243  0.677389  1
  Ta  Ta1  1  0.714550  0.285322  0.718096  1
  Ta  Ta2  1  0.500008  0.000049  0.396825  1
  Ta  Ta3  1  0.712675  0.571662  0.677262  1
  Ta  Ta4  1  0.425231  0.574499  0.552565  1
  Ta  Ta5  1  0.731594  0.731648  0.599455  1
  Ta  Ta6  1  0.852181  0.852209  0.801983  1
  Ta  Ta7  1  0.666625  0.333296  0.491502  1
  Ta  Ta8  1  0.145635  0.854464  0.759515  1
  Ta  Ta9  1  0.291128  0.145606  0.759498  1
  Ta  Ta10  1  0.287302  0.858981  0.677323  1
  Ta  Ta11  1  0.330270  0.917162  0.421424  1
  Ta  Ta12  1  0.854420  0.708827  0.759504  1
  Ta  Ta13  1  0.586880  0.917161  0.421442  1
  Ta  Ta14  1  0.428233  0.140990  0.677338  1
  Ta  Ta15  1  0.500539  0.250296  0.466912  1
  Ta  Ta16  1  0.250351  0.749694  0.466905  1
  Ta  Ta17  1  0.163541  0.836564  0.493739  1
  Ta  Ta18  1  0.330184  0.413122  0.421475  1
  Ta  Ta19  1  0.586814  0.669766  0.421474  1
  Ta  Ta20  1  0.141012  0.428244  0.677363  1
  Ta  Ta21  1  0.850719  0.425255  0.552590  1
  Ta  Ta22  1  0.326891  0.163492  0.493682  1
  Ta  Ta23  1  0.000108  0.499976  0.396823  1
  Ta  Ta24  1  0.574624  0.149307  0.552624  1
  Ta  Ta25  1  0.427934  0.000025  0.637412  1
  Ta  Ta26  1  0.082971  0.413138  0.421420  1
  Ta  Ta27  1  0.836603  0.163501  0.493666  1
  Ta  Ta28  1  0.499340  0.749680  0.466982  1
  Ta  Ta29  1  0.147850  0.000063  0.801942  1
  Ta  Ta30  1  0.731663  0.000080  0.599528  1
  Ta  Ta31  1  0.285367  0.570724  0.718068  1
  Ta  Ta32  1  0.285371  0.714517  0.718066  1
  Ta  Ta33  1  0.000056  0.852226  0.801993  1
  Ta  Ta34  1  0.854486  0.145607  0.759508  1
  Ta  Ta35  1  0.083094  0.166176  0.568543  1
  Ta  Ta36  1  0.916993  0.083119  0.568610  1
  Ta  Ta37  1  0.082989  0.669796  0.421395  1
  Ta  Ta38  1  0.712734  0.140993  0.677358  1
  Ta  Ta39  1  0.413129  0.082938  0.421456  1
  Ta  Ta40  1  0.145591  0.291143  0.759511  1
  Ta  Ta41  1  0.749677  0.499363  0.467017  1
  Ta  Ta42  1  0.000096  0.000144  0.677336  1
  Ta  Ta43  1  0.708806  0.854433  0.759506  1
  Ta  Ta44  1  0.572061  0.000025  0.637400  1
  Ta  Ta45  1  0.000082  0.268372  0.599629  1
  Ta  Ta46  1  0.413061  0.330239  0.421513  1
  Ta  Ta47  1  0.571967  0.572009  0.637361  1
  Ta  Ta48  1  0.083113  0.916992  0.568720  1
  Ta  Ta49  1  0.149268  0.574523  0.552580  1
  Ta  Ta50  1  0.000063  0.427906  0.637442  1
  Ta  Ta51  1  0.428206  0.287243  0.677379  1
  Ta  Ta52  1  0.268250  0.268309  0.599668  1
  Ta  Ta53  1  0.425355  0.850758  0.552563  1
  Ta  Ta54  1  0.163478  0.326919  0.493666  1
  Ta  Ta55  1  0.852227  0.000069  0.801950  1
  Ta  Ta56  1  0.250298  0.500572  0.466852  1
  Ta  Ta57  1  0.917196  0.586893  0.421454  1
  Ta  Ta58  1  0.268390  0.000052  0.599550  1
  Ta  Ta59  1  0.574512  0.425228  0.552588  1
  Ta  Ta60  1  0.499866  0.499939  0.396841  1
  Ta  Ta61  1  0.000064  0.572042  0.637360  1
  Ta  Ta62  1  0.833877  0.916986  0.568752  1
  Ta  Ta63  1  0.669806  0.082947  0.421442  1
  Ta  Ta64  1  0.859042  0.287264  0.677377  1
  Ta  Ta65  1  0.916968  0.833904  0.568792  1
  Ta  Ta66  1  0.571651  0.858966  0.677263  1
  Ta  Ta67  1  0.836523  0.673035  0.493809  1
  Ta  Ta68  1  0.000105  0.731634  0.599443  1
  Ta  Ta69  1  0.917198  0.330260  0.421458  1
  Ta  Ta70  1  0.000052  0.147846  0.801908  1
  Ta  Ta71  1  0.147820  0.147851  0.801889  1
  Ta  Ta72  1  0.429113  0.714495  0.718041  1
  Ta  Ta73  1  0.570731  0.285338  0.718084  1
  Ta  Ta74  1  0.333311  0.666621  0.491577  1
  Ta  Ta75  1  0.166155  0.083120  0.568580  1
  Ta  Ta76  1  0.858995  0.571670  0.677242  1
  Ta  Ta77  1  0.571625  0.712683  0.677261  1
  Ta  Ta78  1  0.669714  0.586876  0.421499  1
  Ta  Ta79  1  0.427850  0.427893  0.637453  1
  Ta  Ta80  1  0.749729  0.250306  0.466888  1
  Ta  Ta81  1  0.673009  0.836536  0.493812  1
  Ta  Ta82  1  0.714518  0.429103  0.718067  1
  Ta  Ta83  1  0.141051  0.712696  0.677294  1
  Te  Te84  1  0.999961  0.328204  0.840506  1
  Te  Te85  1  0.205393  0.602771  0.307197  1
  Te  Te86  1  0.220351  0.440698  0.908617  1
  Te  Te87  1  0.671809  0.999914  0.840468  1
  Te  Te88  1  0.801587  0.603101  0.254843  1
  Te  Te89  1  0.396975  0.198500  0.254788  1
  Te  Te90  1  0.111339  0.888586  0.000743  1
  Te  Te91  1  0.999950  0.671886  0.840460  1
  Te  Te92  1  0.557676  0.442440  0.809817  1
  Te  Te93  1  0.198491  0.397005  0.254773  1
  Te  Te94  1  0.328129  0.999914  0.840476  1
  Te  Te95  1  0.801422  0.801417  0.369623  1
  Te  Te96  1  0.999970  0.801400  0.369631  1
  Te  Te97  1  0.440706  0.220334  0.908600  1
  Te  Te98  1  0.999992  0.198632  0.369618  1
  Te  Te99  1  0.794711  0.397425  0.307188  1
  Te  Te100  1  0.220323  0.779591  0.908613  1
  Te  Te101  1  0.397328  0.794641  0.307208  1
  Te  Te102  1  0.000053  0.400790  0.196698  1
  Te  Te103  1  0.400729  0.400773  0.196827  1
  Te  Te104  1  0.400736  0.000016  0.196743  1
  Te  Te105  1  0.801575  0.198523  0.254780  1
  Te  Te106  1  0.328279  0.328265  0.840450  1
  Te  Te107  1  0.671903  0.671887  0.840390  1
  Te  Te108  1  0.666645  0.333315  0.939080  1
  Te  Te109  1  0.603054  0.801585  0.254845  1
  Te  Te110  1  0.333319  0.666636  0.939001  1
  Te  Te111  1  0.888596  0.777213  0.000737  1
  Te  Te112  1  0.599308  0.599351  0.196877  1
  Te  Te113  1  0.198515  0.801571  0.254800  1
  Te  Te114  1  0.559252  0.779576  0.908577  1
  Te  Te115  1  0.442428  0.557691  0.809830  1
  Te  Te116  1  0.397374  0.602765  0.307193  1
  Te  Te117  1  0.999930  0.999897  0.422289  1
  Te  Te118  1  0.801374  0.999947  0.369634  1
  Te  Te119  1  0.602671  0.205318  0.307181  1
  Te  Te120  1  0.999955  0.999917  0.933926  1
  Te  Te121  1  0.779596  0.559249  0.908564  1
  Te  Te122  1  0.779602  0.220309  0.908615  1
  Te  Te123  1  0.000082  0.599355  0.196751  1
  Te  Te124  1  0.602723  0.397452  0.307166  1
  Te  Te125  1  0.884702  0.442394  0.809840  1
  Te  Te126  1  0.599314  0.000041  0.196748  1
  Te  Te127  1  0.222666  0.111305  0.000739  1
  Te  Te128  1  0.777235  0.888588  0.000706  1
  Te  Te129  1  0.557643  0.115281  0.809873  1
  Te  Te130  1  0.115328  0.557686  0.809889  1
  Te  Te131  1  0.198590  0.999968  0.369624  1
  Te  Te132  1  0.888607  0.111314  0.000768  1
  Te  Te133  1  0.442343  0.884655  0.809867  1
  Te  Te134  1  0.111319  0.222652  0.000741  1
  Te  Te135  1  0.198640  0.198632  0.369608  1
