# generated using pymatgen
data_YbV4O8
_symmetry_space_group_name_H-M   'P 1'
_cell_length_a   8.26097758
_cell_length_b   7.14104575
_cell_length_c   7.51662489
_cell_angle_alpha   98.01512735
_cell_angle_beta   117.39114867
_cell_angle_gamma   67.72317158
_symmetry_Int_Tables_number   1
_chemical_formula_structural   YbV4O8
_chemical_formula_sum   'Yb2 V8 O16'
_cell_volume   363.99221220
_cell_formula_units_Z   2
loop_
 _symmetry_equiv_pos_site_id
 _symmetry_equiv_pos_as_xyz
  1  'x, y, z'
loop_
 _atom_site_type_symbol
 _atom_site_label
 _atom_site_symmetry_multiplicity
 _atom_site_fract_x
 _atom_site_fract_y
 _atom_site_fract_z
 _atom_site_occupancy
  Yb  Yb0  1  0.235864  0.826324  0.028808  1
  Yb  Yb1  1  0.764136  0.173676  0.971192  1
  V  V2  1  0.267115  0.314603  0.787489  1
  V  V3  1  0.239288  0.086495  0.466223  1
  V  V4  1  0.204970  0.631196  0.471515  1
  V  V5  1  0.377364  0.313239  0.255492  1
  V  V6  1  0.622636  0.686761  0.744508  1
  V  V7  1  0.795030  0.368804  0.528485  1
  V  V8  1  0.760712  0.913505  0.533777  1
  V  V9  1  0.732885  0.685397  0.212511  1
  O  O10  1  0.901678  0.964090  0.779176  1
  O  O11  1  0.276319  0.213450  0.996617  1
  O  O12  1  0.066622  0.226646  0.587066  1
  O  O13  1  0.261174  0.562243  0.778968  1
  O  O14  1  0.288211  0.600156  0.251237  1
  O  O15  1  0.226314  0.351914  0.401333  1
  O  O16  1  0.535167  0.868922  0.270770  1
  O  O17  1  0.346432  0.816641  0.601430  1
  O  O18  1  0.653568  0.183359  0.398570  1
  O  O19  1  0.464833  0.131078  0.729230  1
  O  O20  1  0.773686  0.648086  0.598667  1
  O  O21  1  0.711789  0.399844  0.748763  1
  O  O22  1  0.738826  0.437757  0.221032  1
  O  O23  1  0.933378  0.773354  0.412934  1
  O  O24  1  0.723681  0.786550  0.003383  1
  O  O25  1  0.098322  0.035910  0.220824  1
