# generated using pymatgen
data_Cs5Bi(MoO4)4
_symmetry_space_group_name_H-M   'P 1'
_cell_length_a   8.51353836
_cell_length_b   10.70632670
_cell_length_c   13.75972163
_cell_angle_alpha   83.81426830
_cell_angle_beta   71.87054648
_cell_angle_gamma   69.85760266
_symmetry_Int_Tables_number   1
_chemical_formula_structural   Cs5Bi(MoO4)4
_chemical_formula_sum   'Cs10 Bi2 Mo8 O32'
_cell_volume   1119.02002235
_cell_formula_units_Z   2
loop_
 _symmetry_equiv_pos_site_id
 _symmetry_equiv_pos_as_xyz
  1  'x, y, z'
loop_
 _atom_site_type_symbol
 _atom_site_label
 _atom_site_symmetry_multiplicity
 _atom_site_fract_x
 _atom_site_fract_y
 _atom_site_fract_z
 _atom_site_occupancy
  Cs  Cs0  1  0.435905  0.547295  0.374104  1
  Cs  Cs1  1  0.831253  0.439897  0.116822  1
  Cs  Cs2  1  0.173373  0.550771  0.879622  1
  Cs  Cs3  1  0.196271  0.946893  0.377599  1
  Cs  Cs4  1  0.053805  0.049256  0.121128  1
  Cs  Cs5  1  0.565168  0.747190  0.875362  1
  Cs  Cs6  1  0.949496  0.941730  0.882189  1
  Cs  Cs7  1  0.806879  0.048119  0.625725  1
  Cs  Cs8  1  0.438708  0.247280  0.126205  1
  Cs  Cs9  1  0.573954  0.447221  0.623656  1
  Bi  Bi10  1  0.809312  0.747871  0.387593  1
  Bi  Bi11  1  0.197215  0.246422  0.613247  1
  Mo  Mo12  1  0.350846  0.142418  0.857374  1
  Mo  Mo13  1  0.403838  0.859624  0.621513  1
  Mo  Mo14  1  0.027078  0.360903  0.378769  1
  Mo  Mo15  1  0.205537  0.641865  0.143073  1
  Mo  Mo16  1  0.982445  0.633630  0.621126  1
  Mo  Mo17  1  0.603565  0.134020  0.378902  1
  Mo  Mo18  1  0.795558  0.350388  0.856052  1
  Mo  Mo19  1  0.651632  0.850179  0.145162  1
  O  O20  1  0.137257  0.512372  0.118986  1
  O  O21  1  0.798565  0.240809  0.963069  1
  O  O22  1  0.575880  0.898960  0.642149  1
  O  O23  1  0.221698  0.398802  0.354225  1
  O  O24  1  0.488864  0.770296  0.500512  1
  O  O25  1  0.057548  0.733504  0.263738  1
  O  O26  1  0.992202  0.273893  0.501157  1
  O  O27  1  0.435782  0.090711  0.356505  1
  O  O28  1  0.673027  0.241281  0.279422  1
  O  O29  1  0.842246  0.517631  0.385321  1
  O  O30  1  0.224734  0.015871  0.615047  1
  O  O31  1  0.861114  0.481207  0.880762  1
  O  O32  1  0.423061  0.569811  0.152283  1
  O  O33  1  0.258528  0.012690  0.882556  1
  O  O34  1  0.424420  0.919459  0.154517  1
  O  O35  1  0.203717  0.751448  0.036006  1
  O  O36  1  0.790011  0.592732  0.645389  1
  O  O37  1  0.240628  0.253385  0.963450  1
  O  O38  1  0.762565  0.739721  0.038771  1
  O  O39  1  0.678671  0.760801  0.266417  1
  O  O40  1  0.955938  0.740137  0.719960  1
  O  O41  1  0.578058  0.420007  0.846326  1
  O  O42  1  0.742085  0.981016  0.120034  1
  O  O43  1  0.331544  0.755134  0.722337  1
  O  O44  1  0.325267  0.231694  0.735829  1
  O  O45  1  0.577723  0.070740  0.848403  1
  O  O46  1  0.168730  0.478334  0.615156  1
  O  O47  1  0.016411  0.720644  0.498566  1
  O  O48  1  0.786049  0.980023  0.383991  1
  O  O49  1  0.051344  0.254767  0.280393  1
  O  O50  1  0.945392  0.259955  0.735433  1
  O  O51  1  0.515365  0.221138  0.501248  1
