# generated using pymatgen
data_K2Na5Al7Si5O24
_symmetry_space_group_name_H-M   'P 1'
_cell_length_a   12.19603377
_cell_length_b   12.70633293
_cell_length_c   12.70265515
_cell_angle_alpha   90.22722825
_cell_angle_beta   90.23411225
_cell_angle_gamma   89.69772636
_symmetry_Int_Tables_number   1
_chemical_formula_structural   K2Na5Al7Si5O24
_chemical_formula_sum   'K4 Na10 Al14 Si10 O48'
_cell_volume   1968.43151312
_cell_formula_units_Z   2
loop_
 _symmetry_equiv_pos_site_id
 _symmetry_equiv_pos_as_xyz
  1  'x, y, z'
loop_
 _atom_site_type_symbol
 _atom_site_label
 _atom_site_symmetry_multiplicity
 _atom_site_fract_x
 _atom_site_fract_y
 _atom_site_fract_z
 _atom_site_occupancy
  K  K0  1  0.508925  0.016639  0.386195  1
  K  K1  1  0.506780  0.394262  0.014849  1
  K  K2  1  0.500901  0.017190  0.619659  1
  K  K3  1  0.503229  0.627993  0.018884  1
  Na  Na4  1  0.196593  0.198604  0.205969  1
  Na  Na5  1  0.186160  0.191959  0.785952  1
  Na  Na6  1  0.197104  0.788994  0.189284  1
  Na  Na7  1  0.181766  0.792892  0.802099  1
  Na  Na8  1  0.810393  0.494074  0.807876  1
  Na  Na9  1  0.810061  0.810800  0.496058  1
  Na  Na10  1  0.801128  0.201991  0.195405  1
  Na  Na11  1  0.811282  0.181744  0.796831  1
  Na  Na12  1  0.813852  0.798601  0.182954  1
  Na  Na13  1  0.828318  0.814210  0.813092  1
  Al  Al14  1  0.010496  0.814256  0.626502  1
  Al  Al15  1  0.184756  0.997352  0.367933  1
  Al  Al16  1  0.190939  0.617972  0.006905  1
  Al  Al17  1  0.354155  0.001530  0.827633  1
  Al  Al18  1  0.357283  0.827880  0.996005  1
  Al  Al19  1  0.636190  0.999459  0.173302  1
  Al  Al20  1  0.631992  0.178912  0.003251  1
  Al  Al21  1  0.636365  0.006579  0.825001  1
  Al  Al22  1  0.640607  0.830550  0.994365  1
  Al  Al23  1  0.815482  0.001733  0.366425  1
  Al  Al24  1  0.814937  0.001553  0.626299  1
  Al  Al25  1  0.812354  0.366848  0.998893  1
  Al  Al26  1  0.817370  0.626275  0.998745  1
  Al  Al27  1  0.006988  0.362968  0.816148  1
  Si  Si28  1  0.000415  0.370973  0.186908  1
  Si  Si29  1  0.006030  0.811998  0.364274  1
  Si  Si30  1  0.010785  0.623911  0.815547  1
  Si  Si31  1  0.190653  -0.000166  0.620760  1
  Si  Si32  1  0.184003  0.364069  0.007529  1
  Si  Si33  1  0.360548  0.998764  0.174039  1
  Si  Si34  1  0.357082  0.173767  0.002667  1
  Si  Si35  1  0.000998  0.185620  0.369033  1
  Si  Si36  1  0.004522  0.184409  0.617117  1
  Si  Si37  1  0.002441  0.619831  0.187940  1
  O  O38  1  0.004650  0.291719  0.290608  1
  O  O39  1  0.004855  0.225321  0.492824  1
  O  O40  1  0.022107  0.280543  0.701958  1
  O  O41  1  0.001742  0.701799  0.290969  1
  O  O42  1  0.002432  0.498606  0.780592  1
  O  O43  1  0.021967  0.705152  0.714993  1
  O  O44  1  0.110129  0.115539  0.340951  1
  O  O45  1  0.112853  0.340526  0.118326  1
  O  O46  1  0.119491  0.329173  0.900579  1
  O  O47  1  0.115866  0.878608  0.331263  1
  O  O48  1  0.112449  0.107080  0.636277  1
  O  O49  1  0.113940  0.644026  0.123342  1
  O  O50  1  0.116861  0.646973  0.890987  1
  O  O51  1  0.126137  0.893099  0.655766  1
  O  O52  1  0.230173  0.993611  0.498572  1
  O  O53  1  0.227303  0.483724  0.007780  1
  O  O54  1  0.302383  0.010682  0.290267  1
  O  O55  1  0.293626  0.288788  0.022064  1
  O  O56  1  0.294549  0.021025  0.698517  1
  O  O57  1  0.304037  0.699365  0.015239  1
  O  O58  1  0.321406  0.107671  0.109724  1
  O  O59  1  0.309151  0.118936  0.897025  1
  O  O60  1  0.312793  0.896902  0.112985  1
  O  O61  1  0.298820  0.890451  0.886414  1
  O  O62  1  0.490614  0.998000  0.193801  1
  O  O63  1  0.485061  0.200996  0.001967  1
  O  O64  1  0.497792  0.814523  0.993043  1
  O  O65  1  0.493180  0.003933  0.806855  1
  O  O66  1  0.669658  0.118527  0.118708  1
  O  O67  1  0.675318  0.123140  0.887643  1
  O  O68  1  0.683877  0.887909  0.112247  1
  O  O69  1  0.689232  0.892812  0.882332  1
  O  O70  1  0.692577  0.002493  0.300190  1
  O  O71  1  0.696506  0.018561  0.698658  1
  O  O72  1  0.687980  0.305065  0.016262  1
  O  O73  1  0.701600  0.703819  0.000200  1
  O  O74  1  0.776847  0.984575  0.495607  1
  O  O75  1  0.775596  0.497787  0.982388  1
  O  O76  1  0.890468  0.120329  0.339847  1
  O  O77  1  0.893236  0.343258  0.117092  1
  O  O78  1  0.882093  0.333490  0.878266  1
  O  O79  1  0.893201  0.879292  0.335501  1
  O  O80  1  0.893836  0.120282  0.644035  1
  O  O81  1  0.893387  0.645689  0.118983  1
  O  O82  1  0.894950  0.653018  0.877761  1
  O  O83  1  0.886720  0.880216  0.654979  1
  O  O84  1  0.004678  0.494321  0.226800  1
  O  O85  1  0.002588  0.780149  0.488982  1
