# generated using pymatgen
data_CuBi(WO4)2
_symmetry_space_group_name_H-M   'P 1'
_cell_length_a   5.15565621
_cell_length_b   6.24079669
_cell_length_c   6.11834228
_cell_angle_alpha   108.71254975
_cell_angle_beta   113.45934505
_cell_angle_gamma   91.75744826
_symmetry_Int_Tables_number   1
_chemical_formula_structural   CuBi(WO4)2
_chemical_formula_sum   'Cu1 Bi1 W2 O8'
_cell_volume   168.17635257
_cell_formula_units_Z   1
loop_
 _symmetry_equiv_pos_site_id
 _symmetry_equiv_pos_as_xyz
  1  'x, y, z'
loop_
 _atom_site_type_symbol
 _atom_site_label
 _atom_site_symmetry_multiplicity
 _atom_site_fract_x
 _atom_site_fract_y
 _atom_site_fract_z
 _atom_site_occupancy
  Cu  Cu0  1  0.144314  0.215196  0.101888  1
  Bi  Bi1  1  0.636894  0.710206  0.098062  1
  W  W2  1  0.887818  0.373938  0.582845  1
  W  W3  1  0.389384  0.048110  0.614202  1
  O  O4  1  0.668615  0.374633  0.788512  1
  O  O5  1  0.174278  0.189243  0.801554  1
  O  O6  1  0.646958  0.483999  0.349846  1
  O  O7  1  0.134854  0.788981  0.368527  1
  O  O8  1  0.137551  0.635742  0.826809  1
  O  O9  1  0.610179  0.045685  0.409652  1
  O  O10  1  0.105391  0.235989  0.397131  1
  O  O11  1  0.624966  0.934178  0.845171  1
