# generated using pymatgen
data_HoH3
_symmetry_space_group_name_H-M   'P 1'
_cell_length_a   6.28033969
_cell_length_b   6.28038703
_cell_length_c   6.54972321
_cell_angle_alpha   89.99999995
_cell_angle_beta   89.99906180
_cell_angle_gamma   120.00025155
_symmetry_Int_Tables_number   1
_chemical_formula_structural   HoH3
_chemical_formula_sum   'Ho6 H18'
_cell_volume   223.72886545
_cell_formula_units_Z   6
loop_
 _symmetry_equiv_pos_site_id
 _symmetry_equiv_pos_as_xyz
  1  'x, y, z'
loop_
 _atom_site_type_symbol
 _atom_site_label
 _atom_site_symmetry_multiplicity
 _atom_site_fract_x
 _atom_site_fract_y
 _atom_site_fract_z
 _atom_site_occupancy
  Ho  Ho0  1  0.662684  0.000002  0.249998  1
  Ho  Ho1  1  0.337316  0.337317  0.250002  1
  Ho  Ho2  1  0.000000  0.662696  0.250000  1
  Ho  Ho3  1  0.662684  0.662683  0.749998  1
  Ho  Ho4  1  1.000000  0.337304  0.750000  1
  Ho  Ho5  1  0.337316  -0.000002  0.750002  1
  H  H6  1  0.320755  0.968982  0.408512  1
  H  H7  1  0.648230  0.679238  0.408512  1
  H  H8  1  0.031014  0.351778  0.408512  1
  H  H9  1  0.320755  0.351773  0.908512  1
  H  H10  1  0.031014  0.679236  0.908512  1
  H  H11  1  0.648230  0.968992  0.908512  1
  H  H12  1  0.679245  0.031018  0.591488  1
  H  H13  1  0.351770  0.320762  0.591488  1
  H  H14  1  0.968986  0.648222  0.591488  1
  H  H15  1  0.679245  0.648227  0.091488  1
  H  H16  1  0.968986  0.320764  0.091488  1
  H  H17  1  0.351770  0.031008  0.091488  1
  H  H18  1  0.666669  0.333336  0.321950  1
  H  H19  1  0.666669  0.333333  0.821950  1
  H  H20  1  0.333331  0.666664  0.678050  1
  H  H21  1  0.333331  0.666667  0.178050  1
  H  H22  1  0.000000  0.000001  0.250000  1
  H  H23  1  0.000000  -0.000001  0.750000  1
