# generated using pymatgen
data_BaH2(CO2)2
_symmetry_space_group_name_H-M   'P 1'
_cell_length_a   9.08559185
_cell_length_b   7.70586604
_cell_length_c   6.90181066
_cell_angle_alpha   90.00000000
_cell_angle_beta   90.00000000
_cell_angle_gamma   90.00000000
_symmetry_Int_Tables_number   1
_chemical_formula_structural   BaH2(CO2)2
_chemical_formula_sum   'Ba4 H8 C8 O16'
_cell_volume   483.21200903
_cell_formula_units_Z   4
loop_
 _symmetry_equiv_pos_site_id
 _symmetry_equiv_pos_as_xyz
  1  'x, y, z'
loop_
 _atom_site_type_symbol
 _atom_site_label
 _atom_site_symmetry_multiplicity
 _atom_site_fract_x
 _atom_site_fract_y
 _atom_site_fract_z
 _atom_site_occupancy
  Ba  Ba0  1  0.913999  0.538333  0.328043  1
  Ba  Ba1  1  0.586001  0.461667  0.828043  1
  Ba  Ba2  1  0.413999  0.961667  0.671957  1
  Ba  Ba3  1  0.086001  0.038333  0.171957  1
  H  H4  1  0.449010  0.687767  0.253597  1
  H  H5  1  0.050990  0.312233  0.753597  1
  H  H6  1  0.949010  0.812233  0.746403  1
  H  H7  1  0.550990  0.187767  0.246403  1
  H  H8  1  0.740684  0.042591  0.981194  1
  H  H9  1  0.759316  0.957409  0.481194  1
  H  H10  1  0.240684  0.457409  0.018806  1
  H  H11  1  0.259316  0.542591  0.518806  1
  C  C12  1  0.544910  0.624064  0.323741  1
  C  C13  1  0.955090  0.375936  0.823741  1
  C  C14  1  0.044910  0.875936  0.676259  1
  C  C15  1  0.455090  0.124064  0.176259  1
  C  C16  1  0.738144  0.898841  0.998247  1
  C  C17  1  0.761856  0.101159  0.498247  1
  C  C18  1  0.238144  0.601159  0.001753  1
  C  C19  1  0.261856  0.398841  0.501753  1
  O  O20  1  0.577759  0.674225  0.494496  1
  O  O21  1  0.922241  0.325775  0.994496  1
  O  O22  1  0.077759  0.825775  0.505504  1
  O  O23  1  0.422241  0.174225  0.005504  1
  O  O24  1  0.614519  0.510044  0.228340  1
  O  O25  1  0.885481  0.489956  0.728340  1
  O  O26  1  0.114519  0.989956  0.771660  1
  O  O27  1  0.385481  0.010044  0.271660  1
  O  O28  1  0.831839  0.834092  0.114894  1
  O  O29  1  0.668161  0.165908  0.614894  1
  O  O30  1  0.331839  0.665908  0.885106  1
  O  O31  1  0.168161  0.334092  0.385106  1
  O  O32  1  0.643961  0.817296  0.898854  1
  O  O33  1  0.856039  0.182704  0.398854  1
  O  O34  1  0.143961  0.682704  0.101146  1
  O  O35  1  0.356039  0.317296  0.601146  1
