# generated using pymatgen
data_LiMn2(PO4)3
_symmetry_space_group_name_H-M   'P 1'
_cell_length_a   8.60612293
_cell_length_b   8.60612311
_cell_length_c   8.43002035
_cell_angle_alpha   90.25881512
_cell_angle_beta   60.49643085
_cell_angle_gamma   121.46814026
_symmetry_Int_Tables_number   1
_chemical_formula_structural   LiMn2(PO4)3
_chemical_formula_sum   'Li2 Mn4 P6 O24'
_cell_volume   435.83628553
_cell_formula_units_Z   2
loop_
 _symmetry_equiv_pos_site_id
 _symmetry_equiv_pos_as_xyz
  1  'x, y, z'
loop_
 _atom_site_type_symbol
 _atom_site_label
 _atom_site_symmetry_multiplicity
 _atom_site_fract_x
 _atom_site_fract_y
 _atom_site_fract_z
 _atom_site_occupancy
  Li  Li0  1  0.980087  0.028649  0.653832  1
  Li  Li1  1  0.817519  0.366081  0.153832  1
  Mn  Mn2  1  0.278561  0.850863  0.363931  1
  Mn  Mn3  1  0.717332  0.149436  0.636764  1
  Mn  Mn4  1  0.285206  0.357507  0.863931  1
  Mn  Mn5  1  0.713800  0.645903  0.136765  1
  P  P6  1  0.504394  0.748653  0.967369  1
  P  P7  1  0.783978  0.528237  0.467369  1
  P  P8  1  0.783899  0.037256  0.256331  1
  P  P9  1  0.218909  0.474382  0.532674  1
  P  P10  1  0.206413  0.959770  0.756331  1
  P  P11  1  0.492944  0.248417  0.032674  1
  O  O12  1  0.820319  0.367508  0.454754  1
  O  O13  1  0.181225  0.631944  0.539533  1
  O  O14  1  0.328523  0.279242  0.039533  1
  O  O15  1  0.796738  0.043614  0.433033  1
  O  O16  1  0.651106  0.408487  0.076784  1
  O  O17  1  0.424443  0.000122  0.701367  1
  O  O18  1  0.182036  0.124308  0.799870  1
  O  O19  1  0.972788  0.235961  0.085286  1
  O  O20  1  0.986338  0.725846  0.423705  1
  O  O21  1  0.798511  0.874190  0.201367  1
  O  O22  1  0.350449  0.589957  0.923705  1
  O  O23  1  0.344640  0.054789  0.192000  1
  O  O24  1  0.178754  0.941926  0.585286  1
  O  O25  1  0.749830  0.532062  0.304261  1
  O  O26  1  0.575822  0.018093  0.299870  1
  O  O27  1  0.655897  0.259052  0.832618  1
  O  O28  1  0.591055  0.486493  0.666003  1
  O  O29  1  0.347504  0.742942  0.166003  1
  O  O30  1  0.408331  0.511486  0.332618  1
  O  O31  1  0.014730  0.272110  0.576784  1
  O  O32  1  0.663678  0.945909  0.804261  1
  O  O33  1  0.677738  0.724927  0.954754  1
  O  O34  1  0.253211  0.463360  0.692000  1
  O  O35  1  0.023353  0.770229  0.933033  1
