# generated using pymatgen
data_TiNb2Zn(PbO3)4
_symmetry_space_group_name_H-M   'P 1'
_cell_length_a   4.10146679
_cell_length_b   4.02230033
_cell_length_c   16.70006185
_cell_angle_alpha   89.73955633
_cell_angle_beta   89.59879935
_cell_angle_gamma   89.67991599
_symmetry_Int_Tables_number   1
_chemical_formula_structural   TiNb2Zn(PbO3)4
_chemical_formula_sum   'Ti1 Nb2 Zn1 Pb4 O12'
_cell_volume   275.49260082
_cell_formula_units_Z   1
loop_
 _symmetry_equiv_pos_site_id
 _symmetry_equiv_pos_as_xyz
  1  'x, y, z'
loop_
 _atom_site_type_symbol
 _atom_site_label
 _atom_site_symmetry_multiplicity
 _atom_site_fract_x
 _atom_site_fract_y
 _atom_site_fract_z
 _atom_site_occupancy
  Ti  Ti0  1  0.444670  0.477629  0.870397  1
  Nb  Nb1  1  0.517309  0.501425  0.119877  1
  Nb  Nb2  1  0.445287  0.521690  0.622065  1
  Zn  Zn3  1  0.496113  0.502518  0.373404  1
  Pb  Pb4  1  0.053973  0.047853  0.271143  1
  Pb  Pb5  1  0.956763  0.987553  0.468081  1
  Pb  Pb6  1  0.900433  0.030721  0.750879  1
  Pb  Pb7  1  0.922665  0.948882  0.983315  1
  O  O8  1  0.490920  0.996094  0.109823  1
  O  O9  1  0.484773  0.999029  0.372957  1
  O  O10  1  0.493080  0.008100  0.633948  1
  O  O11  1  0.509925  0.999646  0.870191  1
  O  O12  1  0.505183  0.506993  0.988034  1
  O  O13  1  0.473789  0.483218  0.232828  1
  O  O14  1  0.495954  0.508046  0.510330  1
  O  O15  1  0.510710  0.494933  0.752511  1
  O  O16  1  0.985766  0.498727  0.111794  1
  O  O17  1  0.993093  0.486036  0.373292  1
  O  O18  1  0.985326  0.506462  0.631248  1
  O  O19  1  0.002867  0.494443  0.871032  1
