# generated using pymatgen
data_CaBe2(PO4)2
_symmetry_space_group_name_H-M   'P 1'
_cell_length_a   7.87145241
_cell_length_b   8.42389171
_cell_length_c   8.87417501
_cell_angle_alpha   90.00000000
_cell_angle_beta   90.00000000
_cell_angle_gamma   90.45039906
_symmetry_Int_Tables_number   1
_chemical_formula_structural   CaBe2(PO4)2
_chemical_formula_sum   'Ca4 Be8 P8 O32'
_cell_volume   588.41294711
_cell_formula_units_Z   4
loop_
 _symmetry_equiv_pos_site_id
 _symmetry_equiv_pos_as_xyz
  1  'x, y, z'
loop_
 _atom_site_type_symbol
 _atom_site_label
 _atom_site_symmetry_multiplicity
 _atom_site_fract_x
 _atom_site_fract_y
 _atom_site_fract_z
 _atom_site_occupancy
  Be  Be0  1  0.429632  0.943260  0.805311  1
  Be  Be1  1  0.930548  0.230539  0.920760  1
  Be  Be2  1  0.069452  0.269461  0.420760  1
  Be  Be3  1  0.069452  0.769461  0.079240  1
  Be  Be4  1  0.930548  0.730539  0.579240  1
  Be  Be5  1  0.570368  0.556740  0.305311  1
  Be  Be6  1  0.570368  0.056740  0.194689  1
  Be  Be7  1  0.429632  0.443260  0.694689  1
  O  O8  1  0.741651  0.312762  0.920185  1
  O  O9  1  0.741651  0.812762  0.579815  1
  O  O10  1  0.258349  0.687238  0.079815  1
  O  O11  1  0.258349  0.187238  0.420185  1
  O  O12  1  0.239654  0.495708  0.656251  1
  O  O13  1  0.760346  0.004292  0.156251  1
  O  O14  1  0.760346  0.504292  0.343749  1
  O  O15  1  0.239654  0.995708  0.843749  1
  O  O16  1  0.933120  0.079230  0.807470  1
  O  O17  1  0.066880  0.420770  0.307470  1
  O  O18  1  0.066880  0.920770  0.192530  1
  O  O19  1  0.933120  0.579230  0.692530  1
  O  O20  1  0.505365  0.813120  0.926271  1
  O  O21  1  0.494635  0.686880  0.426271  1
  O  O22  1  0.494635  0.186880  0.073729  1
  O  O23  1  0.505365  0.313120  0.573729  1
  O  O24  1  0.995832  0.809144  0.912739  1
  O  O25  1  0.004168  0.690856  0.412739  1
  O  O26  1  0.004168  0.190856  0.087261  1
  O  O27  1  0.995832  0.309144  0.587261  1
  O  O28  1  0.437954  0.870078  0.633332  1
  O  O29  1  0.562046  0.629922  0.133332  1
  O  O30  1  0.562046  0.129922  0.366668  1
  O  O31  1  0.437954  0.370078  0.866668  1
  O  O32  1  0.055955  0.874984  0.637192  1
  O  O33  1  0.944045  0.625016  0.137192  1
  O  O34  1  0.944045  0.125016  0.362808  1
  O  O35  1  0.055955  0.374984  0.862808  1
  O  O36  1  0.563031  0.595239  0.694028  1
  O  O37  1  0.436969  0.904761  0.194028  1
  O  O38  1  0.436969  0.404761  0.305972  1
  O  O39  1  0.563031  0.095239  0.805972  1
  P  P40  1  0.061070  0.439787  0.697877  1
  P  P41  1  0.938930  0.060213  0.197877  1
  P  P42  1  0.938930  0.560213  0.302123  1
  P  P43  1  0.061070  0.939787  0.802123  1
  P  P44  1  0.560816  0.236151  0.917081  1
  P  P45  1  0.439184  0.263849  0.417081  1
  P  P46  1  0.439184  0.763849  0.082919  1
  P  P47  1  0.560816  0.736151  0.582919  1
  Ca  Ca48  1  0.755968  0.112772  0.585104  1
  Ca  Ca49  1  0.244032  0.387228  0.085104  1
  Ca  Ca50  1  0.244032  0.887228  0.414896  1
  Ca  Ca51  1  0.755968  0.612772  0.914896  1
