# generated using pymatgen
data_CuHgC4(SN)4
_symmetry_space_group_name_H-M   'P 1'
_cell_length_a   7.81922957
_cell_length_b   9.07638004
_cell_length_c   15.41868741
_cell_angle_alpha   90.00000000
_cell_angle_beta   90.00000000
_cell_angle_gamma   90.00000000
_symmetry_Int_Tables_number   1
_chemical_formula_structural   CuHgC4(SN)4
_chemical_formula_sum   'Cu4 Hg4 C16 S16 N16'
_cell_volume   1094.26885872
_cell_formula_units_Z   4
loop_
 _symmetry_equiv_pos_site_id
 _symmetry_equiv_pos_as_xyz
  1  'x, y, z'
loop_
 _atom_site_type_symbol
 _atom_site_label
 _atom_site_symmetry_multiplicity
 _atom_site_fract_x
 _atom_site_fract_y
 _atom_site_fract_z
 _atom_site_occupancy
  Cu  Cu0  1  0.500000  0.500000  0.000000  1
  Cu  Cu1  1  0.000000  0.000000  0.500000  1
  Cu  Cu2  1  0.000000  0.000000  0.000000  1
  Cu  Cu3  1  0.500000  0.500000  0.500000  1
  Hg  Hg4  1  0.951450  0.500000  0.750000  1
  Hg  Hg5  1  0.548550  0.000000  0.250000  1
  Hg  Hg6  1  0.451450  0.000000  0.750000  1
  Hg  Hg7  1  0.048550  0.500000  0.250000  1
  C  C8  1  0.096168  0.317760  0.432477  1
  C  C9  1  0.299764  0.359636  0.655171  1
  C  C10  1  0.403832  0.182240  0.932477  1
  C  C11  1  0.596168  0.817760  0.067523  1
  C  C12  1  0.700236  0.359636  0.155171  1
  C  C13  1  0.096168  0.682240  0.067523  1
  C  C14  1  0.799764  0.140364  0.655171  1
  C  C15  1  0.700236  0.640364  0.344829  1
  C  C16  1  0.299764  0.640364  0.844829  1
  C  C17  1  0.596168  0.182240  0.432477  1
  C  C18  1  0.200236  0.140364  0.155171  1
  C  C19  1  0.903832  0.317760  0.932477  1
  C  C20  1  0.799764  0.859636  0.844829  1
  C  C21  1  0.403832  0.817760  0.567523  1
  C  C22  1  0.903832  0.682240  0.567523  1
  C  C23  1  0.200236  0.859636  0.344829  1
  S  S24  1  0.306766  0.214472  0.234865  1
  S  S25  1  0.693233  0.214472  0.734865  1
  S  S26  1  0.193234  0.714472  0.765135  1
  S  S27  1  0.806767  0.714472  0.265135  1
  S  S28  1  0.845172  0.514391  0.592397  1
  S  S29  1  0.693233  0.785528  0.765135  1
  S  S30  1  0.345172  0.014391  0.907603  1
  S  S31  1  0.345172  0.985609  0.592397  1
  S  S32  1  0.154828  0.485609  0.407603  1
  S  S33  1  0.654828  0.014391  0.407603  1
  S  S34  1  0.845172  0.485609  0.907603  1
  S  S35  1  0.154828  0.514391  0.092397  1
  S  S36  1  0.193234  0.285528  0.734865  1
  S  S37  1  0.806767  0.285528  0.234865  1
  S  S38  1  0.654828  0.985609  0.092397  1
  S  S39  1  0.306766  0.785528  0.265135  1
  N  N40  1  0.444651  0.698070  0.547071  1
  N  N41  1  0.944651  0.801930  0.547071  1
  N  N42  1  0.944651  0.198070  0.952929  1
  N  N43  1  0.055349  0.801930  0.047071  1
  N  N44  1  0.055349  0.198070  0.452929  1
  N  N45  1  0.117642  0.907882  0.402101  1
  N  N46  1  0.117642  0.092118  0.097899  1
  N  N47  1  0.382358  0.592118  0.902101  1
  N  N48  1  0.444651  0.301930  0.952929  1
  N  N49  1  0.555349  0.301930  0.452929  1
  N  N50  1  0.617642  0.592118  0.402101  1
  N  N51  1  0.617642  0.407882  0.097899  1
  N  N52  1  0.555349  0.698070  0.047071  1
  N  N53  1  0.382358  0.407882  0.597899  1
  N  N54  1  0.882358  0.092118  0.597899  1
  N  N55  1  0.882358  0.907882  0.902101  1
