# generated using pymatgen
data_Nd2(Mo3Se4)5
_symmetry_space_group_name_H-M   'P 1'
_cell_length_a   6.83592861
_cell_length_b   68.12833803
_cell_length_c   9.72972970
_cell_angle_alpha   44.43271048
_cell_angle_beta   88.45478094
_cell_angle_gamma   88.85491840
_symmetry_Int_Tables_number   1
_chemical_formula_structural   Nd2(Mo3Se4)5
_chemical_formula_sum   'Nd8 Mo60 Se80'
_cell_volume   3171.10088665
_cell_formula_units_Z   4
loop_
 _symmetry_equiv_pos_site_id
 _symmetry_equiv_pos_as_xyz
  1  'x, y, z'
loop_
 _atom_site_type_symbol
 _atom_site_label
 _atom_site_symmetry_multiplicity
 _atom_site_fract_x
 _atom_site_fract_y
 _atom_site_fract_z
 _atom_site_occupancy
  Nd  Nd0  1  0.000000  0.100000  0.000000  1
  Nd  Nd1  1  0.999673  0.299757  0.001290  1
  Nd  Nd2  1  0.999734  0.399906  0.000563  1
  Nd  Nd3  1  0.000014  0.500005  0.999985  1
  Nd  Nd4  1  0.000000  0.600000  0.000000  1
  Nd  Nd5  1  0.999986  0.699995  0.000015  1
  Nd  Nd6  1  0.000266  0.800094  0.999437  1
  Nd  Nd7  1  0.000327  0.900243  0.998710  1
  Mo  Mo8  1  0.231526  0.086334  0.560239  1
  Mo  Mo9  1  0.234589  0.186436  0.557762  1
  Mo  Mo10  1  0.233276  0.286033  0.560993  1
  Mo  Mo11  1  0.234666  0.386251  0.560538  1
  Mo  Mo12  1  0.234802  0.486267  0.560536  1
  Mo  Mo13  1  0.234754  0.586265  0.560547  1
  Mo  Mo14  1  0.234785  0.686265  0.560541  1
  Mo  Mo15  1  0.234658  0.786279  0.560522  1
  Mo  Mo16  1  0.233583  0.886523  0.560086  1
  Mo  Mo17  1  0.424646  0.032114  0.235039  1
  Mo  Mo18  1  0.234466  0.986480  0.557608  1
  Mo  Mo19  1  0.422670  0.132519  0.236176  1
  Mo  Mo20  1  0.443411  0.018644  0.578720  1
  Mo  Mo21  1  0.424836  0.232084  0.234994  1
  Mo  Mo22  1  0.439261  0.118911  0.576022  1
  Mo  Mo23  1  0.424140  0.332310  0.236849  1
  Mo  Mo24  1  0.443291  0.218582  0.579188  1
  Mo  Mo25  1  0.423758  0.432397  0.236430  1
  Mo  Mo26  1  0.440259  0.318680  0.577365  1
  Mo  Mo27  1  0.423715  0.532399  0.236525  1
  Mo  Mo28  1  0.439895  0.418707  0.577051  1
  Mo  Mo29  1  0.423689  0.632396  0.236520  1
  Mo  Mo30  1  0.439848  0.518708  0.577013  1
  Mo  Mo31  1  0.423683  0.732386  0.236601  1
  Mo  Mo32  1  0.439818  0.618707  0.577005  1
  Mo  Mo33  1  0.560739  0.081089  0.423978  1
  Mo  Mo34  1  0.423683  0.832392  0.236543  1
  Mo  Mo35  1  0.439789  0.718706  0.576994  1
  Mo  Mo36  1  0.556589  0.181356  0.421280  1
  Mo  Mo37  1  0.422277  0.932609  0.235931  1
  Mo  Mo38  1  0.577330  0.067481  0.763824  1
  Mo  Mo39  1  0.439830  0.818715  0.576948  1
  Mo  Mo40  1  0.561595  0.281077  0.424666  1
  Mo  Mo41  1  0.575354  0.167886  0.764961  1
  Mo  Mo42  1  0.438405  0.918923  0.575334  1
  Mo  Mo43  1  0.560170  0.381285  0.423052  1
  Mo  Mo44  1  0.577723  0.267391  0.764069  1
  Mo  Mo45  1  0.560211  0.481294  0.423006  1
  Mo  Mo46  1  0.576318  0.367608  0.763457  1
  Mo  Mo47  1  0.560182  0.581293  0.422995  1
  Mo  Mo48  1  0.576317  0.467614  0.763399  1
  Mo  Mo49  1  0.560152  0.681292  0.422987  1
  Mo  Mo50  1  0.576311  0.567604  0.763480  1
  Mo  Mo51  1  0.560105  0.781293  0.422949  1
  Mo  Mo52  1  0.576285  0.667601  0.763475  1
  Mo  Mo53  1  0.559741  0.881320  0.422635  1
  Mo  Mo54  1  0.576242  0.767603  0.763570  1
  Mo  Mo55  1  0.556709  0.981418  0.420812  1
  Mo  Mo56  1  0.575860  0.867690  0.763151  1
  Mo  Mo57  1  0.765411  0.013564  0.442238  1
  Mo  Mo58  1  0.575164  0.967916  0.765006  1
  Mo  Mo59  1  0.768474  0.113666  0.439761  1
  Mo  Mo60  1  0.765534  0.213520  0.442392  1
  Mo  Mo61  1  0.766417  0.313477  0.439914  1
  Mo  Mo62  1  0.765342  0.413721  0.439478  1
  Mo  Mo63  1  0.765215  0.513735  0.439459  1
  Mo  Mo64  1  0.765246  0.613735  0.439453  1
  Mo  Mo65  1  0.765198  0.713733  0.439464  1
  Mo  Mo66  1  0.765334  0.813749  0.439462  1
  Mo  Mo67  1  0.766724  0.913967  0.439007  1
  Se  Se68  1  0.121703  0.037725  0.377763  1
  Se  Se69  1  0.122837  0.137287  0.376979  1
  Se  Se70  1  0.121890  0.237740  0.377590  1
  Se  Se71  1  0.122404  0.337964  0.375360  1
  Se  Se72  1  0.121808  0.437953  0.374945  1
  Se  Se73  1  0.121735  0.537959  0.374877  1
  Se  Se74  1  0.121712  0.637951  0.374909  1
  Se  Se75  1  0.241331  0.099731  0.241846  1
  Se  Se76  1  0.121719  0.737940  0.374967  1
  Se  Se77  1  0.236262  0.200039  0.236683  1
  Se  Se78  1  0.243668  0.074456  0.878357  1
  Se  Se79  1  0.121632  0.837919  0.375174  1
  Se  Se80  1  0.241120  0.299845  0.241599  1
  Se  Se81  1  0.250404  0.174632  0.876897  1
  Se  Se82  1  0.122328  0.937416  0.375720  1
  Se  Se83  1  0.240602  0.399930  0.241257  1
  Se  Se84  1  0.243828  0.274640  0.877307  1
  Se  Se85  1  0.240840  0.499914  0.241216  1
  Se  Se86  1  0.245008  0.374709  0.877968  1
  Se  Se87  1  0.240820  0.599908  0.241255  1
  Se  Se88  1  0.245251  0.474727  0.877944  1
  Se  Se89  1  0.240890  0.699896  0.241341  1
  Se  Se90  1  0.245252  0.574722  0.877981  1
  Se  Se91  1  0.240945  0.799873  0.241410  1
  Se  Se92  1  0.377575  0.037312  0.750214  1
  Se  Se93  1  0.245240  0.674714  0.878019  1
  Se  Se94  1  0.241177  0.899783  0.241708  1
  Se  Se95  1  0.375944  0.136701  0.755395  1
  Se  Se96  1  0.245285  0.774692  0.878012  1
  Se  Se97  1  0.236415  0.999982  0.236890  1
  Se  Se98  1  0.376472  0.237322  0.750332  1
  Se  Se99  1  0.245039  0.874564  0.878975  1
  Se  Se100  1  0.374780  0.336718  0.754739  1
  Se  Se101  1  0.250571  0.974645  0.876864  1
  Se  Se102  1  0.374625  0.436755  0.754325  1
  Se  Se103  1  0.374565  0.536750  0.754353  1
  Se  Se104  1  0.374602  0.636745  0.754365  1
  Se  Se105  1  0.374645  0.736749  0.754334  1
  Se  Se106  1  0.375208  0.836695  0.754598  1
  Se  Se107  1  0.375638  0.936734  0.755318  1
  Se  Se108  1  0.624056  0.063299  0.244605  1
  Se  Se109  1  0.622425  0.162688  0.249786  1
  Se  Se110  1  0.624362  0.263266  0.244682  1
  Se  Se111  1  0.624792  0.363305  0.245402  1
  Se  Se112  1  0.625355  0.463251  0.245666  1
  Se  Se113  1  0.625398  0.563255  0.245635  1
  Se  Se114  1  0.749596  0.025368  0.123103  1
  Se  Se115  1  0.625435  0.663250  0.245647  1
  Se  Se116  1  0.756332  0.125544  0.121643  1
  Se  Se117  1  0.625375  0.763245  0.245675  1
  Se  Se118  1  0.763738  0.999961  0.763317  1
  Se  Se119  1  0.749429  0.225355  0.123136  1
  Se  Se120  1  0.625220  0.863282  0.245261  1
  Se  Se121  1  0.758669  0.100269  0.758154  1
  Se  Se122  1  0.754961  0.325436  0.121025  1
  Se  Se123  1  0.623528  0.962678  0.249668  1
  Se  Se124  1  0.763585  0.200018  0.763110  1
  Se  Se125  1  0.754715  0.425308  0.121988  1
  Se  Se126  1  0.758823  0.300217  0.758292  1
  Se  Se127  1  0.754760  0.525286  0.121981  1
  Se  Se128  1  0.759055  0.400127  0.758590  1
  Se  Se129  1  0.754748  0.625278  0.122019  1
  Se  Se130  1  0.759110  0.500104  0.758659  1
  Se  Se131  1  0.754749  0.725273  0.122056  1
  Se  Se132  1  0.759180  0.600092  0.758745  1
  Se  Se133  1  0.877163  0.062713  0.623021  1
  Se  Se134  1  0.754992  0.825291  0.122032  1
  Se  Se135  1  0.759160  0.700086  0.758784  1
  Se  Se136  1  0.878297  0.162275  0.622237  1
  Se  Se137  1  0.756172  0.925360  0.122693  1
  Se  Se138  1  0.759398  0.800070  0.758743  1
  Se  Se139  1  0.877672  0.262584  0.624280  1
  Se  Se140  1  0.758880  0.900155  0.758401  1
  Se  Se141  1  0.878368  0.362081  0.624826  1
  Se  Se142  1  0.878281  0.462060  0.625033  1
  Se  Se143  1  0.878288  0.562049  0.625091  1
  Se  Se144  1  0.878265  0.662041  0.625123  1
  Se  Se145  1  0.878192  0.762047  0.625055  1
  Se  Se146  1  0.877596  0.862036  0.624640  1
  Se  Se147  1  0.878110  0.962260  0.622410  1
