# generated using pymatgen
data_TbGa2Co3
_symmetry_space_group_name_H-M   'P 1'
_cell_length_a   8.98726923
_cell_length_b   8.98726933
_cell_length_c   3.82799515
_cell_angle_alpha   90.00000000
_cell_angle_beta   90.00000000
_cell_angle_gamma   119.93190694
_symmetry_Int_Tables_number   1
_chemical_formula_structural   TbGa2Co3
_chemical_formula_sum   'Tb3 Ga6 Co9'
_cell_volume   267.95082718
_cell_formula_units_Z   3
loop_
 _symmetry_equiv_pos_site_id
 _symmetry_equiv_pos_as_xyz
  1  'x, y, z'
loop_
 _atom_site_type_symbol
 _atom_site_label
 _atom_site_symmetry_multiplicity
 _atom_site_fract_x
 _atom_site_fract_y
 _atom_site_fract_z
 _atom_site_occupancy
  Tb  Tb0  1  0.666671  0.333329  0.500000  1
  Tb  Tb1  1  0.333329  0.666671  0.500000  1
  Tb  Tb2  1  0.000014  0.000014  0.000000  1
  Ga  Ga3  1  0.684101  0.684101  0.500000  1
  Ga  Ga4  1  0.315960  -0.000001  0.500000  1
  Ga  Ga5  1  -0.000001  0.315960  0.500000  1
  Ga  Ga6  1  0.315905  0.315905  0.500000  1
  Ga  Ga7  1  0.684052  0.000022  0.500000  1
  Ga  Ga8  1  0.000022  0.684052  0.500000  1
  Co  Co9  1  0.816754  0.183262  0.000000  1
  Co  Co10  1  0.816851  0.633525  0.000000  1
  Co  Co11  1  0.366480  0.183159  0.000000  1
  Co  Co12  1  0.183262  0.816754  0.000000  1
  Co  Co13  1  0.633525  0.816851  0.000000  1
  Co  Co14  1  0.183159  0.366480  0.000000  1
  Co  Co15  1  0.500002  0.500002  0.000000  1
  Co  Co16  1  0.500005  0.000009  0.000000  1
  Co  Co17  1  0.000009  0.500005  0.000000  1
