# generated using pymatgen
data_La10Mg(Ga3O10)3
_symmetry_space_group_name_H-M   'P 1'
_cell_length_a   27.71297224
_cell_length_b   14.60284156
_cell_length_c   9.55362865
_cell_angle_alpha   29.77462333
_cell_angle_beta   30.48056977
_cell_angle_gamma   19.37929066
_symmetry_Int_Tables_number   1
_chemical_formula_structural   La10Mg(Ga3O10)3
_chemical_formula_sum   'La10 Mg1 Ga9 O30'
_cell_volume   615.00562763
_cell_formula_units_Z   1
loop_
 _symmetry_equiv_pos_site_id
 _symmetry_equiv_pos_as_xyz
  1  'x, y, z'
loop_
 _atom_site_type_symbol
 _atom_site_label
 _atom_site_symmetry_multiplicity
 _atom_site_fract_x
 _atom_site_fract_y
 _atom_site_fract_z
 _atom_site_occupancy
  La  La0  1  0.095755  0.254761  0.259589  1
  La  La1  1  0.297981  0.255073  0.254736  1
  La  La2  1  0.094631  0.761357  0.755064  1
  La  La3  1  0.500997  0.249743  0.255057  1
  La  La4  1  0.297627  0.755463  0.755506  1
  La  La5  1  0.698121  0.258102  0.249268  1
  La  La6  1  0.500545  0.755074  0.750850  1
  La  La7  1  0.896604  0.258667  0.257854  1
  La  La8  1  0.698827  0.752799  0.754016  1
  La  La9  1  0.897445  0.752611  0.761928  1
  Mg  Mg10  1  0.798314  0.504209  0.504490  1
  Ga  Ga11  1  0.998679  0.503427  0.504122  1
  Ga  Ga12  1  0.198829  0.503660  0.502930  1
  Ga  Ga13  1  0.998786  0.003301  0.004879  1
  Ga  Ga14  1  0.398254  0.503849  0.504633  1
  Ga  Ga15  1  0.199839  0.002795  0.002040  1
  Ga  Ga16  1  0.597897  0.504875  0.503871  1
  Ga  Ga17  1  0.397424  0.004591  0.005405  1
  Ga  Ga18  1  0.597819  0.005237  0.002716  1
  Ga  Ga19  1  0.798218  0.003578  0.004856  1
  O  O20  1  0.042302  0.181558  0.751901  1
  O  O21  1  0.184431  0.324796  0.179527  1
  O  O22  1  0.129866  0.247808  0.679910  1
  O  O23  1  0.070870  0.750257  0.324804  1
  O  O24  1  0.245092  0.179274  0.744448  1
  O  O25  1  0.013809  0.678948  0.822077  1
  O  O26  1  0.382666  0.326179  0.180870  1
  O  O27  1  0.156809  0.823350  0.250437  1
  O  O28  1  0.328943  0.249799  0.680048  1
  O  O29  1  0.271127  0.749941  0.325989  1
  O  O30  1  0.442218  0.182202  0.749553  1
  O  O31  1  0.214210  0.679166  0.825201  1
  O  O32  1  0.582748  0.327295  0.183600  1
  O  O33  1  0.353414  0.826703  0.256737  1
  O  O34  1  0.529554  0.248966  0.680736  1
  O  O35  1  0.469942  0.752364  0.326399  1
  O  O36  1  0.641119  0.183841  0.750337  1
  O  O37  1  0.412090  0.681037  0.826222  1
  O  O38  1  0.782851  0.324888  0.182729  1
  O  O39  1  0.556473  0.825262  0.246506  1
  O  O40  1  0.725657  0.257562  0.678755  1
  O  O41  1  0.669492  0.758846  0.313871  1
  O  O42  1  0.839444  0.179042  0.758660  1
  O  O43  1  0.605649  0.691658  0.829381  1
  O  O44  1  0.990376  0.314226  0.178198  1
  O  O45  1  0.758675  0.828902  0.240796  1
  O  O46  1  0.931074  0.240171  0.692621  1
  O  O47  1  0.873861  0.743968  0.326532  1
  O  O48  1  0.813222  0.681250  0.823270  1
  O  O49  1  0.957823  0.821569  0.250076  1
