# generated using pymatgen
data_RbU2H5C4O15
_symmetry_space_group_name_H-M   'P 1'
_cell_length_a   5.73160172
_cell_length_b   9.57018189
_cell_length_c   13.94114388
_cell_angle_alpha   90.00000000
_cell_angle_beta   90.00000000
_cell_angle_gamma   96.61748874
_symmetry_Int_Tables_number   1
_chemical_formula_structural   RbU2H5C4O15
_chemical_formula_sum   'Rb2 U4 H10 C8 O30'
_cell_volume   759.61143977
_cell_formula_units_Z   2
loop_
 _symmetry_equiv_pos_site_id
 _symmetry_equiv_pos_as_xyz
  1  'x, y, z'
loop_
 _atom_site_type_symbol
 _atom_site_label
 _atom_site_symmetry_multiplicity
 _atom_site_fract_x
 _atom_site_fract_y
 _atom_site_fract_z
 _atom_site_occupancy
  Rb  Rb0  1  0.855573  0.402144  0.250000  1
  Rb  Rb1  1  0.144427  0.597856  0.750000  1
  U  U2  1  0.715106  0.236365  0.908086  1
  U  U3  1  0.284894  0.763635  0.091914  1
  U  U4  1  0.715106  0.236365  0.591914  1
  U  U5  1  0.284894  0.763635  0.408086  1
  H  H6  1  0.704603  0.819277  0.805515  1
  H  H7  1  0.469243  0.118502  0.750000  1
  H  H8  1  0.530757  0.881498  0.250000  1
  H  H9  1  0.295397  0.180723  0.305515  1
  H  H10  1  0.366029  0.885851  0.750000  1
  H  H11  1  0.881009  0.052549  0.250000  1
  H  H12  1  0.633971  0.114149  0.250000  1
  H  H13  1  0.295397  0.180723  0.194485  1
  H  H14  1  0.704603  0.819277  0.694485  1
  H  H15  1  0.118991  0.947451  0.750000  1
  C  C16  1  0.541263  0.480578  0.449984  1
  C  C17  1  0.985274  0.957377  0.546648  1
  C  C18  1  0.985274  0.957377  0.953352  1
  C  C19  1  0.014726  0.042623  0.453352  1
  C  C20  1  0.458737  0.519422  0.949984  1
  C  C21  1  0.458737  0.519422  0.550016  1
  C  C22  1  0.014726  0.042623  0.046648  1
  C  C23  1  0.541263  0.480578  0.050016  1
  O  O24  1  0.443201  0.135693  0.557336  1
  O  O25  1  0.876282  0.010182  0.885268  1
  O  O26  1  0.517221  0.445275  0.880797  1
  O  O27  1  0.981340  0.343237  0.628454  1
  O  O28  1  0.018660  0.656763  0.128454  1
  O  O29  1  0.556799  0.864307  0.057336  1
  O  O30  1  0.482779  0.554725  0.119203  1
  O  O31  1  0.018660  0.656763  0.371546  1
  O  O32  1  0.930068  0.158472  0.451437  1
  O  O33  1  0.069932  0.841528  0.548563  1
  O  O34  1  0.388869  0.809360  0.250000  1
  O  O35  1  0.339790  0.622276  0.554662  1
  O  O36  1  0.123718  0.989818  0.114732  1
  O  O37  1  0.671402  0.757216  0.750000  1
  O  O38  1  0.660210  0.377724  0.054662  1
  O  O39  1  0.288422  0.970942  0.750000  1
  O  O40  1  0.123718  0.989818  0.385268  1
  O  O41  1  0.069932  0.841528  0.951437  1
  O  O42  1  0.339790  0.622276  0.945338  1
  O  O43  1  0.660210  0.377724  0.445338  1
  O  O44  1  0.711578  0.029058  0.250000  1
  O  O45  1  0.556799  0.864307  0.442664  1
  O  O46  1  0.930068  0.158472  0.048563  1
  O  O47  1  0.482779  0.554725  0.380797  1
  O  O48  1  0.328598  0.242784  0.250000  1
  O  O49  1  0.611131  0.190640  0.750000  1
  O  O50  1  0.981340  0.343237  0.871546  1
  O  O51  1  0.517221  0.445275  0.619203  1
  O  O52  1  0.876282  0.010182  0.614732  1
  O  O53  1  0.443201  0.135693  0.942664  1
