# generated using pymatgen
data_CaP(HO3)2
_symmetry_space_group_name_H-M   'P 1'
_cell_length_a   9.06577581
_cell_length_b   8.29723031
_cell_length_c   9.06577581
_cell_angle_alpha   142.50586027
_cell_angle_beta   64.92409406
_cell_angle_gamma   139.66620214
_symmetry_Int_Tables_number   1
_chemical_formula_structural   CaP(HO3)2
_chemical_formula_sum   'Ca2 P2 H4 O12'
_cell_volume   238.62672356
_cell_formula_units_Z   2
loop_
 _symmetry_equiv_pos_site_id
 _symmetry_equiv_pos_as_xyz
  1  'x, y, z'
loop_
 _atom_site_type_symbol
 _atom_site_label
 _atom_site_symmetry_multiplicity
 _atom_site_fract_x
 _atom_site_fract_y
 _atom_site_fract_z
 _atom_site_occupancy
  Ca  Ca0  1  0.173411  0.756880  0.922439  1
  Ca  Ca1  1  0.834441  0.256880  0.083469  1
  P  P2  1  0.670303  0.735026  0.409084  1
  P  P3  1  0.325942  0.235026  0.564724  1
  H  H4  1  0.290933  0.970150  0.688784  1
  H  H5  1  0.281366  0.470150  0.179216  1
  H  H6  1  0.351730  0.758350  0.572976  1
  H  H7  1  0.185374  0.258350  0.906620  1
  O  O8  1  0.842700  0.965387  0.357183  1
  O  O9  1  0.608203  0.465387  0.622687  1
  O  O10  1  0.818620  0.094718  0.716841  1
  O  O11  1  0.377877  0.594718  0.776098  1
  O  O12  1  0.402882  0.509370  0.319935  1
  O  O13  1  0.189435  0.009370  0.606488  1
  O  O14  1  0.635937  0.406975  0.237330  1
  O  O15  1  0.169645  0.906975  0.271038  1
  O  O16  1  0.321642  0.909629  0.724584  1
  O  O17  1  0.185045  0.409629  0.087987  1
  O  O18  1  0.805104  0.656515  0.963105  1
  O  O19  1  0.693411  0.156515  0.351411  1
