# generated using pymatgen
data_Y10U4O27
_symmetry_space_group_name_H-M   'P 1'
_cell_length_a   6.59120208
_cell_length_b   6.55222187
_cell_length_c   13.12394007
_cell_angle_alpha   99.10774434
_cell_angle_beta   99.03935620
_cell_angle_gamma   99.42434667
_symmetry_Int_Tables_number   1
_chemical_formula_structural   Y10U4O27
_chemical_formula_sum   'Y10 U4 O27'
_cell_volume   542.25021853
_cell_formula_units_Z   1
loop_
 _symmetry_equiv_pos_site_id
 _symmetry_equiv_pos_as_xyz
  1  'x, y, z'
loop_
 _atom_site_type_symbol
 _atom_site_label
 _atom_site_symmetry_multiplicity
 _atom_site_fract_x
 _atom_site_fract_y
 _atom_site_fract_z
 _atom_site_occupancy
  Y  Y0  1  0.147158  0.299368  0.789395  1
  Y  Y1  1  0.427178  0.855810  0.858134  1
  Y  Y2  1  0.147795  0.304103  0.287034  1
  Y  Y3  1  0.296759  0.577913  0.569872  1
  Y  Y4  1  0.393990  0.856635  0.352050  1
  Y  Y5  1  0.712710  0.425191  0.928224  1
  Y  Y6  1  0.697445  0.393164  0.422586  1
  Y  Y7  1  0.865368  0.711708  0.717487  1
  Y  Y8  1  0.576596  0.148460  0.151376  1
  Y  Y9  1  0.854369  0.702369  0.199632  1
  U  U10  1  0.013979  0.017322  0.508799  1
  U  U11  1  0.990842  0.999404  0.998081  1
  U  U12  1  0.297788  0.572813  0.073836  1
  U  U13  1  0.575671  0.147164  0.651789  1
  O  O14  1  0.096437  0.972842  0.854415  1
  O  O15  1  0.039476  0.323794  0.957044  1
  O  O16  1  0.050347  0.930968  0.351503  1
  O  O17  1  0.179397  0.618435  0.728042  1
  O  O18  1  0.045957  0.311345  0.459386  1
  O  O19  1  0.326619  0.925548  0.524804  1
  O  O20  1  0.381047  0.542173  0.923130  1
  O  O21  1  0.181436  0.609653  0.216976  1
  O  O22  1  0.266533  0.249156  0.629683  1
  O  O23  1  0.462431  0.176852  0.799925  1
  O  O24  1  0.313452  0.892532  0.027935  1
  O  O25  1  0.413899  0.555079  0.410909  1
  O  O26  1  0.254802  0.266752  0.118566  1
  O  O27  1  0.550760  0.848442  0.689750  1
  O  O28  1  0.442024  0.167473  0.303331  1
  O  O29  1  0.748443  0.747375  0.873289  1
  O  O30  1  0.614932  0.431221  0.593330  1
  O  O31  1  0.694564  0.093564  0.981713  1
  O  O32  1  0.542926  0.806020  0.199872  1
  O  O33  1  0.809943  0.370236  0.765019  1
  O  O34  1  0.597968  0.462863  0.085452  1
  O  O35  1  0.695315  0.059083  0.474002  1
  O  O36  1  0.941856  0.707861  0.526415  1
  O  O37  1  0.822859  0.413300  0.276480  1
  O  O38  1  0.906345  0.048402  0.658076  1
  O  O39  1  0.971959  0.683856  0.044356  1
  O  O40  1  0.915624  0.038752  0.150799  1
