# generated using pymatgen
data_La2(ZnGe2)3
_symmetry_space_group_name_H-M   'P 1'
_cell_length_a   6.02518690
_cell_length_b   6.02837875
_cell_length_c   12.90710170
_cell_angle_alpha   103.50496129
_cell_angle_beta   90.00000000
_cell_angle_gamma   90.00000000
_symmetry_Int_Tables_number   1
_chemical_formula_structural   La2(ZnGe2)3
_chemical_formula_sum   'La4 Zn6 Ge12'
_cell_volume   455.85032720
_cell_formula_units_Z   2
loop_
 _symmetry_equiv_pos_site_id
 _symmetry_equiv_pos_as_xyz
  1  'x, y, z'
loop_
 _atom_site_type_symbol
 _atom_site_label
 _atom_site_symmetry_multiplicity
 _atom_site_fract_x
 _atom_site_fract_y
 _atom_site_fract_z
 _atom_site_occupancy
  La  La0  1  0.250000  0.105582  0.211164  1
  La  La1  1  0.750000  0.605388  0.210777  1
  La  La2  1  0.250000  0.394612  0.789223  1
  La  La3  1  0.750000  0.894418  0.788836  1
  Zn  Zn4  1  0.000000  0.760655  0.000000  1
  Zn  Zn5  1  0.250000  0.661050  0.322101  1
  Zn  Zn6  1  0.500000  0.760655  0.000000  1
  Zn  Zn7  1  0.750000  0.338950  0.677899  1
  Zn  Zn8  1  0.000000  0.239345  1.000000  1
  Zn  Zn9  1  0.500000  0.239345  1.000000  1
  Ge  Ge10  1  0.964798  0.416105  0.403059  1
  Ge  Ge11  1  0.464798  0.583895  0.596941  1
  Ge  Ge12  1  0.964798  0.986954  0.403059  1
  Ge  Ge13  1  0.035202  0.583895  0.596941  1
  Ge  Ge14  1  0.750000  0.066110  0.132220  1
  Ge  Ge15  1  0.464798  0.013046  0.596941  1
  Ge  Ge16  1  0.250000  0.558686  0.117373  1
  Ge  Ge17  1  0.535202  0.986954  0.403059  1
  Ge  Ge18  1  0.035202  0.013046  0.596941  1
  Ge  Ge19  1  0.250000  0.933890  0.867780  1
  Ge  Ge20  1  0.750000  0.441314  0.882627  1
  Ge  Ge21  1  0.535202  0.416105  0.403059  1
