# generated using pymatgen
data_KFeH5(SO5)2
_symmetry_space_group_name_H-M   'P 1'
_cell_length_a   6.40101636
_cell_length_b   5.17738526
_cell_length_c   7.74007153
_cell_angle_alpha   102.25497607
_cell_angle_beta   99.68753659
_cell_angle_gamma   94.20140903
_symmetry_Int_Tables_number   1
_chemical_formula_structural   KFeH5(SO5)2
_chemical_formula_sum   'K1 Fe1 H5 S2 O10'
_cell_volume   245.50398457
_cell_formula_units_Z   1
loop_
 _symmetry_equiv_pos_site_id
 _symmetry_equiv_pos_as_xyz
  1  'x, y, z'
loop_
 _atom_site_type_symbol
 _atom_site_label
 _atom_site_symmetry_multiplicity
 _atom_site_fract_x
 _atom_site_fract_y
 _atom_site_fract_z
 _atom_site_occupancy
  K  K0  1  0.890019  0.995735  0.426206  1
  Fe  Fe1  1  0.973496  0.991854  0.926345  1
  H  H2  1  0.831700  0.363390  0.175512  1
  H  H3  1  0.406048  0.758624  0.153475  1
  H  H4  1  0.292304  0.097577  0.777709  1
  H  H5  1  0.645287  0.268316  0.012122  1
  H  H6  1  0.185317  0.693114  0.639247  1
  S  S7  1  0.686258  0.437117  0.735626  1
  S  S8  1  0.293584  0.417709  0.239744  1
  O  O9  1  0.184867  0.948515  0.770650  1
  O  O10  1  0.524373  0.400334  0.849955  1
  O  O11  1  0.411336  0.258026  0.346217  1
  O  O12  1  0.884944  0.310132  0.792948  1
  O  O13  1  0.055024  0.838533  0.102335  1
  O  O14  1  0.151708  0.501426  0.550973  1
  O  O15  1  0.116040  0.560420  0.371687  1
  O  O16  1  0.750006  0.732785  0.750992  1
  O  O17  1  0.471838  0.664616  0.244345  1
  O  O18  1  0.752852  0.199778  0.095911  1
