# generated using pymatgen
data_MgAlPO5
_symmetry_space_group_name_H-M   'P 1'
_cell_length_a   5.51107394
_cell_length_b   7.18916423
_cell_length_c   10.47154354
_cell_angle_alpha   90.00000000
_cell_angle_beta   90.00000000
_cell_angle_gamma   98.52682403
_symmetry_Int_Tables_number   1
_chemical_formula_structural   MgAlPO5
_chemical_formula_sum   'Mg4 Al4 P4 O20'
_cell_volume   410.29683553
_cell_formula_units_Z   4
loop_
 _symmetry_equiv_pos_site_id
 _symmetry_equiv_pos_as_xyz
  1  'x, y, z'
loop_
 _atom_site_type_symbol
 _atom_site_label
 _atom_site_symmetry_multiplicity
 _atom_site_fract_x
 _atom_site_fract_y
 _atom_site_fract_z
 _atom_site_occupancy
  O  O0  1  0.685217  0.112263  0.545857  1
  O  O1  1  0.814783  0.887737  0.045857  1
  O  O2  1  0.314783  0.887737  0.454143  1
  O  O3  1  0.185217  0.112263  0.954143  1
  O  O4  1  0.942554  0.912199  0.315851  1
  O  O5  1  0.557446  0.087801  0.815851  1
  O  O6  1  0.057446  0.087801  0.684149  1
  O  O7  1  0.442554  0.912199  0.184149  1
  O  O8  1  0.604362  0.282909  0.015926  1
  O  O9  1  0.895638  0.717091  0.515926  1
  O  O10  1  0.395638  0.717091  0.984074  1
  O  O11  1  0.104362  0.282909  0.484074  1
  O  O12  1  0.254933  0.268121  0.219755  1
  O  O13  1  0.245067  0.731879  0.719755  1
  O  O14  1  0.745067  0.731879  0.780245  1
  O  O15  1  0.754933  0.268121  0.280245  1
  O  O16  1  0.617967  0.606785  0.174587  1
  O  O17  1  0.882033  0.393215  0.674587  1
  O  O18  1  0.382033  0.393215  0.825413  1
  O  O19  1  0.117967  0.606785  0.325413  1
  Mg  Mg20  1  0.118615  0.013815  0.142191  1
  Mg  Mg21  1  0.381385  0.986185  0.642191  1
  Mg  Mg22  1  0.881385  0.986185  0.857809  1
  Mg  Mg23  1  0.618615  0.013815  0.357809  1
  Al  Al24  1  0.556121  0.358840  0.174734  1
  Al  Al25  1  0.943879  0.641160  0.674734  1
  Al  Al26  1  0.443879  0.641160  0.825266  1
  Al  Al27  1  0.056121  0.358840  0.325266  1
  P  P28  1  0.569444  0.780250  0.097382  1
  P  P29  1  0.930556  0.219750  0.597382  1
  P  P30  1  0.430556  0.219750  0.902618  1
  P  P31  1  0.069444  0.780250  0.402618  1
