# generated using pymatgen
data_Cu7PSe6
_symmetry_space_group_name_H-M   'P 1'
_cell_length_a   10.17444548
_cell_length_b   10.11005170
_cell_length_c   10.14773928
_cell_angle_alpha   90.12442638
_cell_angle_beta   89.97532165
_cell_angle_gamma   90.08702635
_symmetry_Int_Tables_number   1
_chemical_formula_structural   Cu7PSe6
_chemical_formula_sum   'Cu28 P4 Se24'
_cell_volume   1043.83501552
_cell_formula_units_Z   4
loop_
 _symmetry_equiv_pos_site_id
 _symmetry_equiv_pos_as_xyz
  1  'x, y, z'
loop_
 _atom_site_type_symbol
 _atom_site_label
 _atom_site_symmetry_multiplicity
 _atom_site_fract_x
 _atom_site_fract_y
 _atom_site_fract_z
 _atom_site_occupancy
  Cu  Cu0  1  0.046607  0.272041  0.043406  1
  Cu  Cu1  1  0.034473  0.046004  0.268805  1
  Cu  Cu2  1  0.067320  0.900006  0.740890  1
  Cu  Cu3  1  0.089443  0.238335  0.433173  1
  Cu  Cu4  1  0.133242  0.655126  0.861668  1
  Cu  Cu5  1  0.234193  0.434078  0.097375  1
  Cu  Cu6  1  0.224628  0.951696  0.552785  1
  Cu  Cu7  1  0.272940  0.041858  0.046122  1
  Cu  Cu8  1  0.272822  0.572605  0.594534  1
  Cu  Cu9  1  0.358253  0.357079  0.358670  1
  Cu  Cu10  1  0.409116  0.769210  0.924270  1
  Cu  Cu11  1  0.434118  0.093233  0.236240  1
  Cu  Cu12  1  0.493720  0.724261  0.492731  1
  Cu  Cu13  1  0.509384  0.994942  0.775509  1
  Cu  Cu14  1  0.498807  0.484924  0.724330  1
  Cu  Cu15  1  0.511794  0.219305  0.001226  1
  Cu  Cu16  1  0.576828  0.598826  0.270616  1
  Cu  Cu17  1  0.597733  0.271774  0.576112  1
  Cu  Cu18  1  0.647382  0.863305  0.145553  1
  Cu  Cu19  1  0.724332  0.500214  0.487469  1
  Cu  Cu20  1  0.722513  0.073261  0.909503  1
  Cu  Cu21  1  0.777586  0.927375  0.411521  1
  Cu  Cu22  1  0.775071  0.503944  0.990334  1
  Cu  Cu23  1  0.863351  0.138663  0.643528  1
  Cu  Cu24  1  0.908640  0.722310  0.074238  1
  Cu  Cu25  1  0.924110  0.405555  0.765296  1
  Cu  Cu26  1  0.992148  0.778023  0.504001  1
  Cu  Cu27  1  0.001260  0.512889  0.218114  1
  P  P28  1  0.246431  0.754765  0.252494  1
  P  P29  1  0.252813  0.243876  0.753953  1
  P  P30  1  0.747000  0.746545  0.747242  1
  P  P31  1  0.753392  0.252547  0.246428  1
  Se  Se32  1  0.010146  0.505448  0.981974  1
  Se  Se33  1  0.112811  0.873303  0.126273  1
  Se  Se34  1  0.125586  0.111848  0.874937  1
  Se  Se35  1  0.126707  0.376281  0.627966  1
  Se  Se36  1  0.130988  0.624506  0.388248  1
  Se  Se37  1  0.226902  0.226547  0.229643  1
  Se  Se38  1  0.273151  0.771222  0.728251  1
  Se  Se39  1  0.370929  0.372254  0.890710  1
  Se  Se40  1  0.377623  0.627798  0.124857  1
  Se  Se41  1  0.371461  0.890263  0.374864  1
  Se  Se42  1  0.386921  0.126541  0.625045  1
  Se  Se43  1  0.489047  0.487575  0.488833  1
  Se  Se44  1  0.506348  0.982112  0.012214  1
  Se  Se45  1  0.610206  0.628597  0.873178  1
  Se  Se46  1  0.624861  0.388799  0.130900  1
  Se  Se47  1  0.628289  0.124930  0.378148  1
  Se  Se48  1  0.631895  0.874371  0.610349  1
  Se  Se49  1  0.730785  0.267870  0.771880  1
  Se  Se50  1  0.775791  0.729992  0.273025  1
  Se  Se51  1  0.871787  0.126736  0.110160  1
  Se  Se52  1  0.871847  0.874342  0.879448  1
  Se  Se53  1  0.875647  0.611195  0.629515  1
  Se  Se54  1  0.889233  0.373540  0.371925  1
  Se  Se55  1  0.995191  0.014155  0.503919  1
