# generated using pymatgen
data_KFe3H6(SO7)2
_symmetry_space_group_name_H-M   'P 1'
_cell_length_a   8.99396356
_cell_length_b   8.99396325
_cell_length_c   8.99396340
_cell_angle_alpha   59.70542131
_cell_angle_beta   59.70542221
_cell_angle_gamma   59.70541991
_symmetry_Int_Tables_number   1
_chemical_formula_structural   KFe3H6(SO7)2
_chemical_formula_sum   'K1 Fe3 H6 S2 O14'
_cell_volume   511.00208882
_cell_formula_units_Z   1
loop_
 _symmetry_equiv_pos_site_id
 _symmetry_equiv_pos_as_xyz
  1  'x, y, z'
loop_
 _atom_site_type_symbol
 _atom_site_label
 _atom_site_symmetry_multiplicity
 _atom_site_fract_x
 _atom_site_fract_y
 _atom_site_fract_z
 _atom_site_occupancy
  K  K0  1  0.000000  0.000000  0.000000  1
  Fe  Fe1  1  0.000000  0.000000  0.500000  1
  Fe  Fe2  1  0.000000  0.500000  0.000000  1
  Fe  Fe3  1  0.500000  0.000000  0.000000  1
  H  H4  1  0.484726  0.051109  0.484726  1
  H  H5  1  0.515274  0.948891  0.515274  1
  H  H6  1  0.484726  0.484726  0.051109  1
  H  H7  1  0.051109  0.484726  0.484726  1
  H  H8  1  0.948891  0.515274  0.515274  1
  H  H9  1  0.515274  0.515274  0.948891  1
  S  S10  1  0.262819  0.262819  0.262819  1
  S  S11  1  0.737181  0.737181  0.737181  1
  O  O12  1  0.852210  0.852210  0.578029  1
  O  O13  1  0.421971  0.147790  0.147790  1
  O  O14  1  0.578029  0.852210  0.852210  1
  O  O15  1  0.672099  0.672099  0.672099  1
  O  O16  1  0.036373  0.264401  0.036373  1
  O  O17  1  0.735599  0.963627  0.963627  1
  O  O18  1  0.963627  0.735599  0.963627  1
  O  O19  1  0.852210  0.578029  0.852210  1
  O  O20  1  0.327901  0.327901  0.327901  1
  O  O21  1  0.147790  0.421971  0.147790  1
  O  O22  1  0.147790  0.147790  0.421971  1
  O  O23  1  0.036373  0.036373  0.264401  1
  O  O24  1  0.963627  0.963627  0.735599  1
  O  O25  1  0.264401  0.036373  0.036373  1
