# generated using pymatgen
data_RbPbF3
_symmetry_space_group_name_H-M   'P 1'
_cell_length_a   4.68513935
_cell_length_b   4.94802668
_cell_length_c   17.83619454
_cell_angle_alpha   89.01064099
_cell_angle_beta   95.20667963
_cell_angle_gamma   90.08586577
_symmetry_Int_Tables_number   1
_chemical_formula_structural   RbPbF3
_chemical_formula_sum   'Rb4 Pb4 F12'
_cell_volume   411.71464270
_cell_formula_units_Z   4
loop_
 _symmetry_equiv_pos_site_id
 _symmetry_equiv_pos_as_xyz
  1  'x, y, z'
loop_
 _atom_site_type_symbol
 _atom_site_label
 _atom_site_symmetry_multiplicity
 _atom_site_fract_x
 _atom_site_fract_y
 _atom_site_fract_z
 _atom_site_occupancy
  Rb  Rb0  1  0.182917  -0.190785  0.321173  1
  Rb  Rb1  1  0.322470  0.326953  0.184050  1
  Rb  Rb2  1  0.813187  0.193135  0.678339  1
  Rb  Rb3  1  0.681068  0.672480  0.817093  1
  Pb  Pb4  1  0.243813  0.177961  0.927922  1
  Pb  Pb5  1  0.748929  0.291437  0.433025  1
  Pb  Pb6  1  0.254528  0.708338  0.566602  1
  Pb  Pb7  1  0.752676  0.823215  0.072791  1
  F  F8  1  0.781755  0.819884  0.196240  1
  F  F9  1  0.209676  0.184494  0.803826  1
  F  F10  1  0.760853  0.333620  0.085356  1
  F  F11  1  0.256892  0.843557  0.103967  1
  F  F12  1  0.292000  0.688907  0.690363  1
  F  F13  1  0.717466  0.310166  0.309454  1
  F  F14  1  0.742503  0.803597  0.418220  1
  F  F15  1  0.762798  0.695005  0.598590  1
  F  F16  1  0.239179  0.663611  0.914490  1
  F  F17  1  0.242363  0.302049  0.400814  1
  F  F18  1  0.737740  0.154874  -0.103263  1
  F  F19  1  0.257185  0.197502  0.580947  1
