# generated using pymatgen
data_NaYbTiNbO6F
_symmetry_space_group_name_H-M   'P 1'
_cell_length_a   7.33756310
_cell_length_b   14.66873572
_cell_length_c   12.70694519
_cell_angle_alpha   29.99083099
_cell_angle_beta   54.74935613
_cell_angle_gamma   60.00065781
_symmetry_Int_Tables_number   1
_chemical_formula_structural   NaYbTiNbO6F
_chemical_formula_sum   'Na4 Yb4 Ti4 Nb4 O24 F4'
_cell_volume   558.29444167
_cell_formula_units_Z   4
loop_
 _symmetry_equiv_pos_site_id
 _symmetry_equiv_pos_as_xyz
  1  'x, y, z'
loop_
 _atom_site_type_symbol
 _atom_site_label
 _atom_site_symmetry_multiplicity
 _atom_site_fract_x
 _atom_site_fract_y
 _atom_site_fract_z
 _atom_site_occupancy
  Yb  Yb0  1  0.998670  0.994570  0.006130  1
  Yb  Yb1  1  0.499846  0.503677  0.996810  1
  Yb  Yb2  1  0.008409  0.252134  0.998119  1
  Yb  Yb3  1  0.995673  0.250478  0.499133  1
  Na  Na4  1  0.498310  0.996391  0.005748  1
  Na  Na5  1  0.998797  0.507112  0.994132  1
  Na  Na6  1  0.993549  0.749582  0.002924  1
  Na  Na7  1  0.001429  0.750508  0.498845  1
  Ti  Ti8  1  0.498859  0.010141  0.490371  1
  Ti  Ti9  1  0.490290  0.252477  0.496208  1
  Ti  Ti10  1  0.512986  0.245790  0.003474  1
  Ti  Ti11  1  0.000044  0.491917  0.508286  1
  Nb  Nb12  1  0.499981  0.489185  0.511230  1
  Nb  Nb13  1  0.000739  0.011744  0.487460  1
  Nb  Nb14  1  0.506899  0.745577  0.505613  1
  Nb  Nb15  1  0.489772  0.752475  0.998918  1
  O  O16  1  0.187064  0.198584  0.170207  1
  O  O17  1  0.586888  0.003591  0.175714  1
  O  O18  1  0.575439  0.202681  0.172762  1
  O  O19  1  0.170425  0.697284  0.184389  1
  O  O20  1  0.174536  0.301676  0.573649  1
  O  O21  1  0.422110  0.203507  0.421848  1
  O  O22  1  0.174957  0.485265  0.586615  1
  O  O23  1  0.816758  0.019378  0.409868  1
  O  O24  1  0.554046  0.498743  0.180128  1
  O  O25  1  0.813111  0.198797  0.432501  1
  O  O26  1  0.576174  0.304809  0.563263  1
  O  O27  1  0.567445  0.692141  0.182433  1
  O  O28  1  0.182297  0.809912  0.564639  1
  O  O29  1  0.423283  0.303741  0.828109  1
  O  O30  1  0.433803  0.693410  0.431062  1
  O  O31  1  0.181457  0.017096  0.554487  1
  O  O32  1  0.444754  0.497374  0.824751  1
  O  O33  1  0.824262  0.484038  0.445397  1
  O  O34  1  0.826045  0.301251  0.823490  1
  O  O35  1  0.828023  0.696844  0.421871  1
  O  O36  1  0.564363  0.808285  0.573282  1
  O  O37  1  0.435949  0.807510  0.810638  1
  O  O38  1  0.412748  0.005503  0.815613  1
  O  O39  1  0.815986  0.810334  0.814377  1
  F  F40  1  0.116439  0.009108  0.116525  1
  F  F41  1  0.131626  0.494764  0.131160  1
  F  F42  1  0.880597  0.009085  0.866537  1
  F  F43  1  0.867727  0.494423  0.881061  1
