# generated using pymatgen
data_Ba2GdSbO6
_symmetry_space_group_name_H-M   'P 1'
_cell_length_a   6.51596986
_cell_length_b   6.51881266
_cell_length_c   6.51768972
_cell_angle_alpha   59.96765408
_cell_angle_beta   59.99167831
_cell_angle_gamma   59.98815751
_symmetry_Int_Tables_number   1
_chemical_formula_structural   Ba2GdSbO6
_chemical_formula_sum   'Ba2 Gd1 Sb1 O6'
_cell_volume   195.68331882
_cell_formula_units_Z   1
loop_
 _symmetry_equiv_pos_site_id
 _symmetry_equiv_pos_as_xyz
  1  'x, y, z'
loop_
 _atom_site_type_symbol
 _atom_site_label
 _atom_site_symmetry_multiplicity
 _atom_site_fract_x
 _atom_site_fract_y
 _atom_site_fract_z
 _atom_site_occupancy
  Ba  Ba0  1  0.250004  0.249999  0.249997  1
  Ba  Ba1  1  0.749996  0.750001  0.750003  1
  Gd  Gd2  1  0.000000  0.999999  0.000000  1
  Sb  Sb3  1  0.500000  0.500000  0.500000  1
  O  O4  1  0.500000  0.500000  0.000000  1
  O  O5  1  0.000000  0.000000  0.500000  1
  O  O6  1  0.000000  0.500000  0.000000  1
  O  O7  1  0.500000  -0.000000  0.000000  1
  O  O8  1  0.500000  0.000000  0.500000  1
  O  O9  1  1.000000  0.500000  0.500000  1
