# generated using pymatgen
data_Sc22Fe7S40
_symmetry_space_group_name_H-M   'P 1'
_cell_length_a   7.42321035
_cell_length_b   7.38799114
_cell_length_c   36.49084769
_cell_angle_alpha   60.18373820
_cell_angle_beta   60.27265847
_cell_angle_gamma   60.70523146
_symmetry_Int_Tables_number   1
_chemical_formula_structural   Sc22Fe7S40
_chemical_formula_sum   'Sc22 Fe7 S40'
_cell_volume   1427.42523627
_cell_formula_units_Z   1
loop_
 _symmetry_equiv_pos_site_id
 _symmetry_equiv_pos_as_xyz
  1  'x, y, z'
loop_
 _atom_site_type_symbol
 _atom_site_label
 _atom_site_symmetry_multiplicity
 _atom_site_fract_x
 _atom_site_fract_y
 _atom_site_fract_z
 _atom_site_occupancy
  Sc  Sc0  1  0.458463  0.024940  0.996843  1
  Sc  Sc1  1  0.503751  0.014327  0.097480  1
  Sc  Sc2  1  0.462632  0.011114  0.202667  1
  Sc  Sc3  1  0.504593  0.493888  0.097703  1
  Sc  Sc4  1  0.503021  0.492252  0.202228  1
  Sc  Sc5  1  0.503115  0.011882  0.299055  1
  Sc  Sc6  1  0.451758  0.017090  0.406730  1
  Sc  Sc7  1  0.009762  0.498133  0.098248  1
  Sc  Sc8  1  0.502826  0.491307  0.299173  1
  Sc  Sc9  1  0.509648  0.479600  0.404673  1
  Sc  Sc10  1  0.997317  0.460896  0.604553  1
  Sc  Sc11  1  0.003142  0.501713  0.700069  1
  Sc  Sc12  1  0.507180  0.488902  0.496766  1
  Sc  Sc13  1  0.005004  0.496791  0.300633  1
  Sc  Sc14  1  0.496791  0.500606  0.602882  1
  Sc  Sc15  1  -0.001261  0.459895  0.804482  1
  Sc  Sc16  1  0.467493  0.001689  0.803148  1
  Sc  Sc17  1  0.006119  0.500624  0.901378  1
  Sc  Sc18  1  0.467021  0.996730  0.604363  1
  Sc  Sc19  1  0.008951  0.499255  0.496727  1
  Sc  Sc20  1  0.497388  0.499746  0.802254  1
  Sc  Sc21  1  0.504003  0.499518  0.999452  1
  Fe  Fe22  1  0.911704  0.865499  0.172039  1
  Fe  Fe23  1  0.913860  0.854011  0.374506  1
  Fe  Fe24  1  0.494001  0.497074  0.697480  1
  Fe  Fe25  1  0.912119  0.906045  0.569141  1
  Fe  Fe26  1  0.483528  0.489330  0.900505  1
  Fe  Fe27  1  0.916619  0.908524  0.769864  1
  Fe  Fe28  1  0.927480  0.856748  0.970492  1
  S  S29  1  0.250336  0.253544  0.050476  1
  S  S30  1  0.248515  0.743008  0.050337  1
  S  S31  1  0.247208  0.255851  0.148498  1
  S  S32  1  0.733299  0.256676  0.050590  1
  S  S33  1  0.247289  0.256175  0.250907  1
  S  S34  1  0.283384  0.739203  0.147672  1
  S  S35  1  0.247605  0.740305  0.251176  1
  S  S36  1  0.745963  0.753674  0.049501  1
  S  S37  1  0.247968  0.254816  0.348770  1
  S  S38  1  0.742505  0.247646  0.150810  1
  S  S39  1  0.735416  0.256958  0.250536  1
  S  S40  1  0.741545  0.755751  0.150919  1
  S  S41  1  0.241554  0.264248  0.450081  1
  S  S42  1  0.284797  0.742387  0.346927  1
  S  S43  1  0.741976  0.755268  0.249515  1
  S  S44  1  0.245552  0.744583  0.450707  1
  S  S45  1  0.744526  0.245305  0.350645  1
  S  S46  1  0.245655  0.251066  0.550176  1
  S  S47  1  0.743138  0.756912  0.350174  1
  S  S48  1  0.735252  0.266784  0.450272  1
  S  S49  1  0.248693  0.252792  0.651293  1
  S  S50  1  0.265547  0.722455  0.551467  1
  S  S51  1  0.248210  0.739926  0.652747  1
  S  S52  1  0.733228  0.270030  0.550456  1
  S  S53  1  0.737729  0.761675  0.449244  1
  S  S54  1  0.251462  0.255653  0.748702  1
  S  S55  1  0.721375  0.266485  0.654222  1
  S  S56  1  0.755441  0.749683  0.552708  1
  S  S57  1  0.250380  0.253333  0.850636  1
  S  S58  1  0.274059  0.716253  0.748107  1
  S  S59  1  0.756731  0.749728  0.647310  1
  S  S60  1  0.253139  0.269214  0.946068  1
  S  S61  1  0.250519  0.741169  0.851394  1
  S  S62  1  0.728309  0.273779  0.748080  1
  S  S63  1  0.757883  0.749440  0.752016  1
  S  S64  1  0.719343  0.271694  0.854037  1
  S  S65  1  0.292843  0.723616  0.944102  1
  S  S66  1  0.745028  0.246537  0.949836  1
  S  S67  1  0.759572  0.748578  0.846496  1
  S  S68  1  0.743999  0.754674  0.951856  1
