# generated using pymatgen
data_KAlGeO4
_symmetry_space_group_name_H-M   'P 1'
_cell_length_a   18.66148994
_cell_length_b   18.66148978
_cell_length_c   8.73110591
_cell_angle_alpha   90.00000000
_cell_angle_beta   90.00000000
_cell_angle_gamma   120.00000027
_symmetry_Int_Tables_number   1
_chemical_formula_structural   KAlGeO4
_chemical_formula_sum   'K24 Al24 Ge24 O96'
_cell_volume   2633.25254875
_cell_formula_units_Z   24
loop_
 _symmetry_equiv_pos_site_id
 _symmetry_equiv_pos_as_xyz
  1  'x, y, z'
loop_
 _atom_site_type_symbol
 _atom_site_label
 _atom_site_symmetry_multiplicity
 _atom_site_fract_x
 _atom_site_fract_y
 _atom_site_fract_z
 _atom_site_occupancy
  K  K0  1  0.333333  0.666667  0.983685  1
  K  K1  1  0.185004  0.332965  0.490219  1
  K  K2  1  0.666667  0.333333  0.483685  1
  K  K3  1  0.667500  0.803930  0.986150  1
  K  K4  1  0.332965  0.147961  0.990219  1
  K  K5  1  0.471031  0.994249  0.989877  1
  K  K6  1  0.814996  0.667035  0.990219  1
  K  K7  1  0.667035  0.852039  0.490219  1
  K  K8  1  0.136430  0.332500  0.986150  1
  K  K9  1  0.803930  0.136430  0.486150  1
  K  K10  1  0.333333  0.666667  0.481038  1
  K  K11  1  0.005751  0.476782  0.989877  1
  K  K12  1  0.666667  0.333333  0.981038  1
  K  K13  1  0.994249  0.523218  0.489877  1
  K  K14  1  0.000000  0.000000  0.501161  1
  K  K15  1  0.528969  0.005751  0.489877  1
  K  K16  1  0.147961  0.814996  0.490219  1
  K  K17  1  0.852039  0.185004  0.990219  1
  K  K18  1  0.196070  0.863570  0.986150  1
  K  K19  1  0.863570  0.667500  0.486150  1
  K  K20  1  0.476782  0.471031  0.489877  1
  K  K21  1  0.332500  0.196070  0.486150  1
  K  K22  1  0.000000  0.000000  0.001161  1
  K  K23  1  0.523218  0.528969  0.989877  1
  Al  Al24  1  0.500576  0.179120  0.689546  1
  Al  Al25  1  0.010777  0.839682  0.170051  1
  Al  Al26  1  0.839682  0.828905  0.670051  1
  Al  Al27  1  0.160318  0.171095  0.170051  1
  Al  Al28  1  0.651899  0.162191  0.190090  1
  Al  Al29  1  0.162191  0.510292  0.690090  1
  Al  Al30  1  0.489708  0.651899  0.690090  1
  Al  Al31  1  0.510292  0.348101  0.190090  1
  Al  Al32  1  0.330339  0.330529  0.792804  1
  Al  Al33  1  0.820880  0.321456  0.689546  1
  Al  Al34  1  0.330529  0.000190  0.292804  1
  Al  Al35  1  0.348101  0.837809  0.690090  1
  Al  Al36  1  0.669471  0.999810  0.792804  1
  Al  Al37  1  0.999810  0.330339  0.292804  1
  Al  Al38  1  0.669661  0.669471  0.292804  1
  Al  Al39  1  0.828905  0.989223  0.170051  1
  Al  Al40  1  0.989223  0.160318  0.670051  1
  Al  Al41  1  0.000190  0.669661  0.792804  1
  Al  Al42  1  0.179120  0.678544  0.189546  1
  Al  Al43  1  0.837809  0.489708  0.190090  1
  Al  Al44  1  0.321456  0.500576  0.189546  1
  Al  Al45  1  0.678544  0.499424  0.689546  1
  Al  Al46  1  0.171095  0.010777  0.670051  1
  Al  Al47  1  0.499424  0.820880  0.189546  1
  Ge  Ge48  1  0.335170  0.000759  0.685172  1
  Ge  Ge49  1  0.681158  0.503700  0.308596  1
  Ge  Ge50  1  0.157039  0.168162  0.786470  1
  Ge  Ge51  1  0.011123  0.842961  0.786470  1
  Ge  Ge52  1  0.334411  0.335170  0.185171  1
  Ge  Ge53  1  0.494022  0.656000  0.309128  1
  Ge  Ge54  1  0.505978  0.344000  0.809128  1
  Ge  Ge55  1  0.503700  0.822541  0.808596  1
  Ge  Ge56  1  0.665589  0.664830  0.685172  1
  Ge  Ge57  1  0.656000  0.161978  0.809128  1
  Ge  Ge58  1  0.842961  0.831838  0.286470  1
  Ge  Ge59  1  0.822541  0.318842  0.308596  1
  Ge  Ge60  1  0.831838  0.988877  0.786470  1
  Ge  Ge61  1  0.496300  0.177459  0.308596  1
  Ge  Ge62  1  0.177459  0.681158  0.808596  1
  Ge  Ge63  1  0.344000  0.838022  0.309128  1
  Ge  Ge64  1  0.999241  0.334411  0.685172  1
  Ge  Ge65  1  0.168162  0.011123  0.286470  1
  Ge  Ge66  1  0.838022  0.494022  0.809128  1
  Ge  Ge67  1  0.988877  0.157039  0.286470  1
  Ge  Ge68  1  0.664830  0.999241  0.185171  1
  Ge  Ge69  1  0.161978  0.505978  0.309128  1
  Ge  Ge70  1  0.000759  0.665589  0.185171  1
  Ge  Ge71  1  0.318842  0.496300  0.808596  1
  O  O72  1  0.732528  0.462323  0.202989  1
  O  O73  1  0.029688  0.260297  0.221494  1
  O  O74  1  0.812759  0.953915  0.978111  1
  O  O75  1  0.230609  0.970312  0.221494  1
  O  O76  1  0.927030  0.364847  0.737808  1
  O  O77  1  0.408507  0.312232  0.261924  1
  O  O78  1  0.295685  0.398859  0.732590  1
  O  O79  1  0.399041  0.605322  0.210010  1
  O  O80  1  0.615935  0.141873  0.998131  1
  O  O81  1  0.591493  0.687768  0.761924  1
  O  O82  1  0.953915  0.141156  0.478111  1
  O  O83  1  0.729795  0.267472  0.202989  1
  O  O84  1  0.735075  0.970299  0.260155  1
  O  O85  1  0.472611  0.237232  0.811127  1
  O  O86  1  0.562182  0.927030  0.237808  1
  O  O87  1  0.321578  0.988067  0.488803  1
  O  O88  1  0.139229  0.573782  0.806743  1
  O  O89  1  0.678422  0.011933  0.988803  1
  O  O90  1  0.805325  0.901468  0.671228  1
  O  O91  1  0.605322  0.206281  0.710010  1
  O  O92  1  0.103175  0.704315  0.732590  1
  O  O93  1  0.687768  0.096275  0.261924  1
  O  O94  1  0.764621  0.527389  0.811127  1
  O  O95  1  0.096275  0.408507  0.761924  1
  O  O96  1  0.970312  0.739703  0.721494  1
  O  O97  1  0.426218  0.565447  0.806743  1
  O  O98  1  0.384065  0.858127  0.498131  1
  O  O99  1  0.635153  0.562182  0.737808  1
  O  O100  1  0.364847  0.437818  0.237808  1
  O  O101  1  0.988067  0.666489  0.988803  1
  O  O102  1  0.267472  0.537677  0.702989  1
  O  O103  1  0.398859  0.103175  0.232590  1
  O  O104  1  0.903857  0.805325  0.171228  1
  O  O105  1  0.858127  0.474063  0.998131  1
  O  O106  1  0.394678  0.793719  0.210010  1
  O  O107  1  0.270205  0.732528  0.702989  1
  O  O108  1  0.437818  0.072970  0.737808  1
  O  O109  1  0.235224  0.264925  0.260155  1
  O  O110  1  0.600959  0.394678  0.710010  1
  O  O111  1  0.098532  0.903857  0.671228  1
  O  O112  1  0.537677  0.270205  0.202989  1
  O  O113  1  0.361129  0.930734  0.218698  1
  O  O114  1  0.264925  0.029701  0.760155  1
  O  O115  1  0.064667  0.127520  0.268280  1
  O  O116  1  0.260297  0.230609  0.721494  1
  O  O117  1  0.569605  0.638871  0.218698  1
  O  O118  1  0.638871  0.069266  0.718698  1
  O  O119  1  0.029701  0.764776  0.260155  1
  O  O120  1  0.903725  0.591493  0.261924  1
  O  O121  1  0.858844  0.812759  0.478111  1
  O  O122  1  0.896825  0.295685  0.232590  1
  O  O123  1  0.462323  0.729795  0.702989  1
  O  O124  1  0.072970  0.635153  0.237808  1
  O  O125  1  0.201476  0.717169  0.999649  1
  O  O126  1  0.235379  0.472611  0.311127  1
  O  O127  1  0.704315  0.601140  0.232590  1
  O  O128  1  0.764776  0.735075  0.760155  1
  O  O129  1  0.717169  0.515693  0.499649  1
  O  O130  1  0.434553  0.860772  0.806743  1
  O  O131  1  0.525937  0.384065  0.998131  1
  O  O132  1  0.237232  0.764621  0.311127  1
  O  O133  1  0.515693  0.798524  0.999649  1
  O  O134  1  0.187241  0.046085  0.478111  1
  O  O135  1  0.096143  0.194675  0.671228  1
  O  O136  1  0.062853  0.935333  0.268280  1
  O  O137  1  0.206281  0.600959  0.210010  1
  O  O138  1  0.739703  0.769391  0.221494  1
  O  O139  1  0.769391  0.029688  0.721494  1
  O  O140  1  0.011933  0.333511  0.488803  1
  O  O141  1  0.901468  0.096143  0.171228  1
  O  O142  1  0.565447  0.139229  0.306743  1
  O  O143  1  0.601140  0.896825  0.732590  1
  O  O144  1  0.141156  0.187241  0.978111  1
  O  O145  1  0.930734  0.569605  0.718698  1
  O  O146  1  0.527389  0.762768  0.311127  1
  O  O147  1  0.762768  0.235379  0.811127  1
  O  O148  1  0.194675  0.098532  0.171228  1
  O  O149  1  0.937147  0.064667  0.768280  1
  O  O150  1  0.970299  0.235224  0.760155  1
  O  O151  1  0.484307  0.201476  0.499649  1
  O  O152  1  0.127520  0.062853  0.768280  1
  O  O153  1  0.333511  0.321578  0.988803  1
  O  O154  1  0.666489  0.678422  0.488803  1
  O  O155  1  0.141873  0.525937  0.498131  1
  O  O156  1  0.860772  0.426218  0.306743  1
  O  O157  1  0.474063  0.615935  0.498131  1
  O  O158  1  0.282831  0.484307  0.999649  1
  O  O159  1  0.573782  0.434553  0.306743  1
  O  O160  1  0.430395  0.361129  0.718698  1
  O  O161  1  0.793719  0.399041  0.710010  1
  O  O162  1  0.872480  0.937147  0.268280  1
  O  O163  1  0.312232  0.903725  0.761924  1
  O  O164  1  0.798524  0.282831  0.499649  1
  O  O165  1  0.935333  0.872480  0.768280  1
  O  O166  1  0.069266  0.430395  0.218698  1
  O  O167  1  0.046085  0.858844  0.978111  1
