# generated using pymatgen
data_Mn3Bi
_symmetry_space_group_name_H-M   'P 1'
_cell_length_a   9.43780157
_cell_length_b   9.44700051
_cell_length_c   9.04073337
_cell_angle_alpha   112.68754843
_cell_angle_beta   112.59528480
_cell_angle_gamma   129.13938861
_symmetry_Int_Tables_number   1
_chemical_formula_structural   Mn3Bi
_chemical_formula_sum   'Mn12 Bi4'
_cell_volume   277.00513208
_cell_formula_units_Z   4
loop_
 _symmetry_equiv_pos_site_id
 _symmetry_equiv_pos_as_xyz
  1  'x, y, z'
loop_
 _atom_site_type_symbol
 _atom_site_label
 _atom_site_symmetry_multiplicity
 _atom_site_fract_x
 _atom_site_fract_y
 _atom_site_fract_z
 _atom_site_occupancy
  Mn  Mn0  1  0.059073  0.808283  0.371322  1
  Mn  Mn1  1  0.183845  0.184935  0.372096  1
  Mn  Mn2  1  0.688735  0.189331  0.876616  1
  Mn  Mn3  1  0.312706  0.064033  0.875308  1
  Mn  Mn4  1  0.184529  0.685018  0.872929  1
  Mn  Mn5  1  0.310316  0.561292  0.373531  1
  Mn  Mn6  1  0.565024  0.313156  0.377656  1
  Mn  Mn7  1  0.564039  0.813671  0.876014  1
  Mn  Mn8  1  0.812930  0.063612  0.374583  1
  Mn  Mn9  1  0.064600  0.313176  0.876622  1
  Mn  Mn10  1  0.817013  0.567210  0.878695  1
  Mn  Mn11  1  0.688785  0.689899  0.376521  1
  Bi  Bi12  1  0.436192  0.435418  -0.127398  1
  Bi  Bi13  1  0.938016  0.937931  0.875536  1
  Bi  Bi14  1  0.437660  0.936100  0.375368  1
  Bi  Bi15  1  0.936537  0.436937  0.374604  1
