# generated using pymatgen
data_Tb4InIr
_symmetry_space_group_name_H-M   'P 1'
_cell_length_a   9.71201571
_cell_length_b   9.71207986
_cell_length_c   9.71206585
_cell_angle_alpha   60.00029893
_cell_angle_beta   60.00019540
_cell_angle_gamma   60.00096828
_symmetry_Int_Tables_number   1
_chemical_formula_structural   Tb4InIr
_chemical_formula_sum   'Tb16 In4 Ir4'
_cell_volume   647.77329823
_cell_formula_units_Z   4
loop_
 _symmetry_equiv_pos_site_id
 _symmetry_equiv_pos_as_xyz
  1  'x, y, z'
loop_
 _atom_site_type_symbol
 _atom_site_label
 _atom_site_symmetry_multiplicity
 _atom_site_fract_x
 _atom_site_fract_y
 _atom_site_fract_z
 _atom_site_occupancy
  Tb  Tb0  1  0.952972  0.349009  0.349010  1
  Tb  Tb1  1  0.191432  0.808569  0.191429  1
  Tb  Tb2  1  0.808572  0.191430  0.191429  1
  Tb  Tb3  1  0.939804  0.560198  0.560195  1
  Tb  Tb4  1  0.808568  0.808571  0.191430  1
  Tb  Tb5  1  0.560194  0.939804  0.560197  1
  Tb  Tb6  1  0.349007  0.349009  0.349010  1
  Tb  Tb7  1  0.808568  0.191432  0.808570  1
  Tb  Tb8  1  0.349009  0.952972  0.349009  1
  Tb  Tb9  1  0.560197  0.939805  0.939802  1
  Tb  Tb10  1  0.939803  0.560197  0.939805  1
  Tb  Tb11  1  0.560197  0.560195  0.939805  1
  Tb  Tb12  1  0.939804  0.939803  0.560197  1
  Tb  Tb13  1  0.191431  0.808568  0.808570  1
  Tb  Tb14  1  0.349008  0.349009  0.952973  1
  Tb  Tb15  1  0.191430  0.191431  0.808570  1
  In  In16  1  0.582577  0.582575  0.582577  1
  In  In17  1  0.582577  0.582576  0.252272  1
  In  In18  1  0.252269  0.582577  0.582576  1
  In  In19  1  0.582580  0.252269  0.582575  1
  Ir  Ir20  1  0.141252  0.141252  0.141251  1
  Ir  Ir21  1  0.141251  0.576246  0.141251  1
  Ir  Ir22  1  0.141250  0.141251  0.576246  1
  Ir  Ir23  1  0.576246  0.141251  0.141251  1
