# generated using pymatgen
data_H24PtC8(NF3)2
_symmetry_space_group_name_H-M   'P 1'
_cell_length_a   8.19035392
_cell_length_b   8.19035392
_cell_length_c   8.19035392
_cell_angle_alpha   119.91604045
_cell_angle_beta   119.91604045
_cell_angle_gamma   90.14548382
_symmetry_Int_Tables_number   1
_chemical_formula_structural   H24PtC8(NF3)2
_chemical_formula_sum   'H24 Pt1 C8 N2 F6'
_cell_volume   388.99344470
_cell_formula_units_Z   1
loop_
 _symmetry_equiv_pos_site_id
 _symmetry_equiv_pos_as_xyz
  1  'x, y, z'
loop_
 _atom_site_type_symbol
 _atom_site_label
 _atom_site_symmetry_multiplicity
 _atom_site_fract_x
 _atom_site_fract_y
 _atom_site_fract_z
 _atom_site_occupancy
  H  H0  1  0.312513  0.515488  0.290368  1
  H  H1  1  0.225120  0.022145  0.709632  1
  H  H2  1  0.022145  0.312513  0.797025  1
  H  H3  1  0.515488  0.225120  0.202975  1
  H  H4  1  0.687487  0.484512  0.709632  1
  H  H5  1  0.774880  0.977855  0.290368  1
  H  H6  1  0.977855  0.687487  0.202975  1
  H  H7  1  0.484512  0.774880  0.797025  1
  H  H8  1  0.309949  0.722634  0.266202  1
  H  H9  1  0.456433  0.043748  0.733798  1
  H  H10  1  0.043748  0.309949  0.587315  1
  H  H11  1  0.722634  0.456433  0.412685  1
  H  H12  1  0.690051  0.277366  0.733798  1
  H  H13  1  0.543567  0.956252  0.266202  1
  H  H14  1  0.956252  0.690051  0.412685  1
  H  H15  1  0.277366  0.543567  0.587315  1
  H  H16  1  0.517708  0.749280  0.518136  1
  H  H17  1  0.231144  0.999572  0.481864  1
  H  H18  1  0.999572  0.517708  0.768429  1
  H  H19  1  0.749280  0.231144  0.231571  1
  H  H20  1  0.482292  0.250720  0.481864  1
  H  H21  1  0.768857  0.000428  0.518136  1
  H  H22  1  0.000428  0.482292  0.231571  1
  H  H23  1  0.250720  0.768857  0.768429  1
  Pt  Pt24  1  0.000000  0.000000  0.000000  1
  C  C25  1  0.356073  0.678564  0.384995  1
  C  C26  1  0.293569  0.971078  0.615005  1
  C  C27  1  0.971078  0.356073  0.677508  1
  C  C28  1  0.678564  0.293569  0.322492  1
  C  C29  1  0.643927  0.321436  0.615005  1
  C  C30  1  0.706431  0.028922  0.384995  1
  C  C31  1  0.028922  0.643927  0.322492  1
  C  C32  1  0.321436  0.706431  0.677508  1
  N  N33  1  0.250000  0.750000  0.500000  1
  N  N34  1  0.750000  0.250000  0.500000  1
  F  F35  1  0.829005  0.829005  0.000000  1
  F  F36  1  0.170995  0.170995  0.000000  1
  F  F37  1  0.203377  0.870301  0.073678  1
  F  F38  1  0.796623  0.129699  0.926322  1
  F  F39  1  0.129699  0.203377  0.333076  1
  F  F40  1  0.870301  0.796623  0.666924  1
