# generated using pymatgen
data_Rb5Mo18S19
_symmetry_space_group_name_H-M   'P 1'
_cell_length_a   26.54158247
_cell_length_b   26.54158257
_cell_length_c   26.54158239
_cell_angle_alpha   19.89390399
_cell_angle_beta   19.89390335
_cell_angle_gamma   19.89390316
_symmetry_Int_Tables_number   1
_chemical_formula_structural   Rb5Mo18S19
_chemical_formula_sum   'Rb10 Mo36 S38'
_cell_volume   1893.75076796
_cell_formula_units_Z   2
loop_
 _symmetry_equiv_pos_site_id
 _symmetry_equiv_pos_as_xyz
  1  'x, y, z'
loop_
 _atom_site_type_symbol
 _atom_site_label
 _atom_site_symmetry_multiplicity
 _atom_site_fract_x
 _atom_site_fract_y
 _atom_site_fract_z
 _atom_site_occupancy
  Rb  Rb0  1  0.726783  0.726783  0.726783  1
  Rb  Rb1  1  0.964914  0.964914  0.964914  1
  Rb  Rb2  1  0.905912  0.905912  0.905912  1
  Rb  Rb3  1  0.847621  0.847621  0.847621  1
  Rb  Rb4  1  0.788997  0.788997  0.788997  1
  Rb  Rb5  1  0.152379  0.152379  0.152379  1
  Rb  Rb6  1  0.035086  0.035086  0.035086  1
  Rb  Rb7  1  0.094088  0.094088  0.094088  1
  Rb  Rb8  1  0.273217  0.273217  0.273217  1
  Rb  Rb9  1  0.211003  0.211003  0.211003  1
  Mo  Mo10  1  0.273010  0.607133  0.406042  1
  Mo  Mo11  1  0.518801  0.388075  0.721798  1
  Mo  Mo12  1  0.460838  0.331522  0.665079  1
  Mo  Mo13  1  0.637684  0.501281  0.833769  1
  Mo  Mo14  1  0.451320  0.645755  0.787614  1
  Mo  Mo15  1  0.388075  0.721798  0.518801  1
  Mo  Mo16  1  0.548680  0.354245  0.212386  1
  Mo  Mo17  1  0.668478  0.334921  0.539162  1
  Mo  Mo18  1  0.721798  0.518801  0.388075  1
  Mo  Mo19  1  0.212386  0.548680  0.354245  1
  Mo  Mo20  1  0.406042  0.273010  0.607133  1
  Mo  Mo21  1  0.611925  0.278202  0.481199  1
  Mo  Mo22  1  0.778046  0.578997  0.442647  1
  Mo  Mo23  1  0.481199  0.611925  0.278202  1
  Mo  Mo24  1  0.593958  0.726990  0.392867  1
  Mo  Mo25  1  0.557353  0.221954  0.421003  1
  Mo  Mo26  1  0.221954  0.421003  0.557353  1
  Mo  Mo27  1  0.392867  0.593958  0.726990  1
  Mo  Mo28  1  0.442647  0.778046  0.578997  1
  Mo  Mo29  1  0.331522  0.665079  0.460838  1
  Mo  Mo30  1  0.607133  0.406042  0.273010  1
  Mo  Mo31  1  0.498719  0.166231  0.362316  1
  Mo  Mo32  1  0.645755  0.787614  0.451320  1
  Mo  Mo33  1  0.278202  0.481199  0.611925  1
  Mo  Mo34  1  0.787614  0.451320  0.645755  1
  Mo  Mo35  1  0.166231  0.362316  0.498719  1
  Mo  Mo36  1  0.334921  0.539162  0.668478  1
  Mo  Mo37  1  0.833769  0.637684  0.501281  1
  Mo  Mo38  1  0.726990  0.392867  0.593958  1
  Mo  Mo39  1  0.539162  0.668478  0.334921  1
  Mo  Mo40  1  0.665079  0.460838  0.331522  1
  Mo  Mo41  1  0.501281  0.833769  0.637684  1
  Mo  Mo42  1  0.362316  0.498719  0.166231  1
  Mo  Mo43  1  0.578997  0.442647  0.778046  1
  Mo  Mo44  1  0.421003  0.557353  0.221954  1
  Mo  Mo45  1  0.354245  0.212386  0.548680  1
  S  S46  1  0.734363  0.358747  0.108013  1
  S  S47  1  0.693230  0.944283  0.327345  1
  S  S48  1  0.044293  0.404449  0.665903  1
  S  S49  1  0.773349  0.148520  0.535226  1
  S  S50  1  0.306770  0.055717  0.672655  1
  S  S51  1  0.681309  0.681309  0.681309  1
  S  S52  1  0.334097  0.955707  0.595551  1
  S  S53  1  0.318691  0.318691  0.318691  1
  S  S54  1  0.226651  0.851480  0.464774  1
  S  S55  1  0.148520  0.535226  0.773349  1
  S  S56  1  0.526009  0.281330  0.906346  1
  S  S57  1  0.108013  0.734363  0.358747  1
  S  S58  1  0.944283  0.327345  0.693230  1
  S  S59  1  0.281330  0.906346  0.526009  1
  S  S60  1  0.404449  0.665903  0.044293  1
  S  S61  1  0.906346  0.526009  0.281330  1
  S  S62  1  0.595551  0.334097  0.955707  1
  S  S63  1  0.535226  0.773349  0.148520  1
  S  S64  1  0.851480  0.464774  0.226651  1
  S  S65  1  0.672655  0.306770  0.055717  1
  S  S66  1  0.794129  0.409319  0.168604  1
  S  S67  1  0.093654  0.473991  0.718670  1
  S  S68  1  0.265637  0.641253  0.891987  1
  S  S69  1  0.891987  0.265637  0.641253  1
  S  S70  1  0.327345  0.693230  0.944283  1
  S  S71  1  0.955707  0.595551  0.334097  1
  S  S72  1  0.409319  0.168604  0.794129  1
  S  S73  1  0.590681  0.831396  0.205871  1
  S  S74  1  0.358747  0.108013  0.734363  1
  S  S75  1  0.831396  0.205871  0.590681  1
  S  S76  1  0.473991  0.718670  0.093654  1
  S  S77  1  0.641253  0.891987  0.265637  1
  S  S78  1  0.718670  0.093654  0.473991  1
  S  S79  1  0.055717  0.672655  0.306770  1
  S  S80  1  0.464774  0.226651  0.851480  1
  S  S81  1  0.665903  0.044293  0.404449  1
  S  S82  1  0.205871  0.590681  0.831396  1
  S  S83  1  0.168604  0.794129  0.409319  1
