# generated using pymatgen
data_SmGaCo
_symmetry_space_group_name_H-M   'P 1'
_cell_length_a   4.15514261
_cell_length_b   7.96090093
_cell_length_c   7.76161436
_cell_angle_alpha   90.01702015
_cell_angle_beta   89.99848212
_cell_angle_gamma   90.00055051
_symmetry_Int_Tables_number   1
_chemical_formula_structural   SmGaCo
_chemical_formula_sum   'Sm4 Ga4 Co4'
_cell_volume   256.74393610
_cell_formula_units_Z   4
loop_
 _symmetry_equiv_pos_site_id
 _symmetry_equiv_pos_as_xyz
  1  'x, y, z'
loop_
 _atom_site_type_symbol
 _atom_site_label
 _atom_site_symmetry_multiplicity
 _atom_site_fract_x
 _atom_site_fract_y
 _atom_site_fract_z
 _atom_site_occupancy
  Sm  Sm0  1  0.750022  0.288058  0.574132  1
  Sm  Sm1  1  0.250009  0.212229  0.075235  1
  Sm  Sm2  1  0.749979  0.788380  0.925192  1
  Sm  Sm3  1  0.249985  0.711301  0.426131  1
  Ga  Ga4  1  0.750005  0.001661  0.270324  1
  Ga  Ga5  1  0.249988  0.998304  0.729586  1
  Ga  Ga6  1  0.749990  0.503200  0.229344  1
  Ga  Ga7  1  0.250019  0.496941  0.770523  1
  Co  Co8  1  0.749991  0.953132  0.572447  1
  Co  Co9  1  0.250000  0.046217  0.427336  1
  Co  Co10  1  0.750008  0.453297  0.927421  1
  Co  Co11  1  0.250003  0.547280  0.072328  1
