# generated using pymatgen
data_Ce3NCl6
_symmetry_space_group_name_H-M   'P 1'
_cell_length_a   10.65817981
_cell_length_b   11.25835733
_cell_length_c   16.52225887
_cell_angle_alpha   90.00000000
_cell_angle_beta   90.00000000
_cell_angle_gamma   90.00000000
_symmetry_Int_Tables_number   1
_chemical_formula_structural   Ce3NCl6
_chemical_formula_sum   'Ce24 N8 Cl48'
_cell_volume   1982.56526888
_cell_formula_units_Z   8
loop_
 _symmetry_equiv_pos_site_id
 _symmetry_equiv_pos_as_xyz
  1  'x, y, z'
loop_
 _atom_site_type_symbol
 _atom_site_label
 _atom_site_symmetry_multiplicity
 _atom_site_fract_x
 _atom_site_fract_y
 _atom_site_fract_z
 _atom_site_occupancy
  Ce  Ce0  1  0.513147  0.212072  0.451878  1
  Ce  Ce1  1  0.657379  0.464110  0.324107  1
  Ce  Ce2  1  0.360788  0.978203  0.937527  1
  Ce  Ce3  1  0.657379  0.035890  0.824107  1
  Ce  Ce4  1  0.157379  0.035890  0.675893  1
  Ce  Ce5  1  0.013147  0.212072  0.048122  1
  Ce  Ce6  1  0.986853  0.787928  0.951878  1
  Ce  Ce7  1  0.486853  0.787928  0.548122  1
  Ce  Ce8  1  0.639212  0.478203  0.562473  1
  Ce  Ce9  1  0.342621  0.535890  0.675893  1
  Ce  Ce10  1  0.860788  0.521797  0.062473  1
  Ce  Ce11  1  0.013147  0.287928  0.548122  1
  Ce  Ce12  1  0.342621  0.964110  0.175893  1
  Ce  Ce13  1  0.157379  0.464110  0.175893  1
  Ce  Ce14  1  0.139212  0.021797  0.437527  1
  Ce  Ce15  1  0.842621  0.964110  0.324107  1
  Ce  Ce16  1  0.360788  0.521797  0.437527  1
  Ce  Ce17  1  0.513147  0.287928  0.951878  1
  Ce  Ce18  1  0.986853  0.712072  0.451878  1
  Ce  Ce19  1  0.139212  0.478203  0.937527  1
  Ce  Ce20  1  0.860788  0.978203  0.562473  1
  Ce  Ce21  1  0.842621  0.535890  0.824107  1
  Ce  Ce22  1  0.639212  0.021797  0.062473  1
  Ce  Ce23  1  0.486853  0.712072  0.048122  1
  N  N24  1  0.949897  0.590957  0.939941  1
  N  N25  1  0.050103  0.409043  0.060059  1
  N  N26  1  0.550103  0.090957  0.939941  1
  N  N27  1  0.949897  0.909043  0.439941  1
  N  N28  1  0.449897  0.909043  0.060059  1
  N  N29  1  0.050103  0.090957  0.560059  1
  N  N30  1  0.550103  0.409043  0.439941  1
  N  N31  1  0.449897  0.590957  0.560059  1
  Cl  Cl32  1  0.629811  0.561034  0.160218  1
  Cl  Cl33  1  0.870189  0.061034  0.160218  1
  Cl  Cl34  1  0.667279  0.214002  0.313763  1
  Cl  Cl35  1  0.667279  0.285998  0.813763  1
  Cl  Cl36  1  0.143362  0.530248  0.553008  1
  Cl  Cl37  1  0.897185  0.420716  0.225975  1
  Cl  Cl38  1  0.356638  0.030248  0.553008  1
  Cl  Cl39  1  0.167279  0.285998  0.686237  1
  Cl  Cl40  1  0.469439  0.185926  0.123494  1
  Cl  Cl41  1  0.248950  0.283831  0.454502  1
  Cl  Cl42  1  0.030561  0.685926  0.123494  1
  Cl  Cl43  1  0.251050  0.783831  0.454502  1
  Cl  Cl44  1  0.102815  0.920716  0.274025  1
  Cl  Cl45  1  0.969439  0.314074  0.876506  1
  Cl  Cl46  1  0.370189  0.438966  0.839782  1
  Cl  Cl47  1  0.969439  0.185926  0.376506  1
  Cl  Cl48  1  0.167279  0.214002  0.186237  1
  Cl  Cl49  1  0.129811  0.938966  0.839782  1
  Cl  Cl50  1  0.332721  0.714002  0.186237  1
  Cl  Cl51  1  0.030561  0.814074  0.623494  1
  Cl  Cl52  1  0.143362  0.969752  0.053008  1
  Cl  Cl53  1  0.251050  0.716169  0.954502  1
  Cl  Cl54  1  0.629811  0.938966  0.660218  1
  Cl  Cl55  1  0.643362  0.969752  0.446992  1
  Cl  Cl56  1  0.129811  0.561034  0.339782  1
  Cl  Cl57  1  0.897185  0.079284  0.725975  1
  Cl  Cl58  1  0.602815  0.579284  0.725975  1
  Cl  Cl59  1  0.397185  0.420716  0.274025  1
  Cl  Cl60  1  0.751050  0.783831  0.045498  1
  Cl  Cl61  1  0.248950  0.216169  0.954502  1
  Cl  Cl62  1  0.397185  0.079284  0.774025  1
  Cl  Cl63  1  0.832721  0.785998  0.813763  1
  Cl  Cl64  1  0.856638  0.469752  0.446992  1
  Cl  Cl65  1  0.643362  0.530248  0.946992  1
  Cl  Cl66  1  0.332721  0.785998  0.686237  1
  Cl  Cl67  1  0.356638  0.469752  0.053008  1
  Cl  Cl68  1  0.102815  0.579284  0.774025  1
  Cl  Cl69  1  0.602815  0.920716  0.225975  1
  Cl  Cl70  1  0.530561  0.814074  0.876506  1
  Cl  Cl71  1  0.530561  0.685926  0.376506  1
  Cl  Cl72  1  0.832721  0.714002  0.313763  1
  Cl  Cl73  1  0.370189  0.061034  0.339782  1
  Cl  Cl74  1  0.870189  0.438966  0.660218  1
  Cl  Cl75  1  0.751050  0.716169  0.545498  1
  Cl  Cl76  1  0.748950  0.216169  0.545498  1
  Cl  Cl77  1  0.856638  0.030248  0.946992  1
  Cl  Cl78  1  0.748950  0.283831  0.045498  1
  Cl  Cl79  1  0.469439  0.314074  0.623494  1
