# generated using pymatgen
data_CdI2
_symmetry_space_group_name_H-M   'P 1'
_cell_length_a   4.34452514
_cell_length_b   4.34452541
_cell_length_c   110.58151480
_cell_angle_alpha   90.00000000
_cell_angle_beta   90.00000000
_cell_angle_gamma   119.99999795
_symmetry_Int_Tables_number   1
_chemical_formula_structural   CdI2
_chemical_formula_sum   'Cd15 I30'
_cell_volume   1807.58126668
_cell_formula_units_Z   15
loop_
 _symmetry_equiv_pos_site_id
 _symmetry_equiv_pos_as_xyz
  1  'x, y, z'
loop_
 _atom_site_type_symbol
 _atom_site_label
 _atom_site_symmetry_multiplicity
 _atom_site_fract_x
 _atom_site_fract_y
 _atom_site_fract_z
 _atom_site_occupancy
  Cd  Cd0  1  0.666667  0.333333  0.016663  1
  Cd  Cd1  1  0.666667  0.333333  0.816666  1
  Cd  Cd2  1  0.000000  0.000000  0.549993  1
  Cd  Cd3  1  0.666667  0.333333  0.616669  1
  Cd  Cd4  1  0.666667  0.333333  0.283334  1
  Cd  Cd5  1  0.666667  0.333333  0.349998  1
  Cd  Cd6  1  0.666667  0.333333  0.883348  1
  Cd  Cd7  1  0.666667  0.333333  0.149996  1
  Cd  Cd8  1  0.666667  0.333333  0.483327  1
  Cd  Cd9  1  0.000000  0.000000  0.083325  1
  Cd  Cd10  1  0.666667  0.333333  0.216672  1
  Cd  Cd11  1  0.666667  0.333333  0.683329  1
  Cd  Cd12  1  0.666667  0.333333  0.950002  1
  Cd  Cd13  1  0.666667  0.333333  0.416659  1
  Cd  Cd14  1  0.666667  0.333333  0.749986  1
  I  I15  1  0.000000  0.000000  0.734343  1
  I  I16  1  0.333333  0.666667  0.565648  1
  I  I17  1  0.000000  0.000000  0.201024  1
  I  I18  1  0.333333  0.666667  0.432305  1
  I  I19  1  0.000000  0.000000  0.867702  1
  I  I20  1  0.333333  0.666667  0.365651  1
  I  I21  1  0.333333  0.666667  0.898994  1
  I  I22  1  0.000000  0.000000  0.467690  1
  I  I23  1  0.333333  0.666667  0.965648  1
  I  I24  1  0.333333  0.666667  0.232317  1
  I  I25  1  0.333333  0.666667  0.698982  1
  I  I26  1  0.000000  0.000000  0.601025  1
  I  I27  1  0.333333  0.666667  0.765636  1
  I  I28  1  0.000000  0.000000  0.667690  1
  I  I29  1  0.000000  0.000000  0.401013  1
  I  I30  1  0.000000  0.000000  0.801025  1
  I  I31  1  0.333333  0.666667  0.632315  1
  I  I32  1  0.666667  0.333333  0.534349  1
  I  I33  1  0.000000  0.000000  0.934359  1
  I  I34  1  0.333333  0.666667  0.098975  1
  I  I35  1  0.000000  0.000000  0.001025  1
  I  I36  1  0.000000  0.000000  0.134356  1
  I  I37  1  0.666667  0.333333  0.067675  1
  I  I38  1  0.333333  0.666667  0.032315  1
  I  I39  1  0.000000  0.000000  0.267691  1
  I  I40  1  0.333333  0.666667  0.298980  1
  I  I41  1  0.000000  0.000000  0.334357  1
  I  I42  1  0.333333  0.666667  0.832316  1
  I  I43  1  0.333333  0.666667  0.165647  1
  I  I44  1  0.333333  0.666667  0.498978  1
