# generated using pymatgen
data_Eu(ErS2)2
_symmetry_space_group_name_H-M   'P 1'
_cell_length_a   7.27790174
_cell_length_b   7.27790204
_cell_length_c   7.27790191
_cell_angle_alpha   109.30173524
_cell_angle_beta   109.81073394
_cell_angle_gamma   109.30173255
_symmetry_Int_Tables_number   1
_chemical_formula_structural   Eu(ErS2)2
_chemical_formula_sum   'Eu2 Er4 S8'
_cell_volume   296.74624115
_cell_formula_units_Z   2
loop_
 _symmetry_equiv_pos_site_id
 _symmetry_equiv_pos_as_xyz
  1  'x, y, z'
loop_
 _atom_site_type_symbol
 _atom_site_label
 _atom_site_symmetry_multiplicity
 _atom_site_fract_x
 _atom_site_fract_y
 _atom_site_fract_z
 _atom_site_occupancy
  Eu  Eu0  1  0.125000  0.750000  0.875000  1
  Eu  Eu1  1  0.375000  0.250000  0.625000  1
  Er  Er2  1  0.250000  0.622964  0.372964  1
  Er  Er3  1  0.750000  0.877036  0.127036  1
  Er  Er4  1  0.627036  0.377036  0.250000  1
  Er  Er5  1  0.872964  0.122964  0.750000  1
  S  S6  1  0.511660  0.997585  0.359172  1
  S  S7  1  0.138413  0.152489  0.140828  1
  S  S8  1  0.361587  0.502415  0.014076  1
  S  S9  1  0.514076  0.002415  0.861587  1
  S  S10  1  0.640828  0.652489  0.638413  1
  S  S11  1  0.985924  0.847511  0.488340  1
  S  S12  1  0.859172  0.497585  0.011660  1
  S  S13  1  0.988340  0.347511  0.485924  1
