# generated using pymatgen
data_Ca10P6SO24
_symmetry_space_group_name_H-M   'P 1'
_cell_length_a   9.70756402
_cell_length_b   19.33177353
_cell_length_c   6.79668987
_cell_angle_alpha   90.00000000
_cell_angle_beta   90.00000000
_cell_angle_gamma   119.86457330
_symmetry_Int_Tables_number   1
_chemical_formula_structural   Ca10P6SO24
_chemical_formula_sum   'Ca20 P12 S2 O48'
_cell_volume   1106.11706157
_cell_formula_units_Z   2
loop_
 _symmetry_equiv_pos_site_id
 _symmetry_equiv_pos_as_xyz
  1  'x, y, z'
loop_
 _atom_site_type_symbol
 _atom_site_label
 _atom_site_symmetry_multiplicity
 _atom_site_fract_x
 _atom_site_fract_y
 _atom_site_fract_z
 _atom_site_occupancy
  Ca  Ca0  1  0.253980  0.004776  0.265962  1
  Ca  Ca1  1  0.000737  0.625444  0.242519  1
  Ca  Ca2  1  0.316770  0.827198  0.017592  1
  Ca  Ca3  1  0.344312  0.840222  0.509602  1
  Ca  Ca4  1  0.253626  0.630022  0.777504  1
  Ca  Ca5  1  0.259898  0.500883  0.251823  1
  Ca  Ca6  1  0.746374  0.869978  0.277504  1
  Ca  Ca7  1  0.987514  0.124900  0.275193  1
  Ca  Ca8  1  0.655688  0.659778  0.009602  1
  Ca  Ca9  1  0.683230  0.672802  0.517592  1
  Ca  Ca10  1  0.350096  0.340710  0.004671  1
  Ca  Ca11  1  0.322514  0.327705  0.497487  1
  Ca  Ca12  1  0.999263  0.874556  0.742519  1
  Ca  Ca13  1  0.248538  0.126487  0.739854  1
  Ca  Ca14  1  0.746020  0.495224  0.765962  1
  Ca  Ca15  1  0.751462  0.373513  0.239854  1
  Ca  Ca16  1  0.677486  0.172295  0.997487  1
  Ca  Ca17  1  0.649904  0.159290  0.504671  1
  Ca  Ca18  1  0.012486  0.375100  0.775193  1
  Ca  Ca19  1  0.740102  0.999117  0.751823  1
  P  P20  1  0.034927  0.703855  0.754155  1
  P  P21  1  0.368505  0.984860  0.763818  1
  P  P22  1  0.399268  0.683247  0.268278  1
  P  P23  1  0.600732  0.816753  0.768278  1
  P  P24  1  0.029416  0.199241  0.763924  1
  P  P25  1  0.377515  0.484818  0.752386  1
  P  P26  1  0.631495  0.515140  0.263818  1
  P  P27  1  0.965073  0.796145  0.254155  1
  P  P28  1  0.405415  0.187318  0.249123  1
  P  P29  1  0.594585  0.312682  0.749123  1
  P  P30  1  0.622485  0.015182  0.252386  1
  P  P31  1  0.970584  0.300759  0.263924  1
  S  S32  1  0.003973  0.500558  0.003190  1
  S  S33  1  0.996027  0.999442  0.503190  1
  O  O34  1  0.237421  0.963825  0.923098  1
  O  O35  1  0.147021  0.830971  0.258507  1
  O  O36  1  0.124832  0.796751  0.734765  1
  O  O37  1  0.282575  0.953690  0.562932  1
  O  O38  1  0.099616  0.687049  0.946961  1
  O  O39  1  0.085188  0.667965  0.582678  1
  O  O40  1  0.458054  0.937518  0.800744  1
  O  O41  1  0.333835  0.741731  0.258681  1
  O  O42  1  0.510286  0.923801  0.253459  1
  O  O43  1  0.416666  0.769694  0.797024  1
  O  O44  1  0.313082  0.621103  0.434881  1
  O  O45  1  0.375211  0.634449  0.076065  1
  O  O46  1  0.624789  0.865551  0.576065  1
  O  O47  1  0.288796  0.453772  0.951720  1
  O  O48  1  0.686918  0.878897  0.934881  1
  O  O49  1  0.151251  0.331628  0.255971  1
  O  O50  1  0.125115  0.291869  0.792195  1
  O  O51  1  0.248816  0.459067  0.589067  1
  O  O52  1  0.583334  0.730306  0.297024  1
  O  O53  1  0.066902  0.155674  0.930551  1
  O  O54  1  0.489714  0.576199  0.753459  1
  O  O55  1  0.666165  0.758269  0.758681  1
  O  O56  1  0.095695  0.184724  0.569563  1
  O  O57  1  0.541946  0.562482  0.300744  1
  O  O58  1  0.469623  0.438558  0.720216  1
  O  O59  1  0.914812  0.832035  0.082678  1
  O  O60  1  0.340641  0.245731  0.253382  1
  O  O61  1  0.513318  0.424394  0.260811  1
  O  O62  1  0.900384  0.812951  0.446961  1
  O  O63  1  0.409555  0.266763  0.729874  1
  O  O64  1  0.717425  0.546310  0.062932  1
  O  O65  1  0.875168  0.703249  0.234765  1
  O  O66  1  0.852979  0.669029  0.758507  1
  O  O67  1  0.371267  0.136789  0.440887  1
  O  O68  1  0.762579  0.536175  0.423098  1
  O  O69  1  0.328670  0.126782  0.077589  1
  O  O70  1  0.671330  0.373218  0.577588  1
  O  O71  1  0.628733  0.363211  0.940887  1
  O  O72  1  0.590445  0.233237  0.229874  1
  O  O73  1  0.486682  0.075606  0.760811  1
  O  O74  1  0.659359  0.254269  0.753382  1
  O  O75  1  0.530377  0.061442  0.220216  1
  O  O76  1  0.904305  0.315276  0.069563  1
  O  O77  1  0.933098  0.344326  0.430551  1
  O  O78  1  0.751184  0.040933  0.089067  1
  O  O79  1  0.874885  0.208131  0.292195  1
  O  O80  1  0.848749  0.168372  0.755971  1
  O  O81  1  0.711204  0.046228  0.451720  1
