# generated using pymatgen
data_KNa6Al7Si9O32
_symmetry_space_group_name_H-M   'P 1'
_cell_length_a   10.14619456
_cell_length_b   10.18649299
_cell_length_c   8.52945584
_cell_angle_alpha   88.65961755
_cell_angle_beta   90.73349230
_cell_angle_gamma   120.25671461
_symmetry_Int_Tables_number   1
_chemical_formula_structural   KNa6Al7Si9O32
_chemical_formula_sum   'K1 Na6 Al7 Si9 O32'
_cell_volume   761.25720194
_cell_formula_units_Z   1
loop_
 _symmetry_equiv_pos_site_id
 _symmetry_equiv_pos_as_xyz
  1  'x, y, z'
loop_
 _atom_site_type_symbol
 _atom_site_label
 _atom_site_symmetry_multiplicity
 _atom_site_fract_x
 _atom_site_fract_y
 _atom_site_fract_z
 _atom_site_occupancy
  K  K0  1  0.997067  0.988926  0.468001  1
  Na  Na1  1  0.988120  0.560243  0.501580  1
  Na  Na2  1  0.461338  0.420797  0.487658  1
  Na  Na3  1  0.560845  0.538213  0.009704  1
  Na  Na4  1  0.467888  0.015021  0.986247  1
  Na  Na5  1  0.571331  0.024949  0.508707  1
  Na  Na6  1  0.974918  0.419786  -0.000016  1
  Al  Al7  1  0.238726  0.891760  0.688114  1
  Al  Al8  1  0.330096  0.662573  0.152645  1
  Al  Al9  1  0.318180  0.228810  0.182432  1
  Al  Al10  1  0.676540  0.347331  0.728435  1
  Al  Al11  1  0.908502  0.683376  0.183041  1
  Al  Al12  1  0.757978  0.082254  0.183784  1
  Al  Al13  1  0.773344  0.094542  0.804343  1
  Si  Si14  1  0.241174  0.888917  0.309454  1
  Si  Si15  1  0.104788  0.344586  0.316310  1
  Si  Si16  1  0.118434  0.354022  0.687433  1
  Si  Si17  1  0.341100  0.670239  0.857858  1
  Si  Si18  1  0.325289  0.232827  0.810707  1
  Si  Si19  1  0.642526  0.754372  0.321665  1
  Si  Si20  1  0.655083  0.760667  0.688791  1
  Si  Si21  1  0.668011  0.330647  0.246180  1
  Si  Si22  1  0.908920  0.679613  0.821191  1
  O  O23  1  0.060247  0.755818  0.317350  1
  O  O24  1  0.040318  0.758702  0.685899  1
  O  O25  1  0.302152  0.927647  0.491478  1
  O  O26  1  0.084661  0.382563  0.502478  1
  O  O27  1  0.157543  0.499674  0.213185  1
  O  O28  1  0.194051  0.519819  0.772111  1
  O  O29  1  0.345199  0.823110  0.787851  1
  O  O30  1  0.341491  0.831668  0.214387  1
  O  O31  1  0.231005  0.289757  0.318365  1
  O  O32  1  0.236754  0.287949  0.680560  1
  O  O33  1  0.496285  0.670847  0.790631  1
  O  O34  1  0.295113  0.269474  0.986864  1
  O  O35  1  0.483475  0.644770  0.230046  1
  O  O36  1  0.257030  0.039861  0.222253  1
  O  O37  1  0.272727  0.057322  0.782202  1
  O  O38  1  0.687001  0.931581  0.324906  1
  O  O39  1  0.731198  0.942761  0.674963  1
  O  O40  1  0.506556  0.345943  0.771868  1
  O  O41  1  0.616078  0.691450  0.509113  1
  O  O42  1  0.517880  0.347677  0.218929  1
  O  O43  1  0.777501  0.734769  0.246467  1
  O  O44  1  0.765865  0.707893  0.775692  1
  O  O45  1  0.718318  0.429058  0.530404  1
  O  O46  1  0.688447  0.294962  0.435762  1
  O  O47  1  0.657559  0.169926  0.746323  1
  O  O48  1  0.644847  0.172537  0.182088  1
  O  O49  1  0.819457  0.481742  0.182801  1
  O  O50  1  0.836449  0.494246  0.825415  1
  O  O51  1  0.974453  0.745158  0.992708  1
  O  O52  1  0.732240  0.024251  0.993621  1
  O  O53  1  0.965614  0.241270  0.780987  1
  O  O54  1  0.943285  0.212325  0.250029  1
