# generated using pymatgen
data_Na4Pu(MoO4)4
_symmetry_space_group_name_H-M   'P 1'
_cell_length_a   10.04376565
_cell_length_b   10.04376584
_cell_length_c   10.04376574
_cell_angle_alpha   106.53204638
_cell_angle_beta   110.96050078
_cell_angle_gamma   110.96049613
_symmetry_Int_Tables_number   1
_chemical_formula_structural   Na4Pu(MoO4)4
_chemical_formula_sum   'Na8 Pu2 Mo8 O32'
_cell_volume   778.42258551
_cell_formula_units_Z   2
loop_
 _symmetry_equiv_pos_site_id
 _symmetry_equiv_pos_as_xyz
  1  'x, y, z'
loop_
 _atom_site_type_symbol
 _atom_site_label
 _atom_site_symmetry_multiplicity
 _atom_site_fract_x
 _atom_site_fract_y
 _atom_site_fract_z
 _atom_site_occupancy
  Na  Na0  1  0.869797  0.238520  0.823973  1
  Na  Na1  1  0.369797  0.545824  0.631277  1
  Na  Na2  1  0.085453  0.131277  0.261480  1
  Na  Na3  1  0.914547  0.868723  0.738520  1
  Na  Na4  1  0.414547  0.676027  0.045824  1
  Na  Na5  1  0.585453  0.323973  0.954176  1
  Na  Na6  1  0.130203  0.761480  0.176027  1
  Na  Na7  1  0.630203  0.454176  0.368723  1
  Pu  Pu8  1  0.250000  0.875000  0.625000  1
  Pu  Pu9  1  0.750000  0.125000  0.375000  1
  Mo  Mo10  1  0.025825  0.553737  0.717311  1
  Mo  Mo11  1  0.163575  0.217311  0.691486  1
  Mo  Mo12  1  0.525825  0.808514  0.472088  1
  Mo  Mo13  1  0.836425  0.782689  0.308514  1
  Mo  Mo14  1  0.336425  0.027912  0.053737  1
  Mo  Mo15  1  0.474175  0.191486  0.527912  1
  Mo  Mo16  1  0.663575  0.972088  0.946263  1
  Mo  Mo17  1  0.974175  0.446263  0.282689  1
  O  O18  1  0.428413  0.787214  0.594777  1
  O  O19  1  0.564930  0.768473  0.902966  1
  O  O20  1  0.206481  0.999337  0.137728  1
  O  O21  1  0.361609  0.292856  0.499337  1
  O  O22  1  0.365507  0.703543  0.268473  1
  O  O23  1  0.336402  0.977211  0.466207  1
  O  O24  1  0.134493  0.402966  0.338036  1
  O  O25  1  0.064930  0.161964  0.796457  1
  O  O26  1  0.634493  0.296457  0.731527  1
  O  O27  1  0.988996  0.859191  0.522789  1
  O  O28  1  0.571587  0.212786  0.405223  1
  O  O29  1  0.836402  0.370195  0.359191  1
  O  O30  1  0.435070  0.231527  0.097034  1
  O  O31  1  0.011004  0.140809  0.477211  1
  O  O32  1  0.071587  0.666364  0.358802  1
  O  O33  1  0.638391  0.707144  0.500663  1
  O  O34  1  0.865507  0.597034  0.661964  1
  O  O35  1  0.935070  0.838036  0.203543  1
  O  O36  1  0.928413  0.333636  0.641198  1
  O  O37  1  0.138391  0.637728  0.931247  1
  O  O38  1  0.793519  0.000663  0.862272  1
  O  O39  1  0.692437  0.858802  0.287214  1
  O  O40  1  0.192437  0.905223  0.833636  1
  O  O41  1  0.663598  0.022789  0.533793  1
  O  O42  1  0.861609  0.362272  0.068753  1
  O  O43  1  0.293519  0.431247  0.792856  1
  O  O44  1  0.706481  0.568753  0.207144  1
  O  O45  1  0.163598  0.629805  0.640809  1
  O  O46  1  0.488996  0.966207  0.129805  1
  O  O47  1  0.511004  0.033793  0.870195  1
  O  O48  1  0.307563  0.141198  0.712786  1
  O  O49  1  0.807563  0.094777  0.166364  1
