# generated using pymatgen
data_Ba2Ti(SiO4)2
_symmetry_space_group_name_H-M   'P 1'
_cell_length_a   5.32575717
_cell_length_b   8.62982612
_cell_length_c   8.62982612
_cell_angle_alpha   90.00000000
_cell_angle_beta   90.00000000
_cell_angle_gamma   90.00000000
_symmetry_Int_Tables_number   1
_chemical_formula_structural   Ba2Ti(SiO4)2
_chemical_formula_sum   'Ba4 Ti2 Si4 O16'
_cell_volume   396.62990084
_cell_formula_units_Z   2
loop_
 _symmetry_equiv_pos_site_id
 _symmetry_equiv_pos_as_xyz
  1  'x, y, z'
loop_
 _atom_site_type_symbol
 _atom_site_label
 _atom_site_symmetry_multiplicity
 _atom_site_fract_x
 _atom_site_fract_y
 _atom_site_fract_z
 _atom_site_occupancy
  O  O0  1  0.214527  0.500000  0.500000  1
  O  O1  1  0.214527  0.000000  0.000000  1
  O  O2  1  0.641654  0.077213  0.792638  1
  O  O3  1  0.641654  0.922787  0.207362  1
  O  O4  1  0.641654  0.792638  0.922787  1
  O  O5  1  0.641654  0.207362  0.077213  1
  O  O6  1  0.641654  0.707362  0.422787  1
  O  O7  1  0.641654  0.577213  0.707362  1
  O  O8  1  0.641654  0.422787  0.292638  1
  O  O9  1  0.641654  0.292638  0.577213  1
  O  O10  1  0.624468  0.000000  0.500000  1
  O  O11  1  0.624468  0.500000  0.000000  1
  O  O12  1  0.207609  0.127275  0.627275  1
  O  O13  1  0.207609  0.372725  0.127275  1
  O  O14  1  0.207609  0.627275  0.872725  1
  O  O15  1  0.207609  0.872725  0.372725  1
  Si  Si16  1  0.509578  0.871586  0.371586  1
  Si  Si17  1  0.509578  0.628414  0.871586  1
  Si  Si18  1  0.509578  0.371586  0.128414  1
  Si  Si19  1  0.509578  0.128414  0.628414  1
  Ti  Ti20  1  0.534404  0.500000  0.500000  1
  Ti  Ti21  1  0.534404  0.000000  0.000000  1
  Ba  Ba22  1  0.990806  0.672886  0.172886  1
  Ba  Ba23  1  0.990806  0.827114  0.672886  1
  Ba  Ba24  1  0.990806  0.172886  0.327114  1
  Ba  Ba25  1  0.990806  0.327114  0.827114  1
