# generated using pymatgen
data_Ca11AlSi3ClO18
_symmetry_space_group_name_H-M   'P 1'
_cell_length_a   8.69084278
_cell_length_b   8.68779175
_cell_length_c   8.72604565
_cell_angle_alpha   105.01264328
_cell_angle_beta   105.02798770
_cell_angle_gamma   118.65184547
_symmetry_Int_Tables_number   1
_chemical_formula_structural   Ca11AlSi3ClO18
_chemical_formula_sum   'Ca11 Al1 Si3 Cl1 O18'
_cell_volume   498.01409244
_cell_formula_units_Z   1
loop_
 _symmetry_equiv_pos_site_id
 _symmetry_equiv_pos_as_xyz
  1  'x, y, z'
loop_
 _atom_site_type_symbol
 _atom_site_label
 _atom_site_symmetry_multiplicity
 _atom_site_fract_x
 _atom_site_fract_y
 _atom_site_fract_z
 _atom_site_occupancy
  Ca  Ca0  1  0.034450  0.292541  0.745823  1
  Ca  Ca1  1  0.453338  0.711249  0.746237  1
  Ca  Ca2  1  0.288627  0.546718  0.254177  1
  Ca  Ca3  1  0.995403  0.004476  0.000000  1
  Ca  Ca4  1  0.297543  0.037383  0.743127  1
  Ca  Ca5  1  0.707102  0.965012  0.253763  1
  Ca  Ca6  1  0.705739  0.446247  0.742461  1
  Ca  Ca7  1  0.554416  0.294256  0.256873  1
  Ca  Ca8  1  0.500525  0.999835  0.500117  1
  Ca  Ca9  1  0.963278  0.703786  0.257539  1
  Ca  Ca10  1  0.000408  0.499718  0.499883  1
  Al  Al11  1  0.789430  0.212775  0.000000  1
  Si  Si12  1  0.211529  0.790544  0.000000  1
  Si  Si13  1  0.209726  0.210384  0.422180  1
  Si  Si14  1  0.787545  0.788203  0.577820  1
  Cl  Cl15  1  0.500982  0.499209  0.000000  1
  O  O16  1  0.183491  0.638026  0.817843  1
  O  O17  1  0.249382  0.751440  0.500645  1
  O  O18  1  0.004523  0.003961  0.705928  1
  O  O19  1  0.179460  0.362564  0.546701  1
  O  O20  1  0.021801  0.295945  1.000000  1
  O  O21  1  0.365649  0.820183  0.182157  1
  O  O22  1  0.298595  0.298032  0.294072  1
  O  O23  1  0.632759  0.815863  0.453299  1
  O  O24  1  0.361238  0.179630  0.545561  1
  O  O25  1  0.706052  0.705524  0.711359  1
  O  O26  1  0.700002  0.980096  0.000000  1
  O  O27  1  0.293994  0.006968  1.000000  1
  O  O28  1  0.626774  0.180965  0.804296  1
  O  O29  1  0.815677  0.634069  0.454439  1
  O  O30  1  0.994693  0.994165  0.288641  1
  O  O31  1  0.748737  0.250796  0.499355  1
  O  O32  1  0.822478  0.376669  0.195704  1
  O  O33  1  0.994652  0.702765  1.000000  1
