# generated using pymatgen
data_Ba20As13
_symmetry_space_group_name_H-M   'P 1'
_cell_length_a   8.74974424
_cell_length_b   8.74974458
_cell_length_c   43.82365530
_cell_angle_alpha   109.35673497
_cell_angle_beta   109.35673577
_cell_angle_gamma   109.63134859
_symmetry_Int_Tables_number   1
_chemical_formula_structural   Ba20As13
_chemical_formula_sum   'Ba40 As26'
_cell_volume   2584.89780769
_cell_formula_units_Z   2
loop_
 _symmetry_equiv_pos_site_id
 _symmetry_equiv_pos_as_xyz
  1  'x, y, z'
loop_
 _atom_site_type_symbol
 _atom_site_label
 _atom_site_symmetry_multiplicity
 _atom_site_fract_x
 _atom_site_fract_y
 _atom_site_fract_z
 _atom_site_occupancy
  Ba  Ba0  1  0.000904  0.879445  0.898938  1
  Ba  Ba1  1  0.006216  0.384757  0.901062  1
  Ba  Ba2  1  0.482691  0.009871  0.969980  1
  Ba  Ba3  1  0.988464  0.869005  0.696961  1
  Ba  Ba4  1  0.132790  0.159970  0.830020  1
  Ba  Ba5  1  0.988844  0.333090  0.694161  1
  Ba  Ba6  1  0.373601  0.483999  0.799503  1
  Ba  Ba7  1  0.988662  0.843757  0.498572  1
  Ba  Ba8  1  0.632384  0.621221  0.921717  1
  Ba  Ba9  1  0.523797  0.012634  0.878283  1
  Ba  Ba10  1  0.133355  0.121115  0.624075  1
  Ba  Ba11  1  0.986483  0.376085  0.500497  1
  Ba  Ba12  1  0.362283  0.518037  0.605839  1
  Ba  Ba13  1  0.515353  0.998250  0.770322  1
  Ba  Ba14  1  0.983999  0.873601  0.299503  1
  Ba  Ba15  1  0.610088  0.618853  0.723580  1
  Ba  Ba16  1  0.850896  0.495801  0.801428  1
  Ba  Ba17  1  0.500738  0.012977  0.675925  1
  Ba  Ba18  1  0.995801  0.350896  0.301428  1
  Ba  Ba19  1  0.121221  0.132384  0.421717  1
  Ba  Ba20  1  0.379445  0.500904  0.398938  1
  Ba  Ba21  1  0.500951  0.992186  0.576420  1
  Ba  Ba22  1  0.646639  0.663741  0.529678  1
  Ba  Ba23  1  0.884201  0.503660  0.603039  1
  Ba  Ba24  1  0.509871  0.982691  0.469980  1
  Ba  Ba25  1  0.118853  0.110088  0.223580  1
  Ba  Ba26  1  0.003660  0.384201  0.103039  1
  Ba  Ba27  1  0.369005  0.488464  0.196961  1
  Ba  Ba28  1  0.512634  0.023797  0.378283  1
  Ba  Ba29  1  0.659970  0.632790  0.330020  1
  Ba  Ba30  1  0.884757  0.506216  0.401062  1
  Ba  Ba31  1  0.498250  0.015353  0.270322  1
  Ba  Ba32  1  0.163741  0.146639  0.029678  1
  Ba  Ba33  1  0.343757  0.488662  0.998572  1
  Ba  Ba34  1  0.512977  0.000738  0.175925  1
  Ba  Ba35  1  0.621115  0.633355  0.124075  1
  Ba  Ba36  1  0.833090  0.488844  0.194161  1
  Ba  Ba37  1  0.492186  0.000951  0.076420  1
  Ba  Ba38  1  0.018037  0.862283  0.105839  1
  Ba  Ba39  1  0.876085  0.486483  0.000497  1
  As  As40  1  0.131047  0.751985  0.976864  1
  As  As41  1  0.246906  0.627966  0.872843  1
  As  As42  1  0.382689  0.263749  0.927157  1
  As  As43  1  0.249660  0.631752  0.677494  1
  As  As44  1  0.125382  0.748467  0.575572  1
  As  As45  1  0.611607  0.349460  0.846620  1
  As  As46  1  0.370606  0.247521  0.724428  1
  As  As47  1  0.746729  0.867667  0.823136  1
  As  As48  1  0.878507  0.116359  0.953380  1
  As  As49  1  0.251985  0.631047  0.476864  1
  As  As50  1  0.127966  0.746906  0.372843  1
  As  As51  1  0.744282  0.862190  0.622506  1
  As  As52  1  0.630885  0.380885  0.650000  1
  As  As53  1  0.882667  0.135585  0.751060  1
  As  As54  1  0.131752  0.749660  0.177494  1
  As  As55  1  0.763749  0.882689  0.427157  1
  As  As56  1  0.367667  0.246729  0.323136  1
  As  As57  1  0.616359  0.378507  0.453380  1
  As  As58  1  0.880284  0.127366  0.548940  1
  As  As59  1  0.248467  0.625382  0.075572  1
  As  As60  1  0.747521  0.870606  0.224428  1
  As  As61  1  0.362190  0.244282  0.122506  1
  As  As62  1  0.635585  0.382667  0.251060  1
  As  As63  1  0.849460  0.111607  0.346620  1
  As  As64  1  0.627366  0.380284  0.048940  1
  As  As65  1  0.880885  0.130885  0.150000  1
