# generated using pymatgen
data_Dy2(GePt3)3
_symmetry_space_group_name_H-M   'P 1'
_cell_length_a   7.81243393
_cell_length_b   7.81243464
_cell_length_c   10.10124824
_cell_angle_alpha   90.34627309
_cell_angle_beta   112.50049241
_cell_angle_gamma   119.82661904
_symmetry_Int_Tables_number   1
_chemical_formula_structural   Dy2(GePt3)3
_chemical_formula_sum   'Dy4 Ge6 Pt18'
_cell_volume   479.07527788
_cell_formula_units_Z   2
loop_
 _symmetry_equiv_pos_site_id
 _symmetry_equiv_pos_as_xyz
  1  'x, y, z'
loop_
 _atom_site_type_symbol
 _atom_site_label
 _atom_site_symmetry_multiplicity
 _atom_site_fract_x
 _atom_site_fract_y
 _atom_site_fract_z
 _atom_site_occupancy
  Dy  Dy0  1  0.495710  0.584232  0.250756  1
  Dy  Dy1  1  0.833476  0.244954  0.249244  1
  Dy  Dy2  1  0.504290  0.415768  0.749244  1
  Dy  Dy3  1  0.166524  0.755046  0.750756  1
  Ge  Ge4  1  0.321301  0.640684  0.502278  1
  Ge  Ge5  1  0.638406  0.819023  0.997722  1
  Ge  Ge6  1  0.361594  0.180977  0.002278  1
  Ge  Ge7  1  0.678699  0.359316  0.497722  1
  Ge  Ge8  1  0.000000  0.500000  0.000000  1
  Ge  Ge9  1  0.000000  0.000000  0.500000  1
  Pt  Pt10  1  0.626672  0.979011  0.429529  1
  Pt  Pt11  1  0.385138  0.859539  0.078657  1
  Pt  Pt12  1  0.717737  0.522309  0.077708  1
  Pt  Pt13  1  0.944601  0.640029  0.422292  1
  Pt  Pt14  1  0.280882  0.306481  0.421343  1
  Pt  Pt15  1  0.172316  0.704255  0.256887  1
  Pt  Pt16  1  0.947369  0.915430  0.243114  1
  Pt  Pt17  1  0.373328  0.020989  0.570471  1
  Pt  Pt18  1  0.055399  0.359971  0.577708  1
  Pt  Pt19  1  0.616835  0.866835  0.750000  1
  Pt  Pt20  1  0.049482  0.197143  0.070471  1
  Pt  Pt21  1  0.052631  0.084570  0.756887  1
  Pt  Pt22  1  0.282263  0.477691  0.922292  1
  Pt  Pt23  1  0.383165  0.133165  0.250000  1
  Pt  Pt24  1  0.614862  0.140461  0.921343  1
  Pt  Pt25  1  0.827684  0.295745  0.743113  1
  Pt  Pt26  1  0.950518  0.802857  0.929529  1
  Pt  Pt27  1  0.719118  0.693519  0.578657  1
