# generated using pymatgen
data_Ba2Ho(CuO2)4
_symmetry_space_group_name_H-M   'P 1'
_cell_length_a   3.87945961
_cell_length_b   3.89434834
_cell_length_c   13.87398135
_cell_angle_alpha   98.06793657
_cell_angle_beta   90.00000000
_cell_angle_gamma   90.00000000
_symmetry_Int_Tables_number   1
_chemical_formula_structural   Ba2Ho(CuO2)4
_chemical_formula_sum   'Ba2 Ho1 Cu4 O8'
_cell_volume   207.53303078
_cell_formula_units_Z   1
loop_
 _symmetry_equiv_pos_site_id
 _symmetry_equiv_pos_as_xyz
  1  'x, y, z'
loop_
 _atom_site_type_symbol
 _atom_site_label
 _atom_site_symmetry_multiplicity
 _atom_site_fract_x
 _atom_site_fract_y
 _atom_site_fract_z
 _atom_site_occupancy
  O  O0  1  0.000000  0.281545  0.563089  1
  O  O1  1  0.000000  0.718455  0.436911  1
  O  O2  1  0.000000  0.448508  0.897017  1
  O  O3  1  0.000000  0.551492  0.102983  1
  O  O4  1  0.500000  0.948390  0.896780  1
  O  O5  1  0.500000  0.051610  0.103220  1
  O  O6  1  0.000000  0.854751  0.709501  1
  O  O7  1  0.000000  0.145249  0.290499  1
  Cu  Cu8  1  0.000000  0.939083  0.878167  1
  Cu  Cu9  1  0.000000  0.060917  0.121833  1
  Cu  Cu10  1  0.000000  0.787397  0.574795  1
  Cu  Cu11  1  0.000000  0.212603  0.425205  1
  Ba  Ba12  1  0.500000  0.364453  0.728906  1
  Ba  Ba13  1  0.500000  0.635547  0.271094  1
  Ho  Ho14  1  0.500000  0.500000  0.000000  1
