# generated using pymatgen
data_Ca2Al4Si4H18O25
_symmetry_space_group_name_H-M   'P 1'
_cell_length_a   11.20390697
_cell_length_b   10.34812779
_cell_length_c   10.50800195
_cell_angle_alpha   88.93911429
_cell_angle_beta   88.16426885
_cell_angle_gamma   89.70156857
_symmetry_Int_Tables_number   1
_chemical_formula_structural   Ca2Al4Si4H18O25
_chemical_formula_sum   'Ca4 Al8 Si8 H36 O50'
_cell_volume   1217.44511611
_cell_formula_units_Z   2
loop_
 _symmetry_equiv_pos_site_id
 _symmetry_equiv_pos_as_xyz
  1  'x, y, z'
loop_
 _atom_site_type_symbol
 _atom_site_label
 _atom_site_symmetry_multiplicity
 _atom_site_fract_x
 _atom_site_fract_y
 _atom_site_fract_z
 _atom_site_occupancy
  Ca  Ca0  1  0.140455  0.291009  0.601881  1
  Ca  Ca1  1  0.350630  0.684792  0.033862  1
  Ca  Ca2  1  0.695433  0.303943  0.914242  1
  Ca  Ca3  1  0.603159  0.109681  0.597388  1
  Al  Al4  1  0.110564  0.596063  0.883211  1
  Al  Al5  1  0.149954  0.137221  0.088236  1
  Al  Al6  1  0.294064  0.904256  0.605932  1
  Al  Al7  1  0.341153  0.394021  0.374916  1
  Al  Al8  1  0.657748  0.581292  0.663430  1
  Al  Al9  1  0.736363  0.153172  0.355149  1
  Al  Al10  1  0.731312  0.847195  0.017620  1
  Al  Al11  1  0.913509  0.301019  0.186105  1
  Si  Si12  1  0.217361  0.900306  0.896915  1
  Si  Si13  1  0.146774  0.460955  0.148032  1
  Si  Si14  1  0.282472  0.568869  0.639908  1
  Si  Si15  1  0.289463  0.085881  0.354514  1
  Si  Si16  1  0.661235  0.826083  0.634729  1
  Si  Si17  1  0.617325  0.422887  0.429224  1
  Si  Si18  1  0.812862  0.579102  0.896361  1
  Si  Si19  1  0.855643  0.074419  0.096721  1
  H  H20  1  0.010045  0.052200  0.669954  1
  H  H21  1  0.025388  0.603604  0.279613  1
  H  H22  1  0.008187  0.026253  0.237894  1
  H  H23  1  0.200052  0.716292  0.517402  1
  H  H24  1  0.088212  0.951313  0.388808  1
  H  H25  1  0.058285  0.542144  0.507418  1
  H  H26  1  0.206769  0.751375  0.229602  1
  H  H27  1  0.343454  0.321740  0.942413  1
  H  H28  1  0.467059  0.141675  0.860566  1
  H  H29  1  0.371067  0.270313  0.611306  1
  H  H30  1  0.325408  0.251883  0.096448  1
  H  H31  1  0.442214  0.963646  0.731421  1
  H  H32  1  0.406554  0.502838  0.791952  1
  H  H33  1  0.450177  0.850892  0.244956  1
  H  H34  1  0.571677  0.039582  0.887858  1
  H  H35  1  0.523053  0.543111  0.179485  1
  H  H36  1  0.542613  0.043096  0.330858  1
  H  H37  1  0.637419  0.735288  0.828498  1
  H  H38  1  0.570252  0.726312  0.393215  1
  H  H39  1  0.523178  0.911315  0.010048  1
  H  H40  1  0.391910  0.023131  0.182533  1
  H  H41  1  0.686623  0.528593  0.059199  1
  H  H42  1  0.739445  0.691054  0.194884  1
  H  H43  1  0.560082  0.768373  0.187556  1
  H  H44  1  0.799715  0.981312  0.483833  1
  H  H45  1  0.513451  0.457909  0.051841  1
  H  H46  1  0.820710  0.927957  0.725055  1
  H  H47  1  0.376066  0.293297  0.760746  1
  H  H48  1  0.909947  0.605641  0.455427  1
  H  H49  1  0.040478  0.889597  0.748667  1
  H  H50  1  0.943106  0.109371  0.552649  1
  H  H51  1  0.977970  0.255102  0.865505  1
  H  H52  1  0.790226  0.468845  0.336300  1
  H  H53  1  0.950401  0.935722  0.859055  1
  H  H54  1  0.965374  0.469211  0.691178  1
  H  H55  1  0.947918  0.954146  0.395365  1
  O  O56  1  0.958906  0.923193  0.765920  1
  O  O57  1  0.016633  0.935925  0.338245  1
  O  O58  1  0.002238  0.417833  0.513106  1
  O  O59  1  0.069162  0.323987  0.131041  1
  O  O60  1  0.072399  0.642911  0.489173  1
  O  O61  1  0.155617  0.754068  0.915270  1
  O  O62  1  0.206125  0.930576  0.741497  1
  O  O63  1  0.143339  0.013433  0.973587  1
  O  O64  1  0.166327  0.535061  0.731389  1
  O  O65  1  0.279574  0.225332  0.024187  1
  O  O66  1  0.192725  0.514631  0.005977  1
  O  O67  1  0.287240  0.469242  0.521201  1
  O  O68  1  0.272518  0.723441  0.572429  1
  O  O69  1  0.259512  0.440209  0.240447  1
  O  O70  1  0.249914  0.979234  0.463859  1
  O  O71  1  0.196099  0.101950  0.243693  1
  O  O72  1  0.311355  0.227250  0.422208  1
  O  O73  1  0.414622  0.370756  0.894251  1
  O  O74  1  0.583060  0.476423  0.571552  1
  O  O75  1  0.353550  0.880185  0.943817  1
  O  O76  1  0.442621  0.953915  0.638771  1
  O  O77  1  0.547337  0.119386  0.827857  1
  O  O78  1  0.468865  0.776124  0.191808  1
  O  O79  1  0.595499  0.075769  0.395245  1
  O  O80  1  0.510089  0.340904  0.983898  1
  O  O81  1  0.494563  0.417223  0.348780  1
  O  O82  1  0.525396  0.552110  0.086688  1
  O  O83  1  0.700846  0.768501  0.163157  1
  O  O84  1  0.737281  0.705846  0.574699  1
  O  O85  1  0.054485  0.576193  0.193585  1
  O  O86  1  0.732351  0.942018  0.708330  1
  O  O87  1  0.818182  0.073350  0.482726  1
  O  O88  1  0.736838  0.502658  0.786110  1
  O  O89  1  0.685203  0.285348  0.455842  1
  O  O90  1  0.587469  0.728513  0.749481  1
  O  O91  1  0.765331  0.494097  0.026002  1
  O  O92  1  0.761576  0.725691  0.903757  1
  O  O93  1  0.715261  0.516741  0.348892  1
  O  O94  1  0.849381  0.958544  -0.002606  1
  O  O95  1  0.765224  0.057915  0.217064  1
  O  O96  1  0.408499  0.020939  0.273259  1
  O  O97  1  0.843486  0.223476  0.037316  1
  O  O98  1  0.398825  0.576098  0.730358  1
  O  O99  1  0.602664  0.939017  0.979107  1
  O  O100  1  0.333376  0.246286  0.693614  1
  O  O101  1  0.952927  0.389083  0.644081  1
  O  O102  1  0.955897  0.563469  0.873591  1
  O  O103  1  0.965680  0.668844  0.414768  1
  O  O104  1  0.021475  0.113191  0.596726  1
  O  O105  1  0.992196  0.090906  0.157659  1
