# generated using pymatgen
data_Ca2La2MgTi3O12
_symmetry_space_group_name_H-M   'P 1'
_cell_length_a   5.51821592
_cell_length_b   5.58067967
_cell_length_c   15.59867548
_cell_angle_alpha   90.00014856
_cell_angle_beta   90.00000000
_cell_angle_gamma   90.00000000
_symmetry_Int_Tables_number   1
_chemical_formula_structural   Ca2La2MgTi3O12
_chemical_formula_sum   'Ca4 La4 Mg2 Ti6 O24'
_cell_volume   480.36737923
_cell_formula_units_Z   2
loop_
 _symmetry_equiv_pos_site_id
 _symmetry_equiv_pos_as_xyz
  1  'x, y, z'
loop_
 _atom_site_type_symbol
 _atom_site_label
 _atom_site_symmetry_multiplicity
 _atom_site_fract_x
 _atom_site_fract_y
 _atom_site_fract_z
 _atom_site_occupancy
  Ca  Ca0  1  0.009602  0.962176  0.879169  1
  Ca  Ca1  1  0.490398  0.462176  0.879169  1
  Ca  Ca2  1  0.509602  0.537824  0.120831  1
  Ca  Ca3  1  0.990398  0.037824  0.120831  1
  La  La4  1  0.015342  0.968610  0.380895  1
  La  La5  1  0.484658  0.468610  0.380895  1
  La  La6  1  0.515342  0.531390  0.619105  1
  La  La7  1  0.984658  0.031390  0.619105  1
  Mg  Mg8  1  0.500000  0.000000  0.500000  1
  Mg  Mg9  1  0.000000  0.500000  0.500000  1
  Ti  Ti10  1  0.000000  0.500000  0.000000  1
  Ti  Ti11  1  0.505916  0.990880  0.245165  1
  Ti  Ti12  1  0.500000  0.000000  0.000000  1
  Ti  Ti13  1  0.494084  0.009120  0.754835  1
  Ti  Ti14  1  0.994084  0.490880  0.245165  1
  Ti  Ti15  1  0.005916  0.509120  0.754835  1
  O  O16  1  0.083718  0.481024  0.121642  1
  O  O17  1  0.079909  0.483613  0.635888  1
  O  O18  1  0.221663  0.227077  0.268666  1
  O  O19  1  0.217034  0.217050  0.477757  1
  O  O20  1  0.221582  0.216625  0.777754  1
  O  O21  1  0.218674  0.218665  0.978173  1
  O  O22  1  0.278337  0.727077  0.268666  1
  O  O23  1  0.282966  0.717050  0.477757  1
  O  O24  1  0.278418  0.716625  0.777754  1
  O  O25  1  0.281326  0.718665  0.978173  1
  O  O26  1  0.416282  0.981024  0.121642  1
  O  O27  1  0.420091  0.983613  0.635888  1
  O  O28  1  0.583718  0.018976  0.878358  1
  O  O29  1  0.579909  0.016387  0.364112  1
  O  O30  1  0.718674  0.281335  0.021827  1
  O  O31  1  0.721582  0.283375  0.222246  1
  O  O32  1  0.717034  0.282950  0.522243  1
  O  O33  1  0.721663  0.272923  0.731334  1
  O  O34  1  0.781326  0.781335  0.021827  1
  O  O35  1  0.778418  0.783375  0.222246  1
  O  O36  1  0.782966  0.782950  0.522243  1
  O  O37  1  0.778337  0.772923  0.731334  1
  O  O38  1  0.920091  0.516387  0.364112  1
  O  O39  1  0.916282  0.518976  0.878358  1
