# generated using pymatgen
data_Cu11S20
_symmetry_space_group_name_H-M   'P 1'
_cell_length_a   3.70194782
_cell_length_b   3.70194777
_cell_length_c   69.68520385
_cell_angle_alpha   57.91081597
_cell_angle_beta   57.91081641
_cell_angle_gamma   60.00000069
_symmetry_Int_Tables_number   1
_chemical_formula_structural   Cu11S20
_chemical_formula_sum   'Cu11 S20'
_cell_volume   653.16744863
_cell_formula_units_Z   1
loop_
 _symmetry_equiv_pos_site_id
 _symmetry_equiv_pos_as_xyz
  1  'x, y, z'
loop_
 _atom_site_type_symbol
 _atom_site_label
 _atom_site_symmetry_multiplicity
 _atom_site_fract_x
 _atom_site_fract_y
 _atom_site_fract_z
 _atom_site_occupancy
  Cu  Cu0  1  0.739097  0.739097  0.089135  1
  Cu  Cu1  1  0.779090  0.779090  0.483136  1
  Cu  Cu2  1  0.835238  0.835238  0.574714  1
  Cu  Cu3  1  0.793549  0.793549  0.630968  1
  Cu  Cu4  1  0.769684  0.769684  0.684547  1
  Cu  Cu5  1  0.755001  0.755001  0.736750  1
  Cu  Cu6  1  0.744068  0.744068  0.788390  1
  Cu  Cu7  1  0.734379  0.734379  0.839843  1
  Cu  Cu8  1  0.723004  0.723004  0.891549  1
  Cu  Cu9  1  0.704187  0.704187  0.944372  1
  Cu  Cu10  1  0.679943  0.679943  0.998009  1
  S  S11  1  -0.100283  -0.100283  0.015042  1
  S  S12  1  -0.000200  -0.000200  0.050030  1
  S  S13  1  -0.010044  -0.010044  0.101507  1
  S  S14  1  0.870600  0.870600  0.169410  1
  S  S15  1  0.868084  0.868084  0.269787  1
  S  S16  1  0.113981  0.113981  0.182903  1
  S  S17  1  -0.196945  -0.196945  0.379542  1
  S  S18  1  0.109305  0.109305  0.283604  1
  S  S19  1  -0.017970  -0.017970  0.402695  1
  S  S20  1  0.035187  0.035187  0.494722  1
  S  S21  1  0.150987  0.150987  0.427352  1
  S  S22  1  0.092559  0.092559  0.536116  1
  S  S23  1  0.025560  0.025560  0.696166  1
  S  S24  1  0.069741  0.069741  0.589539  1
  S  S25  1  0.044354  0.044354  0.643347  1
  S  S26  1  0.013649  0.013649  0.747953  1
  S  S27  1  0.004133  0.004133  0.799380  1
  S  S28  1  -0.007263  -0.007263  0.851090  1
  S  S29  1  -0.023841  -0.023841  0.903576  1
  S  S30  1  -0.048836  -0.048836  0.957325  1
