# generated using pymatgen
data_NaSr2NdTi4O12
_symmetry_space_group_name_H-M   'P 1'
_cell_length_a   5.50411228
_cell_length_b   5.50410869
_cell_length_c   33.24437901
_cell_angle_alpha   119.78471274
_cell_angle_beta   119.78466106
_cell_angle_gamma   89.99971930
_symmetry_Int_Tables_number   1
_chemical_formula_structural   NaSr2NdTi4O12
_chemical_formula_sum   'Na3 Sr6 Nd3 Ti12 O36'
_cell_volume   716.77196914
_cell_formula_units_Z   3
loop_
 _symmetry_equiv_pos_site_id
 _symmetry_equiv_pos_as_xyz
  1  'x, y, z'
loop_
 _atom_site_type_symbol
 _atom_site_label
 _atom_site_symmetry_multiplicity
 _atom_site_fract_x
 _atom_site_fract_y
 _atom_site_fract_z
 _atom_site_occupancy
  Na  Na0  1  0.747549  0.247549  0.915867  1
  Na  Na1  1  0.750011  0.250012  0.750001  1
  Na  Na2  1  0.752487  0.252489  0.584134  1
  Sr  Sr3  1  0.254248  0.754252  0.418078  1
  Sr  Sr4  1  0.249978  0.749982  0.250000  1
  Sr  Sr5  1  0.753159  0.253166  0.417713  1
  Sr  Sr6  1  0.245758  0.745750  0.081923  1
  Sr  Sr7  1  0.750015  0.250016  0.250000  1
  Sr  Sr8  1  0.746853  0.246850  0.082288  1
  Nd  Nd9  1  0.247799  0.747796  0.915939  1
  Nd  Nd10  1  0.250041  0.750043  0.749994  1
  Nd  Nd11  1  0.252224  0.752222  0.584059  1
  Ti  Ti12  1  0.002393  0.002349  0.667443  1
  Ti  Ti13  1  0.497650  0.497722  0.832555  1
  Ti  Ti14  1  0.502340  0.502406  0.667443  1
  Ti  Ti15  1  0.997728  0.997644  0.832555  1
  Ti  Ti16  1  0.002261  0.002271  0.334087  1
  Ti  Ti17  1  0.508199  0.508219  0.502732  1
  Ti  Ti18  1  0.997728  0.997723  0.165913  1
  Ti  Ti19  1  0.502269  0.502261  0.334087  1
  Ti  Ti20  1  0.008215  0.008199  0.502732  1
  Ti  Ti21  1  0.991824  0.991784  0.997265  1
  Ti  Ti22  1  0.497722  0.497730  0.165913  1
  Ti  Ti23  1  0.491782  0.491826  0.997265  1
  O  O24  1  0.244957  0.244975  0.915002  1
  O  O25  1  0.209062  0.308198  0.836214  1
  O  O26  1  0.287013  0.787015  0.829235  1
  O  O27  1  0.249966  0.249982  0.750000  1
  O  O28  1  0.744979  0.744964  0.915002  1
  O  O29  1  0.212983  0.311582  0.670762  1
  O  O30  1  0.688398  0.188396  0.829233  1
  O  O31  1  0.290941  0.790937  0.663795  1
  O  O32  1  0.808195  0.709058  0.836212  1
  O  O33  1  0.254998  0.255027  0.585000  1
  O  O34  1  0.749988  0.749970  0.750000  1
  O  O35  1  0.222434  0.306588  0.504838  1
  O  O36  1  0.691782  0.191780  0.663784  1
  O  O37  1  0.284936  0.784936  0.501597  1
  O  O38  1  0.811580  0.712977  0.670761  1
  O  O39  1  0.254914  0.254944  0.418321  1
  O  O40  1  0.755028  0.754993  0.584999  1
  O  O41  1  0.227315  0.278559  0.334326  1
  O  O42  1  0.724572  0.224572  0.501590  1
  O  O43  1  0.276260  0.776259  0.333614  1
  O  O44  1  0.806588  0.722436  0.504839  1
  O  O45  1  0.249982  0.250020  0.250001  1
  O  O46  1  0.754947  0.754914  0.418321  1
  O  O47  1  0.223755  0.274698  0.166395  1
  O  O48  1  0.725241  0.225240  0.333596  1
  O  O49  1  0.272712  0.772712  0.165683  1
  O  O50  1  0.778561  0.727310  0.334326  1
  O  O51  1  0.245055  0.245076  0.081680  1
  O  O52  1  0.750022  0.749981  0.250001  1
  O  O53  1  0.215045  0.275390  0.998409  1
  O  O54  1  0.721443  0.221442  0.165669  1
  O  O55  1  0.277556  0.777556  0.995164  1
  O  O56  1  0.774696  0.723754  0.166394  1
  O  O57  1  0.745081  0.745054  0.081680  1
  O  O58  1  0.693395  0.193397  0.995159  1
  O  O59  1  0.775389  0.715046  0.998409  1
