# generated using pymatgen
data_Hg2H12C4I5N
_symmetry_space_group_name_H-M   'P 1'
_cell_length_a   14.26063338
_cell_length_b   14.78457096
_cell_length_c   18.57608113
_cell_angle_alpha   90.00000000
_cell_angle_beta   90.00000000
_cell_angle_gamma   90.00000000
_symmetry_Int_Tables_number   1
_chemical_formula_structural   Hg2H12C4I5N
_chemical_formula_sum   'Hg16 H96 C32 I40 N8'
_cell_volume   3916.53164715
_cell_formula_units_Z   8
loop_
 _symmetry_equiv_pos_site_id
 _symmetry_equiv_pos_as_xyz
  1  'x, y, z'
loop_
 _atom_site_type_symbol
 _atom_site_label
 _atom_site_symmetry_multiplicity
 _atom_site_fract_x
 _atom_site_fract_y
 _atom_site_fract_z
 _atom_site_occupancy
  Hg  Hg0  1  0.219208  0.711524  0.885081  1
  Hg  Hg1  1  0.219208  0.211524  0.614919  1
  Hg  Hg2  1  0.719208  0.788476  0.885081  1
  Hg  Hg3  1  0.924115  0.099936  0.546272  1
  Hg  Hg4  1  0.719208  0.288476  0.614919  1
  Hg  Hg5  1  0.280792  0.711524  0.385081  1
  Hg  Hg6  1  0.924115  0.599936  0.953728  1
  Hg  Hg7  1  0.575885  0.099936  0.046272  1
  Hg  Hg8  1  0.280792  0.211524  0.114919  1
  Hg  Hg9  1  0.424115  0.400064  0.546272  1
  Hg  Hg10  1  0.780792  0.288476  0.114919  1
  Hg  Hg11  1  0.575885  0.599936  0.453728  1
  Hg  Hg12  1  0.424115  0.900064  0.953728  1
  Hg  Hg13  1  0.075885  0.900064  0.453728  1
  Hg  Hg14  1  0.780792  0.788476  0.385081  1
  Hg  Hg15  1  0.075885  0.400064  0.046272  1
  H  H16  1  0.455633  0.042187  0.299265  1
  H  H17  1  0.204274  0.353777  0.390130  1
  H  H18  1  0.559288  0.058946  0.245929  1
  H  H19  1  0.455633  0.542187  0.200735  1
  H  H20  1  0.009840  0.076509  0.952505  1
  H  H21  1  0.198899  0.880232  0.204259  1
  H  H22  1  0.043453  0.784308  0.198339  1
  H  H23  1  0.704274  0.646223  0.109870  1
  H  H24  1  0.947008  0.464890  0.693439  1
  H  H25  1  0.801101  0.619768  0.704259  1
  H  H26  1  0.955633  0.957813  0.200735  1
  H  H27  1  0.050714  0.523759  0.422340  1
  H  H28  1  0.990160  0.423491  0.452505  1
  H  H29  1  0.567874  0.727874  0.103975  1
  H  H30  1  0.295726  0.853777  0.609870  1
  H  H31  1  0.067874  0.272126  0.396025  1
  H  H32  1  0.301101  0.880232  0.704259  1
  H  H33  1  0.567874  0.227874  0.396025  1
  H  H34  1  0.949286  0.476241  0.577660  1
  H  H35  1  0.208038  0.469510  0.361100  1
  H  H36  1  0.059288  0.441054  0.245929  1
  H  H37  1  0.704274  0.146223  0.390130  1
  H  H38  1  0.940712  0.058946  0.745929  1
  H  H39  1  0.957483  0.318160  0.366974  1
  H  H40  1  0.544367  0.957813  0.700735  1
  H  H41  1  0.542517  0.318160  0.866974  1
  H  H42  1  0.544367  0.457813  0.799265  1
  H  H43  1  0.440712  0.941054  0.754071  1
  H  H44  1  0.447008  0.035110  0.693439  1
  H  H45  1  0.204274  0.853777  0.109870  1
  H  H46  1  0.698899  0.119768  0.295741  1
  H  H47  1  0.509840  0.923491  0.547495  1
  H  H48  1  0.795726  0.146223  0.890130  1
  H  H49  1  0.801101  0.119768  0.795741  1
  H  H50  1  0.456547  0.284308  0.801661  1
  H  H51  1  0.432126  0.272126  0.896025  1
  H  H52  1  0.457483  0.181840  0.366974  1
  H  H53  1  0.457483  0.681840  0.133026  1
  H  H54  1  0.456547  0.784308  0.698339  1
  H  H55  1  0.698899  0.619768  0.204259  1
  H  H56  1  0.947008  0.964890  0.806561  1
  H  H57  1  0.490160  0.076509  0.452505  1
  H  H58  1  0.301101  0.380232  0.795741  1
  H  H59  1  0.295726  0.353777  0.890130  1
  H  H60  1  0.043453  0.284308  0.301661  1
  H  H61  1  0.449286  0.023759  0.577660  1
  H  H62  1  0.614237  0.065142  0.465504  1
  H  H63  1  0.198899  0.380232  0.295741  1
  H  H64  1  0.550714  0.476241  0.077660  1
  H  H65  1  0.955633  0.457813  0.299265  1
  H  H66  1  0.432126  0.772126  0.603975  1
  H  H67  1  0.114237  0.934858  0.034496  1
  H  H68  1  0.940712  0.558946  0.754071  1
  H  H69  1  0.050714  0.023759  0.077660  1
  H  H70  1  0.490160  0.576509  0.047495  1
  H  H71  1  0.791962  0.030490  0.861100  1
  H  H72  1  0.956547  0.715692  0.698339  1
  H  H73  1  0.440712  0.441054  0.745929  1
  H  H74  1  0.044367  0.542187  0.700735  1
  H  H75  1  0.044367  0.042187  0.799265  1
  H  H76  1  0.385763  0.434858  0.965504  1
  H  H77  1  0.614237  0.565142  0.034496  1
  H  H78  1  0.542517  0.818160  0.633026  1
  H  H79  1  0.291962  0.469510  0.861100  1
  H  H80  1  0.059288  0.941054  0.254071  1
  H  H81  1  0.559288  0.558946  0.254071  1
  H  H82  1  0.552992  0.464890  0.193439  1
  H  H83  1  0.932126  0.727874  0.603975  1
  H  H84  1  0.114237  0.434858  0.465504  1
  H  H85  1  0.543453  0.215692  0.301661  1
  H  H86  1  0.791962  0.530490  0.638900  1
  H  H87  1  0.509840  0.423491  0.952505  1
  H  H88  1  0.990160  0.923491  0.047495  1
  H  H89  1  0.042517  0.181840  0.866974  1
  H  H90  1  0.708038  0.530490  0.138900  1
  H  H91  1  0.949286  0.976241  0.922340  1
  H  H92  1  0.052992  0.035110  0.193439  1
  H  H93  1  0.795726  0.646223  0.609870  1
  H  H94  1  0.291962  0.969510  0.638900  1
  H  H95  1  0.208038  0.969510  0.138900  1
  H  H96  1  0.067874  0.772126  0.103975  1
  H  H97  1  0.385763  0.934858  0.534496  1
  H  H98  1  0.550714  0.976241  0.422340  1
  H  H99  1  0.956547  0.215692  0.801661  1
  H  H100  1  0.447008  0.535110  0.806561  1
  H  H101  1  0.009840  0.576509  0.547495  1
  H  H102  1  0.543453  0.715692  0.198339  1
  H  H103  1  0.052992  0.535110  0.306561  1
  H  H104  1  0.708038  0.030490  0.361100  1
  H  H105  1  0.885763  0.565142  0.534496  1
  H  H106  1  0.957483  0.818160  0.133026  1
  H  H107  1  0.042517  0.681840  0.633026  1
  H  H108  1  0.449286  0.523759  0.922340  1
  H  H109  1  0.552992  0.964890  0.306561  1
  H  H110  1  0.932126  0.227874  0.896025  1
  H  H111  1  0.885763  0.065142  0.965504  1
  C  C112  1  0.055285  0.950557  0.070225  1
  C  C113  1  0.179300  0.402396  0.350050  1
  C  C114  1  0.679300  0.597604  0.149950  1
  C  C115  1  0.055285  0.450557  0.429775  1
  C  C116  1  0.532163  0.535535  0.201791  1
  C  C117  1  0.967427  0.186422  0.855228  1
  C  C118  1  0.467427  0.813578  0.644772  1
  C  C119  1  0.320700  0.902396  0.649950  1
  C  C120  1  0.532573  0.186422  0.355228  1
  C  C121  1  0.532163  0.035535  0.298209  1
  C  C122  1  0.820700  0.097604  0.850050  1
  C  C123  1  0.555285  0.049443  0.429775  1
  C  C124  1  0.532573  0.686422  0.144772  1
  C  C125  1  0.444715  0.950557  0.570225  1
  C  C126  1  0.032163  0.964465  0.201791  1
  C  C127  1  0.555285  0.549443  0.070225  1
  C  C128  1  0.467837  0.464465  0.798209  1
  C  C129  1  0.032573  0.313578  0.355228  1
  C  C130  1  0.179300  0.902396  0.149950  1
  C  C131  1  0.944715  0.049443  0.929775  1
  C  C132  1  0.679300  0.097604  0.350050  1
  C  C133  1  0.967837  0.535535  0.701791  1
  C  C134  1  0.467427  0.313578  0.855228  1
  C  C135  1  0.944715  0.549443  0.570225  1
  C  C136  1  0.820700  0.597604  0.649950  1
  C  C137  1  0.032163  0.464465  0.298209  1
  C  C138  1  0.967427  0.686422  0.644772  1
  C  C139  1  0.967837  0.035535  0.798209  1
  C  C140  1  0.444715  0.450557  0.929775  1
  C  C141  1  0.467837  0.964465  0.701791  1
  C  C142  1  0.320700  0.402396  0.850050  1
  C  C143  1  0.032573  0.813578  0.144772  1
  I  I144  1  0.748509  0.082731  0.615924  1
  I  I145  1  0.256319  0.170146  0.474820  1
  I  I146  1  0.254455  0.149068  0.250987  1
  I  I147  1  0.504605  0.744540  0.889990  1
  I  I148  1  0.245545  0.649068  0.749013  1
  I  I149  1  0.256319  0.670146  0.025180  1
  I  I150  1  0.251491  0.917269  0.384076  1
  I  I151  1  0.743681  0.329854  0.974820  1
  I  I152  1  0.751491  0.082731  0.115924  1
  I  I153  1  0.550833  0.554835  0.599562  1
  I  I154  1  0.245545  0.149068  0.750987  1
  I  I155  1  0.254455  0.649068  0.249013  1
  I  I156  1  0.004605  0.755460  0.889990  1
  I  I157  1  0.504605  0.244540  0.610010  1
  I  I158  1  0.050833  0.945165  0.599562  1
  I  I159  1  0.949167  0.554835  0.099562  1
  I  I160  1  0.449167  0.945165  0.099562  1
  I  I161  1  0.949167  0.054835  0.400438  1
  I  I162  1  0.251491  0.417269  0.115924  1
  I  I163  1  0.550833  0.054835  0.900438  1
  I  I164  1  0.449167  0.445165  0.400438  1
  I  I165  1  0.995395  0.244540  0.110010  1
  I  I166  1  0.756319  0.829854  0.025180  1
  I  I167  1  0.995395  0.744540  0.389990  1
  I  I168  1  0.243681  0.170146  0.974820  1
  I  I169  1  0.745545  0.350932  0.750987  1
  I  I170  1  0.050833  0.445165  0.900438  1
  I  I171  1  0.243681  0.670146  0.525180  1
  I  I172  1  0.754455  0.850932  0.249013  1
  I  I173  1  0.248509  0.917269  0.884076  1
  I  I174  1  0.495395  0.755460  0.389990  1
  I  I175  1  0.248509  0.417269  0.615924  1
  I  I176  1  0.754455  0.350932  0.250987  1
  I  I177  1  0.743681  0.829854  0.525180  1
  I  I178  1  0.495395  0.255460  0.110010  1
  I  I179  1  0.004605  0.255460  0.610010  1
  I  I180  1  0.748509  0.582731  0.884076  1
  I  I181  1  0.756319  0.329854  0.474820  1
  I  I182  1  0.751491  0.582731  0.384076  1
  I  I183  1  0.745545  0.850932  0.749013  1
  N  N184  1  0.574165  0.592713  0.142651  1
  N  N185  1  0.074165  0.407287  0.357349  1
  N  N186  1  0.425835  0.407287  0.857349  1
  N  N187  1  0.925835  0.092713  0.857349  1
  N  N188  1  0.925835  0.592713  0.642651  1
  N  N189  1  0.574165  0.092713  0.357349  1
  N  N190  1  0.425835  0.907287  0.642651  1
  N  N191  1  0.074165  0.907287  0.142651  1
