# generated using pymatgen
data_Ba3LiTi5Nb3O21
_symmetry_space_group_name_H-M   'P 1'
_cell_length_a   9.27432254
_cell_length_b   9.31242541
_cell_length_c   11.67655097
_cell_angle_alpha   90.00709770
_cell_angle_beta   90.14045263
_cell_angle_gamma   120.36682210
_symmetry_Int_Tables_number   1
_chemical_formula_structural   Ba3LiTi5Nb3O21
_chemical_formula_sum   'Ba6 Li2 Ti10 Nb6 O42'
_cell_volume   870.10400726
_cell_formula_units_Z   2
loop_
 _symmetry_equiv_pos_site_id
 _symmetry_equiv_pos_as_xyz
  1  'x, y, z'
loop_
 _atom_site_type_symbol
 _atom_site_label
 _atom_site_symmetry_multiplicity
 _atom_site_fract_x
 _atom_site_fract_y
 _atom_site_fract_z
 _atom_site_occupancy
  Ba  Ba0  1  0.005826  0.601376  0.252331  1
  Ba  Ba1  1  0.397751  0.398598  0.245960  1
  Ba  Ba2  1  0.597593  0.597859  0.757068  1
  Ba  Ba3  1  0.393616  0.991793  0.747104  1
  Ba  Ba4  1  0.597286  0.004147  0.256290  1
  Ba  Ba5  1  -0.000161  0.403716  0.750327  1
  Li  Li6  1  0.010664  0.012831  0.261295  1
  Li  Li7  1  0.997409  0.988928  0.753821  1
  Ti  Ti8  1  0.012128  0.745740  0.909070  1
  Ti  Ti9  1  0.997102  0.739070  0.590494  1
  Ti  Ti10  1  0.008547  0.268244  0.409242  1
  Ti  Ti11  1  0.327389  0.672708  0.504915  1
  Ti  Ti12  1  0.251427  0.248800  0.913415  1
  Ti  Ti13  1  0.256559  0.996546  0.090326  1
  Ti  Ti14  1  0.247139  0.986270  0.410038  1
  Ti  Ti15  1  0.763807  0.746926  0.090215  1
  Ti  Ti16  1  0.740789  0.004135  0.589767  1
  Ti  Ti17  1  0.000239  0.253166  0.092199  1
  Nb  Nb18  1  0.336402  0.659643  0.005449  1
  Nb  Nb19  1  0.250997  0.256133  0.588160  1
  Nb  Nb20  1  0.738502  0.746575  0.411264  1
  Nb  Nb21  1  0.665137  0.328883  0.495430  1
  Nb  Nb22  1  0.668270  0.337765  0.000414  1
  Nb  Nb23  1  0.746706  0.001131  0.911647  1
  O  O24  1  0.205571  0.996910  0.928825  1
  O  O25  1  0.167135  0.680048  0.897091  1
  O  O26  1  0.172754  0.686781  0.600704  1
  O  O27  1  0.314919  0.831092  0.399097  1
  O  O28  1  0.319095  0.833165  0.099185  1
  O  O29  1  0.993832  0.205955  0.927629  1
  O  O30  1  0.003135  0.218189  0.570388  1
  O  O31  1  0.171483  0.483712  0.107074  1
  O  O32  1  0.166762  0.488264  0.400943  1
  O  O33  1  0.309631  0.477171  0.900537  1
  O  O34  1  0.322659  0.490694  0.599448  1
  O  O35  1  0.193558  0.197518  0.750444  1
  O  O36  1  0.199706  0.205008  0.071439  1
  O  O37  1  0.201508  0.207826  0.422288  1
  O  O38  1  0.513160  0.828060  0.891480  1
  O  O39  1  0.518408  0.835856  0.594425  1
  O  O40  1  0.524031  0.684050  0.094623  1
  O  O41  1  0.511187  0.682014  0.391530  1
  O  O42  1  0.203173  0.995726  0.248649  1
  O  O43  1  0.209562  0.005835  0.571109  1
  O  O44  1  0.488063  0.321252  0.603276  1
  O  O45  1  0.477844  0.315125  0.899821  1
  O  O46  1  0.478867  0.165515  0.401134  1
  O  O47  1  0.482413  0.168229  0.101576  1
  O  O48  1  0.798884  0.806071  0.929481  1
  O  O49  1  0.788069  0.777136  0.575963  1
  O  O50  1  0.808202  0.805970  0.248240  1
  O  O51  1  0.683859  0.512784  0.393852  1
  O  O52  1  0.684888  0.518419  0.104897  1
  O  O53  1  0.838608  0.514822  0.597777  1
  O  O54  1  0.826760  0.520191  0.897709  1
  O  O55  1  0.004283  0.792767  0.749098  1
  O  O56  1  0.996123  0.783434  0.071301  1
  O  O57  1  0.003736  0.795004  0.428963  1
  O  O58  1  0.684316  0.168952  0.603582  1
  O  O59  1  0.678895  0.169327  0.894542  1
  O  O60  1  0.837704  0.322769  0.095879  1
  O  O61  1  0.826258  0.309154  0.394571  1
  O  O62  1  0.787846  0.007069  0.077482  1
  O  O63  1  0.792795  0.994333  0.431533  1
  O  O64  1  0.801445  0.000146  0.746443  1
  O  O65  1  0.997747  0.206676  0.249730  1
