# generated using pymatgen
data_Tb11CuSe16
_symmetry_space_group_name_H-M   'P 1'
_cell_length_a   30.23049772
_cell_length_b   8.78270676
_cell_length_c   8.69663546
_cell_angle_alpha   90.00000000
_cell_angle_beta   54.87549644
_cell_angle_gamma   54.47561367
_symmetry_Int_Tables_number   1
_chemical_formula_structural   Tb11CuSe16
_chemical_formula_sum   'Tb22 Cu2 Se32'
_cell_volume   1329.12916499
_cell_formula_units_Z   2
loop_
 _symmetry_equiv_pos_site_id
 _symmetry_equiv_pos_as_xyz
  1  'x, y, z'
loop_
 _atom_site_type_symbol
 _atom_site_label
 _atom_site_symmetry_multiplicity
 _atom_site_fract_x
 _atom_site_fract_y
 _atom_site_fract_z
 _atom_site_occupancy
  Tb  Tb0  1  0.068613  0.611237  0.364777  1
  Tb  Tb1  1  0.126088  0.261154  0.622640  1
  Tb  Tb2  1  0.188930  0.858657  0.124485  1
  Tb  Tb3  1  0.250000  0.126215  0.750000  1
  Tb  Tb4  1  0.126813  0.745039  0.860922  1
  Tb  Tb5  1  0.311070  0.614377  0.375515  1
  Tb  Tb6  1  0.373187  0.252289  0.639078  1
  Tb  Tb7  1  0.501921  0.372389  0.243883  1
  Tb  Tb8  1  0.431387  0.885690  0.135223  1
  Tb  Tb9  1  0.498079  0.127611  0.751569  1
  Tb  Tb10  1  0.373912  0.765504  0.877360  1
  Tb  Tb11  1  0.568613  0.614310  0.360770  1
  Tb  Tb12  1  0.626813  0.247711  0.631828  1
  Tb  Tb13  1  0.750000  0.373785  0.250000  1
  Tb  Tb14  1  0.688930  0.885623  0.119796  1
  Tb  Tb15  1  0.626088  0.734496  0.873010  1
  Tb  Tb16  1  0.811070  0.641343  0.380204  1
  Tb  Tb17  1  0.873912  0.238846  0.626990  1
  Tb  Tb18  1  0.931387  0.888763  0.139230  1
  Tb  Tb19  1  0.998079  0.380075  0.256117  1
  Tb  Tb20  1  0.001921  0.119925  0.748431  1
  Tb  Tb21  1  0.873187  0.754961  0.868172  1
  Cu  Cu22  1  0.250000  0.373873  0.250000  1
  Cu  Cu23  1  0.750000  0.126127  0.750000  1
  Se  Se24  1  0.087784  0.502694  0.002825  1
  Se  Se25  1  0.034276  0.363058  0.503112  1
  Se  Se26  1  0.213458  0.127868  0.138698  1
  Se  Se27  1  0.036298  0.995597  0.356461  1
  Se  Se28  1  0.217213  0.481145  0.008491  1
  Se  Se29  1  0.096038  0.640031  0.624959  1
  Se  Se30  1  0.159160  0.998218  0.866225  1
  Se  Se31  1  0.158031  0.878368  0.508160  1
  Se  Se32  1  0.341969  0.510494  0.991840  1
  Se  Se33  1  0.282787  0.349998  0.491509  1
  Se  Se34  1  0.463702  0.140790  0.143539  1
  Se  Se35  1  0.286542  0.981700  0.361302  1
  Se  Se36  1  0.465724  0.500163  0.996888  1
  Se  Se37  1  0.403962  0.024183  0.875041  1
  Se  Se38  1  0.340840  0.634856  0.633775  1
  Se  Se39  1  0.412216  0.853830  0.497175  1
  Se  Se40  1  0.596038  0.475817  0.990890  1
  Se  Se41  1  0.536298  0.359210  0.498346  1
  Se  Se42  1  0.534276  0.999837  0.359784  1
  Se  Se43  1  0.717213  0.150002  0.122656  1
  Se  Se44  1  0.713458  0.518300  0.007470  1
  Se  Se45  1  0.658031  0.989506  0.859715  1
  Se  Se46  1  0.587784  0.646170  0.646039  1
  Se  Se47  1  0.659160  0.865144  0.497137  1
  Se  Se48  1  0.840840  0.501782  0.002863  1
  Se  Se49  1  0.786542  0.372132  0.492530  1
  Se  Se50  1  0.965724  0.136942  0.140216  1
  Se  Se51  1  0.782787  0.018855  0.377344  1
  Se  Se52  1  0.963702  0.504403  0.001654  1
  Se  Se53  1  0.912216  0.997306  0.853961  1
  Se  Se54  1  0.841969  0.621632  0.640285  1
  Se  Se55  1  0.903962  0.859969  0.509110  1
