# generated using pymatgen
data_Yb2S3
_symmetry_space_group_name_H-M   'P 1'
_cell_length_a   22.10039229
_cell_length_b   8.39584937
_cell_length_c   8.39584961
_cell_angle_alpha   90.00000000
_cell_angle_beta   55.26065669
_cell_angle_gamma   55.26065531
_symmetry_Int_Tables_number   1
_chemical_formula_structural   Yb2S3
_chemical_formula_sum   'Yb16 S24'
_cell_volume   922.37564844
_cell_formula_units_Z   8
loop_
 _symmetry_equiv_pos_site_id
 _symmetry_equiv_pos_as_xyz
  1  'x, y, z'
loop_
 _atom_site_type_symbol
 _atom_site_label
 _atom_site_symmetry_multiplicity
 _atom_site_fract_x
 _atom_site_fract_y
 _atom_site_fract_z
 _atom_site_occupancy
  Yb  Yb0  1  0.993174  0.380606  0.290604  1
  Yb  Yb1  1  0.993174  0.139871  0.729873  1
  Yb  Yb2  1  0.097434  0.603849  0.353849  1
  Yb  Yb3  1  0.166667  0.250000  0.614395  1
  Yb  Yb4  1  0.340159  0.360129  0.209396  1
  Yb  Yb5  1  0.235899  0.896151  0.146151  1
  Yb  Yb6  1  0.340159  0.119394  0.770127  1
  Yb  Yb7  1  0.166667  0.750000  0.885605  1
  Yb  Yb8  1  0.493174  0.229873  0.639871  1
  Yb  Yb9  1  0.666667  0.385605  0.250000  1
  Yb  Yb10  1  0.597434  0.853849  0.103849  1
  Yb  Yb11  1  0.666667  0.114395  0.750000  1
  Yb  Yb12  1  0.493174  0.790604  0.880606  1
  Yb  Yb13  1  0.735899  0.646151  0.396151  1
  Yb  Yb14  1  0.840159  0.270127  0.619394  1
  Yb  Yb15  1  0.840159  0.709396  0.860129  1
  S  S16  1  0.127885  0.419506  0.986525  1
  S  S17  1  0.050432  0.354716  0.518419  1
  S  S18  1  0.050432  0.993986  0.330283  1
  S  S19  1  0.282901  0.145284  0.169717  1
  S  S20  1  0.282901  0.506014  0.981581  1
  S  S21  1  0.205448  0.080494  0.870180  1
  S  S22  1  0.127885  0.696839  0.629820  1
  S  S23  1  0.205448  0.803161  0.513475  1
  S  S24  1  0.447475  0.532682  0.945622  1
  S  S25  1  0.385859  0.288047  0.467318  1
  S  S26  1  0.385859  0.054378  0.375107  1
  S  S27  1  0.627885  0.129820  0.196839  1
  S  S28  1  0.627885  0.486525  0.919506  1
  S  S29  1  0.550432  0.018419  0.854716  1
  S  S30  1  0.447475  0.624893  0.711953  1
  S  S31  1  0.550432  0.830283  0.493986  1
  S  S32  1  0.782901  0.481581  0.006014  1
  S  S33  1  0.705448  0.370180  0.580494  1
  S  S34  1  0.947475  0.211953  0.124893  1
  S  S35  1  0.705448  0.013475  0.303161  1
  S  S36  1  0.947475  0.445622  0.032682  1
  S  S37  1  0.782901  0.669717  0.645284  1
  S  S38  1  0.885859  0.967318  0.788047  1
  S  S39  1  0.885859  0.875107  0.554378  1
