# generated using pymatgen
data_U3(HO5)2
_symmetry_space_group_name_H-M   'P 1'
_cell_length_a   6.88737917
_cell_length_b   7.13224019
_cell_length_c   5.64767295
_cell_angle_alpha   107.59302003
_cell_angle_beta   125.06564134
_cell_angle_gamma   89.08684708
_symmetry_Int_Tables_number   1
_chemical_formula_structural   U3(HO5)2
_chemical_formula_sum   'U3 H2 O10'
_cell_volume   211.98375498
_cell_formula_units_Z   1
loop_
 _symmetry_equiv_pos_site_id
 _symmetry_equiv_pos_as_xyz
  1  'x, y, z'
loop_
 _atom_site_type_symbol
 _atom_site_label
 _atom_site_symmetry_multiplicity
 _atom_site_fract_x
 _atom_site_fract_y
 _atom_site_fract_z
 _atom_site_occupancy
  U  U0  1  0.000000  0.000000  0.000000  1
  U  U1  1  0.559073  0.741367  0.020216  1
  U  U2  1  0.440927  0.258633  0.979784  1
  H  H3  1  0.220011  0.583746  0.338891  1
  H  H4  1  0.779989  0.416254  0.661109  1
  O  O5  1  0.924367  0.753817  0.019816  1
  O  O6  1  0.075633  0.246183  0.980184  1
  O  O7  1  0.676166  0.455590  0.010010  1
  O  O8  1  0.323834  0.544410  0.989990  1
  O  O9  1  0.316842  0.958143  0.008873  1
  O  O10  1  0.683158  0.041857  0.991127  1
  O  O11  1  0.225591  0.141564  0.525924  1
  O  O12  1  0.774409  0.858436  0.474076  1
  O  O13  1  0.354578  0.652085  0.557612  1
  O  O14  1  0.645422  0.347915  0.442388  1
