# generated using pymatgen
data_RbPuP2S7
_symmetry_space_group_name_H-M   'P 1'
_cell_length_a   9.09407878
_cell_length_b   9.95103197
_cell_length_c   12.54223476
_cell_angle_alpha   90.00000000
_cell_angle_beta   90.00000000
_cell_angle_gamma   90.59833953
_symmetry_Int_Tables_number   1
_chemical_formula_structural   RbPuP2S7
_chemical_formula_sum   'Rb4 Pu4 P8 S28'
_cell_volume   1134.95352260
_cell_formula_units_Z   4
loop_
 _symmetry_equiv_pos_site_id
 _symmetry_equiv_pos_as_xyz
  1  'x, y, z'
loop_
 _atom_site_type_symbol
 _atom_site_label
 _atom_site_symmetry_multiplicity
 _atom_site_fract_x
 _atom_site_fract_y
 _atom_site_fract_z
 _atom_site_occupancy
  Rb  Rb0  1  0.367098  0.893957  0.804818  1
  Rb  Rb1  1  0.632902  0.106043  0.195182  1
  Rb  Rb2  1  0.867098  0.893957  0.695182  1
  Rb  Rb3  1  0.132902  0.106043  0.304818  1
  Pu  Pu4  1  0.892850  0.639852  0.359248  1
  Pu  Pu5  1  0.607150  0.360148  0.859248  1
  Pu  Pu6  1  0.107150  0.360148  0.640752  1
  Pu  Pu7  1  0.392850  0.639852  0.140752  1
  P  P8  1  0.197083  0.681879  0.535129  1
  P  P9  1  0.302917  0.318121  0.035129  1
  P  P10  1  0.975744  0.230308  0.896066  1
  P  P11  1  0.802917  0.318121  0.464871  1
  P  P12  1  0.475744  0.230308  0.603934  1
  P  P13  1  0.024256  0.769692  0.103934  1
  P  P14  1  0.524256  0.769692  0.396066  1
  P  P15  1  0.697083  0.681879  0.964871  1
  S  S16  1  0.673676  0.514154  0.056943  1
  S  S17  1  0.645776  0.642275  0.809748  1
  S  S18  1  0.145776  0.642275  0.690252  1
  S  S19  1  0.423680  0.410386  0.671837  1
  S  S20  1  0.923680  0.410386  0.828163  1
  S  S21  1  0.923327  0.744921  0.949580  1
  S  S22  1  0.713504  0.862419  0.440541  1
  S  S23  1  0.611308  0.140148  0.709754  1
  S  S24  1  0.069428  0.828050  0.472621  1
  S  S25  1  0.326324  0.485846  0.943057  1
  S  S26  1  0.213504  0.862419  0.059459  1
  S  S27  1  0.286496  0.137581  0.559459  1
  S  S28  1  0.173676  0.514154  0.443057  1
  S  S29  1  0.888692  0.859852  0.209754  1
  S  S30  1  0.576673  0.255079  0.449580  1
  S  S31  1  0.786496  0.137581  0.940541  1
  S  S32  1  0.354224  0.357725  0.190252  1
  S  S33  1  0.111308  0.140148  0.790246  1
  S  S34  1  0.576320  0.589614  0.328163  1
  S  S35  1  0.388692  0.859852  0.290246  1
  S  S36  1  0.076320  0.589614  0.171837  1
  S  S37  1  0.854224  0.357725  0.309748  1
  S  S38  1  0.430572  0.171950  0.972621  1
  S  S39  1  0.423327  0.744921  0.550420  1
  S  S40  1  0.930572  0.171950  0.527379  1
  S  S41  1  0.826324  0.485846  0.556943  1
  S  S42  1  0.076673  0.255079  0.050420  1
  S  S43  1  0.569428  0.828050  0.027379  1
