# generated using pymatgen
data_PbO
_symmetry_space_group_name_H-M   'P 1'
_cell_length_a   5.34363731
_cell_length_b   5.74170554
_cell_length_c   45.87478826
_cell_angle_alpha   90.00000000
_cell_angle_beta   90.00000000
_cell_angle_gamma   90.00000000
_symmetry_Int_Tables_number   1
_chemical_formula_structural   PbO
_chemical_formula_sum   'Pb32 O32'
_cell_volume   1407.51153403
_cell_formula_units_Z   32
loop_
 _symmetry_equiv_pos_site_id
 _symmetry_equiv_pos_as_xyz
  1  'x, y, z'
loop_
 _atom_site_type_symbol
 _atom_site_label
 _atom_site_symmetry_multiplicity
 _atom_site_fract_x
 _atom_site_fract_y
 _atom_site_fract_z
 _atom_site_occupancy
  Pb  Pb0  1  0.224187  0.766331  0.125037  1
  Pb  Pb1  1  0.224099  0.226935  0.937531  1
  Pb  Pb2  1  0.775813  0.233669  0.874963  1
  Pb  Pb3  1  0.776102  0.746187  0.187535  1
  Pb  Pb4  1  0.776089  0.225994  0.250000  1
  Pb  Pb5  1  0.775901  0.726935  0.562469  1
  Pb  Pb6  1  0.775901  0.773065  0.062469  1
  Pb  Pb7  1  0.223898  0.253813  0.812465  1
  Pb  Pb8  1  0.776089  0.274006  0.750000  1
  Pb  Pb9  1  0.223911  0.725994  0.250000  1
  Pb  Pb10  1  0.223911  0.774006  0.750000  1
  Pb  Pb11  1  0.776102  0.753813  0.812465  1
  Pb  Pb12  1  0.224099  0.273065  0.437531  1
  Pb  Pb13  1  0.775813  0.266331  0.374963  1
  Pb  Pb14  1  0.224187  0.733669  0.874963  1
  Pb  Pb15  1  0.224187  0.766331  0.374963  1
  Pb  Pb16  1  0.776287  0.250000  0.500000  1
  Pb  Pb17  1  0.224187  0.733669  0.625037  1
  Pb  Pb18  1  0.223713  0.750000  0.000000  1
  Pb  Pb19  1  0.223713  0.750000  0.500000  1
  Pb  Pb20  1  0.223898  0.253813  0.687535  1
  Pb  Pb21  1  0.776287  0.250000  0.000000  1
  Pb  Pb22  1  0.775901  0.726935  0.937531  1
  Pb  Pb23  1  0.775901  0.773065  0.437531  1
  Pb  Pb24  1  0.776102  0.746187  0.312465  1
  Pb  Pb25  1  0.775813  0.233669  0.625037  1
  Pb  Pb26  1  0.775813  0.266331  0.125037  1
  Pb  Pb27  1  0.224099  0.226935  0.562469  1
  Pb  Pb28  1  0.223898  0.246187  0.187535  1
  Pb  Pb29  1  0.224099  0.273065  0.062469  1
  Pb  Pb30  1  0.776102  0.753813  0.687535  1
  Pb  Pb31  1  0.223898  0.246187  0.312465  1
  O  O32  1  0.997607  0.975119  0.906238  1
  O  O33  1  0.989463  0.481259  0.281297  1
  O  O34  1  0.989463  0.018741  0.718703  1
  O  O35  1  0.010537  0.981259  0.218703  1
  O  O36  1  0.010537  0.518741  0.781297  1
  O  O37  1  0.002393  0.475119  0.593762  1
  O  O38  1  0.989463  0.481259  0.218703  1
  O  O39  1  0.992249  0.006648  0.156316  1
  O  O40  1  0.989871  0.984298  0.531212  1
  O  O41  1  0.989463  0.018741  0.781297  1
  O  O42  1  0.010129  0.015702  0.468788  1
  O  O43  1  0.010129  0.484298  0.531212  1
  O  O44  1  0.992249  0.493352  0.656316  1
  O  O45  1  0.989871  0.515702  0.468788  1
  O  O46  1  0.010129  0.015702  0.031212  1
  O  O47  1  0.007751  0.993352  0.656316  1
  O  O48  1  0.010129  0.484298  0.968788  1
  O  O49  1  0.992249  0.006648  0.343684  1
  O  O50  1  0.002393  0.475119  0.906238  1
  O  O51  1  0.010537  0.981259  0.281297  1
  O  O52  1  0.989871  0.984298  0.968788  1
  O  O53  1  0.992249  0.493352  0.843684  1
  O  O54  1  0.997607  0.524881  0.406238  1
  O  O55  1  0.997607  0.975119  0.593762  1
  O  O56  1  0.989871  0.515702  0.031212  1
  O  O57  1  0.007751  0.993352  0.843684  1
  O  O58  1  0.007751  0.506648  0.156316  1
  O  O59  1  0.997607  0.524881  0.093762  1
  O  O60  1  0.002393  0.024881  0.406238  1
  O  O61  1  0.002393  0.024881  0.093762  1
  O  O62  1  0.010537  0.518741  0.718703  1
  O  O63  1  0.007751  0.506648  0.343684  1
