# generated using pymatgen
data_Ba2NdNbO6
_symmetry_space_group_name_H-M   'P 1'
_cell_length_a   6.13767528
_cell_length_b   6.15789096
_cell_length_c   6.12772160
_cell_angle_alpha   60.45698314
_cell_angle_beta   59.94625174
_cell_angle_gamma   60.10853790
_symmetry_Int_Tables_number   1
_chemical_formula_structural   Ba2NdNbO6
_chemical_formula_sum   'Ba2 Nd1 Nb1 O6'
_cell_volume   164.39047641
_cell_formula_units_Z   1
loop_
 _symmetry_equiv_pos_site_id
 _symmetry_equiv_pos_as_xyz
  1  'x, y, z'
loop_
 _atom_site_type_symbol
 _atom_site_label
 _atom_site_symmetry_multiplicity
 _atom_site_fract_x
 _atom_site_fract_y
 _atom_site_fract_z
 _atom_site_occupancy
  O  O0  1  0.698860  0.305102  0.765044  1
  O  O1  1  0.769006  0.694898  0.234956  1
  O  O2  1  0.301140  0.694898  0.234956  1
  O  O3  1  0.230994  0.305102  0.765043  1
  O  O4  1  0.269093  0.795882  0.665933  1
  O  O5  1  0.730907  0.204118  0.334068  1
  Nb  Nb6  1  0.500001  0.500000  0.500000  1
  Ba  Ba7  1  0.751368  0.742924  0.754339  1
  Ba  Ba8  1  0.248632  0.257074  0.245662  1
  Nd  Nd9  1  0.000000  0.000000  0.000000  1
