# generated using pymatgen
data_Sr5La3Mn4(WO6)4
_symmetry_space_group_name_H-M   'P 1'
_cell_length_a   11.59942003
_cell_length_b   8.20516733
_cell_length_c   9.98061700
_cell_angle_alpha   65.45643908
_cell_angle_beta   54.41180521
_cell_angle_gamma   44.80546664
_symmetry_Int_Tables_number   1
_chemical_formula_structural   Sr5La3Mn4(WO6)4
_chemical_formula_sum   'Sr5 La3 Mn4 W4 O24'
_cell_volume   544.36586698
_cell_formula_units_Z   1
loop_
 _symmetry_equiv_pos_site_id
 _symmetry_equiv_pos_as_xyz
  1  'x, y, z'
loop_
 _atom_site_type_symbol
 _atom_site_label
 _atom_site_symmetry_multiplicity
 _atom_site_fract_x
 _atom_site_fract_y
 _atom_site_fract_z
 _atom_site_occupancy
  Sr  Sr0  1  0.379058  0.977924  0.252212  1
  Sr  Sr1  1  0.109325  0.516961  0.749973  1
  Sr  Sr2  1  0.875299  0.988103  0.250118  1
  Sr  Sr3  1  0.891368  0.478843  0.253797  1
  Sr  Sr4  1  0.610495  0.521687  0.746240  1
  La  La5  1  0.399891  0.477633  0.249974  1
  La  La6  1  0.120282  0.029969  0.745688  1
  La  La7  1  0.626796  0.017506  0.744934  1
  Mn  Mn8  1  0.249395  0.001626  0.000120  1
  Mn  Mn9  1  0.000095  0.502391  0.496831  1
  Mn  Mn10  1  0.751474  0.996131  0.000278  1
  Mn  Mn11  1  0.499642  0.503358  0.500616  1
  W  W12  1  0.001133  0.998542  0.499650  1
  W  W13  1  0.250452  0.499847  0.998795  1
  W  W14  1  0.500415  0.001768  0.498230  1
  W  W15  1  0.747700  0.501456  0.000181  1
  O  O16  1  0.041940  0.219859  0.462073  1
  O  O17  1  0.994796  0.719363  0.046327  1
  O  O18  1  0.243688  0.249879  0.048735  1
  O  O19  1  0.831043  0.484688  0.766709  1
  O  O20  1  0.232792  0.252666  0.556813  1
  O  O21  1  0.071392  0.005405  0.267832  1
  O  O22  1  0.433337  0.998032  0.738075  1
  O  O23  1  0.271180  0.728137  0.444287  1
  O  O24  1  0.534695  0.234256  0.450301  1
  O  O25  1  0.478681  0.721834  0.051709  1
  O  O26  1  0.731238  0.246719  0.054507  1
  O  O27  1  0.330682  0.485753  0.767465  1
  O  O28  1  0.673005  0.510774  0.230804  1
  O  O29  1  0.254754  0.755236  0.946504  1
  O  O30  1  0.510672  0.275300  0.948089  1
  O  O31  1  0.445147  0.786070  0.556475  1
  O  O32  1  0.729466  0.252608  0.558050  1
  O  O33  1  0.570292  0.011865  0.261783  1
  O  O34  1  0.940628  0.985118  0.735033  1
  O  O35  1  0.762479  0.746265  0.449159  1
  O  O36  1  0.184471  0.507109  0.229540  1
  O  O37  1  0.751346  0.769578  0.941825  1
  O  O38  1  0.019594  0.259868  0.946353  1
  O  O39  1  0.949862  0.779872  0.553916  1
