# generated using pymatgen
data_Sr(H8O5)2
_symmetry_space_group_name_H-M   'P 1'
_cell_length_a   6.32810389
_cell_length_b   6.32810389
_cell_length_c   11.20171560
_cell_angle_alpha   89.77366563
_cell_angle_beta   89.77366563
_cell_angle_gamma   90.19149589
_symmetry_Int_Tables_number   1
_chemical_formula_structural   Sr(H8O5)2
_chemical_formula_sum   'Sr2 H32 O20'
_cell_volume   448.56203937
_cell_formula_units_Z   2
loop_
 _symmetry_equiv_pos_site_id
 _symmetry_equiv_pos_as_xyz
  1  'x, y, z'
loop_
 _atom_site_type_symbol
 _atom_site_label
 _atom_site_symmetry_multiplicity
 _atom_site_fract_x
 _atom_site_fract_y
 _atom_site_fract_z
 _atom_site_occupancy
  Sr  Sr0  1  0.998398  0.002309  0.251638  1
  Sr  Sr1  1  0.002309  0.998398  0.751638  1
  H  H2  1  0.035077  0.451082  0.373490  1
  H  H3  1  0.278078  0.389391  0.354947  1
  H  H4  1  0.724370  0.609497  0.354885  1
  H  H5  1  0.859955  0.686946  0.467599  1
  H  H6  1  0.610202  0.278722  0.355186  1
  H  H7  1  0.551138  0.035326  0.374635  1
  H  H8  1  0.391889  0.724636  0.355391  1
  H  H9  1  0.312527  0.859734  0.467210  1
  H  H10  1  0.724636  0.391889  0.855391  1
  H  H11  1  0.859734  0.312527  0.967210  1
  H  H12  1  0.035326  0.551138  0.874635  1
  H  H13  1  0.278722  0.610202  0.855186  1
  H  H14  1  0.451082  0.035077  0.873490  1
  H  H15  1  0.389391  0.278078  0.854947  1
  H  H16  1  0.609497  0.724370  0.854885  1
  H  H17  1  0.686946  0.859955  0.967599  1
  H  H18  1  0.722610  0.609438  0.646309  1
  H  H19  1  0.965004  0.548604  0.626764  1
  H  H20  1  0.277193  0.389746  0.645632  1
  H  H21  1  0.140618  0.313192  0.532678  1
  H  H22  1  0.389049  0.720641  0.646081  1
  H  H23  1  0.450148  0.962356  0.626960  1
  H  H24  1  0.614878  0.262544  0.655894  1
  H  H25  1  0.685539  0.143332  0.537325  1
  H  H26  1  0.262544  0.614878  0.155894  1
  H  H27  1  0.143332  0.685539  0.037325  1
  H  H28  1  0.962356  0.450148  0.126960  1
  H  H29  1  0.720641  0.389049  0.146081  1
  H  H30  1  0.548604  0.965004  0.126764  1
  H  H31  1  0.609438  0.722610  0.146309  1
  H  H32  1  0.389746  0.277193  0.145632  1
  H  H33  1  0.313192  0.140618  0.032678  1
  O  O34  1  0.501439  0.497168  0.318699  1
  O  O35  1  0.497168  0.501439  0.818699  1
  O  O36  1  0.501350  0.498462  0.685001  1
  O  O37  1  0.498462  0.501350  0.185001  1
  O  O38  1  0.133832  0.327731  0.378575  1
  O  O39  1  0.867771  0.670225  0.378319  1
  O  O40  1  0.672218  0.136761  0.382246  1
  O  O41  1  0.330183  0.867592  0.378004  1
  O  O42  1  0.867592  0.330183  0.878004  1
  O  O43  1  0.136761  0.672218  0.882246  1
  O  O44  1  0.327731  0.133832  0.878575  1
  O  O45  1  0.670225  0.867771  0.878319  1
  O  O46  1  0.865984  0.671528  0.621372  1
  O  O47  1  0.133638  0.329452  0.621889  1
  O  O48  1  0.326931  0.863168  0.620999  1
  O  O49  1  0.672562  0.123202  0.626480  1
  O  O50  1  0.123202  0.672562  0.126480  1
  O  O51  1  0.863168  0.326931  0.120999  1
  O  O52  1  0.671528  0.865984  0.121372  1
  O  O53  1  0.329452  0.133638  0.121889  1
