# generated using pymatgen
data_Na6CaZr(SiO3)6
_symmetry_space_group_name_H-M   'P 1'
_cell_length_a   10.75291934
_cell_length_b   10.75291935
_cell_length_c   10.75291902
_cell_angle_alpha   58.07015285
_cell_angle_beta   58.07015282
_cell_angle_gamma   58.07015533
_symmetry_Int_Tables_number   1
_chemical_formula_structural   Na6CaZr(SiO3)6
_chemical_formula_sum   'Na12 Ca2 Zr2 Si12 O36'
_cell_volume   840.24839849
_cell_formula_units_Z   2
loop_
 _symmetry_equiv_pos_site_id
 _symmetry_equiv_pos_as_xyz
  1  'x, y, z'
loop_
 _atom_site_type_symbol
 _atom_site_label
 _atom_site_symmetry_multiplicity
 _atom_site_fract_x
 _atom_site_fract_y
 _atom_site_fract_z
 _atom_site_occupancy
  Na  Na0  1  0.015939  0.437653  0.024464  1
  Na  Na1  1  0.024464  0.015939  0.437653  1
  Na  Na2  1  0.437653  0.024464  0.015939  1
  Na  Na3  1  0.524464  0.937653  0.515939  1
  Na  Na4  1  0.515939  0.524464  0.937653  1
  Na  Na5  1  0.241105  0.777404  0.231972  1
  Na  Na6  1  0.231972  0.241105  0.777404  1
  Na  Na7  1  0.777404  0.231972  0.241105  1
  Na  Na8  1  0.277404  0.741105  0.731972  1
  Na  Na9  1  0.741105  0.731972  0.277404  1
  Na  Na10  1  0.731972  0.277404  0.741105  1
  Na  Na11  1  0.937653  0.515939  0.524464  1
  Ca  Ca12  1  0.377197  0.377197  0.377197  1
  Ca  Ca13  1  0.877197  0.877197  0.877197  1
  Zr  Zr14  1  0.004045  0.004045  0.004045  1
  Zr  Zr15  1  0.504045  0.504045  0.504045  1
  Si  Si16  1  0.131645  0.133749  0.588401  1
  Si  Si17  1  0.133749  0.588401  0.131645  1
  Si  Si18  1  0.588401  0.131645  0.133749  1
  Si  Si19  1  0.088401  0.633749  0.631645  1
  Si  Si20  1  0.631645  0.088401  0.633749  1
  Si  Si21  1  0.633749  0.631645  0.088401  1
  Si  Si22  1  0.363811  0.367945  0.917701  1
  Si  Si23  1  0.367945  0.917701  0.363811  1
  Si  Si24  1  0.917701  0.363811  0.367945  1
  Si  Si25  1  0.417701  0.867945  0.863811  1
  Si  Si26  1  0.863811  0.417701  0.867945  1
  Si  Si27  1  0.867945  0.863811  0.417701  1
  O  O28  1  0.003076  0.499057  0.250648  1
  O  O29  1  0.048172  0.035222  0.769391  1
  O  O30  1  0.035222  0.769391  0.048172  1
  O  O31  1  0.250648  0.003076  0.499057  1
  O  O32  1  0.499057  0.250648  0.003076  1
  O  O33  1  0.222870  0.229605  0.562853  1
  O  O34  1  0.229605  0.562853  0.222870  1
  O  O35  1  0.015358  0.753384  0.487247  1
  O  O36  1  0.562853  0.222870  0.229605  1
  O  O37  1  0.769391  0.048172  0.035222  1
  O  O38  1  0.062853  0.729605  0.722870  1
  O  O39  1  0.269391  0.535222  0.548172  1
  O  O40  1  0.487247  0.015358  0.753384  1
  O  O41  1  0.269127  0.278694  0.942812  1
  O  O42  1  0.278694  0.942812  0.269127  1
  O  O43  1  0.548172  0.269391  0.535222  1
  O  O44  1  0.535222  0.548172  0.269391  1
  O  O45  1  0.753384  0.487247  0.015358  1
  O  O46  1  0.253384  0.515358  0.987247  1
  O  O47  1  0.460589  0.449833  0.735730  1
  O  O48  1  0.449833  0.735730  0.460589  1
  O  O49  1  0.722870  0.062853  0.729605  1
  O  O50  1  0.729605  0.722870  0.062853  1
  O  O51  1  0.515358  0.987247  0.253384  1
  O  O52  1  0.735730  0.460589  0.449833  1
  O  O53  1  0.942812  0.269127  0.278694  1
  O  O54  1  0.235730  0.949833  0.960589  1
  O  O55  1  0.442812  0.778694  0.769127  1
  O  O56  1  0.987247  0.253384  0.515358  1
  O  O57  1  0.769127  0.442812  0.778694  1
  O  O58  1  0.778694  0.769127  0.442812  1
  O  O59  1  0.503076  0.750648  0.999057  1
  O  O60  1  0.750648  0.999057  0.503076  1
  O  O61  1  0.960589  0.235730  0.949833  1
  O  O62  1  0.949833  0.960589  0.235730  1
  O  O63  1  0.999057  0.503076  0.750648  1
