# generated using pymatgen
data_LiFeP2O7
_symmetry_space_group_name_H-M   'P 1'
_cell_length_a   8.50445633
_cell_length_b   13.25571260
_cell_length_c   5.08362385
_cell_angle_alpha   90.00000000
_cell_angle_beta   92.03205862
_cell_angle_gamma   90.00000000
_symmetry_Int_Tables_number   1
_chemical_formula_structural   LiFeP2O7
_chemical_formula_sum   'Li4 Fe4 P8 O28'
_cell_volume   572.72988909
_cell_formula_units_Z   4
loop_
 _symmetry_equiv_pos_site_id
 _symmetry_equiv_pos_as_xyz
  1  'x, y, z'
loop_
 _atom_site_type_symbol
 _atom_site_label
 _atom_site_symmetry_multiplicity
 _atom_site_fract_x
 _atom_site_fract_y
 _atom_site_fract_z
 _atom_site_occupancy
  Li  Li0  1  0.648003  0.621532  0.627536  1
  Li  Li1  1  0.851997  0.121532  0.872464  1
  Li  Li2  1  0.148003  0.878468  0.127536  1
  Li  Li3  1  0.351997  0.378468  0.372464  1
  Fe  Fe4  1  0.265514  0.674028  0.299137  1
  Fe  Fe5  1  0.765514  0.825972  0.799137  1
  Fe  Fe6  1  0.734486  0.325972  0.700863  1
  Fe  Fe7  1  0.234486  0.174028  0.200863  1
  P  P8  1  0.776306  0.968569  0.300306  1
  P  P9  1  0.276306  0.531431  0.800306  1
  P  P10  1  0.723694  0.468569  0.199694  1
  P  P11  1  0.042681  0.677855  0.764269  1
  P  P12  1  0.542681  0.822145  0.264269  1
  P  P13  1  0.223694  0.031431  0.699694  1
  P  P14  1  0.457319  0.177855  0.735731  1
  P  P15  1  0.957319  0.322145  0.235731  1
  O  O16  1  0.080932  0.714384  0.487218  1
  O  O17  1  0.134271  0.308931  0.194241  1
  O  O18  1  0.316491  0.550791  0.097666  1
  O  O19  1  0.585359  0.940352  0.272165  1
  O  O20  1  0.816491  0.949209  0.597666  1
  O  O21  1  0.860425  0.889641  0.124576  1
  O  O22  1  0.183509  0.050791  0.402334  1
  O  O23  1  0.419068  0.214384  0.012782  1
  O  O24  1  0.634271  0.191069  0.694241  1
  O  O25  1  0.204682  0.925488  0.787748  1
  O  O26  1  0.140979  0.728784  0.984833  1
  O  O27  1  0.640979  0.771216  0.484833  1
  O  O28  1  0.704682  0.574512  0.287748  1
  O  O29  1  0.919068  0.285616  0.512782  1
  O  O30  1  0.639575  0.389641  0.375424  1
  O  O31  1  0.414641  0.059648  0.727835  1
  O  O32  1  0.085359  0.559648  0.772165  1
  O  O33  1  0.859021  0.271216  0.015167  1
  O  O34  1  0.580932  0.785616  0.987218  1
  O  O35  1  0.795318  0.074512  0.212252  1
  O  O36  1  0.365729  0.808931  0.305759  1
  O  O37  1  0.683509  0.449209  0.902334  1
  O  O38  1  0.359021  0.228784  0.515167  1
  O  O39  1  0.295318  0.425488  0.712252  1
  O  O40  1  0.360425  0.610359  0.624576  1
  O  O41  1  0.865729  0.691069  0.805759  1
  O  O42  1  0.914641  0.440352  0.227835  1
  O  O43  1  0.139575  0.110359  0.875424  1
