# generated using pymatgen
data_CsHIF7
_symmetry_space_group_name_H-M   'P 1'
_cell_length_a   5.42341873
_cell_length_b   8.30770554
_cell_length_c   8.63617744
_cell_angle_alpha   109.39108348
_cell_angle_beta   107.53372412
_cell_angle_gamma   91.85868297
_symmetry_Int_Tables_number   1
_chemical_formula_structural   CsHIF7
_chemical_formula_sum   'Cs2 H2 I2 F14'
_cell_volume   346.17157167
_cell_formula_units_Z   2
loop_
 _symmetry_equiv_pos_site_id
 _symmetry_equiv_pos_as_xyz
  1  'x, y, z'
loop_
 _atom_site_type_symbol
 _atom_site_label
 _atom_site_symmetry_multiplicity
 _atom_site_fract_x
 _atom_site_fract_y
 _atom_site_fract_z
 _atom_site_occupancy
  Cs  Cs0  1  0.846521  0.167240  0.770442  1
  Cs  Cs1  1  0.153476  0.832761  0.229557  1
  H  H2  1  0.817468  0.778499  0.442880  1
  H  H3  1  0.182533  0.221501  0.557120  1
  I  I4  1  0.693674  0.349133  0.261317  1
  I  I5  1  0.306325  0.650867  0.738683  1
  F  F6  1  0.729510  0.876371  0.413246  1
  F  F7  1  0.270491  0.123630  0.586755  1
  F  F8  1  0.947168  0.647506  0.469807  1
  F  F9  1  0.052832  0.352493  0.530193  1
  F  F10  1  0.525311  0.190552  0.335496  1
  F  F11  1  0.474690  0.809447  0.664504  1
  F  F12  1  0.885726  0.166395  0.163957  1
  F  F13  1  0.114274  0.833605  0.836043  1
  F  F14  1  0.776058  0.460906  0.110222  1
  F  F15  1  0.223942  0.539093  0.889778  1
  F  F16  1  0.409251  0.485665  0.282322  1
  F  F17  1  0.590750  0.514337  0.717678  1
  F  F18  1  0.431970  0.219832  0.045487  1
  F  F19  1  0.568031  0.780168  0.954513  1
