# generated using pymatgen
data_Sn2H21C6ClO2
_symmetry_space_group_name_H-M   'P 1'
_cell_length_a   10.83719188
_cell_length_b   11.67827106
_cell_length_c   13.06138856
_cell_angle_alpha   90.00000000
_cell_angle_beta   90.00000000
_cell_angle_gamma   93.43361668
_symmetry_Int_Tables_number   1
_chemical_formula_structural   Sn2H21C6ClO2
_chemical_formula_sum   'Sn8 H84 C24 Cl4 O8'
_cell_volume   1650.07750364
_cell_formula_units_Z   4
loop_
 _symmetry_equiv_pos_site_id
 _symmetry_equiv_pos_as_xyz
  1  'x, y, z'
loop_
 _atom_site_type_symbol
 _atom_site_label
 _atom_site_symmetry_multiplicity
 _atom_site_fract_x
 _atom_site_fract_y
 _atom_site_fract_z
 _atom_site_occupancy
  Sn  Sn0  1  0.223256  0.279199  0.136397  1
  Sn  Sn1  1  0.691228  0.247595  0.623006  1
  Sn  Sn2  1  0.808772  0.252405  0.123006  1
  Sn  Sn3  1  0.308772  0.752405  0.376994  1
  Sn  Sn4  1  0.776744  0.720801  0.863603  1
  Sn  Sn5  1  0.191228  0.747595  0.876994  1
  Sn  Sn6  1  0.723256  0.779199  0.363603  1
  Sn  Sn7  1  0.276744  0.220801  0.636397  1
  H  H8  1  0.834578  0.192343  0.787523  1
  H  H9  1  0.674768  0.088275  0.470402  1
  H  H10  1  0.425846  0.367731  0.245516  1
  H  H11  1  0.490254  0.002952  0.881673  1
  H  H12  1  0.793303  0.952567  0.853419  1
  H  H13  1  0.373729  0.185752  0.447138  1
  H  H14  1  0.764376  0.461829  0.540170  1
  H  H15  1  0.700728  0.901604  0.747092  1
  H  H16  1  0.709082  0.695139  0.065408  1
  H  H17  1  0.674476  0.154483  0.282077  1
  H  H18  1  0.192781  0.177474  0.950531  1
  H  H19  1  0.183802  0.519004  0.908074  1
  H  H20  1  0.133238  0.103655  0.256126  1
  H  H21  1  0.588897  0.550979  0.869365  1
  H  H22  1  0.990254  0.502952  0.618327  1
  H  H23  1  0.264376  0.961829  0.959830  1
  H  H24  1  0.001364  0.372809  0.466818  1
  H  H25  1  0.816198  0.480996  0.091926  1
  H  H26  1  0.648777  0.387673  0.462012  1
  H  H27  1  0.290918  0.304861  0.934592  1
  H  H28  1  0.206697  0.047433  0.146581  1
  H  H29  1  0.690259  0.529210  0.763902  1
  H  H30  1  0.517556  0.948675  0.155851  1
  H  H31  1  0.574154  0.632269  0.754484  1
  H  H32  1  0.209082  0.195139  0.434592  1
  H  H33  1  0.316198  0.980996  0.408074  1
  H  H34  1  0.866762  0.896345  0.743874  1
  H  H35  1  0.802987  0.242579  0.328783  1
  H  H36  1  0.200728  0.401604  0.752908  1
  H  H37  1  0.873729  0.685752  0.052862  1
  H  H38  1  0.790918  0.804861  0.565408  1
  H  H39  1  0.998636  0.627191  0.533182  1
  H  H40  1  0.509746  0.997048  0.118327  1
  H  H41  1  0.809741  0.970790  0.263902  1
  H  H42  1  0.174768  0.588275  0.029598  1
  H  H43  1  0.799272  0.598396  0.247092  1
  H  H44  1  0.299272  0.098396  0.252908  1
  H  H45  1  0.411103  0.449021  0.130635  1
  H  H46  1  0.009746  0.497048  0.381673  1
  H  H47  1  0.017556  0.448675  0.344149  1
  H  H48  1  0.665422  0.307657  0.287523  1
  H  H49  1  0.735624  0.038171  0.040170  1
  H  H50  1  0.088897  0.050979  0.630635  1
  H  H51  1  0.126272  0.314248  0.947138  1
  H  H52  1  0.307219  0.322526  0.450531  1
  H  H53  1  0.074154  0.132269  0.745516  1
  H  H54  1  0.178355  0.918588  0.466602  1
  H  H55  1  0.501364  0.872809  0.033182  1
  H  H56  1  0.235624  0.538171  0.459830  1
  H  H57  1  0.626271  0.814248  0.552862  1
  H  H58  1  0.148777  0.887673  0.037988  1
  H  H59  1  0.302987  0.742579  0.171217  1
  H  H60  1  0.105233  0.950391  0.920036  1
  H  H61  1  0.605233  0.450391  0.579964  1
  H  H62  1  0.692781  0.677474  0.549469  1
  H  H63  1  0.334578  0.692343  0.712477  1
  H  H64  1  0.851223  0.112327  0.962012  1
  H  H65  1  0.325232  0.911725  0.529598  1
  H  H66  1  0.482444  0.051325  0.844149  1
  H  H67  1  0.321645  0.581412  0.966602  1
  H  H68  1  0.165422  0.807657  0.212477  1
  H  H69  1  0.706697  0.547433  0.353419  1
  H  H70  1  0.982444  0.551325  0.655851  1
  H  H71  1  0.925846  0.867731  0.254484  1
  H  H72  1  0.825524  0.345517  0.782077  1
  H  H73  1  0.366762  0.396345  0.756126  1
  H  H74  1  0.293303  0.452567  0.646581  1
  H  H75  1  0.351223  0.612327  0.537988  1
  H  H76  1  0.633238  0.603655  0.243874  1
  H  H77  1  0.821645  0.081412  0.533398  1
  H  H78  1  0.498636  0.127191  0.966818  1
  H  H79  1  0.394767  0.549609  0.420036  1
  H  H80  1  0.697013  0.257421  0.828783  1
  H  H81  1  0.197013  0.757421  0.671217  1
  H  H82  1  0.309741  0.470790  0.236098  1
  H  H83  1  0.807219  0.822526  0.049469  1
  H  H84  1  0.174476  0.654483  0.217923  1
  H  H85  1  0.825232  0.411725  0.970402  1
  H  H86  1  0.190259  0.029210  0.736098  1
  H  H87  1  0.683802  0.019004  0.591926  1
  H  H88  1  0.678355  0.418588  0.033398  1
  H  H89  1  0.894767  0.049609  0.079964  1
  H  H90  1  0.325524  0.845517  0.717923  1
  H  H91  1  0.911103  0.949021  0.369365  1
  C  C92  1  0.773403  0.261952  0.773781  1
  C  C93  1  0.360177  0.406615  0.194246  1
  C  C94  1  0.639823  0.593385  0.805754  1
  C  C95  1  0.293371  0.231745  0.471631  1
  C  C96  1  0.139823  0.093385  0.694246  1
  C  C97  1  0.215962  0.111633  0.207655  1
  C  C98  1  0.793371  0.731745  0.028369  1
  C  C99  1  0.273403  0.761952  0.726219  1
  C  C100  1  0.284038  0.388367  0.707655  1
  C  C101  1  0.726597  0.238048  0.273781  1
  C  C102  1  0.860177  0.906615  0.305754  1
  C  C103  1  0.715962  0.611633  0.292345  1
  C  C104  1  0.778047  0.410120  0.044448  1
  C  C105  1  0.678646  0.406735  0.540563  1
  C  C106  1  0.706629  0.768255  0.528369  1
  C  C107  1  0.721953  0.089880  0.544448  1
  C  C108  1  0.321354  0.593265  0.459437  1
  C  C109  1  0.226597  0.738048  0.226219  1
  C  C110  1  0.206629  0.268255  0.971631  1
  C  C111  1  0.821354  0.093265  0.040563  1
  C  C112  1  0.221953  0.589880  0.955552  1
  C  C113  1  0.178646  0.906735  0.959437  1
  C  C114  1  0.784038  0.888367  0.792345  1
  C  C115  1  0.278047  0.910120  0.455552  1
  Cl  Cl116  1  0.992660  0.290290  0.533560  1
  Cl  Cl117  1  0.007340  0.709710  0.466440  1
  Cl  Cl118  1  0.507340  0.209710  0.033560  1
  Cl  Cl119  1  0.492660  0.790290  0.966440  1
  O  O120  1  0.505288  0.252194  0.646258  1
  O  O121  1  0.994712  0.247806  0.146258  1
  O  O122  1  0.065994  0.353167  0.186750  1
  O  O123  1  0.434006  0.146833  0.686750  1
  O  O124  1  0.565994  0.853167  0.313250  1
  O  O125  1  0.005288  0.752194  0.853742  1
  O  O126  1  0.934006  0.646833  0.813250  1
  O  O127  1  0.494712  0.747806  0.353742  1
