# generated using pymatgen
data_P2W9O31
_symmetry_space_group_name_H-M   'P 1'
_cell_length_a   5.39694711
_cell_length_b   6.67699516
_cell_length_c   33.48074379
_cell_angle_alpha   90.00571672
_cell_angle_beta   90.16454265
_cell_angle_gamma   89.91755030
_symmetry_Int_Tables_number   1
_chemical_formula_structural   P2W9O31
_chemical_formula_sum   'P4 W18 O62'
_cell_volume   1206.48542025
_cell_formula_units_Z   2
loop_
 _symmetry_equiv_pos_site_id
 _symmetry_equiv_pos_as_xyz
  1  'x, y, z'
loop_
 _atom_site_type_symbol
 _atom_site_label
 _atom_site_symmetry_multiplicity
 _atom_site_fract_x
 _atom_site_fract_y
 _atom_site_fract_z
 _atom_site_occupancy
  P  P0  1  0.017399  0.867808  0.716776  1
  P  P1  1  0.495541  0.363091  0.783476  1
  P  P2  1  0.504459  0.636909  0.216524  1
  P  P3  1  0.982601  0.132192  0.283224  1
  W  W4  1  0.997542  0.829370  0.453836  1
  W  W5  1  0.499623  0.670776  0.954075  1
  W  W6  1  0.501633  0.840363  0.592083  1
  W  W7  1  0.002458  0.170630  0.546164  1
  W  W8  1  0.498367  0.159637  0.407917  1
  W  W9  1  0.003208  0.340727  0.908085  1
  W  W10  1  0.498647  0.009166  0.860793  1
  W  W11  1  0.507003  0.173179  0.685770  1
  W  W12  1  0.997105  0.329479  0.185691  1
  W  W13  1  0.996792  0.659273  0.091915  1
  W  W14  1  0.992035  0.488977  0.360608  1
  W  W15  1  0.500000  0.500000  0.500000  1
  W  W16  1  0.492997  0.826821  0.314230  1
  W  W17  1  0.007965  0.511023  0.639392  1
  W  W18  1  0.501353  0.990834  0.139207  1
  W  W19  1  0.002895  0.670521  0.814309  1
  W  W20  1  0.000000  0.000000  0.000000  1
  W  W21  1  0.500377  0.329224  0.045925  1
  O  O22  1  0.491151  0.990636  0.358943  1
  O  O23  1  0.497916  0.162949  0.095248  1
  O  O24  1  0.720609  0.191417  0.884101  1
  O  O25  1  0.512436  0.304708  0.739042  1
  O  O26  1  0.196308  0.986627  0.292541  1
  O  O27  1  0.231695  0.321124  0.669526  1
  O  O28  1  0.214637  0.641585  0.479126  1
  O  O29  1  0.000492  0.831671  0.047319  1
  O  O30  1  0.219230  0.150018  0.878532  1
  O  O31  1  0.274593  0.821185  0.830819  1
  O  O32  1  0.785363  0.358415  0.520874  1
  O  O33  1  0.288176  0.478807  0.926093  1
  O  O34  1  0.499183  0.328973  0.453019  1
  O  O35  1  0.999508  0.168329  0.952681  1
  O  O36  1  0.005540  0.337375  0.595686  1
  O  O37  1  0.273115  0.967881  0.712055  1
  O  O38  1  0.714441  0.858083  0.979729  1
  O  O39  1  0.725407  0.178815  0.169181  1
  O  O40  1  0.270515  0.640675  0.335445  1
  O  O41  1  0.003213  0.506903  0.859134  1
  O  O42  1  0.752788  0.526967  0.210794  1
  O  O43  1  0.726885  0.032119  0.287945  1
  O  O44  1  0.285644  0.313046  0.527324  1
  O  O45  1  0.991062  0.801952  0.760825  1
  O  O46  1  0.787350  0.691595  0.615069  1
  O  O47  1  0.783339  0.019950  0.425706  1
  O  O48  1  0.502084  0.837051  0.904752  1
  O  O49  1  0.709330  0.349115  0.377814  1
  O  O50  1  0.502523  0.170995  0.808940  1
  O  O51  1  0.487564  0.695292  0.260958  1
  O  O52  1  0.213854  0.474157  0.067358  1
  O  O53  1  0.282077  0.501059  0.207044  1
  O  O54  1  0.224438  0.148071  0.164306  1
  O  O55  1  0.279391  0.808583  0.115899  1
  O  O56  1  0.717923  0.498941  0.792956  1
  O  O57  1  0.212650  0.308405  0.384931  1
  O  O58  1  0.214316  0.811174  0.972896  1
  O  O59  1  0.000143  0.679949  0.690130  1
  O  O60  1  0.729485  0.359325  0.664555  1
  O  O61  1  0.711824  0.521193  0.073907  1
  O  O62  1  0.216661  0.980050  0.574294  1
  O  O63  1  0.008938  0.198048  0.239175  1
  O  O64  1  0.768305  0.678876  0.330474  1
  O  O65  1  0.508849  0.009364  0.641057  1
  O  O66  1  0.247212  0.473033  0.789206  1
  O  O67  1  0.786146  0.525843  0.932642  1
  O  O68  1  0.718849  0.025748  0.567640  1
  O  O69  1  0.281151  0.974252  0.432360  1
  O  O70  1  0.775562  0.851929  0.835694  1
  O  O71  1  -0.000143  0.320051  0.309870  1
  O  O72  1  0.803692  0.013373  0.707459  1
  O  O73  1  0.290670  0.650885  0.622186  1
  O  O74  1  0.785684  0.188826  0.027104  1
  O  O75  1  0.996787  0.493097  0.140866  1
  O  O76  1  0.285559  0.141917  0.020271  1
  O  O77  1  0.497477  0.829005  0.191060  1
  O  O78  1  0.500817  0.671027  0.546981  1
  O  O79  1  0.780770  0.849982  0.121468  1
  O  O80  1  0.000000  0.000000  0.500000  1
  O  O81  1  0.714356  0.686954  0.472676  1
  O  O82  1  0.500000  0.500000  0.000000  1
  O  O83  1  0.994460  0.662625  0.404314  1
