# generated using pymatgen
data_Os5(CO)16
_symmetry_space_group_name_H-M   'P 1'
_cell_length_a   9.30901502
_cell_length_b   9.30901518
_cell_length_c   25.28982806
_cell_angle_alpha   90.00000000
_cell_angle_beta   90.00000000
_cell_angle_gamma   119.99999942
_symmetry_Int_Tables_number   1
_chemical_formula_structural   Os5(CO)16
_chemical_formula_sum   'Os15 C48 O48'
_cell_volume   1897.94656286
_cell_formula_units_Z   3
loop_
 _symmetry_equiv_pos_site_id
 _symmetry_equiv_pos_as_xyz
  1  'x, y, z'
loop_
 _atom_site_type_symbol
 _atom_site_label
 _atom_site_symmetry_multiplicity
 _atom_site_fract_x
 _atom_site_fract_y
 _atom_site_fract_z
 _atom_site_occupancy
  Os  Os0  1  0.759643  0.600582  0.923144  1
  Os  Os1  1  0.855834  0.332006  0.697679  1
  Os  Os2  1  0.840939  0.240357  0.589810  1
  Os  Os3  1  0.240357  0.840939  0.410190  1
  Os  Os4  1  0.144166  0.476172  0.635654  1
  Os  Os5  1  0.871609  0.871609  0.000000  1
  Os  Os6  1  0.332006  0.855834  0.302321  1
  Os  Os7  1  0.476172  0.144166  0.364346  1
  Os  Os8  1  0.667994  0.523828  0.031013  1
  Os  Os9  1  0.523828  0.667994  0.968987  1
  Os  Os10  1  0.159061  0.399418  0.743523  1
  Os  Os11  1  0.600582  0.759643  0.076856  1
  Os  Os12  1  1.000000  0.128391  0.666667  1
  Os  Os13  1  0.128391  0.000000  0.333333  1
  Os  Os14  1  0.399418  0.159061  0.256477  1
  C  C15  1  0.779024  0.981629  0.956057  1
  C  C16  1  0.190003  0.906129  0.475616  1
  C  C17  1  0.601083  0.391477  0.895939  1
  C  C18  1  0.849142  0.530958  0.698131  1
  C  C19  1  0.981629  0.779024  0.043943  1
  C  C20  1  0.574262  0.948011  0.085046  1
  C  C21  1  0.051329  0.103642  0.283073  1
  C  C22  1  0.150858  0.681816  0.635202  1
  C  C23  1  0.283873  0.093871  0.191051  1
  C  C24  1  0.797395  0.018371  0.710609  1
  C  C25  1  0.623950  0.203562  0.681421  1
  C  C26  1  0.420388  0.796438  0.985245  1
  C  C27  1  0.626251  0.051989  0.581620  1
  C  C28  1  0.318184  0.469042  0.968535  1
  C  C29  1  0.790393  0.398917  0.562605  1
  C  C30  1  0.398917  0.790393  0.437395  1
  C  C31  1  0.716127  0.809997  0.142282  1
  C  C32  1  0.203562  0.623950  0.318579  1
  C  C33  1  0.579612  0.376050  0.348088  1
  C  C34  1  0.425738  0.373749  0.248287  1
  C  C35  1  0.469042  0.318184  0.031465  1
  C  C36  1  0.530958  0.849142  0.301869  1
  C  C37  1  0.815071  0.305945  0.772484  1
  C  C38  1  0.490874  0.184929  0.439151  1
  C  C39  1  0.209607  0.608523  0.770728  1
  C  C40  1  0.305945  0.815071  0.227516  1
  C  C41  1  0.103642  0.051329  0.716927  1
  C  C42  1  0.948011  0.574262  0.914954  1
  C  C43  1  0.796438  0.420388  0.014755  1
  C  C44  1  0.809997  0.716127  0.857718  1
  C  C45  1  0.896358  0.947687  0.616406  1
  C  C46  1  0.376050  0.579612  0.651912  1
  C  C47  1  0.906129  0.190003  0.524384  1
  C  C48  1  0.948671  0.052313  0.050261  1
  C  C49  1  0.220976  0.202605  0.377276  1
  C  C50  1  0.093871  0.283873  0.808949  1
  C  C51  1  0.509127  0.694055  0.894182  1
  C  C52  1  0.947687  0.896358  0.383594  1
  C  C53  1  0.391477  0.601083  0.104061  1
  C  C54  1  0.373749  0.425738  0.751713  1
  C  C55  1  0.051989  0.626251  0.418380  1
  C  C56  1  0.694055  0.509127  0.105818  1
  C  C57  1  0.608523  0.209607  0.229272  1
  C  C58  1  0.184929  0.490874  0.560849  1
  C  C59  1  0.681816  0.150858  0.364798  1
  C  C60  1  0.018371  0.797395  0.289391  1
  C  C61  1  0.052313  0.948671  0.949739  1
  C  C62  1  0.202605  0.220976  0.622724  1
  O  O63  1  0.284155  0.772735  0.183420  1
  O  O64  1  0.242015  0.317082  0.401980  1
  O  O65  1  0.157391  0.810127  0.634659  1
  O  O66  1  0.227265  0.511420  0.516753  1
  O  O67  1  0.054027  0.213526  0.849151  1
  O  O68  1  0.840501  0.786474  0.817516  1
  O  O69  1  0.945973  0.159499  0.484182  1
  O  O70  1  0.511420  0.227265  0.483247  1
  O  O71  1  0.772735  0.284155  0.816580  1
  O  O72  1  0.479605  0.124760  0.679476  1
  O  O73  1  0.520395  0.645155  0.653857  1
  O  O74  1  0.235262  0.736507  0.786456  1
  O  O75  1  0.836064  0.840197  0.412527  1
  O  O76  1  0.189873  0.347264  0.967992  1
  O  O77  1  0.441253  0.505045  0.242369  1
  O  O78  1  0.075067  0.757985  0.068647  1
  O  O79  1  0.159499  0.945973  0.515818  1
  O  O80  1  0.757985  0.075067  0.931353  1
  O  O81  1  0.786474  0.840501  0.182484  1
  O  O82  1  0.810127  0.157391  0.365341  1
  O  O83  1  0.354845  0.875240  0.987190  1
  O  O84  1  0.501244  0.764738  0.453123  1
  O  O85  1  0.875240  0.354845  0.012810  1
  O  O86  1  0.924933  0.682918  0.264687  1
  O  O87  1  0.842609  0.652736  0.698674  1
  O  O88  1  0.159803  0.995867  0.745860  1
  O  O89  1  0.317082  0.242015  0.598020  1
  O  O90  1  0.505045  0.441253  0.757631  1
  O  O91  1  0.004133  0.163936  0.079194  1
  O  O92  1  0.263493  0.498756  0.119789  1
  O  O93  1  0.936208  0.494955  0.424298  1
  O  O94  1  0.736507  0.235262  0.213544  1
  O  O95  1  0.682918  0.924933  0.735313  1
  O  O96  1  0.488580  0.715845  0.850086  1
  O  O97  1  0.213526  0.054027  0.150849  1
  O  O98  1  0.764738  0.501244  0.546877  1
  O  O99  1  0.347264  0.189873  0.032008  1
  O  O100  1  0.558747  0.063792  0.090964  1
  O  O101  1  0.163936  0.004133  0.920806  1
  O  O102  1  0.652736  0.842609  0.301326  1
  O  O103  1  0.645155  0.520395  0.346143  1
  O  O104  1  0.494955  0.936208  0.575702  1
  O  O105  1  0.063792  0.558747  0.909036  1
  O  O106  1  0.715845  0.488580  0.149914  1
  O  O107  1  0.498756  0.263493  0.880211  1
  O  O108  1  0.995867  0.159803  0.254140  1
  O  O109  1  0.840197  0.836064  0.587473  1
  O  O110  1  0.124760  0.479605  0.320524  1
