# generated using pymatgen
data_Ca9LaTi9MnO30
_symmetry_space_group_name_H-M   'P 1'
_cell_length_a   5.43489446
_cell_length_b   5.51743250
_cell_length_c   38.54213425
_cell_angle_alpha   90.00000000
_cell_angle_beta   90.00000000
_cell_angle_gamma   89.93866784
_symmetry_Int_Tables_number   1
_chemical_formula_structural   Ca9LaTi9MnO30
_chemical_formula_sum   'Ca18 La2 Ti18 Mn2 O60'
_cell_volume   1155.74934338
_cell_formula_units_Z   2
loop_
 _symmetry_equiv_pos_site_id
 _symmetry_equiv_pos_as_xyz
  1  'x, y, z'
loop_
 _atom_site_type_symbol
 _atom_site_label
 _atom_site_symmetry_multiplicity
 _atom_site_fract_x
 _atom_site_fract_y
 _atom_site_fract_z
 _atom_site_occupancy
  Ca  Ca0  1  0.011076  0.959897  0.150052  1
  Ca  Ca1  1  0.011601  0.959299  0.350000  1
  Ca  Ca2  1  0.011076  0.959897  0.549948  1
  Ca  Ca3  1  0.012127  0.961433  0.748750  1
  Ca  Ca4  1  0.012127  0.961433  0.951250  1
  Ca  Ca5  1  0.488134  0.458889  0.350000  1
  Ca  Ca6  1  0.487627  0.458970  0.149997  1
  Ca  Ca7  1  0.487627  0.458970  0.550003  1
  Ca  Ca8  1  0.488965  0.458132  0.748976  1
  Ca  Ca9  1  0.488965  0.458132  0.951024  1
  Ca  Ca10  1  0.513138  0.541025  0.050200  1
  Ca  Ca11  1  0.511715  0.540893  0.250017  1
  Ca  Ca12  1  0.513138  0.541025  0.649800  1
  Ca  Ca13  1  0.511715  0.540893  0.449983  1
  Ca  Ca14  1  0.988308  0.040432  0.250034  1
  Ca  Ca15  1  0.989232  0.039857  0.050327  1
  Ca  Ca16  1  0.988308  0.040432  0.449966  1
  Ca  Ca17  1  0.989232  0.039857  0.649673  1
  La  La18  1  0.506633  0.530339  0.850000  1
  La  La19  1  0.991396  0.028530  0.850000  1
  Ti  Ti20  1  0.006169  0.497349  0.001373  1
  Ti  Ti21  1  0.997741  0.500537  0.100690  1
  Ti  Ti22  1  0.999851  0.499682  0.200375  1
  Ti  Ti23  1  0.999774  0.499946  0.300111  1
  Ti  Ti24  1  0.999774  0.499946  0.399889  1
  Ti  Ti25  1  0.999851  0.499682  0.499625  1
  Ti  Ti26  1  0.000193  0.499664  0.796890  1
  Ti  Ti27  1  0.000193  0.499664  0.903110  1
  Ti  Ti28  1  0.497504  0.000009  0.099490  1
  Ti  Ti29  1  0.499807  0.999938  0.299914  1
  Ti  Ti30  1  0.499931  0.999476  0.500325  1
  Ti  Ti31  1  0.507668  0.998564  0.999676  1
  Ti  Ti32  1  0.499931  0.999476  0.199675  1
  Ti  Ti33  1  0.499807  0.999938  0.400086  1
  Ti  Ti34  1  0.497504  0.000009  0.600510  1
  Ti  Ti35  1  0.507668  0.998564  0.700324  1
  Ti  Ti36  1  0.006169  0.497349  0.698627  1
  Ti  Ti37  1  0.997741  0.500537  0.599310  1
  Mn  Mn38  1  0.498528  0.000121  0.901635  1
  Mn  Mn39  1  0.498528  0.000121  0.798365  1
  O  O40  1  0.083096  0.480685  0.050043  1
  O  O41  1  0.081958  0.480573  0.249968  1
  O  O42  1  0.081958  0.480573  0.450032  1
  O  O43  1  0.083096  0.480685  0.649957  1
  O  O44  1  0.069738  0.489404  0.850000  1
  O  O45  1  0.215743  0.216651  0.191250  1
  O  O46  1  0.215482  0.216215  0.108753  1
  O  O47  1  0.215491  0.216356  0.308731  1
  O  O48  1  0.215491  0.216356  0.391269  1
  O  O49  1  0.215482  0.216215  0.591247  1
  O  O50  1  0.215743  0.216651  0.508750  1
  O  O51  1  0.212638  0.218277  0.708597  1
  O  O52  1  0.211548  0.219979  0.791249  1
  O  O53  1  0.212638  0.218277  0.991403  1
  O  O54  1  0.211548  0.219979  0.908751  1
  O  O55  1  0.283837  0.715714  0.108805  1
  O  O56  1  0.284045  0.716285  0.191267  1
  O  O57  1  0.284024  0.716009  0.308724  1
  O  O58  1  0.284024  0.716009  0.391276  1
  O  O59  1  0.283837  0.715714  0.591195  1
  O  O60  1  0.277018  0.712795  0.908311  1
  O  O61  1  0.283043  0.716355  0.708597  1
  O  O62  1  0.277018  0.712795  0.791689  1
  O  O63  1  0.284045  0.716285  0.508733  1
  O  O64  1  0.283043  0.716355  0.991403  1
  O  O65  1  0.417211  0.980505  0.050587  1
  O  O66  1  0.417211  0.980505  0.649413  1
  O  O67  1  0.418395  0.980657  0.250083  1
  O  O68  1  0.418395  0.980657  0.449917  1
  O  O69  1  0.433179  0.993563  0.850000  1
  O  O70  1  0.581627  0.019577  0.350000  1
  O  O71  1  0.581605  0.019411  0.150210  1
  O  O72  1  0.581605  0.019411  0.549790  1
  O  O73  1  0.586534  0.022296  0.747882  1
  O  O74  1  0.586534  0.022296  0.952118  1
  O  O75  1  0.714594  0.286903  0.009162  1
  O  O76  1  0.716529  0.283722  0.091290  1
  O  O77  1  0.715923  0.284122  0.291279  1
  O  O78  1  0.716380  0.284148  0.208731  1
  O  O79  1  0.716529  0.283722  0.608710  1
  O  O80  1  0.715923  0.284122  0.408721  1
  O  O81  1  0.716380  0.284148  0.491269  1
  O  O82  1  0.714594  0.286903  0.690838  1
  O  O83  1  0.724687  0.283548  0.808149  1
  O  O84  1  0.724687  0.283548  0.891851  1
  O  O85  1  0.784192  0.785282  0.009261  1
  O  O86  1  0.784600  0.782947  0.091259  1
  O  O87  1  0.784529  0.783591  0.208726  1
  O  O88  1  0.784390  0.783742  0.291269  1
  O  O89  1  0.784390  0.783742  0.408731  1
  O  O90  1  0.784529  0.783591  0.491274  1
  O  O91  1  0.784600  0.782947  0.608741  1
  O  O92  1  0.784192  0.785282  0.690739  1
  O  O93  1  0.780115  0.775565  0.891586  1
  O  O94  1  0.780115  0.775565  0.808414  1
  O  O95  1  0.917848  0.519344  0.149930  1
  O  O96  1  0.918039  0.519635  0.350000  1
  O  O97  1  0.917848  0.519344  0.550070  1
  O  O98  1  0.915018  0.522780  0.749351  1
  O  O99  1  0.915018  0.522780  0.950649  1
