# generated using pymatgen
data_SrEu2Fe2O7
_symmetry_space_group_name_H-M   'P 1'
_cell_length_a   5.57431555
_cell_length_b   5.57431555
_cell_length_c   19.98792486
_cell_angle_alpha   90.00000000
_cell_angle_beta   90.00000000
_cell_angle_gamma   90.00000000
_symmetry_Int_Tables_number   1
_chemical_formula_structural   SrEu2Fe2O7
_chemical_formula_sum   'Sr4 Eu8 Fe8 O28'
_cell_volume   621.08466627
_cell_formula_units_Z   4
loop_
 _symmetry_equiv_pos_site_id
 _symmetry_equiv_pos_as_xyz
  1  'x, y, z'
loop_
 _atom_site_type_symbol
 _atom_site_label
 _atom_site_symmetry_multiplicity
 _atom_site_fract_x
 _atom_site_fract_y
 _atom_site_fract_z
 _atom_site_occupancy
  O  O0  1  0.714519  0.285481  0.000000  1
  O  O1  1  0.214519  0.214519  0.500000  1
  O  O2  1  0.785481  0.785481  0.500000  1
  O  O3  1  0.285481  0.714519  0.000000  1
  O  O4  1  0.000000  0.000000  0.619297  1
  O  O5  1  0.500000  0.500000  0.119297  1
  O  O6  1  0.500000  0.500000  0.880703  1
  O  O7  1  0.000000  0.000000  0.380703  1
  O  O8  1  0.000000  0.000000  0.909924  1
  O  O9  1  0.500000  0.500000  0.409924  1
  O  O10  1  0.500000  0.500000  0.590076  1
  O  O11  1  0.000000  0.000000  0.090076  1
  O  O12  1  0.705558  0.705558  0.703781  1
  O  O13  1  0.294442  0.294442  0.703781  1
  O  O14  1  0.705558  0.705558  0.296219  1
  O  O15  1  0.205558  0.794442  0.203781  1
  O  O16  1  0.794442  0.205558  0.203781  1
  O  O17  1  0.794442  0.205558  0.796219  1
  O  O18  1  0.205558  0.794442  0.796219  1
  O  O19  1  0.294442  0.294442  0.296219  1
  O  O20  1  0.000000  0.500000  0.395951  1
  O  O21  1  0.000000  0.500000  0.895951  1
  O  O22  1  0.500000  0.000000  0.104049  1
  O  O23  1  0.500000  0.000000  0.604049  1
  O  O24  1  0.000000  0.500000  0.604049  1
  O  O25  1  0.000000  0.500000  0.104049  1
  O  O26  1  0.500000  0.000000  0.895951  1
  O  O27  1  0.500000  0.000000  0.395951  1
  Fe  Fe28  1  0.754104  0.754104  0.598678  1
  Fe  Fe29  1  0.245896  0.245896  0.598678  1
  Fe  Fe30  1  0.754104  0.754104  0.401322  1
  Fe  Fe31  1  0.254104  0.745896  0.098678  1
  Fe  Fe32  1  0.745896  0.254104  0.098678  1
  Fe  Fe33  1  0.745896  0.254104  0.901322  1
  Fe  Fe34  1  0.254104  0.745896  0.901322  1
  Fe  Fe35  1  0.245896  0.245896  0.401322  1
  Sr  Sr36  1  0.754384  0.754384  0.000000  1
  Sr  Sr37  1  0.745616  0.254384  0.500000  1
  Sr  Sr38  1  0.254384  0.745616  0.500000  1
  Sr  Sr39  1  0.245616  0.245616  0.000000  1
  Eu  Eu40  1  0.768932  0.768932  0.816467  1
  Eu  Eu41  1  0.231068  0.231068  0.816467  1
  Eu  Eu42  1  0.768932  0.768932  0.183533  1
  Eu  Eu43  1  0.268932  0.731068  0.316467  1
  Eu  Eu44  1  0.731068  0.268932  0.316467  1
  Eu  Eu45  1  0.731068  0.268932  0.683533  1
  Eu  Eu46  1  0.268932  0.731068  0.683533  1
  Eu  Eu47  1  0.231068  0.231068  0.183533  1
