# generated using pymatgen
data_Li3BH6
_symmetry_space_group_name_H-M   'P 1'
_cell_length_a   5.66892089
_cell_length_b   6.02976661
_cell_length_c   5.17057953
_cell_angle_alpha   90.36428136
_cell_angle_beta   84.70103725
_cell_angle_gamma   95.71471420
_symmetry_Int_Tables_number   1
_chemical_formula_structural   Li3BH6
_chemical_formula_sum   'Li6 B2 H12'
_cell_volume   175.11144708
_cell_formula_units_Z   2
loop_
 _symmetry_equiv_pos_site_id
 _symmetry_equiv_pos_as_xyz
  1  'x, y, z'
loop_
 _atom_site_type_symbol
 _atom_site_label
 _atom_site_symmetry_multiplicity
 _atom_site_fract_x
 _atom_site_fract_y
 _atom_site_fract_z
 _atom_site_occupancy
  Li  Li0  1  0.036687  0.222250  0.597694  1
  Li  Li1  1  0.470793  0.765507  0.616252  1
  Li  Li2  1  0.289222  0.461087  0.043175  1
  Li  Li3  1  0.786054  0.514770  0.971064  1
  Li  Li4  1  0.521927  0.128466  0.263771  1
  Li  Li5  1  0.002077  0.710211  0.557007  1
  B  B6  1  0.658052  0.470835  0.442188  1
  B  B7  1  0.872742  0.004909  0.008622  1
  H  H8  1  0.269715  0.959005  0.482219  1
  H  H9  1  0.667684  0.278878  0.528925  1
  H  H10  1  0.995315  0.118435  0.154799  1
  H  H11  1  0.864247  0.507927  0.320205  1
  H  H12  1  0.750035  0.124581  0.897260  1
  H  H13  1  0.429204  0.236741  0.814076  1
  H  H14  1  0.306017  0.797266  0.036154  1
  H  H15  1  0.330235  0.160156  0.887437  1
  H  H16  1  0.007538  0.923386  0.843650  1
  H  H17  1  0.746365  0.855988  0.131113  1
  H  H18  1  0.405721  0.757868  0.109787  1
  H  H19  1  0.090368  0.501733  0.794602  1
