# generated using pymatgen
data_Sr(H2O3)2
_symmetry_space_group_name_H-M   'P 1'
_cell_length_a   5.13869147
_cell_length_b   5.13869147
_cell_length_c   9.38844258
_cell_angle_alpha   103.86702943
_cell_angle_beta   76.13297057
_cell_angle_gamma   110.56925170
_symmetry_Int_Tables_number   1
_chemical_formula_structural   Sr(H2O3)2
_chemical_formula_sum   'Sr2 H8 O12'
_cell_volume   222.02243110
_cell_formula_units_Z   2
loop_
 _symmetry_equiv_pos_site_id
 _symmetry_equiv_pos_as_xyz
  1  'x, y, z'
loop_
 _atom_site_type_symbol
 _atom_site_label
 _atom_site_symmetry_multiplicity
 _atom_site_fract_x
 _atom_site_fract_y
 _atom_site_fract_z
 _atom_site_occupancy
  Sr  Sr0  1  0.883755  0.886627  0.738809  1
  Sr  Sr1  1  0.113373  0.116245  0.238809  1
  H  H2  1  0.100554  0.584338  0.942637  1
  H  H3  1  0.300795  0.988679  0.887007  1
  H  H4  1  0.644001  0.177251  0.615020  1
  H  H5  1  0.822749  0.355999  0.115020  1
  H  H6  1  0.415662  0.899446  0.442637  1
  H  H7  1  0.011321  0.699205  0.387007  1
  H  H8  1  0.354440  0.197011  0.512598  1
  H  H9  1  0.802989  0.645560  0.012598  1
  O  O10  1  0.017348  0.737077  0.984586  1
  O  O11  1  0.841759  0.208907  0.565174  1
  O  O12  1  0.791093  0.158241  0.065174  1
  O  O13  1  0.262923  0.982652  0.484586  1
  O  O14  1  0.412787  0.067250  0.797511  1
  O  O15  1  0.991067  0.393945  0.687562  1
  O  O16  1  0.606055  0.008933  0.187562  1
  O  O17  1  0.932750  0.587213  0.297511  1
  O  O18  1  0.501678  0.520387  0.538750  1
  O  O19  1  0.415968  0.447191  0.904380  1
  O  O20  1  0.552809  0.584032  0.404380  1
  O  O21  1  0.479613  0.498322  0.038750  1
