# generated using pymatgen
data_Nd6In22Pt13
_symmetry_space_group_name_H-M   'P 1'
_cell_length_a   4.50298011
_cell_length_b   14.51855913
_cell_length_c   15.14148806
_cell_angle_alpha   112.11038044
_cell_angle_beta   90.00000000
_cell_angle_gamma   98.92124392
_symmetry_Int_Tables_number   1
_chemical_formula_structural   Nd6In22Pt13
_chemical_formula_sum   'Nd6 In22 Pt13'
_cell_volume   904.16579044
_cell_formula_units_Z   1
loop_
 _symmetry_equiv_pos_site_id
 _symmetry_equiv_pos_as_xyz
  1  'x, y, z'
loop_
 _atom_site_type_symbol
 _atom_site_label
 _atom_site_symmetry_multiplicity
 _atom_site_fract_x
 _atom_site_fract_y
 _atom_site_fract_z
 _atom_site_occupancy
  Nd  Nd0  1  0.453612  0.907224  0.301191  1
  Nd  Nd1  1  0.837221  0.674442  0.469958  1
  Nd  Nd2  1  0.546388  0.092776  0.698809  1
  Nd  Nd3  1  0.162779  0.325558  0.530042  1
  Nd  Nd4  1  0.821756  0.643513  0.919935  1
  Nd  Nd5  1  0.178244  0.356487  0.080065  1
  In  In6  1  0.326059  0.652119  0.280310  1
  In  In7  1  0.875913  0.751825  0.168937  1
  In  In8  1  0.673941  0.347881  0.719690  1
  In  In9  1  0.435342  0.870684  0.497596  1
  In  In10  1  0.857404  0.714809  0.718081  1
  In  In11  1  0.727973  0.455946  0.248276  1
  In  In12  1  0.237413  0.474825  0.916187  1
  In  In13  1  0.408283  0.816566  0.047476  1
  In  In14  1  0.055522  0.111043  0.063756  1
  In  In15  1  0.956906  0.913813  0.660266  1
  In  In16  1  0.762587  0.525175  0.083813  1
  In  In17  1  0.712800  0.425601  0.434702  1
  In  In18  1  0.564658  0.129316  0.502404  1
  In  In19  1  0.287199  0.574399  0.565298  1
  In  In20  1  0.272027  0.544054  0.751724  1
  In  In21  1  0.944478  0.888957  0.936244  1
  In  In22  1  0.591717  0.183434  0.952524  1
  In  In23  1  0.529487  0.058975  0.179020  1
  In  In24  1  0.124087  0.248175  0.831063  1
  In  In25  1  0.470513  0.941025  0.820980  1
  In  In26  1  0.142596  0.285191  0.281919  1
  In  In27  1  0.043093  0.086187  0.339734  1
  Pt  Pt28  1  0.619300  0.238599  0.151486  1
  Pt  Pt29  1  0.901098  0.802197  0.364287  1
  Pt  Pt30  1  0.032793  0.065585  0.860851  1
  Pt  Pt31  1  0.392714  0.785428  0.637048  1
  Pt  Pt32  1  0.098902  0.197803  0.635713  1
  Pt  Pt33  1  0.251659  0.503319  0.363842  1
  Pt  Pt34  1  0.000000  0.000000  0.500000  1
  Pt  Pt35  1  0.320549  0.641098  0.087927  1
  Pt  Pt36  1  0.679451  0.358902  0.912073  1
  Pt  Pt37  1  0.380700  0.761401  0.848514  1
  Pt  Pt38  1  0.967207  0.934415  0.139149  1
  Pt  Pt39  1  0.748341  0.496681  0.636158  1
  Pt  Pt40  1  0.607286  0.214572  0.362952  1
