# generated using pymatgen
data_K2Mn2(SO4)3
_symmetry_space_group_name_H-M   'P 1'
_cell_length_a   10.90333901
_cell_length_b   12.33065889
_cell_length_c   12.32467437
_cell_angle_alpha   90.00000000
_cell_angle_beta   90.00000000
_cell_angle_gamma   90.00000000
_symmetry_Int_Tables_number   1
_chemical_formula_structural   K2Mn2(SO4)3
_chemical_formula_sum   'K8 Mn8 S12 O48'
_cell_volume   1656.99520977
_cell_formula_units_Z   4
loop_
 _symmetry_equiv_pos_site_id
 _symmetry_equiv_pos_as_xyz
  1  'x, y, z'
loop_
 _atom_site_type_symbol
 _atom_site_label
 _atom_site_symmetry_multiplicity
 _atom_site_fract_x
 _atom_site_fract_y
 _atom_site_fract_z
 _atom_site_occupancy
  K  K0  1  0.885700  0.923888  0.793384  1
  K  K1  1  0.114300  0.423888  0.706616  1
  K  K2  1  0.670268  0.458511  0.934709  1
  K  K3  1  0.170268  0.041489  0.065291  1
  K  K4  1  0.385700  0.576112  0.206616  1
  K  K5  1  0.329732  0.958511  0.565291  1
  K  K6  1  0.614300  0.076112  0.293384  1
  K  K7  1  0.829732  0.541489  0.434709  1
  Mn  Mn8  1  0.969562  0.710081  0.008447  1
  Mn  Mn9  1  0.030438  0.210081  0.491553  1
  Mn  Mn10  1  0.799533  0.342622  0.624438  1
  Mn  Mn11  1  0.469562  0.789919  0.991553  1
  Mn  Mn12  1  0.200467  0.842622  0.875562  1
  Mn  Mn13  1  0.299533  0.157378  0.375562  1
  Mn  Mn14  1  0.700467  0.657378  0.124438  1
  Mn  Mn15  1  0.530438  0.289919  0.508447  1
  S  S16  1  0.640578  0.896336  0.072275  1
  S  S17  1  0.359422  0.396336  0.427725  1
  S  S18  1  0.287287  0.368735  0.002880  1
  S  S19  1  0.712713  0.868735  0.497120  1
  S  S20  1  0.057120  0.629043  0.221266  1
  S  S21  1  0.859422  0.103664  0.572275  1
  S  S22  1  0.942880  0.129043  0.278734  1
  S  S23  1  0.212713  0.631265  0.502880  1
  S  S24  1  0.442880  0.370957  0.721266  1
  S  S25  1  0.557120  0.870957  0.778734  1
  S  S26  1  0.787287  0.131265  0.997120  1
  S  S27  1  0.140578  0.603664  0.927725  1
  O  O28  1  0.438905  0.110914  0.075248  1
  O  O29  1  0.457204  0.183566  0.410651  1
  O  O30  1  0.220108  0.558458  0.019791  1
  O  O31  1  0.815265  0.794169  0.484602  1
  O  O32  1  0.779892  0.058458  0.480209  1
  O  O33  1  0.952905  0.237817  0.335936  1
  O  O34  1  0.503017  0.456914  0.656878  1
  O  O35  1  0.915427  0.357059  0.017554  1
  O  O36  1  0.705058  0.322264  0.509152  1
  O  O37  1  0.367597  0.383173  0.096509  1
  O  O38  1  0.415427  0.142941  0.982446  1
  O  O39  1  0.979288  0.134808  0.162740  1
  O  O40  1  0.020712  0.634808  0.337260  1
  O  O41  1  0.867597  0.116827  0.903491  1
  O  O42  1  0.720108  0.941542  0.980209  1
  O  O43  1  0.042796  0.816434  0.910651  1
  O  O44  1  0.300273  0.026016  0.345258  1
  O  O45  1  0.205058  0.177736  0.490848  1
  O  O46  1  0.632403  0.883173  0.403491  1
  O  O47  1  0.047095  0.737817  0.164064  1
  O  O48  1  0.084573  0.857059  0.482446  1
  O  O49  1  0.584573  0.642941  0.517554  1
  O  O50  1  0.542796  0.683566  0.089349  1
  O  O51  1  0.699727  0.526016  0.154742  1
  O  O52  1  0.754534  0.265433  0.725529  1
  O  O53  1  0.957204  0.316434  0.589349  1
  O  O54  1  0.800273  0.473984  0.654742  1
  O  O55  1  0.996983  0.543086  0.156878  1
  O  O56  1  0.496983  0.956914  0.843122  1
  O  O57  1  0.279892  0.441542  0.519791  1
  O  O58  1  0.061095  0.889086  0.575248  1
  O  O59  1  0.452905  0.262183  0.664064  1
  O  O60  1  0.245466  0.765433  0.774471  1
  O  O61  1  0.479288  0.365192  0.837260  1
  O  O62  1  0.520712  0.865192  0.662740  1
  O  O63  1  0.132403  0.616827  0.596509  1
  O  O64  1  0.003017  0.043086  0.343122  1
  O  O65  1  0.938905  0.389086  0.924752  1
  O  O66  1  0.254534  0.234567  0.274471  1
  O  O67  1  0.184735  0.294169  0.015398  1
  O  O68  1  0.547095  0.762183  0.835936  1
  O  O69  1  0.294942  0.822264  0.990848  1
  O  O70  1  0.745466  0.734567  0.225529  1
  O  O71  1  0.684735  0.205831  0.984602  1
  O  O72  1  0.199727  0.973984  0.845258  1
  O  O73  1  0.315265  0.705831  0.515398  1
  O  O74  1  0.561095  0.610914  0.424752  1
  O  O75  1  0.794942  0.677736  0.009152  1
