# generated using pymatgen
data_Al2P2O11F
_symmetry_space_group_name_H-M   'P 1'
_cell_length_a   9.50604581
_cell_length_b   9.69339330
_cell_length_c   9.88608835
_cell_angle_alpha   90.02546216
_cell_angle_beta   89.95421448
_cell_angle_gamma   89.78620529
_symmetry_Int_Tables_number   1
_chemical_formula_structural   Al2P2O11F
_chemical_formula_sum   'Al8 P8 O44 F4'
_cell_volume   910.95519946
_cell_formula_units_Z   4
loop_
 _symmetry_equiv_pos_site_id
 _symmetry_equiv_pos_as_xyz
  1  'x, y, z'
loop_
 _atom_site_type_symbol
 _atom_site_label
 _atom_site_symmetry_multiplicity
 _atom_site_fract_x
 _atom_site_fract_y
 _atom_site_fract_z
 _atom_site_occupancy
  Al  Al0  1  0.600770  0.243337  0.639315  1
  Al  Al1  1  0.853435  0.964299  0.678189  1
  Al  Al2  1  0.354165  0.535680  0.321951  1
  Al  Al3  1  0.898820  0.757199  0.139231  1
  Al  Al4  1  0.145632  0.463406  0.821827  1
  Al  Al5  1  0.400609  0.743738  0.860182  1
  Al  Al6  1  0.647184  0.035496  0.178077  1
  Al  Al7  1  0.099884  0.256255  0.360150  1
  P  P8  1  0.920932  0.982675  0.361949  1
  P  P9  1  0.577298  0.708910  0.142516  1
  P  P10  1  0.579298  0.017330  0.861815  1
  P  P11  1  0.922347  0.291192  0.642921  1
  P  P12  1  0.421263  0.517858  0.638020  1
  P  P13  1  0.078539  0.482621  0.137932  1
  P  P14  1  0.422428  0.208775  0.357589  1
  P  P15  1  0.077887  0.791124  0.857225  1
  O  O16  1  0.016870  0.095390  0.304604  1
  O  O17  1  0.526098  0.836684  0.493968  1
  O  O18  1  0.696174  0.069721  0.600228  1
  O  O19  1  0.235067  0.521282  0.165347  1
  O  O20  1  0.973461  0.162923  0.994402  1
  O  O21  1  0.009341  0.780955  0.997308  1
  O  O22  1  0.990730  0.282058  0.502566  1
  O  O23  1  0.029677  0.660390  0.504372  1
  O  O24  1  0.470176  0.339968  0.004306  1
  O  O25  1  0.072804  0.648239  0.784935  1
  O  O26  1  0.260088  0.913536  0.187559  1
  O  O27  1  0.764327  0.021409  0.334762  1
  O  O28  1  0.303090  0.569108  0.900880  1
  O  O29  1  0.197215  0.430023  0.400584  1
  O  O30  1  0.448243  0.533272  0.486351  1
  O  O31  1  0.505896  0.597122  0.226214  1
  O  O32  1  0.490505  0.218728  0.497234  1
  O  O33  1  0.238726  0.089906  0.690198  1
  O  O34  1  0.947162  0.966946  0.513535  1
  O  O35  1  0.954258  0.843983  0.291038  1
  O  O36  1  0.494406  0.097810  0.273937  1
  O  O37  1  0.483634  0.904625  0.804348  1
  O  O38  1  0.508970  0.717875  0.002857  1
  O  O39  1  0.805606  0.931995  0.100986  1
  O  O40  1  0.553264  0.032771  0.013629  1
  O  O41  1  0.569886  0.851401  0.214887  1
  O  O42  1  0.051695  0.466529  0.986449  1
  O  O43  1  0.765997  0.330840  0.622191  1
  O  O44  1  0.454101  0.656682  0.708358  1
  O  O45  1  0.733638  0.669303  0.122351  1
  O  O46  1  0.761635  0.590125  0.810242  1
  O  O47  1  0.993515  0.402190  0.725990  1
  O  O48  1  0.516234  0.404421  0.695779  1
  O  O49  1  0.006730  0.901869  0.773913  1
  O  O50  1  0.929452  0.148426  0.714918  1
  O  O51  1  0.265997  0.169869  0.377368  1
  O  O52  1  0.264675  0.479313  0.665559  1
  O  O53  1  0.234379  0.829175  0.878292  1
  O  O54  1  0.545840  0.155927  0.790931  1
  O  O55  1  0.045802  0.343918  0.208774  1
  O  O56  1  0.735778  0.978316  0.834275  1
  O  O57  1  0.983470  0.596241  0.195569  1
  O  O58  1  0.427061  0.351222  0.284724  1
  O  O59  1  0.738419  0.408724  0.310611  1
  F  F60  1  0.778682  0.801732  0.639560  1
  F  F61  1  0.277434  0.696615  0.363321  1
  F  F62  1  0.721100  0.198715  0.139877  1
  F  F63  1  0.222200  0.301832  0.861025  1
