# generated using pymatgen
data_Ba9La9Cu9Ru9O46
_symmetry_space_group_name_H-M   'P 1'
_cell_length_a   5.57101088
_cell_length_b   5.59438594
_cell_length_c   52.38124696
_cell_angle_alpha   119.83419019
_cell_angle_beta   119.11517306
_cell_angle_gamma   90.46787875
_symmetry_Int_Tables_number   1
_chemical_formula_structural   Ba9La9Cu9Ru9O46
_chemical_formula_sum   'Ba9 La9 Cu9 Ru9 O46'
_cell_volume   1167.84372756
_cell_formula_units_Z   1
loop_
 _symmetry_equiv_pos_site_id
 _symmetry_equiv_pos_as_xyz
  1  'x, y, z'
loop_
 _atom_site_type_symbol
 _atom_site_label
 _atom_site_symmetry_multiplicity
 _atom_site_fract_x
 _atom_site_fract_y
 _atom_site_fract_z
 _atom_site_occupancy
  Ba  Ba0  1  0.745794  0.264498  0.944103  1
  Ba  Ba1  1  0.744198  0.242489  0.831883  1
  Ba  Ba2  1  0.758431  0.254684  0.724112  1
  Ba  Ba3  1  0.759312  0.254794  0.613364  1
  Ba  Ba4  1  0.762378  0.245288  0.501904  1
  Ba  Ba5  1  0.251532  0.729622  0.277675  1
  Ba  Ba6  1  0.231311  0.731955  0.161099  1
  Ba  Ba7  1  0.727912  0.249690  0.277335  1
  Ba  Ba8  1  0.733763  0.232713  0.161538  1
  La  La9  1  0.163916  0.701150  0.928090  1
  La  La10  1  0.295929  0.795856  0.845153  1
  La  La11  1  0.288578  0.783068  0.730768  1
  La  La12  1  0.297095  0.789702  0.621924  1
  La  La13  1  0.298578  0.776723  0.509856  1
  La  La14  1  0.200339  0.702527  0.385973  1
  La  La15  1  0.718669  0.219941  0.388905  1
  La  La16  1  0.256530  0.743657  0.057410  1
  La  La17  1  0.737694  0.250874  0.056439  1
  Cu  Cu18  1  0.989073  0.996546  0.886668  1
  Cu  Cu19  1  0.498021  0.503989  0.889146  1
  Cu  Cu20  1  0.519246  0.518243  0.781654  1
  Cu  Cu21  1  0.520669  0.520411  0.671259  1
  Cu  Cu22  1  0.519756  0.516389  0.560224  1
  Cu  Cu23  1  0.491202  0.487925  0.444776  1
  Cu  Cu24  1  0.483871  0.482879  0.335121  1
  Cu  Cu25  1  0.476991  0.476381  0.218388  1
  Cu  Cu26  1  0.471989  0.472801  0.107358  1
  Ru  Ru27  1  0.008006  0.008606  0.668487  1
  Ru  Ru28  1  0.000613  -0.000413  0.555851  1
  Ru  Ru29  1  0.005304  0.005427  0.778714  1
  Ru  Ru30  1  0.984333  0.986430  0.444033  1
  Ru  Ru31  1  0.992782  0.990332  0.333828  1
  Ru  Ru32  1  0.953459  0.953330  0.216619  1
  Ru  Ru33  1  -0.002850  -0.002770  0.108701  1
  Ru  Ru34  1  0.029805  0.023644  0.003528  1
  Ru  Ru35  1  0.498598  0.490612  0.003874  1
  O  O36  1  0.279301  0.255383  0.952545  1
  O  O37  1  0.258659  0.757200  0.889751  1
  O  O38  1  0.261395  0.266690  0.891053  1
  O  O39  1  0.233644  0.242155  0.829868  1
  O  O40  1  0.857330  0.821541  0.953233  1
  O  O41  1  0.240322  0.747643  0.773775  1
  O  O42  1  0.240994  0.222335  0.773951  1
  O  O43  1  0.741077  0.751386  0.888279  1
  O  O44  1  0.741088  0.253708  0.889026  1
  O  O45  1  0.238495  0.240981  0.719586  1
  O  O46  1  0.762535  0.750657  0.833239  1
  O  O47  1  0.243250  0.749530  0.663566  1
  O  O48  1  0.240005  0.224037  0.663125  1
  O  O49  1  0.722226  0.744738  0.773505  1
  O  O50  1  0.730175  0.224551  0.774327  1
  O  O51  1  0.232931  0.246830  0.606635  1
  O  O52  1  0.750892  0.755280  0.724180  1
  O  O53  1  0.235510  0.740424  0.551201  1
  O  O54  1  0.226707  0.206259  0.548840  1
  O  O55  1  0.728816  0.746918  0.663705  1
  O  O56  1  0.734589  0.230093  0.664177  1
  O  O57  1  0.246791  0.267105  0.493489  1
  O  O58  1  0.749680  0.753187  0.613566  1
  O  O59  1  0.207858  0.715526  0.437368  1
  O  O60  1  0.732259  0.745044  0.552996  1
  O  O61  1  0.725593  0.219046  0.550877  1
  O  O62  1  0.264688  0.256050  0.389277  1
  O  O63  1  0.707448  0.716928  0.497165  1
  O  O64  1  0.260260  0.740131  0.336285  1
  O  O65  1  0.698745  0.726691  0.435310  1
  O  O66  1  0.766131  0.255577  0.439828  1
  O  O67  1  0.783888  0.782668  0.391346  1
  O  O68  1  0.248192  0.732316  0.220628  1
  O  O69  1  0.794695  0.802221  0.343961  1
  O  O70  1  0.754485  0.270455  0.336250  1
  O  O71  1  0.800206  0.798763  0.284130  1
  O  O72  1  0.194987  0.665656  0.099292  1
  O  O73  1  0.819618  0.816820  0.234149  1
  O  O74  1  0.733575  0.248107  0.220819  1
  O  O75  1  0.793120  0.793641  0.168036  1
  O  O76  1  0.292664  0.782086  0.008572  1
  O  O77  1  0.722678  0.723168  0.104515  1
  O  O78  1  0.667795  0.197161  0.099504  1
  O  O79  1  0.778435  0.776539  0.056715  1
  O  O80  1  0.898709  0.896075  0.023090  1
  O  O81  1  0.792731  0.288705  0.008065  1
