# generated using pymatgen
data_Ga2(Hg4Te5)3
_symmetry_space_group_name_H-M   'P 1'
_cell_length_a   13.96813034
_cell_length_b   8.06384833
_cell_length_c   23.11013457
_cell_angle_alpha   54.42383337
_cell_angle_beta   59.74831304
_cell_angle_gamma   30.00806555
_symmetry_Int_Tables_number   1
_chemical_formula_structural   Ga2(Hg4Te5)3
_chemical_formula_sum   'Ga2 Hg12 Te15'
_cell_volume   1058.84557850
_cell_formula_units_Z   1
loop_
 _symmetry_equiv_pos_site_id
 _symmetry_equiv_pos_as_xyz
  1  'x, y, z'
loop_
 _atom_site_type_symbol
 _atom_site_label
 _atom_site_symmetry_multiplicity
 _atom_site_fract_x
 _atom_site_fract_y
 _atom_site_fract_z
 _atom_site_occupancy
  Ga  Ga0  1  0.333254  0.002761  0.798451  1
  Ga  Ga1  1  0.666746  0.002525  0.798451  1
  Hg  Hg2  1  0.000000  0.022438  0.991480  1
  Hg  Hg3  1  1.000000  0.006039  0.196930  1
  Hg  Hg4  1  0.342114  0.996598  0.991512  1
  Hg  Hg5  1  1.000000  0.990246  0.403630  1
  Hg  Hg6  1  0.332226  0.005575  0.197276  1
  Hg  Hg7  1  1.000000  0.010777  0.609094  1
  Hg  Hg8  1  0.657886  0.022941  0.991512  1
  Hg  Hg9  1  0.329757  0.002541  0.402781  1
  Hg  Hg10  1  0.667774  0.002255  0.197276  1
  Hg  Hg11  1  0.307695  0.010395  0.609161  1
  Hg  Hg12  1  0.670243  0.991813  0.402781  1
  Hg  Hg13  1  0.692305  0.933482  0.609161  1
  Te  Te14  1  0.000000  0.266619  0.043730  1
  Te  Te15  1  0.000000  0.249115  0.250434  1
  Te  Te16  1  0.327069  0.266187  0.044021  1
  Te  Te17  1  1.000000  0.238252  0.456052  1
  Te  Te18  1  0.333265  0.251555  0.249159  1
  Te  Te19  1  1.000000  0.204877  0.677222  1
  Te  Te20  1  0.672931  0.247394  0.044021  1
  Te  Te21  1  0.335563  0.237385  0.456080  1
  Te  Te22  1  1.000000  0.290796  0.837661  1
  Te  Te23  1  0.666735  0.251352  0.249159  1
  Te  Te24  1  0.333273  0.240640  0.655738  1
  Te  Te25  1  0.664437  0.244075  0.456080  1
  Te  Te26  1  0.353725  0.229866  0.837704  1
  Te  Te27  1  0.666727  0.240459  0.655738  1
  Te  Te28  1  0.646275  0.291044  0.837704  1
