# generated using pymatgen
data_CsKMo4(P3O13)2
_symmetry_space_group_name_H-M   'P 1'
_cell_length_a   6.49297218
_cell_length_b   19.13622456
_cell_length_c   19.19060687
_cell_angle_alpha   90.00000000
_cell_angle_beta   90.00000000
_cell_angle_gamma   91.99034449
_symmetry_Int_Tables_number   1
_chemical_formula_structural   CsKMo4(P3O13)2
_chemical_formula_sum   'Cs4 K4 Mo16 P24 O104'
_cell_volume   2383.01303675
_cell_formula_units_Z   4
loop_
 _symmetry_equiv_pos_site_id
 _symmetry_equiv_pos_as_xyz
  1  'x, y, z'
loop_
 _atom_site_type_symbol
 _atom_site_label
 _atom_site_symmetry_multiplicity
 _atom_site_fract_x
 _atom_site_fract_y
 _atom_site_fract_z
 _atom_site_occupancy
  Cs  Cs0  1  0.387464  0.425835  0.155779  1
  Cs  Cs1  1  0.387464  0.925835  0.344221  1
  Cs  Cs2  1  0.612536  0.074165  0.655779  1
  Cs  Cs3  1  0.612536  0.574165  0.844221  1
  K  K4  1  0.198666  0.721314  0.500641  1
  K  K5  1  0.198666  0.221314  0.999359  1
  K  K6  1  0.801334  0.278686  0.499359  1
  K  K7  1  0.801334  0.778686  0.000641  1
  Mo  Mo8  1  0.104610  0.721616  0.833643  1
  Mo  Mo9  1  0.603983  0.218009  0.842236  1
  Mo  Mo10  1  0.872269  0.062180  0.376962  1
  Mo  Mo11  1  0.396017  0.281991  0.342236  1
  Mo  Mo12  1  0.895390  0.778384  0.333643  1
  Mo  Mo13  1  0.628184  0.945225  0.871086  1
  Mo  Mo14  1  0.104610  0.221616  0.666357  1
  Mo  Mo15  1  0.127731  0.937820  0.623038  1
  Mo  Mo16  1  0.127731  0.437820  0.876962  1
  Mo  Mo17  1  0.371816  0.554775  0.371086  1
  Mo  Mo18  1  0.603983  0.718009  0.657764  1
  Mo  Mo19  1  0.895390  0.278384  0.166357  1
  Mo  Mo20  1  0.396017  0.781991  0.157764  1
  Mo  Mo21  1  0.628184  0.445225  0.628914  1
  Mo  Mo22  1  0.371816  0.054775  0.128914  1
  Mo  Mo23  1  0.872269  0.562180  0.123038  1
  P  P24  1  0.371653  0.105225  0.415280  1
  P  P25  1  0.895624  0.902396  0.460798  1
  P  P26  1  0.104376  0.597604  0.960798  1
  P  P27  1  0.607632  0.596941  0.531949  1
  P  P28  1  0.869668  0.099689  0.093822  1
  P  P29  1  0.390316  0.728480  0.320706  1
  P  P30  1  0.628347  0.894775  0.584720  1
  P  P31  1  0.371653  0.605225  0.084720  1
  P  P32  1  0.109346  0.266398  0.830769  1
  P  P33  1  0.869668  0.599689  0.406178  1
  P  P34  1  0.130332  0.900311  0.906178  1
  P  P35  1  0.392368  0.403059  0.468051  1
  P  P36  1  0.109346  0.766398  0.669231  1
  P  P37  1  0.609684  0.271520  0.679294  1
  P  P38  1  0.895624  0.402396  0.039202  1
  P  P39  1  0.104376  0.097604  0.539202  1
  P  P40  1  0.390316  0.228480  0.179294  1
  P  P41  1  0.392368  0.903059  0.031949  1
  P  P42  1  0.628347  0.394775  0.915280  1
  P  P43  1  0.890654  0.733602  0.169231  1
  P  P44  1  0.609684  0.771520  0.820706  1
  P  P45  1  0.607632  0.096941  0.968051  1
  P  P46  1  0.890654  0.233602  0.330769  1
  P  P47  1  0.130332  0.400311  0.593822  1
  O  O48  1  0.071467  0.421590  0.989926  1
  O  O49  1  0.346001  0.531668  0.285452  1
  O  O50  1  0.790592  0.725676  0.843970  1
  O  O51  1  0.570216  0.919110  0.982294  1
  O  O52  1  0.903422  0.854706  0.287285  1
  O  O53  1  0.129579  0.045452  0.598942  1
  O  O54  1  0.691683  0.561240  0.368708  1
  O  O55  1  0.933508  0.941248  0.898491  1
  O  O56  1  0.599965  0.317510  0.900609  1
  O  O57  1  0.915356  0.723633  0.646150  1
  O  O58  1  0.435468  0.938357  0.594393  1
  O  O59  1  0.407028  0.827460  0.059733  1
  O  O60  1  0.176110  0.404851  0.510266  1
  O  O61  1  0.389128  0.213135  0.258098  1
  O  O62  1  0.096578  0.645294  0.787285  1
  O  O63  1  0.429784  0.580890  0.482294  1
  O  O64  1  0.176110  0.904851  0.989734  1
  O  O65  1  0.915356  0.223633  0.853850  1
  O  O66  1  0.085367  0.172483  0.567725  1
  O  O67  1  0.709806  0.279406  0.352255  1
  O  O68  1  0.308317  0.438760  0.631292  1
  O  O69  1  0.582935  0.772588  0.344384  1
  O  O70  1  0.691683  0.061240  0.131292  1
  O  O71  1  0.844012  0.046196  0.290131  1
  O  O72  1  0.155988  0.953804  0.709869  1
  O  O73  1  0.823890  0.095149  0.010266  1
  O  O74  1  0.592972  0.672540  0.559733  1
  O  O75  1  0.193223  0.566805  0.123385  1
  O  O76  1  0.407028  0.327460  0.440267  1
  O  O77  1  0.870421  0.454548  0.098942  1
  O  O78  1  0.564532  0.061643  0.405607  1
  O  O79  1  0.582935  0.272588  0.155616  1
  O  O80  1  0.124439  0.832759  0.623422  1
  O  O81  1  0.084644  0.276367  0.353850  1
  O  O82  1  0.592972  0.172540  0.940267  1
  O  O83  1  0.653999  0.968332  0.785452  1
  O  O84  1  0.823890  0.595149  0.489734  1
  O  O85  1  0.375016  0.160876  0.136651  1
  O  O86  1  0.209408  0.274324  0.156030  1
  O  O87  1  0.875561  0.667241  0.123422  1
  O  O88  1  0.610872  0.786865  0.741902  1
  O  O89  1  0.346001  0.031668  0.214548  1
  O  O90  1  0.085367  0.672483  0.932275  1
  O  O91  1  0.903422  0.354706  0.212715  1
  O  O92  1  0.402498  0.855607  0.208221  1
  O  O93  1  0.806777  0.433195  0.876615  1
  O  O94  1  0.066492  0.558752  0.398491  1
  O  O95  1  0.597502  0.144393  0.791779  1
  O  O96  1  0.624984  0.339124  0.636651  1
  O  O97  1  0.290194  0.220594  0.852255  1
  O  O98  1  0.417065  0.727412  0.844384  1
  O  O99  1  0.129579  0.545452  0.901058  1
  O  O100  1  0.417065  0.227412  0.655616  1
  O  O101  1  0.066492  0.058752  0.101509  1
  O  O102  1  0.323264  0.596547  0.001866  1
  O  O103  1  0.110362  0.286130  0.752821  1
  O  O104  1  0.110362  0.786130  0.747179  1
  O  O105  1  0.371919  0.453504  0.407505  1
  O  O106  1  0.375016  0.660876  0.363349  1
  O  O107  1  0.889638  0.713870  0.247179  1
  O  O108  1  0.429784  0.080890  0.017706  1
  O  O109  1  0.102825  0.322127  0.609716  1
  O  O110  1  0.790592  0.225676  0.656030  1
  O  O111  1  0.389128  0.713135  0.241902  1
  O  O112  1  0.897175  0.177873  0.109716  1
  O  O113  1  0.084644  0.776367  0.146150  1
  O  O114  1  0.914633  0.827517  0.432275  1
  O  O115  1  0.928533  0.078410  0.489926  1
  O  O116  1  0.870421  0.954548  0.401058  1
  O  O117  1  0.570216  0.419110  0.517706  1
  O  O118  1  0.897175  0.677873  0.390284  1
  O  O119  1  0.400035  0.182490  0.400609  1
  O  O120  1  0.624984  0.839124  0.863349  1
  O  O121  1  0.400035  0.682490  0.099391  1
  O  O122  1  0.435468  0.438357  0.905607  1
  O  O123  1  0.628081  0.046496  0.907505  1
  O  O124  1  0.806777  0.933195  0.623385  1
  O  O125  1  0.155988  0.453804  0.790131  1
  O  O126  1  0.096578  0.145294  0.712715  1
  O  O127  1  0.371919  0.953504  0.092495  1
  O  O128  1  0.676736  0.403453  0.998134  1
  O  O129  1  0.402498  0.355607  0.291779  1
  O  O130  1  0.323264  0.096547  0.498134  1
  O  O131  1  0.889638  0.213870  0.252821  1
  O  O132  1  0.610872  0.286865  0.758098  1
  O  O133  1  0.599965  0.817510  0.599391  1
  O  O134  1  0.564532  0.561643  0.094393  1
  O  O135  1  0.290194  0.720594  0.647745  1
  O  O136  1  0.709806  0.779406  0.147745  1
  O  O137  1  0.653999  0.468332  0.714548  1
  O  O138  1  0.193223  0.066805  0.376615  1
  O  O139  1  0.676736  0.903453  0.501866  1
  O  O140  1  0.209408  0.774324  0.343970  1
  O  O141  1  0.102825  0.822127  0.890284  1
  O  O142  1  0.844012  0.546196  0.209869  1
  O  O143  1  0.597502  0.644393  0.708221  1
  O  O144  1  0.933508  0.441248  0.601509  1
  O  O145  1  0.071467  0.921590  0.510074  1
  O  O146  1  0.928533  0.578410  0.010074  1
  O  O147  1  0.914633  0.327517  0.067725  1
  O  O148  1  0.628081  0.546496  0.592495  1
  O  O149  1  0.308317  0.938760  0.868708  1
  O  O150  1  0.875561  0.167241  0.376578  1
  O  O151  1  0.124439  0.332759  0.876578  1
