# generated using pymatgen
data_Ti(PCl6)4
_symmetry_space_group_name_H-M   'P 1'
_cell_length_a   14.49658026
_cell_length_b   15.08381987
_cell_length_c   15.15569408
_cell_angle_alpha   90.00000000
_cell_angle_beta   90.00000000
_cell_angle_gamma   90.00000000
_symmetry_Int_Tables_number   1
_chemical_formula_structural   Ti(PCl6)4
_chemical_formula_sum   'Ti4 P16 Cl96'
_cell_volume   3314.00174060
_cell_formula_units_Z   4
loop_
 _symmetry_equiv_pos_site_id
 _symmetry_equiv_pos_as_xyz
  1  'x, y, z'
loop_
 _atom_site_type_symbol
 _atom_site_label
 _atom_site_symmetry_multiplicity
 _atom_site_fract_x
 _atom_site_fract_y
 _atom_site_fract_z
 _atom_site_occupancy
  Ti  Ti0  1  0.000000  0.625921  0.241618  1
  Ti  Ti1  1  0.000000  0.874079  0.741618  1
  Ti  Ti2  1  0.500000  0.241312  0.374218  1
  Ti  Ti3  1  0.500000  0.258688  0.874218  1
  P  P4  1  0.000000  0.124589  0.258641  1
  P  P5  1  0.000000  0.375411  0.758641  1
  P  P6  1  0.250135  0.000289  0.999604  1
  P  P7  1  0.251112  0.128445  0.628515  1
  P  P8  1  0.250135  0.499711  0.499604  1
  P  P9  1  0.248806  0.872684  0.372557  1
  P  P10  1  0.251112  0.371555  0.128515  1
  P  P11  1  0.248806  0.627316  0.872557  1
  P  P12  1  0.500000  0.741448  0.124952  1
  P  P13  1  0.500000  0.758552  0.624952  1
  P  P14  1  0.749865  0.000289  0.999604  1
  P  P15  1  0.748888  0.128445  0.628515  1
  P  P16  1  0.748888  0.371555  0.128515  1
  P  P17  1  0.751194  0.627316  0.872557  1
  P  P18  1  0.751194  0.872684  0.372557  1
  P  P19  1  0.749865  0.499711  0.499604  1
  Cl  Cl20  1  0.000000  0.010420  0.170199  1
  Cl  Cl21  1  0.000000  0.212996  0.143993  1
  Cl  Cl22  1  0.000000  0.036712  0.372572  1
  Cl  Cl23  1  0.000000  0.239348  0.346968  1
  Cl  Cl24  1  0.000000  0.287004  0.643993  1
  Cl  Cl25  1  0.000000  0.260651  0.846968  1
  Cl  Cl26  1  0.000000  0.489580  0.670199  1
  Cl  Cl27  1  0.000000  0.463288  0.872572  1
  Cl  Cl28  1  0.000000  0.968403  0.615921  1
  Cl  Cl29  1  0.000000  0.780784  0.867207  1
  Cl  Cl30  1  0.000000  0.000303  0.837432  1
  Cl  Cl31  1  0.148946  0.125518  0.259194  1
  Cl  Cl32  1  0.148946  0.374482  0.759194  1
  Cl  Cl33  1  0.162086  0.625769  0.240940  1
  Cl  Cl34  1  0.162086  0.874231  0.740940  1
  Cl  Cl35  1  0.170337  0.125693  0.731367  1
  Cl  Cl36  1  0.169551  0.870152  0.268578  1
  Cl  Cl37  1  0.170337  0.374307  0.231367  1
  Cl  Cl38  1  0.169551  0.629848  0.768578  1
  Cl  Cl39  1  0.171499  0.626133  0.978960  1
  Cl  Cl40  1  0.173321  0.129108  0.521859  1
  Cl  Cl41  1  0.173321  0.370892  0.021859  1
  Cl  Cl42  1  0.171499  0.873867  0.478960  1
  Cl  Cl43  1  0.171910  0.105575  0.993673  1
  Cl  Cl44  1  0.171910  0.394425  0.493673  1
  Cl  Cl45  1  0.170624  0.604635  0.505330  1
  Cl  Cl46  1  0.170624  0.895365  0.005330  1
  Cl  Cl47  1  0.329500  0.504025  0.395409  1
  Cl  Cl48  1  0.328346  0.492531  0.604775  1
  Cl  Cl49  1  0.328346  0.007469  0.104775  1
  Cl  Cl50  1  0.329500  0.995975  0.895409  1
  Cl  Cl51  1  0.327773  0.979120  0.372440  1
  Cl  Cl52  1  0.327522  0.478830  0.127452  1
  Cl  Cl53  1  0.327773  0.520880  0.872440  1
  Cl  Cl54  1  0.327522  0.021170  0.627452  1
  Cl  Cl55  1  0.331623  0.268122  0.128287  1
  Cl  Cl56  1  0.331623  0.231878  0.628287  1
  Cl  Cl57  1  0.328321  0.768205  0.372891  1
  Cl  Cl58  1  0.328321  0.731795  0.872891  1
  Cl  Cl59  1  0.337799  0.259188  0.874104  1
  Cl  Cl60  1  0.351140  0.740872  0.125577  1
  Cl  Cl61  1  0.337799  0.240812  0.374104  1
  Cl  Cl62  1  0.351140  0.759128  0.625577  1
  Cl  Cl63  1  0.500000  0.115056  0.468818  1
  Cl  Cl64  1  0.500000  0.337290  0.498510  1
  Cl  Cl65  1  0.500000  0.384944  0.968818  1
  Cl  Cl66  1  0.500000  0.141921  0.250684  1
  Cl  Cl67  1  0.500000  0.368502  0.281016  1
  Cl  Cl68  1  0.500000  0.131498  0.781016  1
  Cl  Cl69  1  0.500000  0.162710  0.998510  1
  Cl  Cl70  1  0.500000  0.358079  0.750684  1
  Cl  Cl71  1  0.500000  0.627341  0.037420  1
  Cl  Cl72  1  0.500000  0.652355  0.239223  1
  Cl  Cl73  1  0.500000  0.830806  0.010710  1
  Cl  Cl74  1  0.500000  0.856397  0.212364  1
  Cl  Cl75  1  0.500000  0.643603  0.712364  1
  Cl  Cl76  1  0.500000  0.847645  0.739223  1
  Cl  Cl77  1  0.500000  0.669194  0.510710  1
  Cl  Cl78  1  0.500000  0.872659  0.537420  1
  Cl  Cl79  1  0.662201  0.240812  0.374104  1
  Cl  Cl80  1  0.648860  0.759128  0.625577  1
  Cl  Cl81  1  0.662201  0.259188  0.874104  1
  Cl  Cl82  1  0.648860  0.740872  0.125577  1
  Cl  Cl83  1  0.668377  0.231878  0.628287  1
  Cl  Cl84  1  0.668377  0.268122  0.128287  1
  Cl  Cl85  1  0.671679  0.731795  0.872891  1
  Cl  Cl86  1  0.671679  0.768205  0.372891  1
  Cl  Cl87  1  0.672478  0.478830  0.127452  1
  Cl  Cl88  1  0.672227  0.520880  0.872440  1
  Cl  Cl89  1  0.672227  0.979120  0.372440  1
  Cl  Cl90  1  0.672478  0.021170  0.627452  1
  Cl  Cl91  1  0.671654  0.007469  0.104775  1
  Cl  Cl92  1  0.670500  0.995975  0.895409  1
  Cl  Cl93  1  0.670500  0.504025  0.395409  1
  Cl  Cl94  1  0.671654  0.492531  0.604775  1
  Cl  Cl95  1  0.828090  0.105575  0.993673  1
  Cl  Cl96  1  0.828090  0.394425  0.493673  1
  Cl  Cl97  1  0.829376  0.604635  0.505330  1
  Cl  Cl98  1  0.829376  0.895365  0.005330  1
  Cl  Cl99  1  0.826679  0.129108  0.521859  1
  Cl  Cl100  1  0.828501  0.626133  0.978960  1
  Cl  Cl101  1  0.828501  0.873867  0.478960  1
  Cl  Cl102  1  0.826679  0.370892  0.021859  1
  Cl  Cl103  1  0.829663  0.374307  0.231367  1
  Cl  Cl104  1  0.830449  0.629848  0.768578  1
  Cl  Cl105  1  0.829663  0.125693  0.731367  1
  Cl  Cl106  1  0.830449  0.870152  0.268578  1
  Cl  Cl107  1  0.851054  0.125518  0.259194  1
  Cl  Cl108  1  0.851054  0.374482  0.759194  1
  Cl  Cl109  1  0.837914  0.625769  0.240940  1
  Cl  Cl110  1  0.837914  0.874231  0.740940  1
  Cl  Cl111  1  0.000000  0.499697  0.337432  1
  Cl  Cl112  1  0.000000  0.531597  0.115921  1
  Cl  Cl113  1  0.000000  0.719216  0.367207  1
  Cl  Cl114  1  0.000000  0.752210  0.144509  1
  Cl  Cl115  1  0.000000  0.747790  0.644509  1
