# generated using pymatgen
data_K4ErP6H6ClO21
_symmetry_space_group_name_H-M   'P 1'
_cell_length_a   10.03226133
_cell_length_b   10.03222907
_cell_length_c   12.27385197
_cell_angle_alpha   90.00000000
_cell_angle_beta   90.00000000
_cell_angle_gamma   120.00026305
_symmetry_Int_Tables_number   1
_chemical_formula_structural   K4ErP6H6ClO21
_chemical_formula_sum   'K8 Er2 P12 H12 Cl2 O42'
_cell_volume   1069.80996370
_cell_formula_units_Z   2
loop_
 _symmetry_equiv_pos_site_id
 _symmetry_equiv_pos_as_xyz
  1  'x, y, z'
loop_
 _atom_site_type_symbol
 _atom_site_label
 _atom_site_symmetry_multiplicity
 _atom_site_fract_x
 _atom_site_fract_y
 _atom_site_fract_z
 _atom_site_occupancy
  K  K0  1  0.724955  0.675738  0.250000  1
  K  K1  1  0.950772  0.275049  0.250000  1
  K  K2  1  0.324264  0.049214  0.250000  1
  K  K3  1  0.275045  0.324262  0.750000  1
  K  K4  1  0.049228  0.724951  0.750000  1
  K  K5  1  0.675736  0.950786  0.750000  1
  K  K6  1  0.000000  0.000000  0.500000  1
  K  K7  1  0.000000  0.000000  0.000000  1
  Er  Er8  1  0.333359  0.666687  0.250000  1
  Er  Er9  1  0.666641  0.333313  0.750000  1
  P  P10  1  0.283143  0.801398  0.508220  1
  P  P11  1  0.518258  0.716861  0.508221  1
  P  P12  1  0.198606  0.481746  0.508218  1
  P  P13  1  0.716857  0.198602  0.008220  1
  P  P14  1  0.481742  0.283139  0.008221  1
  P  P15  1  0.801394  0.518254  0.008218  1
  P  P16  1  0.716857  0.198602  0.491780  1
  P  P17  1  0.481742  0.283139  0.491779  1
  P  P18  1  0.801394  0.518254  0.491782  1
  P  P19  1  0.283143  0.801398  0.991780  1
  P  P20  1  0.518258  0.716861  0.991779  1
  P  P21  1  0.198606  0.481746  0.991782  1
  H  H22  1  0.033424  0.638149  0.314545  1
  H  H23  1  0.604732  0.966583  0.314546  1
  H  H24  1  0.361850  0.395272  0.314545  1
  H  H25  1  0.966576  0.361851  0.814545  1
  H  H26  1  0.395268  0.033417  0.814546  1
  H  H27  1  0.638150  0.604728  0.814546  1
  H  H28  1  0.966576  0.361851  0.685455  1
  H  H29  1  0.395268  0.033417  0.685454  1
  H  H30  1  0.638150  0.604728  0.685454  1
  H  H31  1  0.033424  0.638149  0.185455  1
  H  H32  1  0.604732  0.966583  0.185454  1
  H  H33  1  0.361850  0.395272  0.185454  1
  Cl  Cl34  1  0.000001  0.000002  0.250000  1
  Cl  Cl35  1  0.999999  0.999998  0.750000  1
  O  O36  1  0.282528  0.806592  0.385672  1
  O  O37  1  0.524070  0.717482  0.385673  1
  O  O38  1  0.193416  0.475935  0.385670  1
  O  O39  1  0.717472  0.193408  0.885672  1
  O  O40  1  0.475930  0.282518  0.885673  1
  O  O41  1  0.806584  0.524065  0.885670  1
  O  O42  1  0.717472  0.193408  0.614328  1
  O  O43  1  0.475930  0.282518  0.614327  1
  O  O44  1  0.806584  0.524065  0.614330  1
  O  O45  1  0.282528  0.806592  0.114328  1
  O  O46  1  0.524070  0.717482  0.114327  1
  O  O47  1  0.193416  0.475935  0.114330  1
  O  O48  1  0.243764  0.900986  0.574793  1
  O  O49  1  0.657225  0.756239  0.574795  1
  O  O50  1  0.099014  0.342775  0.574792  1
  O  O51  1  0.756236  0.099014  0.074793  1
  O  O52  1  0.342775  0.243761  0.074795  1
  O  O53  1  0.900986  0.657225  0.074792  1
  O  O54  1  0.756236  0.099014  0.425207  1
  O  O55  1  0.342775  0.243761  0.425205  1
  O  O56  1  0.900986  0.657225  0.425208  1
  O  O57  1  0.243764  0.900986  0.925207  1
  O  O58  1  0.657225  0.756239  0.925205  1
  O  O59  1  0.099014  0.342775  0.925208  1
  O  O60  1  0.171686  0.622769  0.548042  1
  O  O61  1  0.451085  0.828316  0.548044  1
  O  O62  1  0.377232  0.548918  0.548043  1
  O  O63  1  0.828314  0.377231  0.048042  1
  O  O64  1  0.548915  0.171684  0.048044  1
  O  O65  1  0.622768  0.451082  0.048043  1
  O  O66  1  0.828314  0.377231  0.451958  1
  O  O67  1  0.548915  0.171684  0.451956  1
  O  O68  1  0.622768  0.451082  0.451957  1
  O  O69  1  0.171686  0.622769  0.951958  1
  O  O70  1  0.451085  0.828316  0.951956  1
  O  O71  1  0.377232  0.548918  0.951957  1
  O  O72  1  0.058101  0.595993  0.250000  1
  O  O73  1  0.537898  0.941897  0.250000  1
  O  O74  1  0.404007  0.462105  0.250000  1
  O  O75  1  0.941899  0.404007  0.750000  1
  O  O76  1  0.462102  0.058103  0.750000  1
  O  O77  1  0.595993  0.537895  0.750000  1
