# generated using pymatgen
data_MnC4IO4
_symmetry_space_group_name_H-M   'P 1'
_cell_length_a   9.90578362
_cell_length_b   12.42382745
_cell_length_c   13.19086176
_cell_angle_alpha   90.00000000
_cell_angle_beta   108.59100848
_cell_angle_gamma   90.00000000
_symmetry_Int_Tables_number   1
_chemical_formula_structural   MnC4IO4
_chemical_formula_sum   'Mn8 C32 I8 O32'
_cell_volume   1538.65969329
_cell_formula_units_Z   8
loop_
 _symmetry_equiv_pos_site_id
 _symmetry_equiv_pos_as_xyz
  1  'x, y, z'
loop_
 _atom_site_type_symbol
 _atom_site_label
 _atom_site_symmetry_multiplicity
 _atom_site_fract_x
 _atom_site_fract_y
 _atom_site_fract_z
 _atom_site_occupancy
  Mn  Mn0  1  0.103267  0.131705  0.312913  1
  Mn  Mn1  1  0.896733  0.631705  0.187087  1
  Mn  Mn2  1  0.671370  0.367957  0.707846  1
  Mn  Mn3  1  0.671370  0.132043  0.207846  1
  Mn  Mn4  1  0.328630  0.867957  0.792154  1
  Mn  Mn5  1  0.103267  0.368295  0.812913  1
  Mn  Mn6  1  0.328630  0.632043  0.292154  1
  Mn  Mn7  1  0.896733  0.868295  0.687087  1
  C  C8  1  0.462737  0.784134  0.887129  1
  C  C9  1  0.758416  0.786078  0.713289  1
  C  C10  1  0.238933  0.044642  0.403121  1
  C  C11  1  0.907476  0.957401  0.805587  1
  C  C12  1  0.899129  0.777502  0.573060  1
  C  C13  1  0.092524  0.457401  0.694413  1
  C  C14  1  0.316685  0.540211  0.402122  1
  C  C15  1  0.092524  0.042599  0.194413  1
  C  C16  1  0.761067  0.955358  0.596879  1
  C  C17  1  0.238933  0.455358  0.903121  1
  C  C18  1  0.535327  0.046778  0.234070  1
  C  C19  1  0.241584  0.213922  0.286711  1
  C  C20  1  0.537263  0.215866  0.112871  1
  C  C21  1  0.761067  0.544642  0.096879  1
  C  C22  1  0.758416  0.713922  0.213289  1
  C  C23  1  0.537263  0.284134  0.612871  1
  C  C24  1  0.535327  0.453222  0.734070  1
  C  C25  1  0.100871  0.277502  0.926940  1
  C  C26  1  0.464673  0.953222  0.765930  1
  C  C27  1  0.100871  0.222498  0.426940  1
  C  C28  1  0.316685  0.959789  0.902122  1
  C  C29  1  0.462737  0.715866  0.387129  1
  C  C30  1  0.907476  0.542599  0.305587  1
  C  C31  1  0.241584  0.286078  0.786711  1
  C  C32  1  0.683315  0.040211  0.097878  1
  C  C33  1  0.323927  0.775815  0.677140  1
  C  C34  1  0.676073  0.275815  0.822860  1
  C  C35  1  0.323927  0.724185  0.177140  1
  C  C36  1  0.676073  0.224185  0.322860  1
  C  C37  1  0.683315  0.459789  0.597878  1
  C  C38  1  0.899129  0.722498  0.073060  1
  C  C39  1  0.464673  0.546778  0.265930  1
  I  I40  1  0.885511  0.014216  0.346469  1
  I  I41  1  0.887817  0.252467  0.178034  1
  I  I42  1  0.112183  0.747533  0.821966  1
  I  I43  1  0.112183  0.752467  0.321966  1
  I  I44  1  0.887817  0.247533  0.678034  1
  I  I45  1  0.114489  0.514216  0.153531  1
  I  I46  1  0.885511  0.485784  0.846469  1
  I  I47  1  0.114489  0.985784  0.653531  1
  O  O48  1  0.911233  0.488750  0.377900  1
  O  O49  1  0.675020  0.280588  0.392395  1
  O  O50  1  0.675020  0.219412  0.892395  1
  O  O51  1  0.450784  0.267497  0.052243  1
  O  O52  1  0.911233  0.011250  0.877900  1
  O  O53  1  0.313489  0.017274  0.970504  1
  O  O54  1  0.324980  0.780588  0.107605  1
  O  O55  1  0.672617  0.491267  0.040394  1
  O  O56  1  0.549216  0.732503  0.947757  1
  O  O57  1  0.104967  0.278716  0.497785  1
  O  O58  1  0.104967  0.221284  0.997785  1
  O  O59  1  0.332250  0.235676  0.771711  1
  O  O60  1  0.672617  0.008733  0.540394  1
  O  O61  1  0.447950  0.506096  0.750737  1
  O  O62  1  0.552050  0.006096  0.749263  1
  O  O63  1  0.450784  0.232503  0.552243  1
  O  O64  1  0.332250  0.264324  0.271711  1
  O  O65  1  0.549216  0.767497  0.447757  1
  O  O66  1  0.895034  0.778716  0.002215  1
  O  O67  1  0.324980  0.719412  0.607605  1
  O  O68  1  0.686511  0.982726  0.029496  1
  O  O69  1  0.447950  0.993904  0.250737  1
  O  O70  1  0.667750  0.764324  0.228289  1
  O  O71  1  0.686511  0.517274  0.529496  1
  O  O72  1  0.313489  0.482726  0.470504  1
  O  O73  1  0.327383  0.991267  0.459606  1
  O  O74  1  0.552050  0.493904  0.249263  1
  O  O75  1  0.088767  0.511250  0.622100  1
  O  O76  1  0.327383  0.508733  0.959606  1
  O  O77  1  0.895034  0.721284  0.502215  1
  O  O78  1  0.088767  0.988750  0.122100  1
  O  O79  1  0.667750  0.735676  0.728289  1
