# generated using pymatgen
data_Mn5Ge3
_symmetry_space_group_name_H-M   'P 1'
_cell_length_a   7.12726052
_cell_length_b   7.13989803
_cell_length_c   4.98262974
_cell_angle_alpha   89.99681767
_cell_angle_beta   89.99056030
_cell_angle_gamma   119.93578791
_symmetry_Int_Tables_number   1
_chemical_formula_structural   Mn5Ge3
_chemical_formula_sum   'Mn10 Ge6'
_cell_volume   219.72755482
_cell_formula_units_Z   2
loop_
 _symmetry_equiv_pos_site_id
 _symmetry_equiv_pos_as_xyz
  1  'x, y, z'
loop_
 _atom_site_type_symbol
 _atom_site_label
 _atom_site_symmetry_multiplicity
 _atom_site_fract_x
 _atom_site_fract_y
 _atom_site_fract_z
 _atom_site_occupancy
  Mn  Mn0  1  0.242362  0.242527  0.749857  1
  Mn  Mn1  1  -0.000009  0.757575  0.750099  1
  Mn  Mn2  1  0.759169  0.000360  0.750165  1
  Mn  Mn3  1  0.240805  0.000278  0.249950  1
  Mn  Mn4  1  0.333198  0.666574  -0.000044  1
  Mn  Mn5  1  0.757363  0.757485  0.249701  1
  Mn  Mn6  1  0.666584  0.332998  0.000018  1
  Mn  Mn7  1  0.000108  0.241800  0.250366  1
  Mn  Mn8  1  0.333437  0.666928  0.500009  1
  Mn  Mn9  1  0.666762  0.333121  0.500052  1
  Ge  Ge10  1  0.604672  0.999959  0.249524  1
  Ge  Ge11  1  0.604922  0.604908  0.750123  1
  Ge  Ge12  1  0.999876  0.604700  0.249711  1
  Ge  Ge13  1  0.000288  0.395425  0.750367  1
  Ge  Ge14  1  0.395299  0.395472  0.249737  1
  Ge  Ge15  1  0.395165  0.999890  0.750365  1
