# generated using pymatgen
data_TlAgAs2PbS5
_symmetry_space_group_name_H-M   'P 1'
_cell_length_a   8.13174192
_cell_length_b   8.36080673
_cell_length_c   46.52635524
_cell_angle_alpha   63.81993149
_cell_angle_beta   73.85568454
_cell_angle_gamma   65.29279929
_symmetry_Int_Tables_number   1
_chemical_formula_structural   TlAgAs2PbS5
_chemical_formula_sum   'Tl10 Ag10 As20 Pb10 S50'
_cell_volume   2561.78168994
_cell_formula_units_Z   10
loop_
 _symmetry_equiv_pos_site_id
 _symmetry_equiv_pos_as_xyz
  1  'x, y, z'
loop_
 _atom_site_type_symbol
 _atom_site_label
 _atom_site_symmetry_multiplicity
 _atom_site_fract_x
 _atom_site_fract_y
 _atom_site_fract_z
 _atom_site_occupancy
  Tl  Tl0  1  0.304271  0.143006  0.028044  1
  Tl  Tl1  1  0.255216  0.456405  0.119770  1
  Tl  Tl2  1  0.306020  0.145468  0.226291  1
  Tl  Tl3  1  0.255439  0.455719  0.319813  1
  Tl  Tl4  1  0.306062  0.145534  0.426201  1
  Tl  Tl5  1  0.255482  0.455798  0.519776  1
  Tl  Tl6  1  0.306150  0.145558  0.626172  1
  Tl  Tl7  1  0.255881  0.455542  0.719825  1
  Tl  Tl8  1  0.305831  0.146187  0.826418  1
  Tl  Tl9  1  0.688804  0.846793  0.975770  1
  Ag  Ag10  1  0.111944  0.752943  0.018692  1
  Ag  Ag11  1  0.110262  0.763318  0.217775  1
  Ag  Ag12  1  0.110204  0.763470  0.417708  1
  Ag  Ag13  1  0.110314  0.763209  0.617729  1
  Ag  Ag14  1  0.894729  0.242376  0.181331  1
  Ag  Ag15  1  0.112740  0.760917  0.817963  1
  Ag  Ag16  1  0.895132  0.242337  0.381228  1
  Ag  Ag17  1  0.895328  0.241932  0.581234  1
  Ag  Ag18  1  0.894066  0.242772  0.781412  1
  Ag  Ag19  1  0.887745  0.239432  0.982312  1
  As  As20  1  0.109300  0.035433  0.127811  1
  As  As21  1  0.109367  0.036319  0.327637  1
  As  As22  1  0.548137  0.393701  0.036936  1
  As  As23  1  0.109527  0.036233  0.527642  1
  As  As24  1  0.449570  0.618185  0.161337  1
  As  As25  1  0.545772  0.401845  0.236303  1
  As  As26  1  0.109755  0.036337  0.727857  1
  As  As27  1  0.449218  0.618070  0.361464  1
  As  As28  1  0.545876  0.401463  0.436311  1
  As  As29  1  0.110275  0.040114  0.926639  1
  As  As30  1  0.882155  0.964410  0.075152  1
  As  As31  1  0.449211  0.617947  0.561456  1
  As  As32  1  0.545956  0.401740  0.636211  1
  As  As33  1  0.884153  0.960978  0.274723  1
  As  As34  1  0.448791  0.618251  0.761464  1
  As  As35  1  0.545592  0.393574  0.837457  1
  As  As36  1  0.884126  0.960758  0.474679  1
  As  As37  1  0.449766  0.615664  0.961568  1
  As  As38  1  0.884357  0.961975  0.674508  1
  As  As39  1  0.892301  0.957063  0.872086  1
  Pb  Pb40  1  0.751098  0.524831  0.081837  1
  Pb  Pb41  1  0.689630  0.816337  0.171968  1
  Pb  Pb42  1  0.750473  0.528827  0.282285  1
  Pb  Pb43  1  0.690078  0.815149  0.372451  1
  Pb  Pb44  1  0.751082  0.528349  0.482286  1
  Pb  Pb45  1  0.243857  0.461494  0.919890  1
  Pb  Pb46  1  0.690215  0.815106  0.572401  1
  Pb  Pb47  1  0.750718  0.528959  0.682103  1
  Pb  Pb48  1  0.695857  0.817873  0.771442  1
  Pb  Pb49  1  0.756288  0.536780  0.882757  1
  S  S50  1  0.120751  0.295628  0.082694  1
  S  S51  1  0.216852  0.058342  0.165826  1
  S  S52  1  0.120661  0.295332  0.282430  1
  S  S53  1  0.184899  0.563635  0.184438  1
  S  S54  1  0.390317  0.667124  0.044785  1
  S  S55  1  0.217467  0.058362  0.365785  1
  S  S56  1  0.625611  0.190863  0.089981  1
  S  S57  1  0.371519  0.826850  0.110063  1
  S  S58  1  0.120772  0.295281  0.482426  1
  S  S59  1  0.184431  0.563497  0.384481  1
  S  S60  1  0.627554  0.350318  0.151249  1
  S  S61  1  0.392110  0.670665  0.245293  1
  S  S62  1  0.217730  0.058458  0.565739  1
  S  S63  1  0.823261  0.430521  0.016520  1
  S  S64  1  0.631637  0.197800  0.288244  1
  S  S65  1  0.371765  0.826757  0.310187  1
  S  S66  1  0.120297  0.294886  0.682526  1
  S  S67  1  0.184290  0.563686  0.584468  1
  S  S68  1  0.790615  0.917822  0.038134  1
  S  S69  1  0.627371  0.350092  0.351304  1
  S  S70  1  0.392818  0.670821  0.445171  1
  S  S71  1  0.218319  0.058673  0.765942  1
  S  S72  1  0.823417  0.445976  0.214361  1
  S  S73  1  0.849026  0.706521  0.119945  1
  S  S74  1  0.631646  0.197619  0.488275  1
  S  S75  1  0.371854  0.826677  0.510175  1
  S  S76  1  0.130752  0.303249  0.882428  1
  S  S77  1  0.183555  0.563694  0.784373  1
  S  S78  1  0.786752  0.918679  0.238310  1
  S  S79  1  0.627432  0.349828  0.551354  1
  S  S80  1  0.393025  0.670851  0.645132  1
  S  S81  1  0.212505  0.078895  0.963131  1
  S  S82  1  0.823695  0.445125  0.414452  1
  S  S83  1  0.847360  0.707272  0.320127  1
  S  S84  1  0.631583  0.197824  0.688216  1
  S  S85  1  0.371247  0.827437  0.710189  1
  S  S86  1  0.182479  0.564004  0.982596  1
  S  S87  1  0.786634  0.918447  0.438298  1
  S  S88  1  0.626619  0.351464  0.750963  1
  S  S89  1  0.380114  0.653120  0.849942  1
  S  S90  1  0.824074  0.444779  0.614442  1
  S  S91  1  0.847349  0.707153  0.520099  1
  S  S92  1  0.638079  0.187597  0.887988  1
  S  S93  1  0.369430  0.822040  0.909525  1
  S  S94  1  0.786754  0.918956  0.638234  1
  S  S95  1  0.622292  0.350406  0.949719  1
  S  S96  1  0.817804  0.450336  0.814301  1
  S  S97  1  0.847995  0.707545  0.719906  1
  S  S98  1  0.784545  0.928872  0.835183  1
  S  S99  1  0.866814  0.697739  0.916528  1
