# generated using pymatgen
data_DyNiGe2
_symmetry_space_group_name_H-M   'P 1'
_cell_length_a   4.18389654
_cell_length_b   8.54450971
_cell_length_c   9.26581535
_cell_angle_alpha   117.45663118
_cell_angle_beta   103.04819532
_cell_angle_gamma   89.99999732
_symmetry_Int_Tables_number   1
_chemical_formula_structural   DyNiGe2
_chemical_formula_sum   'Dy4 Ni4 Ge8'
_cell_volume   284.26219714
_cell_formula_units_Z   4
loop_
 _symmetry_equiv_pos_site_id
 _symmetry_equiv_pos_as_xyz
  1  'x, y, z'
loop_
 _atom_site_type_symbol
 _atom_site_label
 _atom_site_symmetry_multiplicity
 _atom_site_fract_x
 _atom_site_fract_y
 _atom_site_fract_z
 _atom_site_occupancy
  Dy  Dy0  1  0.794979  0.294979  0.589957  1
  Dy  Dy1  1  1.000000  0.734430  0.000000  1
  Dy  Dy2  1  0.000000  0.265570  1.000000  1
  Dy  Dy3  1  0.205021  0.705021  0.410043  1
  Ni  Ni4  1  0.351178  0.600713  0.702355  1
  Ni  Ni5  1  0.648822  0.898357  0.297645  1
  Ni  Ni6  1  0.648822  0.399287  0.297645  1
  Ni  Ni7  1  0.351178  0.101643  0.702355  1
  Ge  Ge8  1  0.804910  0.962400  0.609819  1
  Ge  Ge9  1  0.419614  0.919614  0.839228  1
  Ge  Ge10  1  0.195090  0.037600  0.390181  1
  Ge  Ge11  1  0.195090  0.352580  0.390181  1
  Ge  Ge12  1  0.804910  0.647420  0.609819  1
  Ge  Ge13  1  0.577360  0.577360  0.154720  1
  Ge  Ge14  1  0.580386  0.080386  0.160772  1
  Ge  Ge15  1  0.422640  0.422640  0.845280  1
