# generated using pymatgen
data_BaRe2Sn
_symmetry_space_group_name_H-M   'P 1'
_cell_length_a   4.97238449
_cell_length_b   4.97237537
_cell_length_c   4.97236319
_cell_angle_alpha   60.00038475
_cell_angle_beta   59.99998890
_cell_angle_gamma   60.00001604
_symmetry_Int_Tables_number   1
_chemical_formula_structural   BaRe2Sn
_chemical_formula_sum   'Ba1 Re2 Sn1'
_cell_volume   86.93161215
_cell_formula_units_Z   1
loop_
 _symmetry_equiv_pos_site_id
 _symmetry_equiv_pos_as_xyz
  1  'x, y, z'
loop_
 _atom_site_type_symbol
 _atom_site_label
 _atom_site_symmetry_multiplicity
 _atom_site_fract_x
 _atom_site_fract_y
 _atom_site_fract_z
 _atom_site_occupancy
  Ba  Ba0  1  0.499999  0.500003  0.499996  1
  Re  Re1  1  0.000002  0.999997  1.000000  1
  Re  Re2  1  0.249998  0.250002  0.250005  1
  Sn  Sn3  1  0.750001  0.749998  0.749999  1
