# generated using pymatgen
data_Na4Cr13Se23
_symmetry_space_group_name_H-M   'P 1'
_cell_length_a   13.08783359
_cell_length_b   13.08783359
_cell_length_c   78.52654642
_cell_angle_alpha   16.01532066
_cell_angle_beta   16.01532065
_cell_angle_gamma   16.18342342
_symmetry_Int_Tables_number   1
_chemical_formula_structural   Na4Cr13Se23
_chemical_formula_sum   'Na4 Cr13 Se23'
_cell_volume   898.52097948
_cell_formula_units_Z   1
loop_
 _symmetry_equiv_pos_site_id
 _symmetry_equiv_pos_as_xyz
  1  'x, y, z'
loop_
 _atom_site_type_symbol
 _atom_site_label
 _atom_site_symmetry_multiplicity
 _atom_site_fract_x
 _atom_site_fract_y
 _atom_site_fract_z
 _atom_site_occupancy
  Na  Na0  1  0.666829  0.666829  0.277431  1
  Na  Na1  1  0.683211  0.683211  0.605321  1
  Na  Na2  1  0.666303  0.666303  0.777500  1
  Na  Na3  1  0.649744  0.649744  0.948939  1
  Cr  Cr4  1  0.485805  0.485805  0.086486  1
  Cr  Cr5  1  0.567724  0.567724  0.099463  1
  Cr  Cr6  1  0.439243  0.439243  0.232861  1
  Cr  Cr7  1  0.588583  0.588583  0.257389  1
  Cr  Cr8  1  0.433635  0.433635  0.399681  1
  Cr  Cr9  1  0.501575  0.501575  0.416042  1
  Cr  Cr10  1  0.562722  0.562722  0.434760  1
  Cr  Cr11  1  0.417018  0.417018  0.573875  1
  Cr  Cr12  1  0.575797  0.575797  0.594911  1
  Cr  Cr13  1  0.421698  0.421698  0.739097  1
  Cr  Cr14  1  0.573981  0.573981  0.761823  1
  Cr  Cr15  1  0.439409  0.439409  0.901482  1
  Cr  Cr16  1  0.583072  0.583072  0.925833  1
  Se  Se17  1  0.201633  0.201633  0.034601  1
  Se  Se18  1  0.043512  0.043512  0.180343  1
  Se  Se19  1  0.208060  0.208060  0.199337  1
  Se  Se20  1  0.062223  0.062223  0.340295  1
  Se  Se21  1  0.806601  0.806601  0.128994  1
  Se  Se22  1  0.202194  0.202194  0.367920  1
  Se  Se23  1  0.946395  0.946395  0.157116  1
  Se  Se24  1  0.057450  0.057450  0.509138  1
  Se  Se25  1  0.792677  0.792677  0.299788  1
  Se  Se26  1  0.203927  0.203927  0.534199  1
  Se  Se27  1  0.946735  0.946735  0.322216  1
  Se  Se28  1  0.052242  0.052242  0.676703  1
  Se  Se29  1  0.795674  0.795674  0.465978  1
  Se  Se30  1  0.205744  0.205744  0.700696  1
  Se  Se31  1  0.947031  0.947031  0.490329  1
  Se  Se32  1  0.022997  0.022997  0.852878  1
  Se  Se33  1  0.785997  0.785997  0.635161  1
  Se  Se34  1  0.206092  0.206092  0.867198  1
  Se  Se35  1  0.949448  0.949448  0.655468  1
  Se  Se36  1  0.800074  0.800074  0.797440  1
  Se  Se37  1  0.945569  0.945569  0.823761  1
  Se  Se38  1  0.792596  0.792596  0.965532  1
  Se  Se39  1  0.943082  0.943082  0.991065  1
