# generated using pymatgen
data_Ru6C17S2O17
_symmetry_space_group_name_H-M   'P 1'
_cell_length_a   11.45650769
_cell_length_b   15.06718408
_cell_length_c   17.82307404
_cell_angle_alpha   90.00000000
_cell_angle_beta   90.00000000
_cell_angle_gamma   90.00000000
_symmetry_Int_Tables_number   1
_chemical_formula_structural   Ru6C17S2O17
_chemical_formula_sum   'Ru24 C68 S8 O68'
_cell_volume   3076.57110169
_cell_formula_units_Z   4
loop_
 _symmetry_equiv_pos_site_id
 _symmetry_equiv_pos_as_xyz
  1  'x, y, z'
loop_
 _atom_site_type_symbol
 _atom_site_label
 _atom_site_symmetry_multiplicity
 _atom_site_fract_x
 _atom_site_fract_y
 _atom_site_fract_z
 _atom_site_occupancy
  Ru  Ru0  1  0.955784  0.063264  0.184777  1
  Ru  Ru1  1  0.626390  0.804187  0.105736  1
  Ru  Ru2  1  0.544216  0.936736  0.684777  1
  Ru  Ru3  1  0.373610  0.304187  0.394264  1
  Ru  Ru4  1  0.255492  0.400329  0.897289  1
  Ru  Ru5  1  0.744508  0.900329  0.602711  1
  Ru  Ru6  1  0.959267  0.005399  0.576929  1
  Ru  Ru7  1  0.459267  0.494601  0.423071  1
  Ru  Ru8  1  0.040733  0.505399  0.923071  1
  Ru  Ru9  1  0.722514  0.072054  0.694316  1
  Ru  Ru10  1  0.244508  0.599671  0.397289  1
  Ru  Ru11  1  0.455784  0.436736  0.815223  1
  Ru  Ru12  1  0.755492  0.099671  0.102711  1
  Ru  Ru13  1  0.222514  0.427946  0.305684  1
  Ru  Ru14  1  0.044216  0.563264  0.315223  1
  Ru  Ru15  1  0.022997  0.594894  0.770453  1
  Ru  Ru16  1  0.873610  0.195813  0.605736  1
  Ru  Ru17  1  0.126390  0.695813  0.894264  1
  Ru  Ru18  1  0.540733  0.994601  0.076929  1
  Ru  Ru19  1  0.777486  0.927946  0.194316  1
  Ru  Ru20  1  0.277486  0.572054  0.805684  1
  Ru  Ru21  1  0.522997  0.905106  0.229547  1
  Ru  Ru22  1  0.477003  0.405106  0.270453  1
  Ru  Ru23  1  0.977003  0.094894  0.729547  1
  C  C24  1  0.296627  0.221078  0.332978  1
  C  C25  1  0.939800  0.894269  0.524034  1
  C  C26  1  0.447484  0.299884  0.215276  1
  C  C27  1  0.868152  0.118620  0.267086  1
  C  C28  1  0.348340  0.378624  0.985703  1
  C  C29  1  0.988429  0.765149  0.890786  1
  C  C30  1  0.256325  0.710167  0.377621  1
  C  C31  1  0.325286  0.247140  0.484645  1
  C  C32  1  0.464334  0.970162  0.313698  1
  C  C33  1  0.982682  0.568384  0.008065  1
  C  C34  1  0.796627  0.278922  0.667022  1
  C  C35  1  0.884818  0.472658  0.897026  1
  C  C36  1  0.052516  0.700116  0.715276  1
  C  C37  1  0.010178  0.994913  0.097825  1
  C  C38  1  0.399031  0.654457  0.812441  1
  C  C39  1  0.017318  0.068384  0.491935  1
  C  C40  1  0.743675  0.210167  0.122379  1
  C  C41  1  0.793016  0.928409  0.299758  1
  C  C42  1  0.511571  0.234851  0.390786  1
  C  C43  1  0.563445  0.492822  0.746390  1
  C  C44  1  0.482682  0.931616  0.991935  1
  C  C45  1  0.706984  0.071591  0.799758  1
  C  C46  1  0.560200  0.105731  0.024034  1
  C  C47  1  0.964334  0.529838  0.686302  1
  C  C48  1  0.600969  0.154457  0.687559  1
  C  C49  1  0.453379  0.838076  0.662312  1
  C  C50  1  0.439800  0.605731  0.475966  1
  C  C51  1  0.989822  0.494913  0.402175  1
  C  C52  1  0.535666  0.470162  0.186302  1
  C  C53  1  0.674714  0.747140  0.015355  1
  C  C54  1  0.756325  0.789833  0.622379  1
  C  C55  1  0.384818  0.027342  0.102974  1
  C  C56  1  0.011571  0.265149  0.609214  1
  C  C57  1  0.489822  0.005087  0.597825  1
  C  C58  1  0.035666  0.029838  0.813698  1
  C  C59  1  0.510178  0.505087  0.902175  1
  C  C60  1  0.371299  0.866918  0.205454  1
  C  C61  1  0.436555  0.992822  0.753610  1
  C  C62  1  0.615182  0.527342  0.397026  1
  C  C63  1  0.243675  0.289833  0.877621  1
  C  C64  1  0.488429  0.734851  0.109214  1
  C  C65  1  0.368152  0.381380  0.732914  1
  C  C66  1  0.703373  0.721078  0.167022  1
  C  C67  1  0.046621  0.161924  0.162312  1
  C  C68  1  0.848340  0.121376  0.014297  1
  C  C69  1  0.063445  0.007178  0.253610  1
  C  C70  1  0.631848  0.881380  0.767086  1
  C  C71  1  0.651660  0.878624  0.514297  1
  C  C72  1  0.206984  0.428409  0.200242  1
  C  C73  1  0.825286  0.252860  0.515355  1
  C  C74  1  0.552516  0.799884  0.284724  1
  C  C75  1  0.100969  0.345543  0.312441  1
  C  C76  1  0.115182  0.972658  0.602974  1
  C  C77  1  0.203373  0.778922  0.832978  1
  C  C78  1  0.628701  0.366918  0.294546  1
  C  C79  1  0.060200  0.394269  0.975966  1
  C  C80  1  0.128701  0.133082  0.705454  1
  C  C81  1  0.936555  0.507178  0.246390  1
  C  C82  1  0.131848  0.618620  0.232914  1
  C  C83  1  0.151660  0.621376  0.485703  1
  C  C84  1  0.546621  0.338076  0.837688  1
  C  C85  1  0.899031  0.845543  0.187559  1
  C  C86  1  0.953379  0.661924  0.337688  1
  C  C87  1  0.517318  0.431616  0.508065  1
  C  C88  1  0.871299  0.633082  0.794546  1
  C  C89  1  0.174714  0.752860  0.984645  1
  C  C90  1  0.947484  0.200116  0.784724  1
  C  C91  1  0.293016  0.571591  0.700242  1
  S  S92  1  0.737581  0.926075  0.059378  1
  S  S93  1  0.262419  0.426075  0.440622  1
  S  S94  1  0.879755  0.955648  0.700094  1
  S  S95  1  0.120245  0.455648  0.799906  1
  S  S96  1  0.237581  0.573925  0.940622  1
  S  S97  1  0.379755  0.544352  0.299906  1
  S  S98  1  0.762419  0.073925  0.559378  1
  S  S99  1  0.620245  0.044352  0.200094  1
  O  O100  1  0.450734  0.044426  0.548038  1
  O  O101  1  0.176285  0.652121  0.182204  1
  O  O102  1  0.305877  0.566669  0.635603  1
  O  O103  1  0.793726  0.291739  0.462949  1
  O  O104  1  0.628796  0.525010  0.705039  1
  O  O105  1  0.224411  0.153592  0.692781  1
  O  O106  1  0.408686  0.687333  0.106178  1
  O  O107  1  0.211026  0.954102  0.616043  1
  O  O108  1  0.549266  0.544426  0.951962  1
  O  O109  1  0.976127  0.794874  0.184143  1
  O  O110  1  0.906884  0.135858  0.962913  1
  O  O111  1  0.023873  0.294874  0.315857  1
  O  O112  1  0.823715  0.152121  0.317796  1
  O  O113  1  0.428410  0.008538  0.365087  1
  O  O114  1  0.748035  0.663761  0.199930  1
  O  O115  1  0.928410  0.491462  0.634913  1
  O  O116  1  0.293726  0.208261  0.537051  1
  O  O117  1  0.093116  0.635858  0.537087  1
  O  O118  1  0.950734  0.455574  0.451962  1
  O  O119  1  0.251965  0.163761  0.300070  1
  O  O120  1  0.406884  0.364142  0.037087  1
  O  O121  1  0.805877  0.933331  0.364397  1
  O  O122  1  0.439235  0.236867  0.178519  1
  O  O123  1  0.288974  0.045898  0.116043  1
  O  O124  1  0.106023  0.225434  0.146740  1
  O  O125  1  0.523873  0.205126  0.684143  1
  O  O126  1  0.751965  0.336239  0.699930  1
  O  O127  1  0.554795  0.396816  0.561005  1
  O  O128  1  0.054795  0.103184  0.438995  1
  O  O129  1  0.733239  0.277118  0.860809  1
  O  O130  1  0.206274  0.791739  0.037051  1
  O  O131  1  0.724411  0.346408  0.307219  1
  O  O132  1  0.893977  0.725434  0.353260  1
  O  O133  1  0.323715  0.347879  0.682204  1
  O  O134  1  0.458628  0.668743  0.511463  1
  O  O135  1  0.958628  0.831257  0.488537  1
  O  O136  1  0.071590  0.991462  0.865087  1
  O  O137  1  0.091314  0.312667  0.606178  1
  O  O138  1  0.606023  0.274566  0.853260  1
  O  O139  1  0.541372  0.168743  0.988537  1
  O  O140  1  0.591314  0.187333  0.393822  1
  O  O141  1  0.060765  0.763133  0.678519  1
  O  O142  1  0.939235  0.263133  0.821481  1
  O  O143  1  0.128796  0.974990  0.294961  1
  O  O144  1  0.393977  0.774566  0.646740  1
  O  O145  1  0.248035  0.836239  0.800070  1
  O  O146  1  0.694123  0.066669  0.864397  1
  O  O147  1  0.676285  0.847879  0.817796  1
  O  O148  1  0.233239  0.222882  0.139191  1
  O  O149  1  0.871204  0.474990  0.205039  1
  O  O150  1  0.593116  0.864142  0.462913  1
  O  O151  1  0.766761  0.722882  0.360809  1
  O  O152  1  0.775589  0.653592  0.807219  1
  O  O153  1  0.371204  0.025010  0.794961  1
  O  O154  1  0.945205  0.603184  0.061005  1
  O  O155  1  0.049266  0.955574  0.048038  1
  O  O156  1  0.194123  0.433331  0.135603  1
  O  O157  1  0.476127  0.705126  0.815857  1
  O  O158  1  0.711026  0.545898  0.383957  1
  O  O159  1  0.571590  0.508538  0.134913  1
  O  O160  1  0.706274  0.708261  0.962949  1
  O  O161  1  0.560765  0.736867  0.321481  1
  O  O162  1  0.788974  0.454102  0.883957  1
  O  O163  1  0.445205  0.896816  0.938995  1
  O  O164  1  0.266761  0.777118  0.639191  1
  O  O165  1  0.275589  0.846408  0.192781  1
  O  O166  1  0.908686  0.812667  0.893822  1
  O  O167  1  0.041372  0.331257  0.011463  1
