# generated using pymatgen
data_LiSiNO
_symmetry_space_group_name_H-M   'P 1'
_cell_length_a   4.78699144
_cell_length_b   5.23978209
_cell_length_c   6.44495629
_cell_angle_alpha   90.00000000
_cell_angle_beta   90.00000000
_cell_angle_gamma   90.00000000
_symmetry_Int_Tables_number   1
_chemical_formula_structural   LiSiNO
_chemical_formula_sum   'Li4 Si4 N4 O4'
_cell_volume   161.65749815
_cell_formula_units_Z   4
loop_
 _symmetry_equiv_pos_site_id
 _symmetry_equiv_pos_as_xyz
  1  'x, y, z'
loop_
 _atom_site_type_symbol
 _atom_site_label
 _atom_site_symmetry_multiplicity
 _atom_site_fract_x
 _atom_site_fract_y
 _atom_site_fract_z
 _atom_site_occupancy
  Li  Li0  1  0.999866  0.596486  0.384587  1
  Li  Li1  1  0.499866  0.403514  0.615413  1
  Li  Li2  1  0.499866  0.903514  0.384587  1
  Li  Li3  1  0.999866  0.096486  0.615413  1
  N  N4  1  0.147954  0.390517  0.083970  1
  N  N5  1  0.647954  0.609483  0.916030  1
  N  N6  1  0.647954  0.109483  0.083970  1
  N  N7  1  0.147954  0.890517  0.916030  1
  O  O8  1  0.590576  0.037610  0.656825  1
  O  O9  1  0.090576  0.462390  0.656825  1
  O  O10  1  0.090576  0.962390  0.343175  1
  O  O11  1  0.590576  0.537610  0.343175  1
  Si  Si12  1  0.511604  0.418786  0.119575  1
  Si  Si13  1  0.511604  0.918786  0.880425  1
  Si  Si14  1  0.011604  0.081214  0.119575  1
  Si  Si15  1  0.011604  0.581214  0.880425  1
