# generated using pymatgen
data_CoSb(CO)3
_symmetry_space_group_name_H-M   'P 1'
_cell_length_a   10.88124026
_cell_length_b   12.00282039
_cell_length_c   12.00281993
_cell_angle_alpha   78.14348948
_cell_angle_beta   63.04577986
_cell_angle_gamma   63.04577566
_symmetry_Int_Tables_number   1
_chemical_formula_structural   CoSb(CO)3
_chemical_formula_sum   'Co8 Sb8 C24 O24'
_cell_volume   1245.54670353
_cell_formula_units_Z   8
loop_
 _symmetry_equiv_pos_site_id
 _symmetry_equiv_pos_as_xyz
  1  'x, y, z'
loop_
 _atom_site_type_symbol
 _atom_site_label
 _atom_site_symmetry_multiplicity
 _atom_site_fract_x
 _atom_site_fract_y
 _atom_site_fract_z
 _atom_site_occupancy
  Co  Co0  1  0.737598  0.389785  0.610215  1
  Co  Co1  1  0.262402  0.889785  0.110215  1
  Co  Co2  1  0.872616  0.389785  0.889785  1
  Co  Co3  1  0.737598  0.110215  0.889785  1
  Co  Co4  1  0.847813  0.889785  0.389785  1
  Co  Co5  1  0.127384  0.610215  0.110215  1
  Co  Co6  1  0.262402  0.610215  0.389785  1
  Co  Co7  1  0.152187  0.110215  0.610215  1
  Sb  Sb8  1  0.123932  0.855456  0.355456  1
  Sb  Sb9  1  0.979387  0.144544  0.855456  1
  Sb  Sb10  1  0.020612  0.644544  0.355456  1
  Sb  Sb11  1  0.665157  0.355456  0.855456  1
  Sb  Sb12  1  0.979387  0.355456  0.644544  1
  Sb  Sb13  1  0.020612  0.855456  0.144544  1
  Sb  Sb14  1  0.334843  0.644544  0.144544  1
  Sb  Sb15  1  0.876068  0.144544  0.644544  1
  C  C16  1  0.702595  0.873990  0.373990  1
  C  C17  1  0.297405  0.126010  0.626010  1
  C  C18  1  0.331885  0.447542  0.373244  1
  C  C19  1  0.205129  0.126756  0.447542  1
  C  C20  1  0.779427  0.552458  0.873244  1
  C  C21  1  0.779427  0.373244  0.052458  1
  C  C22  1  0.794871  0.873244  0.552458  1
  C  C23  1  0.668115  0.126756  0.052458  1
  C  C24  1  0.220573  0.447542  0.126756  1
  C  C25  1  0.576585  0.373990  0.626010  1
  C  C26  1  0.950574  0.626010  0.126010  1
  C  C27  1  0.794871  0.052458  0.373244  1
  C  C28  1  0.220573  0.626756  0.947542  1
  C  C29  1  0.152671  0.626756  0.552458  1
  C  C30  1  0.152671  0.052458  0.126756  1
  C  C31  1  0.847329  0.373244  0.447542  1
  C  C32  1  0.205129  0.947542  0.626756  1
  C  C33  1  0.331885  0.873244  0.947542  1
  C  C34  1  0.576585  0.126010  0.873990  1
  C  C35  1  0.847329  0.947542  0.873244  1
  C  C36  1  0.049426  0.373990  0.873990  1
  C  C37  1  0.668115  0.552458  0.626756  1
  C  C38  1  0.423415  0.626010  0.373990  1
  C  C39  1  0.423415  0.873990  0.126010  1
  O  O40  1  0.469999  0.372337  0.627663  1
  O  O41  1  0.530001  0.872337  0.127663  1
  O  O42  1  0.530001  0.627663  0.372337  1
  O  O43  1  0.622088  0.127963  0.160650  1
  O  O44  1  0.717263  0.372037  0.160650  1
  O  O45  1  0.597662  0.872337  0.372337  1
  O  O46  1  0.402338  0.127663  0.627663  1
  O  O47  1  0.377912  0.339350  0.372037  1
  O  O48  1  0.622088  0.660650  0.627963  1
  O  O49  1  0.377912  0.872037  0.839350  1
  O  O50  1  0.717263  0.660650  0.872037  1
  O  O51  1  0.089300  0.627963  0.660650  1
  O  O52  1  0.910700  0.372037  0.339350  1
  O  O53  1  0.089300  0.160650  0.127963  1
  O  O54  1  0.282737  0.627963  0.839350  1
  O  O55  1  0.910700  0.839350  0.872037  1
  O  O56  1  0.469999  0.127663  0.872337  1
  O  O57  1  0.750050  0.160650  0.372037  1
  O  O58  1  0.249950  0.839350  0.627963  1
  O  O59  1  0.282737  0.339350  0.127963  1
  O  O60  1  0.842336  0.627663  0.127663  1
  O  O61  1  0.249950  0.127963  0.339350  1
  O  O62  1  0.750050  0.872037  0.660650  1
  O  O63  1  0.157664  0.372337  0.872337  1
