# generated using pymatgen
data_La9B3C6Br5
_symmetry_space_group_name_H-M   'P 1'
_cell_length_a   3.88929551
_cell_length_b   7.98151147
_cell_length_c   33.32192090
_cell_angle_alpha   90.00000000
_cell_angle_beta   90.00000000
_cell_angle_gamma   90.00000000
_symmetry_Int_Tables_number   1
_chemical_formula_structural   La9B3C6Br5
_chemical_formula_sum   'La18 B6 C12 Br10'
_cell_volume   1034.39428747
_cell_formula_units_Z   2
loop_
 _symmetry_equiv_pos_site_id
 _symmetry_equiv_pos_as_xyz
  1  'x, y, z'
loop_
 _atom_site_type_symbol
 _atom_site_label
 _atom_site_symmetry_multiplicity
 _atom_site_fract_x
 _atom_site_fract_y
 _atom_site_fract_z
 _atom_site_occupancy
  La  La0  1  0.250000  0.195258  0.990791  1
  La  La1  1  0.250000  0.349711  0.866948  1
  La  La2  1  0.250000  0.915251  0.904403  1
  La  La3  1  0.750000  0.049979  0.694500  1
  La  La4  1  0.250000  0.548709  0.250000  1
  La  La5  1  0.750000  0.650289  0.133052  1
  La  La6  1  0.750000  0.804742  0.009209  1
  La  La7  1  0.750000  0.084749  0.095597  1
  La  La8  1  0.750000  0.650289  0.366948  1
  La  La9  1  0.750000  0.084749  0.404403  1
  La  La10  1  0.250000  0.950021  0.194500  1
  La  La11  1  0.250000  0.950021  0.305500  1
  La  La12  1  0.750000  0.804742  0.490791  1
  La  La13  1  0.750000  0.049979  0.805500  1
  La  La14  1  0.250000  0.915251  0.595597  1
  La  La15  1  0.250000  0.349711  0.633052  1
  La  La16  1  0.250000  0.195258  0.509209  1
  La  La17  1  0.750000  0.451291  0.750000  1
  B  B18  1  0.750000  0.137005  0.920143  1
  B  B19  1  0.250000  0.862995  0.420143  1
  B  B20  1  0.750000  0.773187  0.250000  1
  B  B21  1  0.250000  0.862995  0.079857  1
  B  B22  1  0.750000  0.137005  0.579857  1
  B  B23  1  0.250000  0.226813  0.750000  1
  C  C24  1  0.250000  0.271926  0.793413  1
  C  C25  1  0.250000  0.972929  0.043565  1
  C  C26  1  0.750000  0.135102  0.875413  1
  C  C27  1  0.750000  0.027071  0.543565  1
  C  C28  1  0.250000  0.864898  0.375413  1
  C  C29  1  0.750000  0.728074  0.293413  1
  C  C30  1  0.250000  0.864898  0.124587  1
  C  C31  1  0.750000  0.027071  0.956435  1
  C  C32  1  0.750000  0.728074  0.206587  1
  C  C33  1  0.250000  0.972929  0.456435  1
  C  C34  1  0.250000  0.271926  0.706587  1
  C  C35  1  0.750000  0.135102  0.624587  1
  Br  Br36  1  0.750000  0.425732  0.451972  1
  Br  Br37  1  0.750000  0.673237  0.847979  1
  Br  Br38  1  0.250000  0.785608  0.750000  1
  Br  Br39  1  0.250000  0.574268  0.548028  1
  Br  Br40  1  0.250000  0.574268  0.951972  1
  Br  Br41  1  0.250000  0.326763  0.347979  1
  Br  Br42  1  0.750000  0.214392  0.250000  1
  Br  Br43  1  0.250000  0.326763  0.152021  1
  Br  Br44  1  0.750000  0.425732  0.048028  1
  Br  Br45  1  0.750000  0.673237  0.652021  1
