# generated using pymatgen
data_H24RuC8(S2Cl)2
_symmetry_space_group_name_H-M   'P 1'
_cell_length_a   8.56896776
_cell_length_b   14.32864388
_cell_length_c   15.01950329
_cell_angle_alpha   90.00000000
_cell_angle_beta   90.00000000
_cell_angle_gamma   90.00000000
_symmetry_Int_Tables_number   1
_chemical_formula_structural   H24RuC8(S2Cl)2
_chemical_formula_sum   'H96 Ru4 C32 S16 Cl8'
_cell_volume   1844.11995864
_cell_formula_units_Z   4
loop_
 _symmetry_equiv_pos_site_id
 _symmetry_equiv_pos_as_xyz
  1  'x, y, z'
loop_
 _atom_site_type_symbol
 _atom_site_label
 _atom_site_symmetry_multiplicity
 _atom_site_fract_x
 _atom_site_fract_y
 _atom_site_fract_z
 _atom_site_occupancy
  H  H0  1  0.963275  0.708763  0.100200  1
  H  H1  1  0.333865  0.407841  0.374016  1
  H  H2  1  0.720826  0.710442  0.652643  1
  H  H3  1  0.582712  0.696012  0.860477  1
  H  H4  1  0.665762  0.386613  0.193636  1
  H  H5  1  0.115872  0.950785  0.581594  1
  H  H6  1  0.899390  0.997763  0.309495  1
  H  H7  1  0.508170  0.136738  0.296707  1
  H  H8  1  0.803501  0.616048  0.247266  1
  H  H9  1  0.633162  0.073931  0.906286  1
  H  H10  1  0.615872  0.950785  0.918406  1
  H  H11  1  0.600610  0.497763  0.309495  1
  H  H12  1  0.220826  0.789558  0.347357  1
  H  H13  1  0.680386  0.330997  0.856571  1
  H  H14  1  0.303501  0.616048  0.252734  1
  H  H15  1  0.819614  0.830997  0.856571  1
  H  H16  1  0.463275  0.708763  0.399800  1
  H  H17  1  0.991830  0.863262  0.796707  1
  H  H18  1  0.384128  0.049215  0.081594  1
  H  H19  1  0.536725  0.291237  0.600200  1
  H  H20  1  0.866838  0.573931  0.906286  1
  H  H21  1  0.779174  0.289558  0.152643  1
  H  H22  1  0.833865  0.407841  0.125984  1
  H  H23  1  0.082712  0.803988  0.139523  1
  H  H24  1  0.884128  0.450785  0.918406  1
  H  H25  1  0.633162  0.426069  0.406286  1
  H  H26  1  0.866838  0.926069  0.406286  1
  H  H27  1  0.220826  0.710442  0.847357  1
  H  H28  1  0.917288  0.303988  0.360477  1
  H  H29  1  0.166135  0.907841  0.374016  1
  H  H30  1  0.133162  0.426069  0.093714  1
  H  H31  1  0.389488  0.241013  0.528937  1
  H  H32  1  0.803501  0.883952  0.747266  1
  H  H33  1  0.917288  0.196012  0.860477  1
  H  H34  1  0.384128  0.450785  0.581594  1
  H  H35  1  0.100610  0.497763  0.190505  1
  H  H36  1  0.666135  0.592159  0.625984  1
  H  H37  1  0.720826  0.789558  0.152643  1
  H  H38  1  0.463275  0.791237  0.899800  1
  H  H39  1  0.417288  0.196012  0.639523  1
  H  H40  1  0.366838  0.573931  0.593714  1
  H  H41  1  0.991830  0.636738  0.296707  1
  H  H42  1  0.303501  0.883952  0.752734  1
  H  H43  1  0.319614  0.830997  0.643429  1
  H  H44  1  0.491830  0.636738  0.203293  1
  H  H45  1  0.899390  0.502237  0.809495  1
  H  H46  1  0.417288  0.303988  0.139523  1
  H  H47  1  0.279174  0.289558  0.347357  1
  H  H48  1  0.334238  0.613387  0.806364  1
  H  H49  1  0.008170  0.363262  0.703293  1
  H  H50  1  0.389488  0.258987  0.028937  1
  H  H51  1  0.333865  0.092159  0.874016  1
  H  H52  1  0.600610  0.002237  0.809495  1
  H  H53  1  0.399390  0.997763  0.190505  1
  H  H54  1  0.884128  0.049215  0.418406  1
  H  H55  1  0.779174  0.210442  0.652643  1
  H  H56  1  0.166135  0.592159  0.874016  1
  H  H57  1  0.491830  0.863262  0.703293  1
  H  H58  1  0.399390  0.502237  0.690505  1
  H  H59  1  0.665762  0.113387  0.693636  1
  H  H60  1  0.196499  0.116048  0.252734  1
  H  H61  1  0.610512  0.741013  0.971063  1
  H  H62  1  0.680386  0.169003  0.356571  1
  H  H63  1  0.819614  0.669003  0.356571  1
  H  H64  1  0.082712  0.696012  0.639523  1
  H  H65  1  0.666135  0.907841  0.125984  1
  H  H66  1  0.334238  0.886613  0.306364  1
  H  H67  1  0.889488  0.241013  0.971063  1
  H  H68  1  0.963275  0.791237  0.600200  1
  H  H69  1  0.036725  0.291237  0.899800  1
  H  H70  1  0.366838  0.926069  0.093714  1
  H  H71  1  0.110512  0.741013  0.528937  1
  H  H72  1  0.008170  0.136738  0.203293  1
  H  H73  1  0.165762  0.386613  0.306364  1
  H  H74  1  0.536725  0.208763  0.100200  1
  H  H75  1  0.834238  0.886613  0.193636  1
  H  H76  1  0.165762  0.113387  0.806364  1
  H  H77  1  0.196499  0.383952  0.752734  1
  H  H78  1  0.279174  0.210442  0.847357  1
  H  H79  1  0.615872  0.549215  0.418406  1
  H  H80  1  0.110512  0.758987  0.028937  1
  H  H81  1  0.508170  0.363262  0.796707  1
  H  H82  1  0.610512  0.758987  0.471063  1
  H  H83  1  0.696499  0.116048  0.247266  1
  H  H84  1  0.582712  0.803988  0.360477  1
  H  H85  1  0.834238  0.613387  0.693636  1
  H  H86  1  0.036725  0.208763  0.399800  1
  H  H87  1  0.180386  0.169003  0.143429  1
  H  H88  1  0.833865  0.092159  0.625984  1
  H  H89  1  0.115872  0.549215  0.081594  1
  H  H90  1  0.180386  0.330997  0.643429  1
  H  H91  1  0.889488  0.258987  0.471063  1
  H  H92  1  0.696499  0.383952  0.747266  1
  H  H93  1  0.100610  0.002237  0.690505  1
  H  H94  1  0.319614  0.669003  0.143429  1
  H  H95  1  0.133162  0.073931  0.593714  1
  Ru  Ru96  1  0.000000  0.500000  0.500000  1
  Ru  Ru97  1  0.500000  0.500000  0.000000  1
  Ru  Ru98  1  0.000000  0.000000  0.000000  1
  Ru  Ru99  1  0.500000  0.000000  0.500000  1
  C  C100  1  0.763413  0.639800  0.638209  1
  C  C101  1  0.736587  0.360200  0.138209  1
  C  C102  1  0.024522  0.772892  0.081629  1
  C  C103  1  0.629854  0.381565  0.809928  1
  C  C104  1  0.657971  0.493405  0.374847  1
  C  C105  1  0.975478  0.227108  0.918371  1
  C  C106  1  0.870146  0.881565  0.809928  1
  C  C107  1  0.736587  0.139800  0.638209  1
  C  C108  1  0.524522  0.727108  0.918371  1
  C  C109  1  0.524522  0.772892  0.418371  1
  C  C110  1  0.236587  0.139800  0.861791  1
  C  C111  1  0.475478  0.272892  0.081629  1
  C  C112  1  0.842029  0.993405  0.374847  1
  C  C113  1  0.370146  0.618435  0.190072  1
  C  C114  1  0.370146  0.881565  0.690072  1
  C  C115  1  0.129854  0.118435  0.190072  1
  C  C116  1  0.236587  0.360200  0.361791  1
  C  C117  1  0.157971  0.006595  0.625153  1
  C  C118  1  0.263413  0.639800  0.861791  1
  C  C119  1  0.475478  0.227108  0.581629  1
  C  C120  1  0.629854  0.118435  0.309928  1
  C  C121  1  0.024522  0.727108  0.581629  1
  C  C122  1  0.263413  0.860200  0.361791  1
  C  C123  1  0.342029  0.506595  0.625153  1
  C  C124  1  0.975478  0.272892  0.418371  1
  C  C125  1  0.657971  0.006595  0.874847  1
  C  C126  1  0.763413  0.860200  0.138209  1
  C  C127  1  0.842029  0.506595  0.874847  1
  C  C128  1  0.157971  0.493405  0.125153  1
  C  C129  1  0.129854  0.381565  0.690072  1
  C  C130  1  0.870146  0.618435  0.309928  1
  C  C131  1  0.342029  0.993405  0.125153  1
  S  S132  1  0.867485  0.503267  0.360426  1
  S  S133  1  0.132515  0.003267  0.139574  1
  S  S134  1  0.367485  0.996733  0.639574  1
  S  S135  1  0.132515  0.496733  0.639574  1
  S  S136  1  0.117523  0.354769  0.461410  1
  S  S137  1  0.367485  0.503267  0.139574  1
  S  S138  1  0.382477  0.854769  0.461410  1
  S  S139  1  0.117523  0.145231  0.961410  1
  S  S140  1  0.382477  0.645231  0.961410  1
  S  S141  1  0.632515  0.496733  0.860426  1
  S  S142  1  0.617523  0.354769  0.038590  1
  S  S143  1  0.882477  0.645231  0.538590  1
  S  S144  1  0.867485  0.996733  0.860426  1
  S  S145  1  0.632515  0.003267  0.360426  1
  S  S146  1  0.617523  0.145231  0.538590  1
  S  S147  1  0.882477  0.854769  0.038590  1
  Cl  Cl148  1  0.288009  0.085503  0.427064  1
  Cl  Cl149  1  0.288009  0.414497  0.927064  1
  Cl  Cl150  1  0.211991  0.585503  0.427064  1
  Cl  Cl151  1  0.211991  0.914497  0.927064  1
  Cl  Cl152  1  0.788009  0.414497  0.572936  1
  Cl  Cl153  1  0.711991  0.914497  0.572936  1
  Cl  Cl154  1  0.788009  0.085503  0.072936  1
  Cl  Cl155  1  0.711991  0.585503  0.072936  1
