# generated using pymatgen
data_SiI4
_symmetry_space_group_name_H-M   'P 1'
_cell_length_a   13.02125886
_cell_length_b   13.02125886
_cell_length_c   13.02125886
_cell_angle_alpha   90.00000000
_cell_angle_beta   90.00000000
_cell_angle_gamma   90.00000000
_symmetry_Int_Tables_number   1
_chemical_formula_structural   SiI4
_chemical_formula_sum   'Si8 I32'
_cell_volume   2207.79587725
_cell_formula_units_Z   8
loop_
 _symmetry_equiv_pos_site_id
 _symmetry_equiv_pos_as_xyz
  1  'x, y, z'
loop_
 _atom_site_type_symbol
 _atom_site_label
 _atom_site_symmetry_multiplicity
 _atom_site_fract_x
 _atom_site_fract_y
 _atom_site_fract_z
 _atom_site_occupancy
  Si  Si0  1  0.372189  0.627811  0.127811  1
  Si  Si1  1  0.127811  0.127811  0.127811  1
  Si  Si2  1  0.872189  0.627811  0.372189  1
  Si  Si3  1  0.127811  0.372189  0.627811  1
  Si  Si4  1  0.627811  0.127811  0.372189  1
  Si  Si5  1  0.372189  0.872189  0.627811  1
  Si  Si6  1  0.872189  0.872189  0.872189  1
  Si  Si7  1  0.627811  0.372189  0.872189  1
  I  I8  1  0.984493  0.737475  0.476696  1
  I  I9  1  0.023304  0.484493  0.737475  1
  I  I10  1  0.736520  0.236520  0.263480  1
  I  I11  1  0.762525  0.523304  0.484493  1
  I  I12  1  0.262525  0.523304  0.015507  1
  I  I13  1  0.015507  0.262525  0.523304  1
  I  I14  1  0.476696  0.984493  0.737475  1
  I  I15  1  0.236520  0.263480  0.736520  1
  I  I16  1  0.762525  0.976696  0.984493  1
  I  I17  1  0.737475  0.023304  0.484493  1
  I  I18  1  0.263480  0.763480  0.736520  1
  I  I19  1  0.237475  0.476696  0.515507  1
  I  I20  1  0.523304  0.484493  0.762525  1
  I  I21  1  0.476696  0.515507  0.237475  1
  I  I22  1  0.236520  0.236520  0.236520  1
  I  I23  1  0.984493  0.762525  0.976696  1
  I  I24  1  0.262525  0.976696  0.515507  1
  I  I25  1  0.736520  0.263480  0.763480  1
  I  I26  1  0.515507  0.237475  0.476696  1
  I  I27  1  0.015507  0.237475  0.023304  1
  I  I28  1  0.237475  0.023304  0.015507  1
  I  I29  1  0.263480  0.736520  0.236520  1
  I  I30  1  0.515507  0.262525  0.976696  1
  I  I31  1  0.737475  0.476696  0.984493  1
  I  I32  1  0.976696  0.984493  0.762525  1
  I  I33  1  0.484493  0.762525  0.523304  1
  I  I34  1  0.763480  0.736520  0.263480  1
  I  I35  1  0.523304  0.015507  0.262525  1
  I  I36  1  0.763480  0.763480  0.763480  1
  I  I37  1  0.023304  0.015507  0.237475  1
  I  I38  1  0.976696  0.515507  0.262525  1
  I  I39  1  0.484493  0.737475  0.023304  1
