# generated using pymatgen
data_LiYb8Ge13
_symmetry_space_group_name_H-M   'P 1'
_cell_length_a   15.33741714
_cell_length_b   12.41100750
_cell_length_c   11.57050826
_cell_angle_alpha   103.56223327
_cell_angle_beta   90.00000000
_cell_angle_gamma   90.00000000
_symmetry_Int_Tables_number   1
_chemical_formula_structural   LiYb8Ge13
_chemical_formula_sum   'Li4 Yb32 Ge52'
_cell_volume   2141.06424543
_cell_formula_units_Z   4
loop_
 _symmetry_equiv_pos_site_id
 _symmetry_equiv_pos_as_xyz
  1  'x, y, z'
loop_
 _atom_site_type_symbol
 _atom_site_label
 _atom_site_symmetry_multiplicity
 _atom_site_fract_x
 _atom_site_fract_y
 _atom_site_fract_z
 _atom_site_occupancy
  Yb  Yb0  1  0.810875  0.605202  0.130640  1
  Yb  Yb1  1  0.186245  -0.021059  0.693904  1
  Yb  Yb2  1  0.032397  0.938414  0.152140  1
  Yb  Yb3  1  0.578665  0.044919  0.629621  1
  Yb  Yb4  1  0.421335  -0.044919  0.370379  1
  Yb  Yb5  1  0.689125  0.105202  0.130640  1
  Yb  Yb6  1  0.189125  0.394798  0.869360  1
  Yb  Yb7  1  0.619855  0.823526  0.082694  1
  Yb  Yb8  1  0.104826  0.175507  0.100703  1
  Yb  Yb9  1  0.921335  0.544919  0.629621  1
  Yb  Yb10  1  0.078665  0.455081  0.370379  1
  Yb  Yb11  1  0.380145  0.176474  0.917306  1
  Yb  Yb12  1  0.395174  0.675507  0.100703  1
  Yb  Yb13  1  0.615814  0.711130  0.577296  1
  Yb  Yb14  1  0.532397  0.561586  0.847860  1
  Yb  Yb15  1  0.884186  0.211130  0.577296  1
  Yb  Yb16  1  0.115814  0.788870  0.422704  1
  Yb  Yb17  1  0.830113  0.890296  0.633016  1
  Yb  Yb18  1  0.467603  0.438414  0.152140  1
  Yb  Yb19  1  0.813755  0.021059  0.306096  1
  Yb  Yb20  1  0.384186  0.288870  0.422704  1
  Yb  Yb21  1  0.313755  0.478941  0.693904  1
  Yb  Yb22  1  0.895174  0.824493  0.899297  1
  Yb  Yb23  1  0.330113  0.609704  0.366984  1
  Yb  Yb24  1  0.686245  0.521059  0.306096  1
  Yb  Yb25  1  0.669887  0.390296  0.633016  1
  Yb  Yb26  1  0.967603  0.061586  0.847860  1
  Yb  Yb27  1  0.119855  0.676474  0.917306  1
  Yb  Yb28  1  0.604826  0.324493  0.899297  1
  Yb  Yb29  1  0.310875  0.894798  0.869360  1
  Yb  Yb30  1  0.169887  0.109704  0.366984  1
  Yb  Yb31  1  0.880145  0.323526  0.082694  1
  Li  Li32  1  0.130723  0.418340  0.106497  1
  Li  Li33  1  0.369277  0.918340  0.106497  1
  Li  Li34  1  0.869277  0.581660  0.893503  1
  Li  Li35  1  0.630723  0.081660  0.893503  1
  Ge  Ge36  1  0.744494  0.654219  0.762664  1
  Ge  Ge37  1  0.563952  0.198635  0.465199  1
  Ge  Ge38  1  0.212560  -0.018366  0.102909  1
  Ge  Ge39  1  0.885061  0.504738  0.330972  1
  Ge  Ge40  1  0.485193  0.054074  0.108419  1
  Ge  Ge41  1  0.699606  0.921549  0.472220  1
  Ge  Ge42  1  0.300394  0.078451  0.527780  1
  Ge  Ge43  1  0.985193  0.445926  0.891581  1
  Ge  Ge44  1  0.936048  0.698635  0.465199  1
  Ge  Ge45  1  0.916095  0.809518  0.311674  1
  Ge  Ge46  1  0.503686  0.502793  0.395148  1
  Ge  Ge47  1  0.583905  0.309518  0.311674  1
  Ge  Ge48  1  0.524025  0.705411  0.327400  1
  Ge  Ge49  1  0.024025  0.794589  0.672600  1
  Ge  Ge50  1  0.496314  0.497207  0.604852  1
  Ge  Ge51  1  0.111393  0.921436  0.914788  1
  Ge  Ge52  1  0.416095  0.690482  0.688326  1
  Ge  Ge53  1  0.888607  0.078564  0.085212  1
  Ge  Ge54  1  0.083905  0.190482  0.688326  1
  Ge  Ge55  1  0.044719  0.269059  0.911968  1
  Ge  Ge56  1  0.455281  0.769059  0.911968  1
  Ge  Ge57  1  0.003686  -0.002793  0.604852  1
  Ge  Ge58  1  0.614939  0.004738  0.330972  1
  Ge  Ge59  1  0.755506  0.154219  0.762664  1
  Ge  Ge60  1  0.712560  0.518366  0.897091  1
  Ge  Ge61  1  0.179399  0.643929  0.176572  1
  Ge  Ge62  1  0.475975  0.294589  0.672600  1
  Ge  Ge63  1  0.114939  0.495262  0.669028  1
  Ge  Ge64  1  0.388607  0.421436  0.914788  1
  Ge  Ge65  1  0.514807  0.945926  0.891581  1
  Ge  Ge66  1  0.244494  0.845781  0.237336  1
  Ge  Ge67  1  0.385061  -0.004738  0.669028  1
  Ge  Ge68  1  0.320601  0.143929  0.176572  1
  Ge  Ge69  1  0.436048  0.801365  0.534801  1
  Ge  Ge70  1  0.800394  0.421549  0.472220  1
  Ge  Ge71  1  0.679399  0.856071  0.823428  1
  Ge  Ge72  1  0.787440  0.018366  0.897091  1
  Ge  Ge73  1  0.287440  0.481634  0.102909  1
  Ge  Ge74  1  0.256602  0.219129  0.699748  1
  Ge  Ge75  1  0.199606  0.578451  0.527780  1
  Ge  Ge76  1  0.243398  0.719129  0.699748  1
  Ge  Ge77  1  -0.044719  0.730941  0.088032  1
  Ge  Ge78  1  0.611393  0.578564  0.085212  1
  Ge  Ge79  1  0.743398  0.780871  0.300252  1
  Ge  Ge80  1  0.255506  0.345781  0.237336  1
  Ge  Ge81  1  0.544719  0.230941  0.088032  1
  Ge  Ge82  1  0.756602  0.280871  0.300252  1
  Ge  Ge83  1  0.820601  0.356071  0.823428  1
  Ge  Ge84  1  -0.024025  0.205411  0.327400  1
  Ge  Ge85  1  0.996314  0.002793  0.395148  1
  Ge  Ge86  1  0.014807  0.554074  0.108419  1
  Ge  Ge87  1  0.063952  0.301365  0.534801  1
