# generated using pymatgen
data_Si3O7
_symmetry_space_group_name_H-M   'P 1'
_cell_length_a   8.99040821
_cell_length_b   8.95400136
_cell_length_c   9.09105596
_cell_angle_alpha   109.02557704
_cell_angle_beta   99.15562958
_cell_angle_gamma   96.78018616
_symmetry_Int_Tables_number   1
_chemical_formula_structural   Si3O7
_chemical_formula_sum   'Si6 O14'
_cell_volume   671.62257284
_cell_formula_units_Z   2
loop_
 _symmetry_equiv_pos_site_id
 _symmetry_equiv_pos_as_xyz
  1  'x, y, z'
loop_
 _atom_site_type_symbol
 _atom_site_label
 _atom_site_symmetry_multiplicity
 _atom_site_fract_x
 _atom_site_fract_y
 _atom_site_fract_z
 _atom_site_occupancy
  Si  Si0  1  0.070669  0.413614  0.900150  1
  Si  Si1  1  0.294691  0.185813  0.985486  1
  Si  Si2  1  0.910682  0.106577  0.626836  1
  Si  Si3  1  0.311725  0.898195  0.692028  1
  Si  Si4  1  0.663778  0.994085  0.789377  1
  Si  Si5  1  0.644073  0.289823  0.078540  1
  O  O6  1  0.731019  0.896957  0.902826  1
  O  O7  1  0.771548  0.003262  0.660130  1
  O  O8  1  0.938912  0.296500  0.744592  1
  O  O9  1  0.016659  0.048297  0.511078  1
  O  O10  1  0.493847  0.902726  0.685226  1
  O  O11  1  0.762303  0.460942  0.150774  1
  O  O12  1  0.240204  0.084613  0.089357  1
  O  O13  1  0.165382  0.304608  0.976843  1
  O  O14  1  0.462585  0.303832  0.064030  1
  O  O15  1  0.703642  0.220114  0.218752  1
  O  O16  1  0.240033  0.753512  0.745833  1
  O  O17  1  0.292899  0.077702  0.800692  1
  O  O18  1  0.668440  0.178448  0.903440  1
  O  O19  1  0.202037  0.828150  0.512130  1
