# generated using pymatgen
data_NbTe4
_symmetry_space_group_name_H-M   'P 1'
_cell_length_a   9.34083492
_cell_length_b   9.34083492
_cell_length_c   20.98201585
_cell_angle_alpha   90.00000000
_cell_angle_beta   90.00000000
_cell_angle_gamma   90.00000000
_symmetry_Int_Tables_number   1
_chemical_formula_structural   NbTe4
_chemical_formula_sum   'Nb12 Te48'
_cell_volume   1830.70599844
_cell_formula_units_Z   12
loop_
 _symmetry_equiv_pos_site_id
 _symmetry_equiv_pos_as_xyz
  1  'x, y, z'
loop_
 _atom_site_type_symbol
 _atom_site_label
 _atom_site_symmetry_multiplicity
 _atom_site_fract_x
 _atom_site_fract_y
 _atom_site_fract_z
 _atom_site_occupancy
  Nb  Nb0  1  0.000000  0.000000  0.596350  1
  Nb  Nb1  1  0.500000  0.500000  0.927492  1
  Nb  Nb2  1  0.000000  0.000000  0.903197  1
  Nb  Nb3  1  0.500000  0.500000  0.580421  1
  Nb  Nb4  1  0.500000  0.500000  0.735059  1
  Nb  Nb5  1  0.500000  0.500000  0.080087  1
  Nb  Nb6  1  0.000000  0.000000  0.402149  1
  Nb  Nb7  1  0.500000  0.500000  0.427908  1
  Nb  Nb8  1  0.000000  0.000000  0.096059  1
  Nb  Nb9  1  0.000000  0.000000  0.750384  1
  Nb  Nb10  1  0.500000  0.500000  0.234508  1
  Nb  Nb11  1  0.000000  0.000000  0.249601  1
  Te  Te12  1  0.762007  0.090269  0.168471  1
  Te  Te13  1  0.237993  0.909731  0.168471  1
  Te  Te14  1  0.215443  0.095546  0.999827  1
  Te  Te15  1  0.910075  0.237893  0.669165  1
  Te  Te16  1  0.096430  0.214277  0.499164  1
  Te  Te17  1  0.095546  0.784557  0.999827  1
  Te  Te18  1  0.736317  0.406434  0.161521  1
  Te  Te19  1  0.909731  0.762007  0.168471  1
  Te  Te20  1  0.784557  0.904454  0.999827  1
  Te  Te21  1  0.904454  0.215443  0.999827  1
  Te  Te22  1  0.741467  0.417114  0.500342  1
  Te  Te23  1  0.240867  0.084184  0.329755  1
  Te  Te24  1  0.284595  0.404470  0.331216  1
  Te  Te25  1  0.237893  0.089925  0.669165  1
  Te  Te26  1  0.263684  0.593566  0.161521  1
  Te  Te27  1  0.415849  0.740983  0.000092  1
  Te  Te28  1  0.214277  0.903570  0.499164  1
  Te  Te29  1  0.264012  0.406216  0.662104  1
  Te  Te30  1  0.283472  0.594393  0.831149  1
  Te  Te31  1  0.090269  0.237993  0.168471  1
  Te  Te32  1  0.785723  0.096430  0.499164  1
  Te  Te33  1  0.915816  0.240867  0.329755  1
  Te  Te34  1  0.595530  0.284595  0.331216  1
  Te  Te35  1  0.593566  0.736317  0.161521  1
  Te  Te36  1  0.735988  0.593784  0.662104  1
  Te  Te37  1  0.258533  0.582886  0.500342  1
  Te  Te38  1  0.914346  0.759710  0.830540  1
  Te  Te39  1  0.406216  0.735988  0.662104  1
  Te  Te40  1  0.240290  0.914346  0.830540  1
  Te  Te41  1  0.259017  0.415849  0.000092  1
  Te  Te42  1  0.584151  0.259017  0.000092  1
  Te  Te43  1  0.089925  0.762107  0.669165  1
  Te  Te44  1  0.762107  0.910075  0.669165  1
  Te  Te45  1  0.085654  0.240290  0.830540  1
  Te  Te46  1  0.406434  0.263684  0.161521  1
  Te  Te47  1  0.593784  0.264012  0.662104  1
  Te  Te48  1  0.715405  0.595530  0.331216  1
  Te  Te49  1  0.759133  0.915816  0.329755  1
  Te  Te50  1  0.903570  0.785723  0.499164  1
  Te  Te51  1  0.582886  0.741467  0.500342  1
  Te  Te52  1  0.404470  0.715405  0.331216  1
  Te  Te53  1  0.084184  0.759133  0.329755  1
  Te  Te54  1  0.716528  0.405607  0.831149  1
  Te  Te55  1  0.740983  0.584151  0.000092  1
  Te  Te56  1  0.594393  0.716528  0.831149  1
  Te  Te57  1  0.405607  0.283472  0.831149  1
  Te  Te58  1  0.417114  0.258533  0.500342  1
  Te  Te59  1  0.759710  0.085654  0.830540  1
