# generated using pymatgen
data_NaAl(SiO3)2
_symmetry_space_group_name_H-M   'P 1'
_cell_length_a   5.29428889
_cell_length_b   6.45630514
_cell_length_c   6.45630514
_cell_angle_alpha   84.27667683
_cell_angle_beta   76.75846545
_cell_angle_gamma   76.75846545
_symmetry_Int_Tables_number   1
_chemical_formula_structural   NaAl(SiO3)2
_chemical_formula_sum   'Na2 Al2 Si4 O12'
_cell_volume   208.84750587
_cell_formula_units_Z   2
loop_
 _symmetry_equiv_pos_site_id
 _symmetry_equiv_pos_as_xyz
  1  'x, y, z'
loop_
 _atom_site_type_symbol
 _atom_site_label
 _atom_site_symmetry_multiplicity
 _atom_site_fract_x
 _atom_site_fract_y
 _atom_site_fract_z
 _atom_site_occupancy
  Na  Na0  1  0.750000  0.701288  0.298712  1
  Na  Na1  1  0.250000  0.298712  0.701288  1
  Al  Al2  1  0.250000  0.904626  0.095374  1
  Al  Al3  1  0.750000  0.095374  0.904626  1
  Si  Si4  1  0.726364  0.617069  0.803590  1
  Si  Si5  1  0.773636  0.196410  0.382931  1
  Si  Si6  1  0.273636  0.382931  0.196410  1
  Si  Si7  1  0.226364  0.803590  0.617069  1
  O  O8  1  0.626996  0.815417  0.967396  1
  O  O9  1  0.873004  0.032604  0.184583  1
  O  O10  1  0.373004  0.184583  0.032604  1
  O  O11  1  0.126996  0.967396  0.815417  1
  O  O12  1  0.789657  0.375988  0.900819  1
  O  O13  1  0.710343  0.099181  0.624012  1
  O  O14  1  0.210343  0.624012  0.099181  1
  O  O15  1  0.289657  0.900819  0.375988  1
  O  O16  1  0.508333  0.643478  0.651837  1
  O  O17  1  0.991667  0.348163  0.356522  1
  O  O18  1  0.491667  0.356522  0.348163  1
  O  O19  1  0.008333  0.651837  0.643478  1
