# generated using pymatgen
data_Na2TbO3
_symmetry_space_group_name_H-M   'P 1'
_cell_length_a   7.40681333
_cell_length_b   7.23449821
_cell_length_c   41.32207297
_cell_angle_alpha   100.01460549
_cell_angle_beta   100.60760053
_cell_angle_gamma   121.46143575
_symmetry_Int_Tables_number   1
_chemical_formula_structural   Na2TbO3
_chemical_formula_sum   'Na48 Tb24 O72'
_cell_volume   1757.56033012
_cell_formula_units_Z   24
loop_
 _symmetry_equiv_pos_site_id
 _symmetry_equiv_pos_as_xyz
  1  'x, y, z'
loop_
 _atom_site_type_symbol
 _atom_site_label
 _atom_site_symmetry_multiplicity
 _atom_site_fract_x
 _atom_site_fract_y
 _atom_site_fract_z
 _atom_site_occupancy
  Tb  Tb0  1  0.064978  0.934481  0.874243  1
  Tb  Tb1  1  0.067330  0.934277  0.707892  1
  Tb  Tb2  1  0.067990  0.933217  0.541881  1
  Tb  Tb3  1  0.068025  0.929393  0.375082  1
  Tb  Tb4  1  0.100420  0.953958  0.208078  1
  Tb  Tb5  1  0.050599  0.894316  0.041971  1
  Tb  Tb6  1  0.424695  0.555563  0.875260  1
  Tb  Tb7  1  0.430749  0.562835  0.707575  1
  Tb  Tb8  1  0.211446  0.729564  0.123173  1
  Tb  Tb9  1  0.436114  0.568217  0.542079  1
  Tb  Tb10  1  0.576951  0.420774  0.957957  1
  Tb  Tb11  1  0.433731  0.569455  0.375715  1
  Tb  Tb12  1  0.566269  0.430545  0.790952  1
  Tb  Tb13  1  0.423049  0.579226  0.208709  1
  Tb  Tb14  1  0.563886  0.431783  0.624588  1
  Tb  Tb15  1  0.569251  0.437165  0.459091  1
  Tb  Tb16  1  0.575305  0.444437  0.291407  1
  Tb  Tb17  1  0.899580  0.046042  0.958588  1
  Tb  Tb18  1  0.931975  0.070607  0.791585  1
  Tb  Tb19  1  0.932010  0.066783  0.624786  1
  Tb  Tb20  1  0.788554  0.270436  0.043494  1
  Tb  Tb21  1  0.932670  0.065723  0.458774  1
  Tb  Tb22  1  0.935022  0.065519  0.292424  1
  Tb  Tb23  1  0.949401  0.105684  0.124696  1
  Na  Na24  1  -0.002947  0.498016  0.832799  1
  Na  Na25  1  0.279247  0.796274  0.958184  1
  Na  Na26  1  0.997007  0.497753  0.665998  1
  Na  Na27  1  0.253082  0.748494  0.791386  1
  Na  Na28  1  0.002993  0.502247  0.500669  1
  Na  Na29  1  0.137633  0.368767  0.918097  1
  Na  Na30  1  0.498584  0.995218  0.914040  1
  Na  Na31  1  0.249736  0.742952  0.624194  1
  Na  Na32  1  0.002947  0.501984  0.333867  1
  Na  Na33  1  0.134018  0.363688  0.749246  1
  Na  Na34  1  0.253187  0.746883  0.458729  1
  Na  Na35  1  0.946494  0.469596  0.168918  1
  Na  Na36  1  0.137665  0.360161  0.582589  1
  Na  Na37  1  0.246933  0.745773  0.292104  1
  Na  Na38  1  0.609727  0.804617  0.000507  1
  Na  Na39  1  0.053506  0.530404  0.997749  1
  Na  Na40  1  0.134124  0.362466  0.416240  1
  Na  Na41  1  0.360198  0.129245  0.832753  1
  Na  Na42  1  0.635086  0.863978  0.833537  1
  Na  Na43  1  0.133116  0.363298  0.249515  1
  Na  Na44  1  0.356358  0.126700  0.665555  1
  Na  Na45  1  0.636111  0.865568  0.666356  1
  Na  Na46  1  0.230956  0.362751  0.083311  1
  Na  Na47  1  0.363889  0.134432  0.500311  1
  Na  Na48  1  0.643642  0.873300  0.501111  1
  Na  Na49  1  0.866884  0.636702  0.917152  1
  Na  Na50  1  0.364914  0.136022  0.333130  1
  Na  Na51  1  0.639802  0.870755  0.333914  1
  Na  Na52  1  0.408562  0.583853  0.040958  1
  Na  Na53  1  0.503886  0.003369  0.750097  1
  Na  Na54  1  0.865876  0.637534  0.750426  1
  Na  Na55  1  0.390273  0.195383  0.166159  1
  Na  Na56  1  0.661510  0.828489  0.164729  1
  Na  Na57  1  0.753067  0.254227  0.874563  1
  Na  Na58  1  0.500000  0.000000  0.583333  1
  Na  Na59  1  0.862335  0.639839  0.584078  1
  Na  Na60  1  0.338490  0.171511  0.001938  1
  Na  Na61  1  0.746813  0.253117  0.707937  1
  Na  Na62  1  0.496114  -0.003369  0.416570  1
  Na  Na63  1  0.865982  0.636312  0.417421  1
  Na  Na64  1  0.591438  0.416147  0.125709  1
  Na  Na65  1  0.750264  0.257048  0.542473  1
  Na  Na66  1  0.501416  0.004782  0.252627  1
  Na  Na67  1  0.862367  0.631233  0.248569  1
  Na  Na68  1  0.746918  0.251506  0.375281  1
  Na  Na69  1  0.500000  0.000000  0.083333  1
  Na  Na70  1  0.769044  0.637249  0.083356  1
  Na  Na71  1  0.720753  0.203726  0.208482  1
  O  O72  1  0.142311  0.652213  0.894208  1
  O  O73  1  0.148248  0.652629  0.726439  1
  O  O74  1  0.353235  0.847079  0.854904  1
  O  O75  1  0.053855  0.211128  0.853847  1
  O  O76  1  0.135502  0.641805  0.561233  1
  O  O77  1  0.351438  0.846690  0.689757  1
  O  O78  1  0.282041  0.422804  0.976989  1
  O  O79  1  0.054974  0.207744  0.687180  1
  O  O80  1  0.139037  0.645815  0.394964  1
  O  O81  1  0.361021  0.855250  0.522222  1
  O  O82  1  0.293902  0.439380  0.811753  1
  O  O83  1  0.198290  0.052197  0.938481  1
  O  O84  1  0.058188  0.207297  0.520752  1
  O  O85  1  0.157175  0.662812  0.226705  1
  O  O86  1  0.361535  0.855618  0.355442  1
  O  O87  1  0.295247  0.440830  0.645190  1
  O  O88  1  0.551948  0.697321  0.937209  1
  O  O89  1  0.201199  0.055864  0.770923  1
  O  O90  1  0.057231  0.206447  0.353946  1
  O  O91  1  0.109894  0.628368  0.061709  1
  O  O92  1  0.355742  0.859028  0.188383  1
  O  O93  1  0.294711  0.443281  0.478128  1
  O  O94  1  0.440866  0.281093  0.895811  1
  O  O95  1  0.555305  0.705768  0.770561  1
  O  O96  1  0.201618  0.052699  0.604278  1
  O  O97  1  0.062080  0.218461  0.186936  1
  O  O98  1  0.791087  0.941482  0.895575  1
  O  O99  1  0.392830  0.915640  0.021267  1
  O  O100  1  0.297496  0.447230  0.311941  1
  O  O101  1  0.441844  0.290562  0.729044  1
  O  O102  1  0.553521  0.705911  0.603876  1
  O  O103  1  0.206505  0.056594  0.438368  1
  O  O104  1  0.022548  0.186487  0.020684  1
  O  O105  1  0.793495  0.943406  0.728299  1
  O  O106  1  0.290150  0.465901  0.145423  1
  O  O107  1  0.446479  0.294089  0.562790  1
  O  O108  1  0.558156  0.709438  0.437623  1
  O  O109  1  0.702504  0.552770  0.854725  1
  O  O110  1  0.208913  0.058518  0.271092  1
  O  O111  1  0.937920  0.781539  0.979731  1
  O  O112  1  0.798382  0.947301  0.562388  1
  O  O113  1  0.444695  0.294232  0.396106  1
  O  O114  1  0.559134  0.718907  0.270856  1
  O  O115  1  0.705289  0.556719  0.688539  1
  O  O116  1  0.644258  0.140972  0.978284  1
  O  O117  1  0.187384  0.025341  0.104276  1
  O  O118  1  0.942769  0.793553  0.812720  1
  O  O119  1  0.798801  0.944136  0.395744  1
  O  O120  1  0.448052  0.302679  0.229458  1
  O  O121  1  0.549459  0.741097  0.105199  1
  O  O122  1  0.704753  0.559170  0.521477  1
  O  O123  1  0.638465  0.144382  0.811225  1
  O  O124  1  0.842824  0.337188  0.939962  1
  O  O125  1  0.941812  0.792703  0.645915  1
  O  O126  1  0.801710  0.947803  0.228186  1
  O  O127  1  0.450541  0.258903  0.061467  1
  O  O128  1  0.706098  0.560620  0.354913  1
  O  O129  1  0.638979  0.144750  0.644444  1
  O  O130  1  0.860963  0.354185  0.771702  1
  O  O131  1  0.945026  0.792256  0.479487  1
  O  O132  1  0.812616  0.974659  0.062390  1
  O  O133  1  0.717959  0.577196  0.189678  1
  O  O134  1  0.648562  0.153310  0.476910  1
  O  O135  1  0.864498  0.358195  0.605434  1
  O  O136  1  0.946145  0.788872  0.312819  1
  O  O137  1  0.709850  0.534099  0.021244  1
  O  O138  1  0.646765  0.152921  0.311762  1
  O  O139  1  0.851752  0.347371  0.440228  1
  O  O140  1  0.977452  0.813513  0.145983  1
  O  O141  1  0.607170  0.084360  0.145399  1
  O  O142  1  0.857689  0.347787  0.272458  1
  O  O143  1  0.890106  0.371632  0.104958  1
