# generated using pymatgen
data_FeBiSbS4
_symmetry_space_group_name_H-M   'P 1'
_cell_length_a   3.65269513
_cell_length_b   11.58765581
_cell_length_c   13.84275800
_cell_angle_alpha   90.00000000
_cell_angle_beta   90.00000000
_cell_angle_gamma   90.00000000
_symmetry_Int_Tables_number   1
_chemical_formula_structural   FeBiSbS4
_chemical_formula_sum   'Fe4 Bi4 Sb4 S16'
_cell_volume   585.91098299
_cell_formula_units_Z   4
loop_
 _symmetry_equiv_pos_site_id
 _symmetry_equiv_pos_as_xyz
  1  'x, y, z'
loop_
 _atom_site_type_symbol
 _atom_site_label
 _atom_site_symmetry_multiplicity
 _atom_site_fract_x
 _atom_site_fract_y
 _atom_site_fract_z
 _atom_site_occupancy
  Fe  Fe0  1  0.250000  0.330022  0.335980  1
  Fe  Fe1  1  0.750000  0.669978  0.664020  1
  Fe  Fe2  1  0.250000  0.830022  0.164020  1
  Fe  Fe3  1  0.750000  0.169978  0.835980  1
  Bi  Bi4  1  0.750000  0.534960  0.110990  1
  Bi  Bi5  1  0.250000  0.965040  0.610990  1
  Bi  Bi6  1  0.250000  0.465040  0.889010  1
  Bi  Bi7  1  0.750000  0.034960  0.389010  1
  Sb  Sb8  1  0.250000  0.647512  0.430443  1
  Sb  Sb9  1  0.750000  0.352488  0.569557  1
  Sb  Sb10  1  0.250000  0.147512  0.069557  1
  Sb  Sb11  1  0.750000  0.852488  0.930443  1
  S  S12  1  0.750000  0.937554  0.103419  1
  S  S13  1  0.250000  0.062446  0.896581  1
  S  S14  1  0.250000  0.237106  0.480389  1
  S  S15  1  0.250000  0.562446  0.603419  1
  S  S16  1  0.750000  0.720858  0.219706  1
  S  S17  1  0.750000  0.601296  0.811710  1
  S  S18  1  0.750000  0.762894  0.519611  1
  S  S19  1  0.750000  0.101296  0.688290  1
  S  S20  1  0.250000  0.737106  0.019611  1
  S  S21  1  0.750000  0.262894  0.980389  1
  S  S22  1  0.250000  0.279142  0.780294  1
  S  S23  1  0.250000  0.398704  0.188290  1
  S  S24  1  0.750000  0.220858  0.280294  1
  S  S25  1  0.750000  0.437554  0.396581  1
  S  S26  1  0.250000  0.898704  0.311710  1
  S  S27  1  0.250000  0.779142  0.719706  1
