# generated using pymatgen
data_CdI2
_symmetry_space_group_name_H-M   'P 1'
_cell_length_a   4.33985108
_cell_length_b   4.33985135
_cell_length_c   211.42583947
_cell_angle_alpha   90.00000000
_cell_angle_beta   90.00000000
_cell_angle_gamma   119.99999798
_symmetry_Int_Tables_number   1
_chemical_formula_structural   CdI2
_chemical_formula_sum   'Cd29 I58'
_cell_volume   3448.56475259
_cell_formula_units_Z   29
loop_
 _symmetry_equiv_pos_site_id
 _symmetry_equiv_pos_as_xyz
  1  'x, y, z'
loop_
 _atom_site_type_symbol
 _atom_site_label
 _atom_site_symmetry_multiplicity
 _atom_site_fract_x
 _atom_site_fract_y
 _atom_site_fract_z
 _atom_site_occupancy
  Cd  Cd0  1  0.333333  0.666667  0.560346  1
  Cd  Cd1  1  0.666667  0.333333  0.525861  1
  Cd  Cd2  1  0.666667  0.333333  0.008612  1
  Cd  Cd3  1  0.666667  0.333333  0.905177  1
  Cd  Cd4  1  0.333333  0.666667  0.629310  1
  Cd  Cd5  1  0.333333  0.666667  0.732763  1
  Cd  Cd6  1  0.333333  0.666667  0.456913  1
  Cd  Cd7  1  0.333333  0.666667  0.870704  1
  Cd  Cd8  1  0.666667  0.333333  0.594828  1
  Cd  Cd9  1  0.333333  0.666667  0.491380  1
  Cd  Cd10  1  0.333333  0.666667  0.939659  1
  Cd  Cd11  1  0.666667  0.333333  0.422403  1
  Cd  Cd12  1  0.333333  0.666667  0.112076  1
  Cd  Cd13  1  0.333333  0.666667  0.801718  1
  Cd  Cd14  1  0.666667  0.333333  0.698287  1
  Cd  Cd15  1  0.333333  0.666667  0.663789  1
  Cd  Cd16  1  0.333333  0.666667  0.974133  1
  Cd  Cd17  1  0.333333  0.666667  0.146545  1
  Cd  Cd18  1  0.666667  0.333333  0.181036  1
  Cd  Cd19  1  0.333333  0.666667  0.215518  1
  Cd  Cd20  1  0.333333  0.666667  0.318964  1
  Cd  Cd21  1  0.666667  0.333333  0.249998  1
  Cd  Cd22  1  0.666667  0.333333  0.353451  1
  Cd  Cd23  1  0.333333  0.666667  0.284481  1
  Cd  Cd24  1  0.666667  0.333333  0.077596  1
  Cd  Cd25  1  0.666667  0.333333  0.836215  1
  Cd  Cd26  1  0.333333  0.666667  0.387928  1
  Cd  Cd27  1  0.666667  0.333333  0.767237  1
  Cd  Cd28  1  0.333333  0.666667  0.043100  1
  I  I29  1  0.333333  0.666667  0.602939  1
  I  I30  1  0.000000  0.000000  0.345335  1
  I  I31  1  0.000000  0.000000  0.448804  1
  I  I32  1  0.000000  0.000000  0.483267  1
  I  I33  1  0.666667  0.333333  0.327069  1
  I  I34  1  0.666667  0.333333  0.740870  1
  I  I35  1  0.000000  0.000000  0.310855  1
  I  I36  1  0.000000  0.000000  0.241891  1
  I  I37  1  0.666667  0.333333  0.465020  1
  I  I38  1  0.333333  0.666667  0.085703  1
  I  I39  1  0.666667  0.333333  0.568455  1
  I  I40  1  0.000000  0.000000  0.828104  1
  I  I41  1  0.000000  0.000000  0.207411  1
  I  I42  1  0.333333  0.666667  0.706395  1
  I  I43  1  0.000000  0.000000  0.690177  1
  I  I44  1  0.000000  0.000000  0.586717  1
  I  I45  1  0.333333  0.666667  0.913285  1
  I  I46  1  0.666667  0.333333  0.878813  1
  I  I47  1  0.666667  0.333333  0.637417  1
  I  I48  1  0.333333  0.666667  0.775342  1
  I  I49  1  0.666667  0.333333  0.947767  1
  I  I50  1  0.000000  0.000000  0.966021  1
  I  I51  1  0.000000  0.000000  0.621202  1
  I  I52  1  0.666667  0.333333  0.499490  1
  I  I53  1  0.333333  0.666667  0.016718  1
  I  I54  1  0.000000  0.000000  0.931548  1
  I  I55  1  0.333333  0.666667  0.189147  1
  I  I56  1  0.000000  0.000000  0.517751  1
  I  I57  1  0.333333  0.666667  0.533964  1
  I  I58  1  0.000000  0.000000  0.034991  1
  I  I59  1  0.666667  0.333333  0.154654  1
  I  I60  1  0.666667  0.333333  0.120183  1
  I  I61  1  0.000000  0.000000  0.655680  1
  I  I62  1  0.000000  0.000000  0.862591  1
  I  I63  1  0.666667  0.333333  0.982245  1
  I  I64  1  0.333333  0.666667  0.361565  1
  I  I65  1  0.000000  0.000000  0.103960  1
  I  I66  1  0.000000  0.000000  0.897064  1
  I  I67  1  0.666667  0.333333  0.223624  1
  I  I68  1  0.666667  0.333333  0.396034  1
  I  I69  1  0.000000  0.000000  0.276372  1
  I  I70  1  0.000000  0.000000  0.414292  1
  I  I71  1  0.666667  0.333333  0.292587  1
  I  I72  1  0.333333  0.666667  0.258103  1
  I  I73  1  0.333333  0.666667  0.844323  1
  I  I74  1  0.333333  0.666667  0.430514  1
  I  I75  1  0.000000  0.000000  0.552239  1
  I  I76  1  0.000000  0.000000  0.379822  1
  I  I77  1  0.000000  0.000000  0.069482  1
  I  I78  1  0.666667  0.333333  0.051207  1
  I  I79  1  0.666667  0.333333  0.671897  1
  I  I80  1  0.666667  0.333333  0.809830  1
  I  I81  1  0.000000  0.000000  0.138435  1
  I  I82  1  0.000000  0.000000  0.172924  1
  I  I83  1  0.000000  0.000000  0.793604  1
  I  I84  1  0.000000  0.000000  0.000503  1
  I  I85  1  0.000000  0.000000  0.759128  1
  I  I86  1  0.000000  0.000000  0.724648  1
