# generated using pymatgen
data_Ba
_symmetry_space_group_name_H-M   'P 1'
_cell_length_a   3.97939873
_cell_length_b   5.62887182
_cell_length_c   5.62953193
_cell_angle_alpha   90.00160626
_cell_angle_beta   90.00532660
_cell_angle_gamma   90.00840967
_symmetry_Int_Tables_number   1
_chemical_formula_structural   Ba
_chemical_formula_sum   Ba2
_cell_volume   126.09884102
_cell_formula_units_Z   2
loop_
 _symmetry_equiv_pos_site_id
 _symmetry_equiv_pos_as_xyz
  1  'x, y, z'
loop_
 _atom_site_type_symbol
 _atom_site_label
 _atom_site_symmetry_multiplicity
 _atom_site_fract_x
 _atom_site_fract_y
 _atom_site_fract_z
 _atom_site_occupancy
  Ba  Ba0  1  0.000000  0.000001  0.999999  1
  Ba  Ba1  1  1.000000  0.499999  0.500001  1
