# generated using pymatgen
data_Na4PH5Se3O16
_symmetry_space_group_name_H-M   'P 1'
_cell_length_a   7.19877639
_cell_length_b   7.19567866
_cell_length_c   7.22807179
_cell_angle_alpha   80.07970392
_cell_angle_beta   85.21045942
_cell_angle_gamma   79.94606433
_symmetry_Int_Tables_number   1
_chemical_formula_structural   Na4PH5Se3O16
_chemical_formula_sum   'Na4 P1 H5 Se3 O16'
_cell_volume   362.60176479
_cell_formula_units_Z   1
loop_
 _symmetry_equiv_pos_site_id
 _symmetry_equiv_pos_as_xyz
  1  'x, y, z'
loop_
 _atom_site_type_symbol
 _atom_site_label
 _atom_site_symmetry_multiplicity
 _atom_site_fract_x
 _atom_site_fract_y
 _atom_site_fract_z
 _atom_site_occupancy
  Na  Na0  1  0.022595  0.787481  0.175665  1
  Na  Na1  1  0.347049  0.848645  0.655060  1
  Na  Na2  1  0.649193  0.140696  0.316993  1
  Na  Na3  1  0.954846  0.203765  0.833007  1
  P  P4  1  0.550869  0.721654  0.209292  1
  H  H5  1  0.275331  0.478576  0.961152  1
  H  H6  1  0.377904  0.934465  0.002968  1
  H  H7  1  0.490766  0.533552  0.476172  1
  H  H8  1  0.716945  0.529363  0.033043  1
  H  H9  1  0.997808  0.472139  0.495132  1
  Se  Se10  1  0.121589  0.249378  0.292199  1
  Se  Se11  1  0.469808  0.274920  0.792129  1
  Se  Se12  1  0.882186  0.745332  0.702386  1
  O  O13  1  0.001630  0.665435  0.510563  1
  O  O14  1  0.024357  0.858324  0.800981  1
  O  O15  1  0.164413  0.451641  0.158208  1
  O  O16  1  0.313583  0.103300  0.363680  1
  O  O17  1  0.313984  0.122785  0.829870  1
  O  O18  1  0.339464  0.497879  0.828629  1
  O  O19  1  0.376117  0.804167  0.079976  1
  O  O20  1  0.455722  0.673390  0.411896  1
  O  O21  1  0.545864  0.328462  0.569496  1
  O  O22  1  0.636715  0.208326  0.940748  1
  O  O23  1  0.639028  0.518522  0.160035  1
  O  O24  1  0.690401  0.855895  0.189965  1
  O  O25  1  0.685228  0.893709  0.640595  1
  O  O26  1  0.838194  0.547461  0.847567  1
  O  O27  1  0.980812  0.138091  0.193228  1
  O  O28  1  0.991701  0.323146  0.489565  1
