# generated using pymatgen
data_Ag2Hg7(P4I3)2
_symmetry_space_group_name_H-M   'P 1'
_cell_length_a   8.53356979
_cell_length_b   8.75598764
_cell_length_c   8.75598713
_cell_angle_alpha   79.78257162
_cell_angle_beta   80.29614129
_cell_angle_gamma   80.29614211
_symmetry_Int_Tables_number   1
_chemical_formula_structural   Ag2Hg7(P4I3)2
_chemical_formula_sum   'Ag2 Hg7 P8 I6'
_cell_volume   628.14151280
_cell_formula_units_Z   1
loop_
 _symmetry_equiv_pos_site_id
 _symmetry_equiv_pos_as_xyz
  1  'x, y, z'
loop_
 _atom_site_type_symbol
 _atom_site_label
 _atom_site_symmetry_multiplicity
 _atom_site_fract_x
 _atom_site_fract_y
 _atom_site_fract_z
 _atom_site_occupancy
  Ag  Ag0  1  0.500000  0.000000  0.500000  1
  Ag  Ag1  1  0.500000  0.500000  0.000000  1
  Hg  Hg2  1  0.234506  0.729593  0.364502  1
  Hg  Hg3  1  0.867762  0.727963  0.727963  1
  Hg  Hg4  1  0.765494  0.270407  0.635498  1
  Hg  Hg5  1  0.132238  0.272037  0.272037  1
  Hg  Hg6  1  0.765494  0.635498  0.270407  1
  Hg  Hg7  1  0.000000  0.000000  0.000000  1
  Hg  Hg8  1  0.234506  0.364502  0.729593  1
  P  P9  1  0.421023  0.921504  0.236402  1
  P  P10  1  0.934327  0.438412  0.438412  1
  P  P11  1  0.065673  0.561588  0.561588  1
  P  P12  1  0.257768  0.085273  0.085273  1
  P  P13  1  0.578977  0.763598  0.078496  1
  P  P14  1  0.421023  0.236402  0.921504  1
  P  P15  1  0.578977  0.078496  0.763598  1
  P  P16  1  0.742232  0.914727  0.914727  1
  I  I17  1  0.851739  0.359922  0.962415  1
  I  I18  1  0.535070  0.646234  0.646234  1
  I  I19  1  0.148261  0.640078  0.037585  1
  I  I20  1  0.851739  0.962415  0.359922  1
  I  I21  1  0.148261  0.037585  0.640078  1
  I  I22  1  0.464930  0.353766  0.353766  1
