# generated using pymatgen
data_Sr7Al12O25
_symmetry_space_group_name_H-M   'P 1'
_cell_length_a   18.28753427
_cell_length_b   18.28753429
_cell_length_c   6.93765160
_cell_angle_alpha   90.00000000
_cell_angle_beta   90.00000000
_cell_angle_gamma   119.99999996
_symmetry_Int_Tables_number   1
_chemical_formula_structural   Sr7Al12O25
_chemical_formula_sum   'Sr21 Al36 O75'
_cell_volume   2009.33997544
_cell_formula_units_Z   3
loop_
 _symmetry_equiv_pos_site_id
 _symmetry_equiv_pos_as_xyz
  1  'x, y, z'
loop_
 _atom_site_type_symbol
 _atom_site_label
 _atom_site_symmetry_multiplicity
 _atom_site_fract_x
 _atom_site_fract_y
 _atom_site_fract_z
 _atom_site_occupancy
  Sr  Sr0  1  0.110125  0.842099  0.139101  1
  Sr  Sr1  1  0.065576  0.556948  0.472589  1
  Sr  Sr2  1  0.228287  0.819243  0.677405  1
  Sr  Sr3  1  0.180757  0.409044  0.677405  1
  Sr  Sr4  1  0.333333  0.666667  0.863264  1
  Sr  Sr5  1  0.000000  0.000000  0.533996  1
  Sr  Sr6  1  0.157901  0.268026  0.139101  1
  Sr  Sr7  1  0.491373  0.934424  0.472589  1
  Sr  Sr8  1  0.443052  0.508627  0.472589  1
  Sr  Sr9  1  0.590956  0.771713  0.677405  1
  Sr  Sr10  1  0.257402  0.105008  0.344305  1
  Sr  Sr11  1  0.731974  0.889875  0.139101  1
  Sr  Sr12  1  0.398839  0.223698  0.805535  1
  Sr  Sr13  1  0.562250  0.486364  0.012140  1
  Sr  Sr14  1  0.847606  0.742598  0.344305  1
  Sr  Sr15  1  0.513636  0.075886  0.012140  1
  Sr  Sr16  1  0.666667  0.333333  0.203027  1
  Sr  Sr17  1  0.824859  0.601161  0.805535  1
  Sr  Sr18  1  0.776302  0.175141  0.805535  1
  Sr  Sr19  1  0.924114  0.437750  0.012140  1
  Sr  Sr20  1  0.894992  0.152394  0.344305  1
  Al  Al21  1  0.013634  0.743229  0.532198  1
  Al  Al22  1  0.116216  0.921652  0.698744  1
  Al  Al23  1  0.063336  0.653291  0.865672  1
  Al  Al24  1  0.224130  0.738020  0.129094  1
  Al  Al25  1  0.317106  0.925307  0.286993  1
  Al  Al26  1  0.139363  0.550928  0.032052  1
  Al  Al27  1  0.074693  0.391800  0.286993  1
  Al  Al28  1  0.078348  0.194565  0.698744  1
  Al  Al29  1  0.411565  0.860637  0.032052  1
  Al  Al30  1  0.261980  0.486109  0.129094  1
  Al  Al31  1  0.589955  0.936664  0.865672  1
  Al  Al32  1  0.256771  0.270405  0.532198  1
  Al  Al33  1  0.513891  0.775870  0.129094  1
  Al  Al34  1  0.180605  0.109453  0.796421  1
  Al  Al35  1  0.346709  0.410045  0.865672  1
  Al  Al36  1  0.449072  0.588435  0.032052  1
  Al  Al37  1  0.729595  0.986366  0.532198  1
  Al  Al38  1  0.396450  0.320218  0.198846  1
  Al  Al39  1  0.608200  0.682894  0.286993  1
  Al  Al40  1  0.274955  0.016414  0.954070  1
  Al  Al41  1  0.557487  0.404882  0.463573  1
  Al  Al42  1  0.650575  0.592166  0.620735  1
  Al  Al43  1  0.471776  0.217252  0.365460  1
  Al  Al44  1  0.805435  0.883784  0.698744  1
  Al  Al45  1  0.741459  0.725045  0.954070  1
  Al  Al46  1  0.407834  0.058409  0.620735  1
  Al  Al47  1  0.745476  0.528224  0.365460  1
  Al  Al48  1  0.928849  0.819395  0.796421  1
  Al  Al49  1  0.595118  0.152604  0.463573  1
  Al  Al50  1  0.923768  0.603550  0.198846  1
  Al  Al51  1  0.847396  0.442513  0.463573  1
  Al  Al52  1  0.679782  0.076232  0.198846  1
  Al  Al53  1  0.782748  0.254524  0.365460  1
  Al  Al54  1  0.941591  0.349425  0.620735  1
  Al  Al55  1  0.890547  0.071151  0.796421  1
  Al  Al56  1  0.983586  0.258541  0.954070  1
  O  O57  1  0.035328  0.863876  0.869376  1
  O  O58  1  0.088768  0.852948  0.495567  1
  O  O59  1  0.065318  0.691499  0.628408  1
  O  O60  1  0.205589  0.928059  0.816109  1
  O  O61  1  0.143076  0.743816  0.983246  1
  O  O62  1  0.264943  0.977001  0.192819  1
  O  O63  1  0.098945  0.578986  0.828266  1
  O  O64  1  0.245130  0.815009  0.310871  1
  O  O65  1  0.056187  0.461546  0.148781  1
  O  O66  1  0.045130  0.401730  0.525975  1
  O  O67  1  0.161918  0.631570  0.203070  1
  O  O68  1  0.356600  0.954870  0.525975  1
  O  O69  1  0.022999  0.287942  0.192819  1
  O  O70  1  0.307521  0.787382  0.944818  1
  O  O71  1  0.071941  0.277530  0.816109  1
  O  O72  1  0.405359  0.943813  0.148781  1
  O  O73  1  0.212618  0.520139  0.944818  1
  O  O74  1  0.184991  0.430121  0.310871  1
  O  O75  1  0.333333  0.666667  0.168118  1
  O  O76  1  0.000000  0.000000  0.839204  1
  O  O77  1  0.480041  0.901055  0.828266  1
  O  O78  1  0.147052  0.235820  0.495567  1
  O  O79  1  0.469651  0.838082  0.203070  1
  O  O80  1  0.136124  0.171452  0.869376  1
  O  O81  1  0.256184  0.399260  0.983246  1
  O  O82  1  0.368430  0.530349  0.203070  1
  O  O83  1  0.146598  0.025743  0.612593  1
  O  O84  1  0.308501  0.373820  0.628408  1
  O  O85  1  0.479861  0.692479  0.944818  1
  O  O86  1  0.626180  0.934682  0.628408  1
  O  O87  1  0.292975  0.268531  0.294785  1
  O  O88  1  0.600740  0.856924  0.983246  1
  O  O89  1  0.267310  0.190486  0.649931  1
  O  O90  1  0.421014  0.519959  0.828266  1
  O  O91  1  0.236717  0.088405  0.978157  1
  O  O92  1  0.569879  0.754870  0.310871  1
  O  O93  1  0.399004  0.358838  0.961621  1
  O  O94  1  0.538454  0.594641  0.148781  1
  O  O95  1  0.476614  0.410553  0.316770  1
  O  O96  1  0.598270  0.643400  0.525975  1
  O  O97  1  0.430629  0.244680  0.162115  1
  O  O98  1  0.764180  0.911232  0.495567  1
  O  O99  1  0.578637  0.481945  0.645240  1
  O  O100  1  0.722470  0.794411  0.816109  1
  O  O101  1  0.388896  0.128130  0.483177  1
  O  O102  1  0.712058  0.735057  0.192819  1
  O  O103  1  0.378738  0.068899  0.859754  1
  O  O104  1  0.495204  0.298295  0.535703  1
  O  O105  1  0.828548  0.964672  0.869376  1
  O  O106  1  0.690161  0.621262  0.859754  1
  O  O107  1  0.641306  0.454450  0.279952  1
  O  O108  1  0.739233  0.611104  0.483177  1
  O  O109  1  0.879145  0.853402  0.612593  1
  O  O110  1  0.545550  0.186856  0.279952  1
  O  O111  1  0.851688  0.763283  0.978157  1
  O  O112  1  0.518055  0.096692  0.645240  1
  O  O113  1  0.666667  0.333333  0.507980  1
  O  O114  1  0.814051  0.569371  0.162115  1
  O  O115  1  0.803091  0.504796  0.535703  1
  O  O116  1  0.923176  0.732690  0.649931  1
  O  O117  1  0.589447  0.066061  0.316770  1
  O  O118  1  0.701705  0.196909  0.535703  1
  O  O119  1  0.813144  0.358694  0.279952  1
  O  O120  1  0.975556  0.707025  0.294785  1
  O  O121  1  0.641162  0.040165  0.961621  1
  O  O122  1  0.959835  0.600996  0.961621  1
  O  O123  1  0.933939  0.523386  0.316770  1
  O  O124  1  0.755320  0.185949  0.162115  1
  O  O125  1  0.903308  0.421363  0.645240  1
  O  O126  1  0.731469  0.024444  0.294785  1
  O  O127  1  0.871870  0.260767  0.483177  1
  O  O128  1  0.809514  0.076824  0.649931  1
  O  O129  1  0.931101  0.309839  0.859754  1
  O  O130  1  0.911595  0.148312  0.978157  1
  O  O131  1  0.974257  0.120855  0.612593  1
