# generated using pymatgen
data_KAu(CN)2
_symmetry_space_group_name_H-M   'P 1'
_cell_length_a   9.61292214
_cell_length_b   9.61292239
_cell_length_c   9.61292209
_cell_angle_alpha   46.23061204
_cell_angle_beta   46.23061046
_cell_angle_gamma   46.23061114
_symmetry_Int_Tables_number   1
_chemical_formula_structural   KAu(CN)2
_chemical_formula_sum   'K3 Au3 C6 N6'
_cell_volume   422.73459679
_cell_formula_units_Z   3
loop_
 _symmetry_equiv_pos_site_id
 _symmetry_equiv_pos_as_xyz
  1  'x, y, z'
loop_
 _atom_site_type_symbol
 _atom_site_label
 _atom_site_symmetry_multiplicity
 _atom_site_fract_x
 _atom_site_fract_y
 _atom_site_fract_z
 _atom_site_occupancy
  K  K0  1  0.656023  0.656023  0.656023  1
  K  K1  1  0.343977  0.343977  0.343977  1
  K  K2  1  0.000000  0.000000  0.000000  1
  Au  Au3  1  0.000000  0.500000  0.000000  1
  Au  Au4  1  0.500000  0.000000  0.000000  1
  Au  Au5  1  0.000000  0.000000  0.500000  1
  C  C6  1  0.830005  0.433369  0.020235  1
  C  C7  1  0.566631  0.979765  0.169995  1
  C  C8  1  0.433369  0.020235  0.830005  1
  C  C9  1  0.169995  0.566631  0.979765  1
  C  C10  1  0.979765  0.169995  0.566631  1
  C  C11  1  0.020235  0.830005  0.433369  1
  N  N12  1  0.728168  0.395103  0.032940  1
  N  N13  1  0.967060  0.271832  0.604897  1
  N  N14  1  0.271832  0.604897  0.967060  1
  N  N15  1  0.604897  0.967060  0.271832  1
  N  N16  1  0.032940  0.728168  0.395103  1
  N  N17  1  0.395103  0.032940  0.728168  1
