# generated using pymatgen
data_Ca4MgB4H6(CO9)2
_symmetry_space_group_name_H-M   'P 1'
_cell_length_a   9.96588774
_cell_length_b   9.96588774
_cell_length_c   4.52442056
_cell_angle_alpha   79.23568829
_cell_angle_beta   100.76431171
_cell_angle_gamma   128.17019448
_symmetry_Int_Tables_number   1
_chemical_formula_structural   Ca4MgB4H6(CO9)2
_chemical_formula_sum   'Ca4 Mg1 B4 H6 C2 O18'
_cell_volume   345.57728821
_cell_formula_units_Z   1
loop_
 _symmetry_equiv_pos_site_id
 _symmetry_equiv_pos_as_xyz
  1  'x, y, z'
loop_
 _atom_site_type_symbol
 _atom_site_label
 _atom_site_symmetry_multiplicity
 _atom_site_fract_x
 _atom_site_fract_y
 _atom_site_fract_z
 _atom_site_occupancy
  Ca  Ca0  1  0.074800  0.386582  0.841452  1
  Ca  Ca1  1  0.613418  0.925200  0.841452  1
  Ca  Ca2  1  0.925200  0.613418  0.158548  1
  Ca  Ca3  1  0.386582  0.074800  0.158548  1
  Mg  Mg4  1  0.000000  0.000000  0.000000  1
  B  B5  1  0.224180  0.224180  0.500000  1
  B  B6  1  0.775820  0.775820  0.500000  1
  B  B7  1  0.903177  0.096823  0.381418  1
  B  B8  1  0.096823  0.903177  0.618582  1
  H  H9  1  0.380526  0.393307  0.794480  1
  H  H10  1  0.606692  0.619474  0.794480  1
  H  H11  1  0.619474  0.606692  0.205520  1
  H  H12  1  0.393307  0.380526  0.205520  1
  H  H13  1  0.786626  0.213374  0.300875  1
  H  H14  1  0.213374  0.786626  0.699125  1
  C  C15  1  0.695001  0.304999  0.751335  1
  C  C16  1  0.304999  0.695001  0.248665  1
  O  O17  1  0.898902  0.101098  0.689437  1
  O  O18  1  0.101098  0.898902  0.310563  1
  O  O19  1  0.080196  0.191757  0.279811  1
  O  O20  1  0.808243  0.919804  0.279811  1
  O  O21  1  0.919804  0.808243  0.720189  1
  O  O22  1  0.191757  0.080196  0.720189  1
  O  O23  1  0.276925  0.365255  0.673940  1
  O  O24  1  0.634745  0.723075  0.673940  1
  O  O25  1  0.723075  0.634745  0.326060  1
  O  O26  1  0.365255  0.276925  0.326060  1
  O  O27  1  0.153949  0.584802  0.350852  1
  O  O28  1  0.415198  0.846051  0.350852  1
  O  O29  1  0.846051  0.415198  0.649148  1
  O  O30  1  0.584802  0.153949  0.649148  1
  O  O31  1  0.824905  0.175095  0.175867  1
  O  O32  1  0.175095  0.824905  0.824133  1
  O  O33  1  0.656579  0.343421  0.964700  1
  O  O34  1  0.343421  0.656579  0.035300  1
