# generated using pymatgen
data_LiLa2RuO6
_symmetry_space_group_name_H-M   'P 1'
_cell_length_a   5.56670488
_cell_length_b   5.79495511
_cell_length_c   7.88321053
_cell_angle_alpha   90.00000000
_cell_angle_beta   90.17593712
_cell_angle_gamma   90.00000000
_symmetry_Int_Tables_number   1
_chemical_formula_structural   LiLa2RuO6
_chemical_formula_sum   'Li2 La4 Ru2 O12'
_cell_volume   254.30175169
_cell_formula_units_Z   2
loop_
 _symmetry_equiv_pos_site_id
 _symmetry_equiv_pos_as_xyz
  1  'x, y, z'
loop_
 _atom_site_type_symbol
 _atom_site_label
 _atom_site_symmetry_multiplicity
 _atom_site_fract_x
 _atom_site_fract_y
 _atom_site_fract_z
 _atom_site_occupancy
  Li  Li0  1  0.500000  0.000000  0.000000  1
  Li  Li1  1  0.000000  0.500000  0.500000  1
  O  O2  1  0.589383  0.027181  0.742436  1
  O  O3  1  0.910617  0.527181  0.757564  1
  O  O4  1  0.410617  0.972819  0.257564  1
  O  O5  1  0.089383  0.472819  0.242436  1
  O  O6  1  0.687096  0.285077  0.450877  1
  O  O7  1  0.812904  0.785077  0.049123  1
  O  O8  1  0.289228  0.689832  0.955259  1
  O  O9  1  0.210772  0.189832  0.544741  1
  O  O10  1  0.710772  0.310168  0.044741  1
  O  O11  1  0.789228  0.810168  0.455259  1
  O  O12  1  0.187096  0.214923  0.950877  1
  O  O13  1  0.312904  0.714923  0.549123  1
  Ru  Ru14  1  0.000000  0.500000  0.000000  1
  Ru  Ru15  1  0.500000  0.000000  0.500000  1
  La  La16  1  0.511681  0.559539  0.248670  1
  La  La17  1  0.988319  0.059539  0.251330  1
  La  La18  1  0.488319  0.440461  0.751330  1
  La  La19  1  0.011681  0.940461  0.748670  1
