# generated using pymatgen
data_KCeCuTe4
_symmetry_space_group_name_H-M   'P 1'
_cell_length_a   4.45759520
_cell_length_b   4.45640185
_cell_length_c   21.15702312
_cell_angle_alpha   89.99937240
_cell_angle_beta   89.99960632
_cell_angle_gamma   89.99984021
_symmetry_Int_Tables_number   1
_chemical_formula_structural   KCeCuTe4
_chemical_formula_sum   'K2 Ce2 Cu2 Te8'
_cell_volume   420.28078384
_cell_formula_units_Z   2
loop_
 _symmetry_equiv_pos_site_id
 _symmetry_equiv_pos_as_xyz
  1  'x, y, z'
loop_
 _atom_site_type_symbol
 _atom_site_label
 _atom_site_symmetry_multiplicity
 _atom_site_fract_x
 _atom_site_fract_y
 _atom_site_fract_z
 _atom_site_occupancy
  K  K0  1  0.750002  0.749998  0.142606  1
  K  K1  1  0.250000  0.250000  0.857402  1
  Ce  Ce2  1  0.250006  0.250001  0.400067  1
  Ce  Ce3  1  0.749994  0.749997  0.599909  1
  Cu  Cu4  1  0.750002  0.249998  0.000422  1
  Cu  Cu5  1  0.249997  0.750004  0.999581  1
  Te  Te6  1  0.250001  0.749999  0.715684  1
  Te  Te7  1  0.750001  0.750000  0.929958  1
  Te  Te8  1  0.750000  0.250000  0.284319  1
  Te  Te9  1  0.250000  0.250001  0.556638  1
  Te  Te10  1  0.750001  0.750001  0.443359  1
  Te  Te11  1  0.749997  0.249999  0.715744  1
  Te  Te12  1  0.250000  0.750000  0.284259  1
  Te  Te13  1  0.249999  0.249999  0.070052  1
