# generated using pymatgen
data_Cd13(In13Se27)2
_symmetry_space_group_name_H-M   'P 1'
_cell_length_a   17.51999536
_cell_length_b   17.51264406
_cell_length_c   18.37230987
_cell_angle_alpha   90.00000000
_cell_angle_beta   90.00000000
_cell_angle_gamma   90.00000000
_symmetry_Int_Tables_number   1
_chemical_formula_structural   Cd13(In13Se27)2
_chemical_formula_sum   'Cd26 In52 Se108'
_cell_volume   5637.01861954
_cell_formula_units_Z   2
loop_
 _symmetry_equiv_pos_site_id
 _symmetry_equiv_pos_as_xyz
  1  'x, y, z'
loop_
 _atom_site_type_symbol
 _atom_site_label
 _atom_site_symmetry_multiplicity
 _atom_site_fract_x
 _atom_site_fract_y
 _atom_site_fract_z
 _atom_site_occupancy
  Cd  Cd0  1  0.333456  0.833858  0.166288  1
  Cd  Cd1  1  0.834074  0.001384  0.835492  1
  Cd  Cd2  1  0.833456  0.666142  0.833712  1
  Cd  Cd3  1  0.333406  0.500086  0.498805  1
  Cd  Cd4  1  0.167346  0.666698  0.834165  1
  Cd  Cd5  1  0.501369  0.334557  0.834776  1
  Cd  Cd6  1  0.166544  0.333858  0.833712  1
  Cd  Cd7  1  0.334074  0.498616  0.164508  1
  Cd  Cd8  1  0.498631  0.665443  0.834776  1
  Cd  Cd9  1  0.166594  0.000086  0.501195  1
  Cd  Cd10  1  0.165926  0.998616  0.835492  1
  Cd  Cd11  1  0.832654  0.333302  0.834165  1
  Cd  Cd12  1  0.001369  0.165443  0.165224  1
  Cd  Cd13  1  0.666544  0.166142  0.166288  1
  Cd  Cd14  1  0.000000  0.500000  0.165828  1
  Cd  Cd15  1  0.000000  0.500000  0.498898  1
  Cd  Cd16  1  0.998631  0.834557  0.165224  1
  Cd  Cd17  1  0.667346  0.833302  0.165835  1
  Cd  Cd18  1  0.500000  0.000000  0.501102  1
  Cd  Cd19  1  0.500000  0.500000  0.000141  1
  Cd  Cd20  1  0.833406  0.999914  0.501195  1
  Cd  Cd21  1  0.332654  0.166698  0.165835  1
  Cd  Cd22  1  0.666594  0.499914  0.498805  1
  Cd  Cd23  1  0.000000  0.000000  0.999859  1
  Cd  Cd24  1  0.665926  0.501384  0.164508  1
  Cd  Cd25  1  0.500000  0.000000  0.834172  1
  In  In26  1  0.834251  0.830442  0.666041  1
  In  In27  1  0.165846  0.165676  0.001061  1
  In  In28  1  0.166969  0.499931  0.666900  1
  In  In29  1  0.834478  0.165849  0.998803  1
  In  In30  1  0.664430  0.668412  0.666403  1
  In  In31  1  0.499895  0.166999  0.999906  1
  In  In32  1  0.000000  0.000000  0.667200  1
  In  In33  1  0.335570  0.331588  0.666403  1
  In  In34  1  0.833054  0.499850  0.000137  1
  In  In35  1  0.167187  0.830541  0.666333  1
  In  In36  1  0.000319  0.669397  0.334144  1
  In  In37  1  0.665749  0.330442  0.333959  1
  In  In38  1  0.001536  0.331407  0.666437  1
  In  In39  1  0.334154  0.665676  0.998939  1
  In  In40  1  0.500000  0.500000  0.332800  1
  In  In41  1  0.667187  0.669459  0.333667  1
  In  In42  1  0.165522  0.834151  0.998803  1
  In  In43  1  0.166946  0.500150  0.000137  1
  In  In44  1  0.333387  0.000069  0.666282  1
  In  In45  1  0.331349  0.668550  0.666560  1
  In  In46  1  0.834154  0.834324  0.001061  1
  In  In47  1  0.333054  0.000150  0.999863  1
  In  In48  1  0.165749  0.169558  0.666041  1
  In  In49  1  0.999895  0.333001  0.000094  1
  In  In50  1  0.833031  0.500069  0.666900  1
  In  In51  1  0.666613  0.999931  0.666282  1
  In  In52  1  0.334478  0.334151  0.001197  1
  In  In53  1  0.832813  0.169459  0.666333  1
  In  In54  1  0.500000  0.500000  0.667397  1
  In  In55  1  0.833387  0.499931  0.333718  1
  In  In56  1  0.668651  0.331450  0.666560  1
  In  In57  1  0.000000  0.000000  0.332603  1
  In  In58  1  0.498464  0.831407  0.333563  1
  In  In59  1  0.166613  0.500069  0.333718  1
  In  In60  1  0.164430  0.831588  0.333597  1
  In  In61  1  0.334251  0.669558  0.333959  1
  In  In62  1  0.500319  0.830603  0.665856  1
  In  In63  1  0.999681  0.330603  0.334144  1
  In  In64  1  0.665522  0.665849  0.001197  1
  In  In65  1  0.168651  0.168550  0.333440  1
  In  In66  1  0.501536  0.168593  0.333563  1
  In  In67  1  0.831349  0.831450  0.333440  1
  In  In68  1  0.666969  0.000069  0.333100  1
  In  In69  1  0.998464  0.668593  0.666437  1
  In  In70  1  0.500105  0.833001  0.999906  1
  In  In71  1  0.332813  0.330541  0.333667  1
  In  In72  1  0.835570  0.168412  0.333597  1
  In  In73  1  0.000105  0.666999  0.000094  1
  In  In74  1  0.665846  0.334324  0.998939  1
  In  In75  1  0.499681  0.169397  0.665856  1
  In  In76  1  0.333031  0.999931  0.333100  1
  In  In77  1  0.666946  0.999850  0.999863  1
  Se  Se78  1  0.407406  0.092992  0.421621  1
  Se  Se79  1  0.259292  0.573896  0.755711  1
  Se  Se80  1  0.921762  0.244945  0.422891  1
  Se  Se81  1  0.759226  0.074129  0.088377  1
  Se  Se82  1  0.592307  0.241412  0.756221  1
  Se  Se83  1  0.092594  0.592992  0.578379  1
  Se  Se84  1  0.592474  0.574217  0.755881  1
  Se  Se85  1  0.076506  0.091192  0.754808  1
  Se  Se86  1  0.925934  0.574022  0.755429  1
  Se  Se87  1  0.592594  0.907008  0.421621  1
  Se  Se88  1  0.241041  0.592554  0.088717  1
  Se  Se89  1  0.907366  0.592889  0.422087  1
  Se  Se90  1  0.074342  0.240939  0.911370  1
  Se  Se91  1  0.425658  0.740939  0.088630  1
  Se  Se92  1  0.240818  0.593227  0.421860  1
  Se  Se93  1  0.925629  0.425740  0.911619  1
  Se  Se94  1  0.925636  0.241780  0.756850  1
  Se  Se95  1  0.909506  0.408671  0.245739  1
  Se  Se96  1  0.425629  0.074260  0.088381  1
  Se  Se97  1  0.740708  0.426104  0.755711  1
  Se  Se98  1  0.592370  0.758685  0.911289  1
  Se  Se99  1  0.074364  0.758220  0.756850  1
  Se  Se100  1  0.240708  0.073896  0.244289  1
  Se  Se101  1  0.258918  0.906811  0.421730  1
  Se  Se102  1  0.244679  0.744758  0.577233  1
  Se  Se103  1  0.907577  0.592407  0.088469  1
  Se  Se104  1  0.073976  0.907173  0.578501  1
  Se  Se105  1  0.907630  0.258685  0.088711  1
  Se  Se106  1  0.090494  0.591329  0.245739  1
  Se  Se107  1  0.094108  0.074697  0.089843  1
  Se  Se108  1  0.258711  0.241891  0.756346  1
  Se  Se109  1  0.758918  0.593189  0.578270  1
  Se  Se110  1  0.574364  0.741780  0.243150  1
  Se  Se111  1  0.407577  0.907593  0.911531  1
  Se  Se112  1  0.423494  0.591192  0.245192  1
  Se  Se113  1  0.425636  0.258220  0.243150  1
  Se  Se114  1  0.092307  0.258588  0.243779  1
  Se  Se115  1  0.576506  0.408808  0.245192  1
  Se  Se116  1  0.905892  0.925303  0.089843  1
  Se  Se117  1  0.759292  0.926104  0.244289  1
  Se  Se118  1  0.425934  0.925978  0.244571  1
  Se  Se119  1  0.574342  0.259061  0.088630  1
  Se  Se120  1  0.240774  0.925871  0.088377  1
  Se  Se121  1  0.092634  0.407111  0.422087  1
  Se  Se122  1  0.241289  0.741891  0.243654  1
  Se  Se123  1  0.242452  0.408912  0.245902  1
  Se  Se124  1  0.578238  0.744945  0.577109  1
  Se  Se125  1  0.426024  0.407173  0.421499  1
  Se  Se126  1  0.907693  0.741412  0.243779  1
  Se  Se127  1  0.758959  0.407446  0.088717  1
  Se  Se128  1  0.407526  0.425783  0.755881  1
  Se  Se129  1  0.092423  0.407593  0.088469  1
  Se  Se130  1  0.405892  0.574697  0.910157  1
  Se  Se131  1  0.574066  0.074022  0.244571  1
  Se  Se132  1  0.757548  0.591088  0.245902  1
  Se  Se133  1  0.407366  0.907111  0.577913  1
  Se  Se134  1  0.925266  0.094214  0.909842  1
  Se  Se135  1  0.590494  0.908671  0.754261  1
  Se  Se136  1  0.913081  0.745893  0.577069  1
  Se  Se137  1  0.907406  0.407008  0.578379  1
  Se  Se138  1  0.074112  0.093112  0.421440  1
  Se  Se139  1  0.421762  0.255055  0.577109  1
  Se  Se140  1  0.413081  0.754107  0.422931  1
  Se  Se141  1  0.074066  0.425978  0.755429  1
  Se  Se142  1  0.407693  0.758588  0.756221  1
  Se  Se143  1  0.925888  0.906888  0.421440  1
  Se  Se144  1  0.741082  0.093189  0.421730  1
  Se  Se145  1  0.741289  0.758109  0.756346  1
  Se  Se146  1  0.255321  0.244758  0.422767  1
  Se  Se147  1  0.074734  0.905786  0.909842  1
  Se  Se148  1  0.741041  0.907446  0.911283  1
  Se  Se149  1  0.259226  0.425871  0.911623  1
  Se  Se150  1  0.574371  0.925740  0.088381  1
  Se  Se151  1  0.925658  0.759061  0.911370  1
  Se  Se152  1  0.240898  0.259056  0.088090  1
  Se  Se153  1  0.257548  0.908912  0.754098  1
  Se  Se154  1  0.259182  0.093227  0.578140  1
  Se  Se155  1  0.074371  0.574260  0.911619  1
  Se  Se156  1  0.755321  0.255242  0.577233  1
  Se  Se157  1  0.744679  0.755242  0.422767  1
  Se  Se158  1  0.923494  0.908808  0.754808  1
  Se  Se159  1  0.759182  0.406773  0.421860  1
  Se  Se160  1  0.758711  0.258109  0.243654  1
  Se  Se161  1  0.409506  0.091329  0.754261  1
  Se  Se162  1  0.759102  0.740944  0.088090  1
  Se  Se163  1  0.407630  0.241315  0.911289  1
  Se  Se164  1  0.086919  0.254107  0.577069  1
  Se  Se165  1  0.092474  0.925783  0.244119  1
  Se  Se166  1  0.740818  0.906773  0.578140  1
  Se  Se167  1  0.573976  0.592827  0.421499  1
  Se  Se168  1  0.425266  0.405786  0.090158  1
  Se  Se169  1  0.259102  0.759056  0.911910  1
  Se  Se170  1  0.574734  0.594214  0.090158  1
  Se  Se171  1  0.425888  0.593112  0.578560  1
  Se  Se172  1  0.740898  0.240944  0.911910  1
  Se  Se173  1  0.078238  0.755055  0.422891  1
  Se  Se174  1  0.592423  0.092407  0.911531  1
  Se  Se175  1  0.907526  0.074217  0.244119  1
  Se  Se176  1  0.742452  0.091088  0.754098  1
  Se  Se177  1  0.574112  0.406888  0.578560  1
  Se  Se178  1  0.740774  0.574129  0.911623  1
  Se  Se179  1  0.926024  0.092827  0.578501  1
  Se  Se180  1  0.258959  0.092554  0.911283  1
  Se  Se181  1  0.092370  0.741315  0.088711  1
  Se  Se182  1  0.592634  0.092889  0.577913  1
  Se  Se183  1  0.586919  0.245893  0.422931  1
  Se  Se184  1  0.241082  0.406811  0.578270  1
  Se  Se185  1  0.594108  0.425303  0.910157  1
