# generated using pymatgen
data_BaMg2Al6(Si3O10)3
_symmetry_space_group_name_H-M   'P 1'
_cell_length_a   10.25904439
_cell_length_b   10.34137882
_cell_length_c   14.37322982
_cell_angle_alpha   90.44294725
_cell_angle_beta   89.38930623
_cell_angle_gamma   119.77099657
_symmetry_Int_Tables_number   1
_chemical_formula_structural   BaMg2Al6(Si3O10)3
_chemical_formula_sum   'Ba2 Mg4 Al12 Si18 O60'
_cell_volume   1323.55358851
_cell_formula_units_Z   2
loop_
 _symmetry_equiv_pos_site_id
 _symmetry_equiv_pos_as_xyz
  1  'x, y, z'
loop_
 _atom_site_type_symbol
 _atom_site_label
 _atom_site_symmetry_multiplicity
 _atom_site_fract_x
 _atom_site_fract_y
 _atom_site_fract_z
 _atom_site_occupancy
  Ba  Ba0  1  0.994801  0.004610  0.745674  1
  Ba  Ba1  1  0.004384  0.006625  0.245524  1
  Mg  Mg2  1  0.328628  0.662221  0.247688  1
  Mg  Mg3  1  0.329960  0.664740  0.748184  1
  Mg  Mg4  1  0.674576  0.338499  0.246613  1
  Mg  Mg5  1  0.672067  0.330635  0.749564  1
  Al  Al6  1  0.103241  0.752472  0.612250  1
  Al  Al7  1  0.003393  0.498410  0.753411  1
  Al  Al8  1  0.497172  0.001327  0.748253  1
  Al  Al9  1  0.360679  0.252324  0.112063  1
  Al  Al10  1  0.509235  0.506392  0.251594  1
  Al  Al11  1  0.499003  0.496702  0.747666  1
  Al  Al12  1  0.500927  0.995993  0.250522  1
  Al  Al13  1  0.897559  0.654480  0.110816  1
  Al  Al14  1  0.749510  0.103292  0.887883  1
  Al  Al15  1  0.993763  0.497992  0.247073  1
  Al  Al16  1  0.894539  0.241942  0.613480  1
  Al  Al17  1  0.893193  0.244746  0.388677  1
  Si  Si18  1  0.100458  0.752860  0.387681  1
  Si  Si19  1  0.250216  0.900362  0.113326  1
  Si  Si20  1  0.246489  0.905185  0.890516  1
  Si  Si21  1  0.102684  0.344240  0.890447  1
  Si  Si22  1  0.099133  0.341840  0.112596  1
  Si  Si23  1  0.247837  0.346348  0.387297  1
  Si  Si24  1  0.250669  0.349953  0.609153  1
  Si  Si25  1  0.647225  0.894747  0.612034  1
  Si  Si26  1  0.650007  0.898238  0.390279  1
  Si  Si27  1  0.357039  0.251879  0.888992  1
  Si  Si28  1  0.650286  0.756372  0.110633  1
  Si  Si29  1  0.648184  0.750996  0.887885  1
  Si  Si30  1  0.345614  0.096978  0.388128  1
  Si  Si31  1  0.348597  0.100995  0.609080  1
  Si  Si32  1  0.751590  0.648994  0.612775  1
  Si  Si33  1  0.753804  0.652192  0.392929  1
  Si  Si34  1  0.901064  0.660157  0.887590  1
  Si  Si35  1  0.749358  0.104001  0.110519  1
  O  O36  1  0.077534  0.794034  0.144296  1
  O  O37  1  0.068949  0.803794  0.861158  1
  O  O38  1  0.208792  0.943413  0.641207  1
  O  O39  1  0.205279  0.931704  0.357784  1
  O  O40  1  0.119871  0.727146  0.493945  1
  O  O41  1  0.134984  0.648073  0.316839  1
  O  O42  1  0.143518  0.640768  0.683504  1
  O  O43  1  0.273459  0.888506  0.000039  1
  O  O44  1  0.134349  0.489247  0.175284  1
  O  O45  1  0.138054  0.491432  0.829543  1
  O  O46  1  0.112635  0.380678  0.001899  1
  O  O47  1  0.361461  0.859333  0.174666  1
  O  O48  1  0.353058  0.866155  0.824089  1
  O  O49  1  0.077416  0.274129  0.641399  1
  O  O50  1  0.075630  0.276677  0.356977  1
  O  O51  1  0.205721  0.276100  0.142271  1
  O  O52  1  0.224743  0.291273  0.859817  1
  O  O53  1  0.502283  0.857376  0.325335  1
  O  O54  1  0.499304  0.859582  0.676119  1
  O  O55  1  0.279200  0.387869  0.497953  1
  O  O56  1  0.359081  0.495609  0.674162  1
  O  O57  1  0.359110  0.492954  0.323780  1
  O  O58  1  0.608409  0.886420  0.501199  1
  O  O59  1  0.287263  0.212689  0.360240  1
  O  O60  1  0.302015  0.226961  0.637160  1
  O  O61  1  0.505499  0.645511  0.177093  1
  O  O62  1  0.502992  0.636146  0.824087  1
  O  O63  1  0.610348  0.723718  -0.000265  1
  O  O64  1  0.290277  0.066628  0.144315  1
  O  O65  1  0.281262  0.073437  0.860902  1
  O  O66  1  0.705542  0.931275  0.137336  1
  O  O67  1  0.708008  0.920987  0.858220  1
  O  O68  1  0.403062  0.281220  0.995225  1
  O  O69  1  0.510624  0.367362  0.182764  1
  O  O70  1  0.495023  0.352657  0.817202  1
  O  O71  1  0.709443  0.779440  0.366611  1
  O  O72  1  0.693958  0.768455  0.638327  1
  O  O73  1  0.381977  0.108382  0.497865  1
  O  O74  1  0.643809  0.502416  0.675515  1
  O  O75  1  0.646788  0.510403  0.328714  1
  O  O76  1  0.729753  0.610595  0.502037  1
  O  O77  1  0.490302  0.127753  0.325490  1
  O  O78  1  0.494911  0.133436  0.669687  1
  O  O79  1  0.789879  0.737120  0.143115  1
  O  O80  1  0.786719  0.720865  0.855542  1
  O  O81  1  0.930996  0.725936  0.361697  1
  O  O82  1  0.924404  0.726561  0.643417  1
  O  O83  1  0.643214  0.137264  0.180446  1
  O  O84  1  0.634291  0.141166  0.818704  1
  O  O85  1  0.884423  0.619759  0.994376  1
  O  O86  1  0.857144  0.500041  0.175763  1
  O  O87  1  0.870734  0.519041  0.823285  1
  O  O88  1  0.724263  0.124479  0.004368  1
  O  O89  1  0.857626  0.358406  0.317000  1
  O  O90  1  0.861114  0.355297  0.689083  1
  O  O91  1  0.866542  0.267695  0.501867  1
  O  O92  1  0.789071  0.050307  0.645965  1
  O  O93  1  0.786397  0.054927  0.353888  1
  O  O94  1  0.928140  0.204943  0.140651  1
  O  O95  1  0.942465  0.204708  0.860245  1
