# generated using pymatgen
data_RbHgC3(SN)3
_symmetry_space_group_name_H-M   'P 1'
_cell_length_a   4.24464607
_cell_length_b   11.34841741
_cell_length_c   11.63861869
_cell_angle_alpha   115.61736064
_cell_angle_beta   90.00000000
_cell_angle_gamma   90.00000000
_symmetry_Int_Tables_number   1
_chemical_formula_structural   RbHgC3(SN)3
_chemical_formula_sum   'Rb2 Hg2 C6 S6 N6'
_cell_volume   505.52314822
_cell_formula_units_Z   2
loop_
 _symmetry_equiv_pos_site_id
 _symmetry_equiv_pos_as_xyz
  1  'x, y, z'
loop_
 _atom_site_type_symbol
 _atom_site_label
 _atom_site_symmetry_multiplicity
 _atom_site_fract_x
 _atom_site_fract_y
 _atom_site_fract_z
 _atom_site_occupancy
  Rb  Rb0  1  0.250000  0.280137  0.404584  1
  Rb  Rb1  1  0.750000  0.719863  0.595416  1
  Hg  Hg2  1  0.750000  0.277613  0.853914  1
  Hg  Hg3  1  0.250000  0.722387  0.146086  1
  C  C4  1  0.750000  0.198997  0.089386  1
  C  C5  1  0.750000  0.962626  0.360152  1
  C  C6  1  0.250000  0.526923  0.275944  1
  C  C7  1  0.250000  0.037374  0.639848  1
  C  C8  1  0.750000  0.473077  0.724056  1
  C  C9  1  0.250000  0.801003  0.910614  1
  S  S10  1  0.750000  0.804771  0.324018  1
  S  S11  1  0.250000  0.490262  0.121792  1
  S  S12  1  0.250000  0.893795  0.066653  1
  S  S13  1  0.750000  0.509738  0.878208  1
  S  S14  1  0.250000  0.195229  0.675982  1
  S  S15  1  0.750000  0.106205  0.933347  1
  N  N16  1  0.250000  0.924291  0.613059  1
  N  N17  1  0.750000  0.448538  0.614594  1
  N  N18  1  0.750000  0.256738  0.201464  1
  N  N19  1  0.750000  0.075709  0.386941  1
  N  N20  1  0.250000  0.743262  0.798536  1
  N  N21  1  0.250000  0.551462  0.385406  1
