# generated using pymatgen
data_MnH2SeO5
_symmetry_space_group_name_H-M   'P 1'
_cell_length_a   5.50305112
_cell_length_b   5.50305112
_cell_length_c   8.13999956
_cell_angle_alpha   72.26683088
_cell_angle_beta   107.73316912
_cell_angle_gamma   82.60586102
_symmetry_Int_Tables_number   1
_chemical_formula_structural   MnH2SeO5
_chemical_formula_sum   'Mn2 H4 Se2 O10'
_cell_volume   216.87347881
_cell_formula_units_Z   2
loop_
 _symmetry_equiv_pos_site_id
 _symmetry_equiv_pos_as_xyz
  1  'x, y, z'
loop_
 _atom_site_type_symbol
 _atom_site_label
 _atom_site_symmetry_multiplicity
 _atom_site_fract_x
 _atom_site_fract_y
 _atom_site_fract_z
 _atom_site_occupancy
  Mn  Mn0  1  0.500000  0.500000  0.500000  1
  Mn  Mn1  1  0.500000  0.500000  0.000000  1
  H  H2  1  0.411944  0.161393  0.790109  1
  H  H3  1  0.161393  0.411944  0.709891  1
  H  H4  1  0.588056  0.838607  0.209891  1
  H  H5  1  0.838607  0.588056  0.290109  1
  Se  Se6  1  0.840663  0.840663  0.750000  1
  Se  Se7  1  0.159337  0.159337  0.250000  1
  O  O8  1  0.135437  0.775837  0.913536  1
  O  O9  1  0.775837  0.135437  0.586464  1
  O  O10  1  0.864563  0.224163  0.086464  1
  O  O11  1  0.224163  0.864563  0.413536  1
  O  O12  1  0.839112  0.606117  0.656783  1
  O  O13  1  0.606117  0.839112  0.843217  1
  O  O14  1  0.160888  0.393883  0.343217  1
  O  O15  1  0.393883  0.160888  0.156783  1
  O  O16  1  0.357203  0.357203  0.750000  1
  O  O17  1  0.642797  0.642797  0.250000  1
