# generated using pymatgen
data_CuH6(NO)4
_symmetry_space_group_name_H-M   'P 1'
_cell_length_a   4.44714107
_cell_length_b   5.67336092
_cell_length_c   6.15778613
_cell_angle_alpha   79.49484272
_cell_angle_beta   76.46324233
_cell_angle_gamma   79.96201523
_symmetry_Int_Tables_number   1
_chemical_formula_structural   CuH6(NO)4
_chemical_formula_sum   'Cu1 H6 N4 O4'
_cell_volume   147.10004003
_cell_formula_units_Z   1
loop_
 _symmetry_equiv_pos_site_id
 _symmetry_equiv_pos_as_xyz
  1  'x, y, z'
loop_
 _atom_site_type_symbol
 _atom_site_label
 _atom_site_symmetry_multiplicity
 _atom_site_fract_x
 _atom_site_fract_y
 _atom_site_fract_z
 _atom_site_occupancy
  Cu  Cu0  1  0.000000  0.000000  0.000000  1
  H  H1  1  0.869408  0.209302  0.618807  1
  H  H2  1  0.130592  0.790698  0.381193  1
  H  H3  1  0.865739  0.417798  0.775428  1
  H  H4  1  0.134261  0.582202  0.224572  1
  H  H5  1  0.798750  0.721837  0.354053  1
  H  H6  1  0.201250  0.278163  0.645947  1
  N  N7  1  0.605835  0.189322  0.183998  1
  N  N8  1  0.394164  0.810678  0.816002  1
  N  N9  1  0.020678  0.746088  0.268217  1
  N  N10  1  0.979322  0.253912  0.731783  1
  O  O11  1  0.641733  0.750577  0.889977  1
  O  O12  1  0.358267  0.249423  0.110023  1
  O  O13  1  0.620550  0.260752  0.362342  1
  O  O14  1  0.379450  0.739248  0.637658  1
