# generated using pymatgen
data_KLi3Ca7Ti2Si12(O18F)2
_symmetry_space_group_name_H-M   'P 1'
_cell_length_a   9.82675036
_cell_length_b   9.85771743
_cell_length_c   20.11182355
_cell_angle_alpha   81.78137350
_cell_angle_beta   75.85936432
_cell_angle_gamma   60.10386546
_symmetry_Int_Tables_number   1
_chemical_formula_structural   KLi3Ca7Ti2Si12(O18F)2
_chemical_formula_sum   'K2 Li6 Ca14 Ti4 Si24 O72 F4'
_cell_volume   1637.27256367
_cell_formula_units_Z   2
loop_
 _symmetry_equiv_pos_site_id
 _symmetry_equiv_pos_as_xyz
  1  'x, y, z'
loop_
 _atom_site_type_symbol
 _atom_site_label
 _atom_site_symmetry_multiplicity
 _atom_site_fract_x
 _atom_site_fract_y
 _atom_site_fract_z
 _atom_site_occupancy
  K  K0  1  0.929051  0.750000  0.250000  1
  K  K1  1  0.070949  0.250000  0.750000  1
  Li  Li2  1  0.436386  0.243940  0.248677  1
  Li  Li3  1  0.929002  0.256060  0.251323  1
  Li  Li4  1  0.416639  0.750000  0.250000  1
  Li  Li5  1  0.070998  0.743940  0.748677  1
  Li  Li6  1  0.563614  0.756060  0.751323  1
  Li  Li7  1  0.583361  0.250000  0.750000  1
  Ca  Ca8  1  0.433590  0.855493  0.999966  1
  Ca  Ca9  1  0.710951  0.355493  0.499966  1
  Ca  Ca10  1  0.862199  0.716088  0.993241  1
  Ca  Ca11  1  0.147646  0.072302  0.487273  1
  Ca  Ca12  1  0.707220  0.427698  0.012727  1
  Ca  Ca13  1  0.566410  0.144507  0.000034  1
  Ca  Ca14  1  0.000000  0.000000  0.000000  1
  Ca  Ca15  1  0.137801  0.283912  0.006759  1
  Ca  Ca16  1  0.428472  0.216088  0.493241  1
  Ca  Ca17  1  0.289049  0.644507  0.500034  1
  Ca  Ca18  1  0.292780  0.572302  0.987273  1
  Ca  Ca19  1  0.852354  0.927698  0.512727  1
  Ca  Ca20  1  0.000000  0.500000  0.500000  1
  Ca  Ca21  1  0.571528  0.783912  0.506759  1
  Ti  Ti22  1  0.404992  0.582301  0.748097  1
  Ti  Ti23  1  0.735391  0.917699  0.751903  1
  Ti  Ti24  1  0.595008  0.417699  0.251903  1
  Ti  Ti25  1  0.264609  0.082301  0.248097  1
  Si  Si26  1  0.120616  0.867768  0.360304  1
  Si  Si27  1  0.107660  0.997651  0.140146  1
  Si  Si28  1  0.733455  0.121603  0.140842  1
  Si  Si29  1  0.246351  0.884964  0.637974  1
  Si  Si30  1  0.266545  0.878397  0.859158  1
  Si  Si31  1  0.892340  0.002349  0.859854  1
  Si  Si32  1  0.879384  0.132232  0.639696  1
  Si  Si33  1  0.995901  0.378397  0.359158  1
  Si  Si34  1  0.141912  0.488221  0.859091  1
  Si  Si35  1  0.611454  0.877975  0.139691  1
  Si  Si36  1  0.753649  0.115036  0.362026  1
  Si  Si37  1  0.769289  0.615036  0.862026  1
  Si  Si38  1  0.489224  0.011779  0.640909  1
  Si  Si39  1  0.629120  0.622025  0.360309  1
  Si  Si40  1  0.510776  0.988221  0.359091  1
  Si  Si41  1  0.245457  0.502349  0.359854  1
  Si  Si42  1  0.230711  0.384964  0.137974  1
  Si  Si43  1  0.348688  0.632232  0.139696  1
  Si  Si44  1  0.004099  0.621603  0.640842  1
  Si  Si45  1  0.754543  0.497651  0.640146  1
  Si  Si46  1  0.388546  0.122025  0.860309  1
  Si  Si47  1  0.370880  0.377975  0.639691  1
  Si  Si48  1  0.858088  0.511779  0.140909  1
  Si  Si49  1  0.651312  0.367768  0.860304  1
  O  O50  1  0.677780  0.986864  0.159754  1
  O  O51  1  0.407775  0.400321  0.305926  1
  O  O52  1  0.939036  0.971907  0.344748  1
  O  O53  1  0.302667  0.340347  0.057031  1
  O  O54  1  0.727914  0.181562  0.061154  1
  O  O55  1  0.117150  0.877767  0.441403  1
  O  O56  1  0.744310  0.471907  0.844748  1
  O  O57  1  0.261706  0.738910  0.689726  1
  O  O58  1  0.830779  0.964947  0.939812  1
  O  O59  1  0.697333  0.659653  0.942969  1
  O  O60  1  0.563680  0.377767  0.941403  1
  O  O61  1  0.556046  0.088287  0.809100  1
  O  O62  1  0.248118  0.299917  0.844797  1
  O  O63  1  0.243340  0.917130  0.308361  1
  O  O64  1  0.114023  0.099679  0.194074  1
  O  O65  1  0.970630  0.318438  0.438846  1
  O  O66  1  0.922015  0.030251  0.149341  1
  O  O67  1  0.398497  0.100834  0.941870  1
  O  O68  1  0.264461  0.464947  0.439812  1
  O  O69  1  0.898394  0.530251  0.649341  1
  O  O70  1  0.211643  0.586078  0.804139  1
  O  O71  1  0.558799  0.600834  0.441870  1
  O  O72  1  0.453433  0.411713  0.690900  1
  O  O73  1  0.255690  0.528093  0.155252  1
  O  O74  1  0.392832  0.200083  0.655203  1
  O  O75  1  0.175602  0.486864  0.659754  1
  O  O76  1  0.926258  0.757295  0.695850  1
  O  O77  1  0.546567  0.588287  0.309100  1
  O  O78  1  0.620598  0.257295  0.195850  1
  O  O79  1  0.964818  0.540484  0.844611  1
  O  O80  1  0.751882  0.700083  0.155203  1
  O  O81  1  0.029370  0.681562  0.561154  1
  O  O82  1  0.882850  0.122233  0.558597  1
  O  O83  1  0.788357  0.413922  0.195861  1
  O  O84  1  0.601503  0.899166  0.058130  1
  O  O85  1  0.735539  0.535053  0.560188  1
  O  O86  1  0.125824  0.518539  0.938980  1
  O  O87  1  0.416656  0.018539  0.438980  1
  O  O88  1  0.379402  0.742705  0.804150  1
  O  O89  1  0.700044  0.159653  0.442969  1
  O  O90  1  0.309658  0.238910  0.189726  1
  O  O91  1  0.738294  0.261090  0.310274  1
  O  O92  1  0.690342  0.761090  0.810274  1
  O  O93  1  0.169221  0.035053  0.060188  1
  O  O94  1  0.756660  0.082870  0.691639  1
  O  O95  1  0.794920  0.189294  0.840294  1
  O  O96  1  0.436320  0.622233  0.058597  1
  O  O97  1  0.205080  0.810706  0.159706  1
  O  O98  1  0.060964  0.028093  0.655252  1
  O  O99  1  0.101606  0.469749  0.350659  1
  O  O100  1  0.583344  0.981461  0.561020  1
  O  O101  1  0.349913  0.959516  0.655389  1
  O  O102  1  0.874176  0.481461  0.061020  1
  O  O103  1  0.443954  0.911713  0.190900  1
  O  O104  1  0.073742  0.242705  0.304150  1
  O  O105  1  0.824398  0.513136  0.340246  1
  O  O106  1  0.175493  0.689294  0.340294  1
  O  O107  1  0.601860  0.913922  0.695861  1
  O  O108  1  0.607168  0.799917  0.344797  1
  O  O109  1  0.299956  0.840347  0.557031  1
  O  O110  1  0.824507  0.310706  0.659706  1
  O  O111  1  0.441201  0.399166  0.558130  1
  O  O112  1  0.531170  0.417130  0.808361  1
  O  O113  1  0.468830  0.582870  0.191639  1
  O  O114  1  0.077985  0.969749  0.850659  1
  O  O115  1  0.592225  0.599679  0.694074  1
  O  O116  1  0.322220  0.013136  0.840246  1
  O  O117  1  0.885977  0.900321  0.805926  1
  O  O118  1  0.272086  0.818438  0.938846  1
  O  O119  1  0.035182  0.459516  0.155389  1
  O  O120  1  0.398140  0.086078  0.304139  1
  O  O121  1  0.650087  0.040484  0.344611  1
  F  F122  1  0.170463  0.255147  0.541450  1
  F  F123  1  0.967060  0.244853  0.958550  1
  F  F124  1  0.032940  0.755147  0.041450  1
  F  F125  1  0.829537  0.744853  0.458550  1
