# generated using pymatgen
data_Pr14Si11Ni6
_symmetry_space_group_name_H-M   'P 1'
_cell_length_a   4.28243457
_cell_length_b   17.32210546
_cell_length_c   21.60504714
_cell_angle_alpha   114.13117300
_cell_angle_beta   89.98923063
_cell_angle_gamma   97.09900243
_symmetry_Int_Tables_number   1
_chemical_formula_structural   Pr14Si11Ni6
_chemical_formula_sum   'Pr28 Si22 Ni12'
_cell_volume   1449.16808222
_cell_formula_units_Z   2
loop_
 _symmetry_equiv_pos_site_id
 _symmetry_equiv_pos_as_xyz
  1  'x, y, z'
loop_
 _atom_site_type_symbol
 _atom_site_label
 _atom_site_symmetry_multiplicity
 _atom_site_fract_x
 _atom_site_fract_y
 _atom_site_fract_z
 _atom_site_occupancy
  Pr  Pr0  1  0.004808  0.010142  0.181174  1
  Pr  Pr1  1  0.290771  0.584701  0.177157  1
  Pr  Pr2  1  0.501260  0.007404  0.678872  1
  Pr  Pr3  1  0.286290  0.576725  0.975812  1
  Pr  Pr4  1  0.612520  0.229222  0.646987  1
  Pr  Pr5  1  0.388867  0.782106  0.537744  1
  Pr  Pr6  1  0.384651  0.770555  0.352304  1
  Pr  Pr7  1  0.608634  0.216849  0.286377  1
  Pr  Pr8  1  0.286478  0.578398  0.771857  1
  Pr  Pr9  1  0.889662  0.782618  0.036917  1
  Pr  Pr10  1  0.711282  0.423395  0.425971  1
  Pr  Pr11  1  0.389297  0.783548  0.713824  1
  Pr  Pr12  1  0.896012  0.792888  0.214265  1
  Pr  Pr13  1  0.286788  0.576687  0.573813  1
  Pr  Pr14  1  0.106299  0.217359  0.962533  1
  Pr  Pr15  1  0.706730  0.414940  0.822068  1
  Pr  Pr16  1  0.286656  0.575591  0.375565  1
  Pr  Pr17  1  0.497664  0.993627  0.321580  1
  Pr  Pr18  1  0.711777  0.421519  0.227431  1
  Pr  Pr19  1  0.101363  0.206740  0.785242  1
  Pr  Pr20  1  0.709731  0.424313  0.624349  1
  Pr  Pr21  1  0.711409  0.422883  0.023217  1
  Pr  Pr22  1  0.997770  0.000146  0.000358  1
  Pr  Pr23  1  0.883808  0.774412  0.856263  1
  Pr  Pr24  1  0.991852  0.989818  0.819043  1
  Pr  Pr25  1  0.608428  0.218645  0.462906  1
  Pr  Pr26  1  0.498879  0.999719  0.500038  1
  Pr  Pr27  1  0.112693  0.225001  0.143130  1
  Si  Si28  1  0.929643  0.864646  0.656217  1
  Si  Si29  1  0.069993  0.135179  0.344355  1
  Si  Si30  1  0.183652  0.370501  0.506989  1
  Si  Si31  1  0.816826  0.638442  0.693946  1
  Si  Si32  1  0.185662  0.371493  0.909104  1
  Si  Si33  1  0.813645  0.630315  0.493070  1
  Si  Si34  1  0.923057  0.849678  0.466239  1
  Si  Si35  1  0.563708  0.133144  0.843564  1
  Si  Si36  1  0.073875  0.150532  0.533860  1
  Si  Si37  1  0.805804  0.618209  0.888860  1
  Si  Si38  1  0.422174  0.849182  0.965563  1
  Si  Si39  1  0.573919  0.150498  0.034441  1
  Si  Si40  1  0.181056  0.361745  0.305789  1
  Si  Si41  1  0.191940  0.381883  0.110578  1
  Si  Si42  1  0.185097  0.373507  0.708231  1
  Si  Si43  1  0.811560  0.626023  0.291552  1
  Si  Si44  1  0.453168  0.913369  0.878842  1
  Si  Si45  1  0.957032  0.913250  0.379822  1
  Si  Si46  1  0.543546  0.087440  0.121034  1
  Si  Si47  1  0.041343  0.086526  0.620042  1
  Si  Si48  1  0.812059  0.628480  0.090417  1
  Si  Si49  1  0.432905  0.867401  0.155958  1
  Ni  Ni50  1  0.853015  0.708949  0.614286  1
  Ni  Ni51  1  0.146024  0.291730  0.385820  1
  Ni  Ni52  1  0.643928  0.289104  0.885630  1
  Ni  Ni53  1  0.652407  0.303591  0.085351  1
  Ni  Ni54  1  0.033432  0.064130  0.419775  1
  Ni  Ni55  1  0.345139  0.696454  0.914069  1
  Ni  Ni56  1  0.528579  0.064546  0.920286  1
  Ni  Ni57  1  0.965150  0.935678  0.579797  1
  Ni  Ni58  1  0.848739  0.698857  0.416957  1
  Ni  Ni59  1  0.148255  0.301082  0.582984  1
  Ni  Ni60  1  0.467074  0.935143  0.079336  1
  Ni  Ni61  1  0.353068  0.710717  0.113721  1
