# generated using pymatgen
data_FePH5CO4
_symmetry_space_group_name_H-M   'P 1'
_cell_length_a   4.85738260
_cell_length_b   5.80336894
_cell_length_c   9.01630236
_cell_angle_alpha   90.04605789
_cell_angle_beta   90.00518796
_cell_angle_gamma   90.03471588
_symmetry_Int_Tables_number   1
_chemical_formula_structural   FePH5CO4
_chemical_formula_sum   'Fe2 P2 H10 C2 O8'
_cell_volume   254.16207009
_cell_formula_units_Z   2
loop_
 _symmetry_equiv_pos_site_id
 _symmetry_equiv_pos_as_xyz
  1  'x, y, z'
loop_
 _atom_site_type_symbol
 _atom_site_label
 _atom_site_symmetry_multiplicity
 _atom_site_fract_x
 _atom_site_fract_y
 _atom_site_fract_z
 _atom_site_occupancy
  Fe  Fe0  1  0.724451  0.499441  0.024421  1
  Fe  Fe1  1  0.224450  0.000568  0.975531  1
  P  P2  1  0.661573  0.000227  0.189631  1
  P  P3  1  0.161736  0.499780  0.810415  1
  H  H4  1  0.141588  0.364344  0.201679  1
  H  H5  1  0.858952  0.500009  0.600392  1
  H  H6  1  0.641897  0.135649  0.798427  1
  H  H7  1  0.170256  0.346218  0.562604  1
  H  H8  1  0.670213  0.846072  0.437442  1
  H  H9  1  0.358892  0.999927  0.399696  1
  H  H10  1  0.670349  0.153903  0.437399  1
  H  H11  1  0.640947  0.864481  0.798216  1
  H  H12  1  0.170382  0.654065  0.562552  1
  H  H13  1  0.141028  0.635539  0.201666  1
  C  C14  1  0.583055  0.999863  0.384633  1
  C  C15  1  0.083155  0.500220  0.615390  1
  O  O16  1  0.519990  0.216013  0.118255  1
  O  O17  1  0.020384  0.499700  0.210952  1
  O  O18  1  0.015562  0.712242  0.883799  1
  O  O19  1  0.020009  0.283729  0.881673  1
  O  O20  1  0.474563  0.500541  0.830335  1
  O  O21  1  0.974280  0.999535  0.169672  1
  O  O22  1  0.520534  0.000344  0.788928  1
  O  O23  1  0.515151  0.787589  0.116296  1
