# generated using pymatgen
data_KFeCo3(PO4)3
_symmetry_space_group_name_H-M   'P 1'
_cell_length_a   6.22966863
_cell_length_b   9.79101616
_cell_length_c   16.82079498
_cell_angle_alpha   90.00000000
_cell_angle_beta   90.00000000
_cell_angle_gamma   90.00000000
_symmetry_Int_Tables_number   1
_chemical_formula_structural   KFeCo3(PO4)3
_chemical_formula_sum   'K4 Fe4 Co12 P12 O48'
_cell_volume   1025.98079399
_cell_formula_units_Z   4
loop_
 _symmetry_equiv_pos_site_id
 _symmetry_equiv_pos_as_xyz
  1  'x, y, z'
loop_
 _atom_site_type_symbol
 _atom_site_label
 _atom_site_symmetry_multiplicity
 _atom_site_fract_x
 _atom_site_fract_y
 _atom_site_fract_z
 _atom_site_occupancy
  K  K0  1  0.500000  0.204755  0.535013  1
  K  K1  1  0.000000  0.295245  0.035013  1
  K  K2  1  0.500000  0.795245  0.464987  1
  K  K3  1  0.000000  0.704755  0.964987  1
  Fe  Fe4  1  0.000000  0.012343  0.639220  1
  Fe  Fe5  1  0.000000  0.987657  0.360780  1
  Fe  Fe6  1  0.500000  0.487657  0.139220  1
  Fe  Fe7  1  0.500000  0.512343  0.860780  1
  Co  Co8  1  0.500000  0.034284  0.090795  1
  Co  Co9  1  0.250961  0.748935  0.702122  1
  Co  Co10  1  0.250961  0.251065  0.297878  1
  Co  Co11  1  0.750961  0.248935  0.797878  1
  Co  Co12  1  0.249039  0.751065  0.202122  1
  Co  Co13  1  0.500000  0.965716  0.909205  1
  Co  Co14  1  0.000000  0.534284  0.409205  1
  Co  Co15  1  0.749039  0.251065  0.297878  1
  Co  Co16  1  0.000000  0.465716  0.590795  1
  Co  Co17  1  0.750961  0.751065  0.202122  1
  Co  Co18  1  0.249039  0.248935  0.797878  1
  Co  Co19  1  0.749039  0.748935  0.702122  1
  P  P20  1  0.000000  0.210783  0.463233  1
  P  P21  1  0.000000  0.456749  0.217461  1
  P  P22  1  0.000000  0.957601  0.834548  1
  P  P23  1  0.500000  0.542399  0.334548  1
  P  P24  1  0.000000  0.543251  0.782539  1
  P  P25  1  0.500000  0.457601  0.665452  1
  P  P26  1  0.500000  0.710783  0.036767  1
  P  P27  1  0.500000  0.043251  0.717461  1
  P  P28  1  0.000000  0.042399  0.165452  1
  P  P29  1  0.500000  0.289217  0.963233  1
  P  P30  1  0.000000  0.789217  0.536767  1
  P  P31  1  0.500000  0.956749  0.282539  1
  O  O32  1  0.697897  0.333764  0.911489  1
  O  O33  1  0.201956  0.087071  0.120683  1
  O  O34  1  0.794817  0.401394  0.178205  1
  O  O35  1  0.802103  0.166236  0.411489  1
  O  O36  1  0.500000  0.359006  0.043717  1
  O  O37  1  0.500000  0.616760  0.677328  1
  O  O38  1  0.500000  0.891768  0.195735  1
  O  O39  1  0.000000  0.859006  0.456283  1
  O  O40  1  0.697897  0.666236  0.088511  1
  O  O41  1  0.302103  0.333764  0.911489  1
  O  O42  1  0.000000  0.384055  0.775713  1
  O  O43  1  0.294817  0.901394  0.321795  1
  O  O44  1  0.000000  0.615945  0.224287  1
  O  O45  1  0.298044  0.587071  0.379317  1
  O  O46  1  0.302103  0.666236  0.088511  1
  O  O47  1  0.500000  0.115945  0.275713  1
  O  O48  1  0.000000  0.368116  0.478558  1
  O  O49  1  0.500000  0.385416  0.751224  1
  O  O50  1  0.500000  0.868116  0.021442  1
  O  O51  1  0.705183  0.901394  0.321795  1
  O  O52  1  0.294817  0.098606  0.678205  1
  O  O53  1  0.500000  0.640994  0.956283  1
  O  O54  1  0.197897  0.833764  0.588511  1
  O  O55  1  0.701956  0.587071  0.379317  1
  O  O56  1  0.802103  0.833764  0.588511  1
  O  O57  1  0.000000  0.883240  0.177328  1
  O  O58  1  0.000000  0.885416  0.748776  1
  O  O59  1  0.500000  0.884055  0.724287  1
  O  O60  1  0.205183  0.598606  0.821795  1
  O  O61  1  0.794817  0.598606  0.821795  1
  O  O62  1  0.000000  0.116760  0.822672  1
  O  O63  1  0.701956  0.412929  0.620683  1
  O  O64  1  0.500000  0.383240  0.322672  1
  O  O65  1  0.201956  0.912929  0.879317  1
  O  O66  1  0.298044  0.412929  0.620683  1
  O  O67  1  0.798044  0.087071  0.120683  1
  O  O68  1  0.500000  0.614584  0.248776  1
  O  O69  1  0.000000  0.114584  0.251224  1
  O  O70  1  0.000000  0.140994  0.543717  1
  O  O71  1  0.000000  0.391768  0.304265  1
  O  O72  1  0.000000  0.631884  0.521442  1
  O  O73  1  0.197897  0.166236  0.411489  1
  O  O74  1  0.205183  0.401394  0.178205  1
  O  O75  1  0.500000  0.131884  0.978558  1
  O  O76  1  0.500000  0.108232  0.804265  1
  O  O77  1  0.000000  0.608232  0.695735  1
  O  O78  1  0.798044  0.912929  0.879317  1
  O  O79  1  0.705183  0.098606  0.678205  1
