# generated using pymatgen
data_BPd2Br
_symmetry_space_group_name_H-M   'P 1'
_cell_length_a   4.46799966
_cell_length_b   4.46799423
_cell_length_c   4.46800463
_cell_angle_alpha   60.00005392
_cell_angle_beta   59.99999011
_cell_angle_gamma   60.00010884
_symmetry_Int_Tables_number   1
_chemical_formula_structural   BPd2Br
_chemical_formula_sum   'B1 Pd2 Br1'
_cell_volume   63.07029363
_cell_formula_units_Z   1
loop_
 _symmetry_equiv_pos_site_id
 _symmetry_equiv_pos_as_xyz
  1  'x, y, z'
loop_
 _atom_site_type_symbol
 _atom_site_label
 _atom_site_symmetry_multiplicity
 _atom_site_fract_x
 _atom_site_fract_y
 _atom_site_fract_z
 _atom_site_occupancy
  B  B0  1  0.500000  0.500000  0.499999  1
  Pd  Pd1  1  0.000001  0.999999  0.000002  1
  Pd  Pd2  1  0.750000  0.750000  0.750000  1
  Br  Br3  1  0.249999  0.250001  0.249999  1
