# generated using pymatgen
data_TiNbTl(O2F)2
_symmetry_space_group_name_H-M   'P 1'
_cell_length_a   7.55640209
_cell_length_b   7.36351304
_cell_length_c   7.51860030
_cell_angle_alpha   60.09589278
_cell_angle_beta   58.47797711
_cell_angle_gamma   60.50434488
_symmetry_Int_Tables_number   1
_chemical_formula_structural   TiNbTl(O2F)2
_chemical_formula_sum   'Ti2 Nb2 Tl2 O8 F4'
_cell_volume   293.54627765
_cell_formula_units_Z   2
loop_
 _symmetry_equiv_pos_site_id
 _symmetry_equiv_pos_as_xyz
  1  'x, y, z'
loop_
 _atom_site_type_symbol
 _atom_site_label
 _atom_site_symmetry_multiplicity
 _atom_site_fract_x
 _atom_site_fract_y
 _atom_site_fract_z
 _atom_site_occupancy
  Ti  Ti0  1  0.998812  0.995599  0.015339  1
  Ti  Ti1  1  0.509750  0.984661  0.004401  1
  Nb  Nb2  1  0.981152  0.508610  0.008135  1
  Nb  Nb3  1  0.997897  0.991865  0.491390  1
  Tl  Tl4  1  0.413220  0.407842  0.414208  1
  Tl  Tl5  1  0.735269  0.585792  0.592158  1
  O  O6  1  0.052178  0.705932  0.049960  1
  O  O7  1  0.069302  0.682637  0.680422  1
  O  O8  1  0.308071  0.950040  0.294068  1
  O  O9  1  0.691077  0.057322  0.701638  1
  O  O10  1  0.676215  0.688323  0.065858  1
  O  O11  1  0.932362  0.319578  0.317363  1
  O  O12  1  0.950038  0.298362  0.942678  1
  O  O13  1  0.930396  0.934142  0.311677  1
  F  F14  1  0.068302  0.071199  0.684886  1
  F  F15  1  0.685204  0.067073  0.064091  1
  F  F16  1  0.324387  0.315114  0.928801  1
  F  F17  1  0.316368  0.935909  0.932927  1
