# generated using pymatgen
data_KCuCl3
_symmetry_space_group_name_H-M   'P 1'
_cell_length_a   4.75782224
_cell_length_b   9.83098338
_cell_length_c   14.37214051
_cell_angle_alpha   90.00000000
_cell_angle_beta   90.00000000
_cell_angle_gamma   90.75728622
_symmetry_Int_Tables_number   1
_chemical_formula_structural   KCuCl3
_chemical_formula_sum   'K4 Cu4 Cl12'
_cell_volume   672.18480865
_cell_formula_units_Z   4
loop_
 _symmetry_equiv_pos_site_id
 _symmetry_equiv_pos_as_xyz
  1  'x, y, z'
loop_
 _atom_site_type_symbol
 _atom_site_label
 _atom_site_symmetry_multiplicity
 _atom_site_fract_x
 _atom_site_fract_y
 _atom_site_fract_z
 _atom_site_occupancy
  K  K0  1  0.242786  0.536710  0.150421  1
  K  K1  1  0.757214  0.963290  0.650421  1
  K  K2  1  0.757214  0.463290  0.849579  1
  K  K3  1  0.242786  0.036710  0.349579  1
  Cu  Cu4  1  0.641507  0.351379  0.540240  1
  Cu  Cu5  1  0.641507  0.851379  0.959760  1
  Cu  Cu6  1  0.358493  0.148621  0.040240  1
  Cu  Cu7  1  0.358493  0.648621  0.459760  1
  Cl  Cl8  1  0.527564  0.061240  0.902931  1
  Cl  Cl9  1  0.472436  0.438760  0.402931  1
  Cl  Cl10  1  0.779410  0.277565  0.680259  1
  Cl  Cl11  1  0.741345  0.151697  0.469593  1
  Cl  Cl12  1  0.258655  0.848303  0.530407  1
  Cl  Cl13  1  0.779410  0.777565  0.819741  1
  Cl  Cl14  1  0.472436  0.938760  0.097069  1
  Cl  Cl15  1  0.741345  0.651697  0.030407  1
  Cl  Cl16  1  0.220590  0.222435  0.180259  1
  Cl  Cl17  1  0.527564  0.561240  0.597069  1
  Cl  Cl18  1  0.220590  0.722435  0.319741  1
  Cl  Cl19  1  0.258655  0.348303  0.969593  1
