# generated using pymatgen
data_Na3SmBr6
_symmetry_space_group_name_H-M   'P 1'
_cell_length_a   8.04184238
_cell_length_b   8.04401340
_cell_length_c   40.20222619
_cell_angle_alpha   55.67285581
_cell_angle_beta   55.71165251
_cell_angle_gamma   55.68458751
_symmetry_Int_Tables_number   1
_chemical_formula_structural   Na3SmBr6
_chemical_formula_sum   'Na15 Sm5 Br30'
_cell_volume   1655.03902456
_cell_formula_units_Z   5
loop_
 _symmetry_equiv_pos_site_id
 _symmetry_equiv_pos_as_xyz
  1  'x, y, z'
loop_
 _atom_site_type_symbol
 _atom_site_label
 _atom_site_symmetry_multiplicity
 _atom_site_fract_x
 _atom_site_fract_y
 _atom_site_fract_z
 _atom_site_occupancy
  Na  Na0  1  0.309302  0.311235  0.061340  1
  Na  Na1  1  0.510196  0.507125  0.100681  1
  Na  Na2  1  0.310384  0.310564  0.261492  1
  Na  Na3  1  0.508874  0.506970  0.300836  1
  Na  Na4  1  0.807669  0.808133  0.161189  1
  Na  Na5  1  0.310360  0.310648  0.461483  1
  Na  Na6  1  0.508788  0.507384  0.500744  1
  Na  Na7  1  0.807784  0.808458  0.361193  1
  Na  Na8  1  0.312169  0.308729  0.661327  1
  Na  Na9  1  0.195827  0.185713  0.840210  1
  Na  Na10  1  0.512496  0.508411  0.699917  1
  Na  Na11  1  0.807899  0.808595  0.561120  1
  Na  Na12  1  0.488449  0.497661  0.903249  1
  Na  Na13  1  0.806932  0.813234  0.760326  1
  Na  Na14  1  0.808049  0.799997  0.963694  1
  Sm  Sm15  1  0.005130  0.010871  0.999745  1
  Sm  Sm16  1  0.004546  0.004898  0.600460  1
  Sm  Sm17  1  0.004289  0.004722  0.200541  1
  Sm  Sm18  1  0.004157  0.004683  0.400597  1
  Sm  Sm19  1  0.997264  0.992757  0.801880  1
  Br  Br20  1  0.110978  0.384948  0.147584  1
  Br  Br21  1  0.384705  0.736155  0.022036  1
  Br  Br22  1  0.735168  0.109415  0.077136  1
  Br  Br23  1  0.218594  0.902460  0.124396  1
  Br  Br24  1  0.620728  0.218621  0.180726  1
  Br  Br25  1  0.110670  0.385012  0.347688  1
  Br  Br26  1  0.902281  0.624493  0.044117  1
  Br  Br27  1  0.384319  0.735881  0.222572  1
  Br  Br28  1  0.735914  0.110308  0.277261  1
  Br  Br29  1  0.218616  0.902649  0.324429  1
  Br  Br30  1  0.620544  0.218760  0.380770  1
  Br  Br31  1  0.110702  0.385313  0.547631  1
  Br  Br32  1  0.902839  0.620679  0.244080  1
  Br  Br33  1  0.384689  0.735878  0.422503  1
  Br  Br34  1  0.735599  0.110517  0.477285  1
  Br  Br35  1  0.219287  0.902530  0.524357  1
  Br  Br36  1  0.621212  0.218275  0.580536  1
  Br  Br37  1  0.109767  0.379039  0.750913  1
  Br  Br38  1  0.902441  0.620949  0.444038  1
  Br  Br39  1  0.384360  0.735473  0.622615  1
  Br  Br40  1  0.735123  0.111648  0.676850  1
  Br  Br41  1  0.220461  0.902094  0.723850  1
  Br  Br42  1  0.620429  0.226538  0.778951  1
  Br  Br43  1  0.102659  0.389270  0.950156  1
  Br  Br44  1  0.904708  0.620187  0.644046  1
  Br  Br45  1  0.380797  0.776012  0.820428  1
  Br  Br46  1  0.775694  0.108825  0.875495  1
  Br  Br47  1  0.225874  0.895844  0.924342  1
  Br  Br48  1  0.622470  0.218316  0.980006  1
  Br  Br49  1  0.893405  0.618723  0.844297  1
