# generated using pymatgen
data_Se2S(NCl)2
_symmetry_space_group_name_H-M   'P 1'
_cell_length_a   7.95522812
_cell_length_b   8.38743894
_cell_length_c   20.60643700
_cell_angle_alpha   90.00000000
_cell_angle_beta   90.00000000
_cell_angle_gamma   90.00000000
_symmetry_Int_Tables_number   1
_chemical_formula_structural   Se2S(NCl)2
_chemical_formula_sum   'Se16 S8 N16 Cl16'
_cell_volume   1374.94369860
_cell_formula_units_Z   8
loop_
 _symmetry_equiv_pos_site_id
 _symmetry_equiv_pos_as_xyz
  1  'x, y, z'
loop_
 _atom_site_type_symbol
 _atom_site_label
 _atom_site_symmetry_multiplicity
 _atom_site_fract_x
 _atom_site_fract_y
 _atom_site_fract_z
 _atom_site_occupancy
  Se  Se0  1  0.420159  0.583464  0.903465  1
  Se  Se1  1  0.920159  0.416536  0.596535  1
  Se  Se2  1  0.920159  0.916536  0.903465  1
  Se  Se3  1  0.079841  0.583464  0.403465  1
  Se  Se4  1  0.691523  -0.000079  0.297103  1
  Se  Se5  1  0.308477  0.500079  0.797103  1
  Se  Se6  1  0.808477  -0.000079  0.797103  1
  Se  Se7  1  0.420159  0.083464  0.596535  1
  Se  Se8  1  0.079841  0.083464  0.096535  1
  Se  Se9  1  0.191523  0.500079  0.297103  1
  Se  Se10  1  0.579841  0.916536  0.403465  1
  Se  Se11  1  0.691523  0.499921  0.202897  1
  Se  Se12  1  0.308477  0.000079  0.702897  1
  Se  Se13  1  0.191523  0.000079  0.202897  1
  Se  Se14  1  0.808477  0.499921  0.702897  1
  Se  Se15  1  0.579841  0.416536  0.096535  1
  S  S16  1  0.563412  0.758932  0.120516  1
  S  S17  1  0.063412  0.241068  0.379484  1
  S  S18  1  0.436588  0.741068  0.620516  1
  S  S19  1  0.063412  0.741068  0.120516  1
  S  S20  1  0.936588  0.258932  0.879484  1
  S  S21  1  0.563412  0.258932  0.379484  1
  S  S22  1  0.936588  0.758932  0.620516  1
  S  S23  1  0.436588  0.241068  0.879484  1
  N  N24  1  0.511593  0.116228  0.425128  1
  N  N25  1  0.011593  0.883772  0.074872  1
  N  N26  1  0.488407  0.883772  0.574872  1
  N  N27  1  0.151116  0.292955  0.315407  1
  N  N28  1  0.151116  0.792955  0.184593  1
  N  N29  1  0.348884  0.292955  0.815407  1
  N  N30  1  0.848884  0.207045  0.815407  1
  N  N31  1  0.651116  0.707045  0.184593  1
  N  N32  1  0.988407  0.116228  0.925128  1
  N  N33  1  0.348884  0.792955  0.684593  1
  N  N34  1  0.011593  0.383772  0.425128  1
  N  N35  1  0.988407  0.616228  0.574872  1
  N  N36  1  0.488407  0.383772  0.925128  1
  N  N37  1  0.651116  0.207045  0.315407  1
  N  N38  1  0.848884  0.707045  0.684593  1
  N  N39  1  0.511593  0.616228  0.074872  1
  Cl  Cl40  1  0.260316  0.367383  0.160766  1
  Cl  Cl41  1  0.325230  0.573186  0.464240  1
  Cl  Cl42  1  0.825230  0.926814  0.464240  1
  Cl  Cl43  1  0.260316  0.867383  0.339234  1
  Cl  Cl44  1  0.739684  0.632617  0.839234  1
  Cl  Cl45  1  0.825230  0.426814  0.035760  1
  Cl  Cl46  1  0.674770  0.426814  0.535760  1
  Cl  Cl47  1  0.674770  0.926814  0.964240  1
  Cl  Cl48  1  0.760316  0.132617  0.160766  1
  Cl  Cl49  1  0.739684  0.132617  0.660766  1
  Cl  Cl50  1  0.174770  0.573186  0.964240  1
  Cl  Cl51  1  0.239684  0.867383  0.839234  1
  Cl  Cl52  1  0.174770  0.073186  0.535760  1
  Cl  Cl53  1  0.239684  0.367383  0.660766  1
  Cl  Cl54  1  0.325230  0.073186  0.035760  1
  Cl  Cl55  1  0.760316  0.632617  0.339234  1
