# generated using pymatgen
data_K5(Mo6S7)4
_symmetry_space_group_name_H-M   'P 1'
_cell_length_a   9.67781336
_cell_length_b   9.67781361
_cell_length_c   14.58724029
_cell_angle_alpha   90.00000000
_cell_angle_beta   90.00000000
_cell_angle_gamma   119.99999915
_symmetry_Int_Tables_number   1
_chemical_formula_structural   K5(Mo6S7)4
_chemical_formula_sum   'K5 Mo24 S28'
_cell_volume   1183.20029285
_cell_formula_units_Z   1
loop_
 _symmetry_equiv_pos_site_id
 _symmetry_equiv_pos_as_xyz
  1  'x, y, z'
loop_
 _atom_site_type_symbol
 _atom_site_label
 _atom_site_symmetry_multiplicity
 _atom_site_fract_x
 _atom_site_fract_y
 _atom_site_fract_z
 _atom_site_occupancy
  K  K0  1  0.333333  0.666667  0.245823  1
  K  K1  1  0.000000  0.000000  0.193196  1
  K  K2  1  0.666667  0.333333  0.754177  1
  K  K3  1  0.000000  0.000000  0.500000  1
  K  K4  1  0.000000  0.000000  0.806804  1
  Mo  Mo5  1  0.146491  0.630349  0.653133  1
  Mo  Mo6  1  0.054870  0.602191  0.047806  1
  Mo  Mo7  1  0.105436  0.635277  0.448074  1
  Mo  Mo8  1  0.285055  0.794889  0.815443  1
  Mo  Mo9  1  0.205111  0.490166  0.815443  1
  Mo  Mo10  1  0.529841  0.894564  0.448074  1
  Mo  Mo11  1  0.547321  0.945130  0.047806  1
  Mo  Mo12  1  0.369651  0.516142  0.653133  1
  Mo  Mo13  1  0.483858  0.853509  0.653133  1
  Mo  Mo14  1  0.397809  0.452679  0.047806  1
  Mo  Mo15  1  0.364723  0.470159  0.448074  1
  Mo  Mo16  1  0.509834  0.714945  0.815443  1
  Mo  Mo17  1  0.490166  0.285055  0.184557  1
  Mo  Mo18  1  0.635277  0.529841  0.551926  1
  Mo  Mo19  1  0.602191  0.547321  0.952194  1
  Mo  Mo20  1  0.516142  0.146491  0.346867  1
  Mo  Mo21  1  0.630349  0.483858  0.346867  1
  Mo  Mo22  1  0.452679  0.054870  0.952194  1
  Mo  Mo23  1  0.470159  0.105436  0.551926  1
  Mo  Mo24  1  0.794889  0.509834  0.184557  1
  Mo  Mo25  1  0.714945  0.205111  0.184557  1
  Mo  Mo26  1  0.894564  0.364723  0.551926  1
  Mo  Mo27  1  0.945130  0.397809  0.952194  1
  Mo  Mo28  1  0.853509  0.369651  0.346867  1
  S  S29  1  0.008384  0.577830  0.806165  1
  S  S30  1  0.931206  0.626187  0.564365  1
  S  S31  1  0.176690  0.858718  0.945214  1
  S  S32  1  0.074512  0.346457  0.671052  1
  S  S33  1  0.271944  -0.074512  0.671052  1
  S  S34  1  0.141282  0.317971  0.945214  1
  S  S35  1  0.333333  0.666667  0.529932  1
  S  S36  1  0.333333  0.666667  0.043720  1
  S  S37  1  0.373813  0.305019  0.564365  1
  S  S38  1  0.569447  -0.008384  0.806165  1
  S  S39  1  0.422170  0.430553  0.806165  1
  S  S40  1  0.694981  0.068794  0.564365  1
  S  S41  1  0.346457  0.271944  0.328948  1
  S  S42  1  0.317971  0.176690  0.054786  1
  S  S43  1  0.682029  0.823310  0.945214  1
  S  S44  1  0.653543  0.728056  0.671052  1
  S  S45  1  0.305019  0.931206  0.435635  1
  S  S46  1  0.577830  0.569447  0.193835  1
  S  S47  1  0.430553  0.008384  0.193835  1
  S  S48  1  0.626187  0.694981  0.435635  1
  S  S49  1  0.666667  0.333333  -0.043720  1
  S  S50  1  0.666667  0.333333  0.470068  1
  S  S51  1  0.858718  0.682029  0.054786  1
  S  S52  1  0.728056  0.074512  0.328948  1
  S  S53  1  -0.074512  0.653543  0.328948  1
  S  S54  1  0.823310  0.141282  0.054786  1
  S  S55  1  0.068794  0.373813  0.435635  1
  S  S56  1  -0.008384  0.422170  0.193835  1
