# generated using pymatgen
data_SiH6(NF2)2
_symmetry_space_group_name_H-M   'P 1'
_cell_length_a   5.16081749
_cell_length_b   7.35965061
_cell_length_c   6.89962187
_cell_angle_alpha   90.00000000
_cell_angle_beta   92.49416079
_cell_angle_gamma   90.00000000
_symmetry_Int_Tables_number   1
_chemical_formula_structural   SiH6(NF2)2
_chemical_formula_sum   'Si2 H12 N4 F8'
_cell_volume   261.81189215
_cell_formula_units_Z   2
loop_
 _symmetry_equiv_pos_site_id
 _symmetry_equiv_pos_as_xyz
  1  'x, y, z'
loop_
 _atom_site_type_symbol
 _atom_site_label
 _atom_site_symmetry_multiplicity
 _atom_site_fract_x
 _atom_site_fract_y
 _atom_site_fract_z
 _atom_site_occupancy
  Si  Si0  1  0.000000  0.500000  0.500000  1
  Si  Si1  1  0.000000  0.000000  0.000000  1
  H  H2  1  0.411963  0.515281  0.695439  1
  H  H3  1  0.588037  0.015281  0.804561  1
  H  H4  1  0.588037  0.484719  0.304561  1
  H  H5  1  0.411963  0.984719  0.195439  1
  H  H6  1  0.177386  0.433493  0.828206  1
  H  H7  1  0.822614  0.933493  0.671794  1
  H  H8  1  0.822614  0.566507  0.171794  1
  H  H9  1  0.177386  0.066507  0.328206  1
  H  H10  1  0.200507  0.657245  0.791783  1
  H  H11  1  0.799493  0.157245  0.708217  1
  H  H12  1  0.799493  0.342755  0.208217  1
  H  H13  1  0.200507  0.842755  0.291783  1
  N  N14  1  0.220491  0.532074  0.728489  1
  N  N15  1  0.779509  0.032074  0.771511  1
  N  N16  1  0.779509  0.467926  0.271511  1
  N  N17  1  0.220491  0.967926  0.228489  1
  F  F18  1  0.108901  0.282363  0.485663  1
  F  F19  1  0.891099  0.782363  0.014337  1
  F  F20  1  0.891099  0.717637  0.514337  1
  F  F21  1  0.108901  0.217637  0.985663  1
  F  F22  1  0.755193  0.427165  0.641489  1
  F  F23  1  0.244807  0.927165  0.858511  1
  F  F24  1  0.244807  0.572835  0.358511  1
  F  F25  1  0.755193  0.072835  0.141489  1
