# generated using pymatgen
data_KInI4
_symmetry_space_group_name_H-M   'P 1'
_cell_length_a   14.47745701
_cell_length_b   14.47745713
_cell_length_c   15.11871828
_cell_angle_alpha   58.52362924
_cell_angle_beta   58.52362895
_cell_angle_gamma   59.51768513
_symmetry_Int_Tables_number   1
_chemical_formula_structural   KInI4
_chemical_formula_sum   'K6 In6 I24'
_cell_volume   2181.67473137
_cell_formula_units_Z   6
loop_
 _symmetry_equiv_pos_site_id
 _symmetry_equiv_pos_as_xyz
  1  'x, y, z'
loop_
 _atom_site_type_symbol
 _atom_site_label
 _atom_site_symmetry_multiplicity
 _atom_site_fract_x
 _atom_site_fract_y
 _atom_site_fract_z
 _atom_site_occupancy
  K  K0  1  0.006739  0.006739  0.993261  1
  K  K1  1  0.329117  0.327680  0.973272  1
  K  K2  1  0.327680  0.329117  0.369931  1
  K  K3  1  0.506739  0.506739  0.493261  1
  K  K4  1  0.827680  0.829117  0.473272  1
  K  K5  1  0.829117  0.827680  0.869931  1
  In  In6  1  0.249644  0.750627  0.251879  1
  In  In7  1  0.246431  0.246431  0.753569  1
  In  In8  1  0.749644  0.250627  0.247850  1
  In  In9  1  0.250627  0.749644  0.751879  1
  In  In10  1  0.746431  0.746431  0.253569  1
  In  In11  1  0.750627  0.249644  0.747850  1
  I  I12  1  0.068360  0.697009  0.290545  1
  I  I13  1  0.063729  0.284590  0.938270  1
  I  I14  1  0.284590  0.063729  0.713410  1
  I  I15  1  0.211066  0.442577  0.572146  1
  I  I16  1  0.284108  0.935210  0.062042  1
  I  I17  1  0.436821  0.560135  0.213730  1
  I  I18  1  0.208440  0.783317  0.433983  1
  I  I19  1  0.060135  0.936821  0.713730  1
  I  I20  1  0.568360  0.197009  0.444085  1
  I  I21  1  0.708440  0.283317  0.074260  1
  I  I22  1  0.197009  0.568360  0.790545  1
  I  I23  1  0.442577  0.211066  0.774211  1
  I  I24  1  0.563729  0.784590  0.213410  1
  I  I25  1  0.435210  0.784108  0.562042  1
  I  I26  1  0.936821  0.060135  0.289315  1
  I  I27  1  0.283317  0.708440  0.933983  1
  I  I28  1  0.784108  0.435210  0.218639  1
  I  I29  1  0.560135  0.436821  0.789315  1
  I  I30  1  0.783317  0.208440  0.574260  1
  I  I31  1  0.697009  0.068360  0.944085  1
  I  I32  1  0.784590  0.563729  0.438270  1
  I  I33  1  0.942577  0.711066  0.072146  1
  I  I34  1  0.711066  0.942577  0.274211  1
  I  I35  1  0.935210  0.284108  0.718639  1
