# generated using pymatgen
data_LiMg7N5
_symmetry_space_group_name_H-M   'P 1'
_cell_length_a   8.69065255
_cell_length_b   8.70993744
_cell_length_c   17.41589602
_cell_angle_alpha   109.43393113
_cell_angle_beta   109.37702473
_cell_angle_gamma   109.74780562
_symmetry_Int_Tables_number   1
_chemical_formula_structural   LiMg7N5
_chemical_formula_sum   'Li6 Mg42 N30'
_cell_volume   1012.99488650
_cell_formula_units_Z   6
loop_
 _symmetry_equiv_pos_site_id
 _symmetry_equiv_pos_as_xyz
  1  'x, y, z'
loop_
 _atom_site_type_symbol
 _atom_site_label
 _atom_site_symmetry_multiplicity
 _atom_site_fract_x
 _atom_site_fract_y
 _atom_site_fract_z
 _atom_site_occupancy
  Li  Li0  1  0.284142  0.971631  0.257926  1
  Li  Li1  1  0.773605  0.722541  0.635981  1
  Li  Li2  1  0.959278  0.511654  0.622679  1
  Li  Li3  1  0.735755  0.510712  0.251001  1
  Li  Li4  1  0.979705  0.981425  0.381096  1
  Li  Li5  1  0.964334  0.509811  0.118888  1
  Mg  Mg6  1  0.034668  0.490287  0.879520  1
  Mg  Mg7  1  0.231763  0.962906  0.754688  1
  Mg  Mg8  1  0.262641  0.771257  0.863438  1
  Mg  Mg9  1  0.230453  0.274118  0.869336  1
  Mg  Mg10  1  0.999140  0.039404  0.637205  1
  Mg  Mg11  1  0.221035  0.461061  0.728510  1
  Mg  Mg12  1  0.041105  0.278691  0.506785  1
  Mg  Mg13  1  0.025861  0.462068  0.375204  1
  Mg  Mg14  1  0.267228  0.730669  0.616557  1
  Mg  Mg15  1  0.725193  0.996151  0.978728  1
  Mg  Mg16  1  0.533861  0.773558  0.771359  1
  Mg  Mg17  1  0.302920  0.781306  0.365487  1
  Mg  Mg18  1  0.508495  0.237475  0.982421  1
  Mg  Mg19  1  0.537487  0.536202  0.883207  1
  Mg  Mg20  1  0.469895  0.476587  0.616099  1
  Mg  Mg21  1  0.502196  0.764075  0.523040  1
  Mg  Mg22  1  0.261989  0.296037  0.384375  1
  Mg  Mg23  1  0.468529  0.231770  0.732912  1
  Mg  Mg24  1  0.019141  0.038815  0.118957  1
  Mg  Mg25  1  0.218799  0.457234  0.227307  1
  Mg  Mg26  1  0.299796  0.041654  0.536688  1
  Mg  Mg27  1  0.041190  0.276736  0.005049  1
  Mg  Mg28  1  0.260254  0.729178  0.116986  1
  Mg  Mg29  1  0.957748  0.718176  0.992597  1
  Mg  Mg30  1  0.731284  0.262172  0.884783  1
  Mg  Mg31  1  0.734789  0.995274  0.479506  1
  Mg  Mg32  1  0.771600  0.541635  0.764898  1
  Mg  Mg33  1  0.992047  0.960099  0.864955  1
  Mg  Mg34  1  0.539783  0.763731  0.270948  1
  Mg  Mg35  1  0.518704  0.241038  0.485181  1
  Mg  Mg36  1  0.545437  0.542045  0.382203  1
  Mg  Mg37  1  0.457085  0.457546  0.116303  1
  Mg  Mg38  1  0.487355  0.767128  0.017014  1
  Mg  Mg39  1  0.461064  0.230916  0.229724  1
  Mg  Mg40  1  0.749602  0.241005  0.638072  1
  Mg  Mg41  1  0.271046  0.007051  0.019798  1
  Mg  Mg42  1  0.762659  0.027413  0.743091  1
  Mg  Mg43  1  0.950487  0.719430  0.515867  1
  Mg  Mg44  1  0.727006  0.271321  0.388057  1
  Mg  Mg45  1  0.741440  0.688642  0.110167  1
  Mg  Mg46  1  0.747779  0.245439  0.137827  1
  Mg  Mg47  1  0.720550  0.027878  0.241314  1
  N  N48  1  0.004896  0.007148  0.752852  1
  N  N49  1  0.030632  0.750326  0.889768  1
  N  N50  1  0.213790  0.965339  0.621747  1
  N  N51  1  0.501508  0.002899  0.001719  1
  N  N52  1  0.254876  0.725005  0.737005  1
  N  N53  1  0.283905  0.534870  0.875441  1
  N  N54  1  0.249335  0.219915  0.985632  1
  N  N55  1  0.222368  0.967201  0.124736  1
  N  N56  1  0.471262  0.252734  0.860084  1
  N  N57  1  0.497248  0.498761  0.748878  1
  N  N58  1  0.496017  0.996704  0.499664  1
  N  N59  1  0.264699  0.722541  0.237280  1
  N  N60  1  0.241811  0.209890  0.480083  1
  N  N61  1  0.274333  0.531612  0.374042  1
  N  N62  1  0.523638  0.749026  0.640683  1
  N  N63  1  0.749393  0.277181  0.764018  1
  N  N64  1  0.708698  0.457853  0.623599  1
  N  N65  1  0.745795  0.782814  0.509902  1
  N  N66  1  0.470305  0.260417  0.362090  1
  N  N67  1  0.491071  0.494470  0.248046  1
  N  N68  1  0.781027  0.031087  0.875944  1
  N  N69  1  0.536587  0.748814  0.140081  1
  N  N70  1  0.967405  0.242430  0.606590  1
  N  N71  1  0.748831  0.283278  0.265450  1
  N  N72  1  0.712421  0.463705  0.123601  1
  N  N73  1  0.755601  0.783326  0.016937  1
  N  N74  1  0.001885  0.501954  0.494007  1
  N  N75  1  0.775466  0.036485  0.372030  1
  N  N76  1  0.967781  0.242249  0.109169  1
  N  N77  1  0.003492  0.499012  0.997186  1
