# generated using pymatgen
data_Li2B2Rh3
_symmetry_space_group_name_H-M   'P 1'
_cell_length_a   2.85245596
_cell_length_b   5.80748304
_cell_length_c   9.57730437
_cell_angle_alpha   89.99670237
_cell_angle_beta   90.00216791
_cell_angle_gamma   90.00092187
_symmetry_Int_Tables_number   1
_chemical_formula_structural   Li2B2Rh3
_chemical_formula_sum   'Li4 B4 Rh6'
_cell_volume   158.65369340
_cell_formula_units_Z   2
loop_
 _symmetry_equiv_pos_site_id
 _symmetry_equiv_pos_as_xyz
  1  'x, y, z'
loop_
 _atom_site_type_symbol
 _atom_site_label
 _atom_site_symmetry_multiplicity
 _atom_site_fract_x
 _atom_site_fract_y
 _atom_site_fract_z
 _atom_site_occupancy
  Li  Li0  1  0.500002  0.840826  0.574136  1
  Li  Li1  1  0.499996  0.159173  0.425861  1
  Li  Li2  1  0.500003  0.659188  0.074140  1
  Li  Li3  1  0.500001  0.340812  0.925865  1
  B  B4  1  0.500002  0.562530  0.331050  1
  B  B5  1  0.499994  0.062544  0.168950  1
  B  B6  1  0.500003  0.937443  0.831044  1
  B  B7  1  0.500003  0.437463  0.668951  1
  Rh  Rh8  1  0.000005  0.833917  0.279711  1
  Rh  Rh9  1  0.000018  0.666095  0.779708  1
  Rh  Rh10  1  0.999994  -0.000001  0.000005  1
  Rh  Rh11  1  -0.000013  0.166102  0.720279  1
  Rh  Rh12  1  0.000001  0.333909  0.220292  1
  Rh  Rh13  1  0.999992  0.499999  0.500009  1
