# generated using pymatgen
data_NaRuO2
_symmetry_space_group_name_H-M   'P 1'
_cell_length_a   5.74583632
_cell_length_b   23.68820622
_cell_length_c   22.92436390
_cell_angle_alpha   7.66554285
_cell_angle_beta   26.98218580
_cell_angle_gamma   29.94020690
_symmetry_Int_Tables_number   1
_chemical_formula_structural   NaRuO2
_chemical_formula_sum   'Na4 Ru4 O8'
_cell_volume   181.56208957
_cell_formula_units_Z   4
loop_
 _symmetry_equiv_pos_site_id
 _symmetry_equiv_pos_as_xyz
  1  'x, y, z'
loop_
 _atom_site_type_symbol
 _atom_site_label
 _atom_site_symmetry_multiplicity
 _atom_site_fract_x
 _atom_site_fract_y
 _atom_site_fract_z
 _atom_site_occupancy
  Na  Na0  1  0.727808  0.018404  0.552431  1
  Na  Na1  1  0.732657  0.281759  0.538500  1
  Na  Na2  1  0.727603  0.536507  0.533951  1
  Na  Na3  1  0.735840  0.771456  0.548509  1
  Ru  Ru4  1  0.577119  0.351091  0.379237  1
  Ru  Ru5  1  0.519063  0.587593  0.405864  1
  Ru  Ru6  1  0.580974  0.843205  0.386166  1
  Ru  Ru7  1  0.525335  0.073208  0.418991  1
  O  O8  1  0.162428  0.292551  -0.006360  1
  O  O9  1  0.157923  0.543881  -0.013238  1
  O  O10  1  0.160126  0.803710  -0.016970  1
  O  O11  1  0.154233  0.062123  -0.031121  1
  O  O12  1  0.940164  0.140998  0.794641  1
  O  O13  1  0.945061  0.375132  0.817104  1
  O  O14  1  0.943917  0.622603  0.812515  1
  O  O15  1  0.945350  0.881731  0.810380  1
