# generated using pymatgen
data_RbEuSiS4
_symmetry_space_group_name_H-M   'P 1'
_cell_length_a   6.49154894
_cell_length_b   6.67060713
_cell_length_c   17.24330663
_cell_angle_alpha   90.00000000
_cell_angle_beta   90.00000000
_cell_angle_gamma   90.00000000
_symmetry_Int_Tables_number   1
_chemical_formula_structural   RbEuSiS4
_chemical_formula_sum   'Rb4 Eu4 Si4 S16'
_cell_volume   746.67953797
_cell_formula_units_Z   4
loop_
 _symmetry_equiv_pos_site_id
 _symmetry_equiv_pos_as_xyz
  1  'x, y, z'
loop_
 _atom_site_type_symbol
 _atom_site_label
 _atom_site_symmetry_multiplicity
 _atom_site_fract_x
 _atom_site_fract_y
 _atom_site_fract_z
 _atom_site_occupancy
  Eu  Eu0  1  0.708753  0.519971  0.773880  1
  Eu  Eu1  1  0.791247  0.480029  0.273880  1
  Eu  Eu2  1  0.291247  0.019971  0.726120  1
  Eu  Eu3  1  0.208753  0.980029  0.226120  1
  Rb  Rb4  1  0.015051  0.995330  0.967112  1
  Rb  Rb5  1  0.515051  0.504670  0.032888  1
  Rb  Rb6  1  0.484949  0.004670  0.467112  1
  Rb  Rb7  1  0.984949  0.495330  0.532888  1
  Si  Si8  1  0.789811  0.987933  0.662643  1
  Si  Si9  1  0.710189  0.012067  0.162643  1
  Si  Si10  1  0.210189  0.487933  0.837357  1
  Si  Si11  1  0.289811  0.512067  0.337357  1
  S  S12  1  0.924444  0.246447  0.140507  1
  S  S13  1  0.605667  0.248375  0.647228  1
  S  S14  1  0.545957  0.508944  0.411544  1
  S  S15  1  0.382587  0.555870  0.220547  1
  S  S16  1  0.894333  0.751625  0.147228  1
  S  S17  1  0.424444  0.253553  0.859493  1
  S  S18  1  0.117413  0.444130  0.720547  1
  S  S19  1  0.394333  0.748375  0.852772  1
  S  S20  1  0.075556  0.746447  0.359493  1
  S  S21  1  0.882587  0.944130  0.779453  1
  S  S22  1  0.954043  0.491056  0.911544  1
  S  S23  1  0.617413  0.055870  0.279453  1
  S  S24  1  0.575556  0.753553  0.640507  1
  S  S25  1  0.105667  0.251625  0.352772  1
  S  S26  1  0.454043  0.008944  0.088456  1
  S  S27  1  0.045957  0.991056  0.588456  1
