# generated using pymatgen
data_AlBiSeCl4
_symmetry_space_group_name_H-M   'P 1'
_cell_length_a   10.37758283
_cell_length_b   10.37758304
_cell_length_c   10.37758349
_cell_angle_alpha   107.62477995
_cell_angle_beta   107.62478031
_cell_angle_gamma   113.23078859
_symmetry_Int_Tables_number   1
_chemical_formula_structural   AlBiSeCl4
_chemical_formula_sum   'Al4 Bi4 Se4 Cl16'
_cell_volume   857.53586072
_cell_formula_units_Z   4
loop_
 _symmetry_equiv_pos_site_id
 _symmetry_equiv_pos_as_xyz
  1  'x, y, z'
loop_
 _atom_site_type_symbol
 _atom_site_label
 _atom_site_symmetry_multiplicity
 _atom_site_fract_x
 _atom_site_fract_y
 _atom_site_fract_z
 _atom_site_occupancy
  Al  Al0  1  0.142090  0.016797  0.730127  1
  Al  Al1  1  0.983203  0.713330  0.125293  1
  Al  Al2  1  0.286670  0.411963  0.269873  1
  Al  Al3  1  0.588037  0.857910  0.874707  1
  Bi  Bi4  1  0.785518  0.188628  0.715537  1
  Bi  Bi5  1  0.473091  0.069980  0.284463  1
  Bi  Bi6  1  0.811372  0.526909  0.596889  1
  Bi  Bi7  1  0.930020  0.214482  0.403111  1
  Se  Se8  1  0.565186  0.266814  0.591056  1
  Se  Se9  1  0.025870  0.434814  0.701627  1
  Se  Se10  1  0.675757  0.974130  0.408944  1
  Se  Se11  1  0.733186  0.324243  0.298373  1
  Cl  Cl12  1  0.503802  0.914176  0.691520  1
  Cl  Cl13  1  0.222656  0.812282  0.308480  1
  Cl  Cl14  1  0.225600  0.181783  0.258547  1
  Cl  Cl15  1  0.182820  0.163482  0.618099  1
  Cl  Cl16  1  0.188979  0.405324  0.053452  1
  Cl  Cl17  1  0.923236  0.967053  0.741453  1
  Cl  Cl18  1  0.818217  0.076764  0.043818  1
  Cl  Cl19  1  0.085824  0.777344  0.589626  1
  Cl  Cl20  1  0.864473  0.811021  0.216345  1
  Cl  Cl21  1  0.836518  0.454617  0.019338  1
  Cl  Cl22  1  0.351872  0.135527  0.946548  1
  Cl  Cl23  1  0.032947  0.774400  0.956182  1
  Cl  Cl24  1  0.545383  0.564721  0.381901  1
  Cl  Cl25  1  0.187718  0.496198  0.410374  1
  Cl  Cl26  1  0.594676  0.648128  0.783655  1
  Cl  Cl27  1  0.435279  0.817180  0.980662  1
