# generated using pymatgen
data_InCu(MoO4)2
_symmetry_space_group_name_H-M   'P 1'
_cell_length_a   5.05161474
_cell_length_b   7.60677608
_cell_length_c   7.60677593
_cell_angle_alpha   100.75381309
_cell_angle_beta   90.70635673
_cell_angle_gamma   90.70636153
_symmetry_Int_Tables_number   1
_chemical_formula_structural   InCu(MoO4)2
_chemical_formula_sum   'In2 Cu2 Mo4 O16'
_cell_volume   287.11472241
_cell_formula_units_Z   2
loop_
 _symmetry_equiv_pos_site_id
 _symmetry_equiv_pos_as_xyz
  1  'x, y, z'
loop_
 _atom_site_type_symbol
 _atom_site_label
 _atom_site_symmetry_multiplicity
 _atom_site_fract_x
 _atom_site_fract_y
 _atom_site_fract_z
 _atom_site_occupancy
  In  In0  1  0.250000  0.844973  0.155027  1
  In  In1  1  0.750000  0.155027  0.844973  1
  Cu  Cu2  1  0.250000  0.341404  0.658596  1
  Cu  Cu3  1  0.750000  0.658596  0.341404  1
  Mo  Mo4  1  0.739919  0.168150  0.349046  1
  Mo  Mo5  1  0.260081  0.831851  0.650954  1
  Mo  Mo6  1  0.239919  0.349046  0.168150  1
  Mo  Mo7  1  0.760081  0.650954  0.831851  1
  O  O8  1  0.599825  0.940963  0.314380  1
  O  O9  1  0.602010  0.431567  0.808738  1
  O  O10  1  0.046336  0.093655  0.192916  1
  O  O11  1  0.099825  0.314380  0.940963  1
  O  O12  1  0.900175  0.685620  0.059037  1
  O  O13  1  0.897990  0.191262  0.568433  1
  O  O14  1  0.929290  0.410722  0.304209  1
  O  O15  1  0.102010  0.808738  0.431567  1
  O  O16  1  0.953664  0.906345  0.807084  1
  O  O17  1  0.429290  0.304209  0.410722  1
  O  O18  1  0.570710  0.695791  0.589278  1
  O  O19  1  0.070710  0.589278  0.695791  1
  O  O20  1  0.397990  0.568433  0.191262  1
  O  O21  1  0.546336  0.192916  0.093655  1
  O  O22  1  0.453664  0.807084  0.906345  1
  O  O23  1  0.400175  0.059037  0.685620  1
