# generated using pymatgen
data_UI4
_symmetry_space_group_name_H-M   'P 1'
_cell_length_a   8.17908200
_cell_length_b   9.60904612
_cell_length_c   9.60904535
_cell_angle_alpha   117.68682162
_cell_angle_beta   87.20069942
_cell_angle_gamma   87.20068128
_symmetry_Int_Tables_number   1
_chemical_formula_structural   UI4
_chemical_formula_sum   'U2 I8'
_cell_volume   665.74877718
_cell_formula_units_Z   2
loop_
 _symmetry_equiv_pos_site_id
 _symmetry_equiv_pos_as_xyz
  1  'x, y, z'
loop_
 _atom_site_type_symbol
 _atom_site_label
 _atom_site_symmetry_multiplicity
 _atom_site_fract_x
 _atom_site_fract_y
 _atom_site_fract_z
 _atom_site_occupancy
  U  U0  1  0.250000  0.919639  0.080361  1
  U  U1  1  0.750000  0.080361  0.919639  1
  I  I2  1  0.728753  0.007626  0.593934  1
  I  I3  1  0.228753  0.593934  0.007626  1
  I  I4  1  0.057017  0.839995  0.781998  1
  I  I5  1  0.942983  0.160005  0.218002  1
  I  I6  1  0.557017  0.781998  0.839995  1
  I  I7  1  0.271247  0.992374  0.406066  1
  I  I8  1  0.442983  0.218002  0.160005  1
  I  I9  1  0.771247  0.406066  0.992374  1
