# generated using pymatgen
data_TeMo3Se7I6
_symmetry_space_group_name_H-M   'P 1'
_cell_length_a   11.22700745
_cell_length_b   13.27321118
_cell_length_c   17.57205107
_cell_angle_alpha   90.00000000
_cell_angle_beta   103.26611422
_cell_angle_gamma   90.00000000
_symmetry_Int_Tables_number   1
_chemical_formula_structural   TeMo3Se7I6
_chemical_formula_sum   'Te4 Mo12 Se28 I24'
_cell_volume   2548.68275391
_cell_formula_units_Z   4
loop_
 _symmetry_equiv_pos_site_id
 _symmetry_equiv_pos_as_xyz
  1  'x, y, z'
loop_
 _atom_site_type_symbol
 _atom_site_label
 _atom_site_symmetry_multiplicity
 _atom_site_fract_x
 _atom_site_fract_y
 _atom_site_fract_z
 _atom_site_occupancy
  Te  Te0  1  0.214695  0.269045  0.663739  1
  Te  Te1  1  0.285305  0.769045  0.836261  1
  Te  Te2  1  0.714695  0.230955  0.163739  1
  Te  Te3  1  0.785305  0.730955  0.336261  1
  Mo  Mo4  1  0.661481  0.861393  0.731210  1
  Mo  Mo5  1  0.931450  0.720330  0.226056  1
  Mo  Mo6  1  0.838519  0.361393  0.768790  1
  Mo  Mo7  1  0.126982  0.847237  0.223897  1
  Mo  Mo8  1  0.161481  0.638607  0.231210  1
  Mo  Mo9  1  0.626982  0.652763  0.723897  1
  Mo  Mo10  1  0.431450  0.779670  0.726056  1
  Mo  Mo11  1  0.373018  0.347237  0.276103  1
  Mo  Mo12  1  0.338519  0.138607  0.268790  1
  Mo  Mo13  1  0.568550  0.220330  0.273944  1
  Mo  Mo14  1  0.068550  0.279670  0.773944  1
  Mo  Mo15  1  0.873018  0.152763  0.776103  1
  Se  Se16  1  0.976855  0.528592  0.252643  1
  Se  Se17  1  0.611433  0.758872  0.839381  1
  Se  Se18  1  0.154069  0.265414  0.251732  1
  Se  Se19  1  0.476855  0.971408  0.752643  1
  Se  Se20  1  0.970321  0.592764  0.125182  1
  Se  Se21  1  0.212276  0.748653  0.123245  1
  Se  Se22  1  0.470321  0.907236  0.625182  1
  Se  Se23  1  0.888567  0.258872  0.660619  1
  Se  Se24  1  0.712276  0.751347  0.623245  1
  Se  Se25  1  0.588028  0.417265  0.265320  1
  Se  Se26  1  0.429920  0.655084  0.614002  1
  Se  Se27  1  0.929920  0.844916  0.114002  1
  Se  Se28  1  0.787724  0.251347  0.876755  1
  Se  Se29  1  0.654069  0.234586  0.751732  1
  Se  Se30  1  0.388567  0.241128  0.160619  1
  Se  Se31  1  0.287724  0.248653  0.376755  1
  Se  Se32  1  0.345931  0.765414  0.248268  1
  Se  Se33  1  0.023145  0.471408  0.747357  1
  Se  Se34  1  0.111433  0.741128  0.339381  1
  Se  Se35  1  0.070080  0.155084  0.885998  1
  Se  Se36  1  0.029679  0.407236  0.874818  1
  Se  Se37  1  0.088028  0.082735  0.765320  1
  Se  Se38  1  0.911972  0.917265  0.234680  1
  Se  Se39  1  0.411972  0.582735  0.734680  1
  Se  Se40  1  0.523145  0.028592  0.247357  1
  Se  Se41  1  0.570080  0.344916  0.385998  1
  Se  Se42  1  0.845931  0.734586  0.748268  1
  Se  Se43  1  0.529679  0.092764  0.374818  1
  I  I44  1  0.691464  0.475544  0.642004  1
  I  I45  1  0.857789  0.574007  0.442814  1
  I  I46  1  0.725069  0.514437  0.846135  1
  I  I47  1  0.808536  0.975544  0.857996  1
  I  I48  1  0.142211  0.425993  0.557186  1
  I  I49  1  0.380402  0.607750  0.938909  1
  I  I50  1  0.880402  0.892250  0.438909  1
  I  I51  1  0.992308  0.717369  0.977949  1
  I  I52  1  0.171921  0.814084  0.662898  1
  I  I53  1  0.328079  0.314084  0.837102  1
  I  I54  1  0.774931  0.014437  0.653865  1
  I  I55  1  0.119598  0.107750  0.561091  1
  I  I56  1  0.828079  0.185916  0.337102  1
  I  I57  1  0.191464  0.024456  0.142004  1
  I  I58  1  0.308536  0.524456  0.357996  1
  I  I59  1  0.507692  0.217369  0.522051  1
  I  I60  1  0.492308  0.782631  0.477949  1
  I  I61  1  0.274931  0.485563  0.153865  1
  I  I62  1  0.357789  0.925993  0.942814  1
  I  I63  1  0.225069  0.985563  0.346135  1
  I  I64  1  0.642211  0.074007  0.057186  1
  I  I65  1  0.619598  0.392250  0.061091  1
  I  I66  1  0.671921  0.685916  0.162898  1
  I  I67  1  0.007692  0.282631  0.022051  1
