# generated using pymatgen
data_BaY(CoO2)4
_symmetry_space_group_name_H-M   'P 1'
_cell_length_a   10.21114147
_cell_length_b   10.95294969
_cell_length_c   12.96876387
_cell_angle_alpha   90.00000000
_cell_angle_beta   90.00000000
_cell_angle_gamma   90.00000000
_symmetry_Int_Tables_number   1
_chemical_formula_structural   BaY(CoO2)4
_chemical_formula_sum   'Ba8 Y8 Co32 O64'
_cell_volume   1450.45402942
_cell_formula_units_Z   8
loop_
 _symmetry_equiv_pos_site_id
 _symmetry_equiv_pos_as_xyz
  1  'x, y, z'
loop_
 _atom_site_type_symbol
 _atom_site_label
 _atom_site_symmetry_multiplicity
 _atom_site_fract_x
 _atom_site_fract_y
 _atom_site_fract_z
 _atom_site_occupancy
  Ba  Ba0  1  0.528913  0.074893  0.626873  1
  Ba  Ba1  1  0.999626  0.426905  0.101453  1
  Ba  Ba2  1  0.999626  0.926905  0.898547  1
  Ba  Ba3  1  0.528913  0.574893  0.373127  1
  Ba  Ba4  1  0.499626  0.073095  0.101453  1
  Ba  Ba5  1  0.028913  0.925107  0.373127  1
  Ba  Ba6  1  0.499626  0.573095  0.898547  1
  Ba  Ba7  1  0.028913  0.425107  0.626873  1
  Y  Y8  1  0.423683  0.438527  0.626263  1
  Y  Y9  1  0.423683  0.938527  0.373737  1
  Y  Y10  1  0.380371  0.905149  0.854730  1
  Y  Y11  1  0.923683  0.561473  0.373737  1
  Y  Y12  1  0.923683  0.061473  0.626263  1
  Y  Y13  1  0.880371  0.094851  0.145270  1
  Y  Y14  1  0.880371  0.594851  0.854730  1
  Y  Y15  1  0.380371  0.405149  0.145270  1
  Co  Co16  1  0.211800  0.667691  0.259807  1
  Co  Co17  1  0.712653  0.842570  0.772382  1
  Co  Co18  1  0.730786  0.320130  0.519533  1
  Co  Co19  1  0.703424  0.581533  0.116482  1
  Co  Co20  1  0.194174  0.155322  0.984641  1
  Co  Co21  1  0.230786  0.679870  0.480467  1
  Co  Co22  1  0.194174  0.655322  0.015359  1
  Co  Co23  1  0.210813  0.401187  0.371031  1
  Co  Co24  1  0.461102  0.746484  0.628140  1
  Co  Co25  1  0.710812  0.098813  0.371031  1
  Co  Co26  1  0.730786  0.820130  0.480467  1
  Co  Co27  1  0.203424  0.918467  0.116482  1
  Co  Co28  1  0.710812  0.598813  0.628969  1
  Co  Co29  1  0.212653  0.657430  0.772382  1
  Co  Co30  1  0.961102  0.753516  0.628140  1
  Co  Co31  1  0.461102  0.246484  0.371860  1
  Co  Co32  1  0.960537  0.752138  0.126054  1
  Co  Co33  1  0.711800  0.332309  0.740193  1
  Co  Co34  1  0.703424  0.081533  0.883518  1
  Co  Co35  1  0.961102  0.253516  0.371860  1
  Co  Co36  1  0.460537  0.247862  0.873946  1
  Co  Co37  1  0.210813  0.901187  0.628969  1
  Co  Co38  1  0.694174  0.344678  0.984641  1
  Co  Co39  1  0.211800  0.167691  0.740193  1
  Co  Co40  1  0.712653  0.342570  0.227618  1
  Co  Co41  1  0.960537  0.252138  0.873946  1
  Co  Co42  1  0.460537  0.747862  0.126054  1
  Co  Co43  1  0.212653  0.157430  0.227618  1
  Co  Co44  1  0.230786  0.179870  0.519533  1
  Co  Co45  1  0.203424  0.418467  0.883518  1
  Co  Co46  1  0.694174  0.844678  0.015359  1
  Co  Co47  1  0.711800  0.832309  0.259807  1
  O  O48  1  0.783608  0.500196  0.237610  1
  O  O49  1  0.011217  0.419526  0.877767  1
  O  O50  1  0.043219  0.890895  0.701372  1
  O  O51  1  0.271385  0.250222  0.871159  1
  O  O52  1  0.634824  0.462631  0.552612  1
  O  O53  1  0.789692  0.487821  0.727934  1
  O  O54  1  0.134824  0.037369  0.552612  1
  O  O55  1  0.539975  0.854143  0.730707  1
  O  O56  1  0.615465  0.717995  0.547033  1
  O  O57  1  0.789692  0.987821  0.272066  1
  O  O58  1  0.271385  0.750222  0.128841  1
  O  O59  1  0.543219  0.609105  0.701372  1
  O  O60  1  0.134824  0.537369  0.447388  1
  O  O61  1  0.283608  0.999804  0.237610  1
  O  O62  1  0.003046  0.672973  0.001640  1
  O  O63  1  0.543219  0.109105  0.298628  1
  O  O64  1  0.511217  0.080474  0.877767  1
  O  O65  1  0.511217  0.580474  0.122233  1
  O  O66  1  0.277759  0.774659  0.366736  1
  O  O67  1  0.021193  0.178529  0.752958  1
  O  O68  1  0.303256  0.277001  0.296096  1
  O  O69  1  0.039975  0.145857  0.269293  1
  O  O70  1  0.749698  0.013161  0.019378  1
  O  O71  1  0.773576  0.272873  0.104468  1
  O  O72  1  0.874963  0.377633  0.448145  1
  O  O73  1  0.883742  0.121024  0.448181  1
  O  O74  1  0.539975  0.354143  0.269293  1
  O  O75  1  0.883742  0.621024  0.551819  1
  O  O76  1  0.874963  0.877633  0.551855  1
  O  O77  1  0.374963  0.622367  0.551855  1
  O  O78  1  0.773576  0.772873  0.895532  1
  O  O79  1  0.503046  0.827027  0.001640  1
  O  O80  1  0.634824  0.962631  0.447388  1
  O  O81  1  0.303256  0.777001  0.703904  1
  O  O82  1  0.021193  0.678529  0.247042  1
  O  O83  1  0.783608  0.000196  0.762390  1
  O  O84  1  0.803256  0.222999  0.296096  1
  O  O85  1  0.115465  0.782005  0.547033  1
  O  O86  1  0.289692  0.012179  0.727934  1
  O  O87  1  0.521193  0.821471  0.247042  1
  O  O88  1  0.011217  0.919526  0.122233  1
  O  O89  1  0.043219  0.390894  0.298628  1
  O  O90  1  0.777759  0.725341  0.366736  1
  O  O91  1  0.249698  0.986839  0.980622  1
  O  O92  1  0.749698  0.513161  0.980622  1
  O  O93  1  0.374963  0.122367  0.448145  1
  O  O94  1  0.771385  0.249778  0.871159  1
  O  O95  1  0.283608  0.499804  0.762390  1
  O  O96  1  0.771385  0.749778  0.128841  1
  O  O97  1  0.503046  0.327027  0.998360  1
  O  O98  1  0.383742  0.378976  0.448181  1
  O  O99  1  0.273576  0.227127  0.104468  1
  O  O100  1  0.777759  0.225341  0.633264  1
  O  O101  1  0.003046  0.172973  0.998360  1
  O  O102  1  0.273576  0.727127  0.895532  1
  O  O103  1  0.383742  0.878976  0.551819  1
  O  O104  1  0.521193  0.321471  0.752958  1
  O  O105  1  0.115465  0.282005  0.452967  1
  O  O106  1  0.803256  0.722999  0.703904  1
  O  O107  1  0.289692  0.512179  0.272066  1
  O  O108  1  0.615465  0.217995  0.452967  1
  O  O109  1  0.039975  0.645857  0.730707  1
  O  O110  1  0.277759  0.274659  0.633264  1
  O  O111  1  0.249698  0.486839  0.019378  1
