# generated using pymatgen
data_Eu2SnS4
_symmetry_space_group_name_H-M   'P 1'
_cell_length_a   7.62391402
_cell_length_b   8.92236450
_cell_length_c   11.36497390
_cell_angle_alpha   90.00195694
_cell_angle_beta   89.99680508
_cell_angle_gamma   89.99289516
_symmetry_Int_Tables_number   1
_chemical_formula_structural   Eu2SnS4
_chemical_formula_sum   'Eu8 Sn4 S16'
_cell_volume   773.08347321
_cell_formula_units_Z   4
loop_
 _symmetry_equiv_pos_site_id
 _symmetry_equiv_pos_as_xyz
  1  'x, y, z'
loop_
 _atom_site_type_symbol
 _atom_site_label
 _atom_site_symmetry_multiplicity
 _atom_site_fract_x
 _atom_site_fract_y
 _atom_site_fract_z
 _atom_site_occupancy
  Eu  Eu0  1  0.619558  0.505042  0.189688  1
  Eu  Eu1  1  0.380439  0.005027  0.810312  1
  Eu  Eu2  1  0.880440  0.505041  0.689697  1
  Eu  Eu3  1  0.619555  0.994962  0.189678  1
  Eu  Eu4  1  0.119571  0.005038  0.310310  1
  Eu  Eu5  1  0.880438  0.994964  0.689701  1
  Eu  Eu6  1  0.380442  0.494956  0.810308  1
  Eu  Eu7  1  0.119562  0.494964  0.310311  1
  Sn  Sn8  1  0.110752  0.750007  0.030335  1
  Sn  Sn9  1  0.389257  0.750006  0.530351  1
  Sn  Sn10  1  0.889249  0.249992  0.969654  1
  Sn  Sn11  1  0.610738  0.249994  0.469663  1
  S  S12  1  0.272841  0.516704  0.063961  1
  S  S13  1  0.597146  0.249971  0.686797  1
  S  S14  1  0.772840  0.016694  0.436047  1
  S  S15  1  0.727160  0.483296  0.936025  1
  S  S16  1  0.101900  0.249968  0.804019  1
  S  S17  1  0.398126  0.249996  0.304026  1
  S  S18  1  0.727130  0.016697  0.936003  1
  S  S19  1  0.402847  0.750005  0.313209  1
  S  S20  1  0.772833  0.483305  0.436035  1
  S  S21  1  0.227161  0.983309  0.564012  1
  S  S22  1  0.272863  0.983307  0.063935  1
  S  S23  1  0.601876  0.750028  0.695987  1
  S  S24  1  0.227163  0.516697  0.563981  1
  S  S25  1  0.902832  0.249995  0.186783  1
  S  S26  1  0.898110  0.750006  0.195968  1
  S  S27  1  0.097171  0.750029  0.813205  1
