# generated using pymatgen
data_CuH8C4N8(ClO)2
_symmetry_space_group_name_H-M   'P 1'
_cell_length_a   5.43311987
_cell_length_b   6.46283685
_cell_length_c   9.36111589
_cell_angle_alpha   73.19869961
_cell_angle_beta   78.85610442
_cell_angle_gamma   82.17613223
_symmetry_Int_Tables_number   1
_chemical_formula_structural   CuH8C4N8(ClO)2
_chemical_formula_sum   'Cu1 H8 C4 N8 Cl2 O2'
_cell_volume   307.60666183
_cell_formula_units_Z   1
loop_
 _symmetry_equiv_pos_site_id
 _symmetry_equiv_pos_as_xyz
  1  'x, y, z'
loop_
 _atom_site_type_symbol
 _atom_site_label
 _atom_site_symmetry_multiplicity
 _atom_site_fract_x
 _atom_site_fract_y
 _atom_site_fract_z
 _atom_site_occupancy
  Cu  Cu0  1  0.000000  0.000000  0.000000  1
  H  H1  1  0.008495  0.767134  0.492261  1
  H  H2  1  0.991505  0.232866  0.507739  1
  H  H3  1  0.221672  0.815379  0.324547  1
  H  H4  1  0.778328  0.184621  0.675453  1
  H  H5  1  0.164421  0.682883  0.728142  1
  H  H6  1  0.835579  0.317117  0.271858  1
  H  H7  1  0.492095  0.677994  0.723341  1
  H  H8  1  0.507905  0.322006  0.276659  1
  C  C9  1  0.698083  0.827725  0.304395  1
  C  C10  1  0.301917  0.172275  0.695605  1
  C  C11  1  0.381625  0.746466  0.516661  1
  C  C12  1  0.618375  0.253534  0.483339  1
  N  N13  1  0.797738  0.872620  0.176861  1
  N  N14  1  0.202262  0.127380  0.823139  1
  N  N15  1  0.623449  0.765799  0.446416  1
  N  N16  1  0.376551  0.234201  0.553584  1
  N  N17  1  0.189919  0.782867  0.439277  1
  N  N18  1  0.810081  0.217133  0.560723  1
  N  N19  1  0.343653  0.688653  0.666955  1
  N  N20  1  0.656347  0.311347  0.333045  1
  Cl  Cl21  1  0.779166  0.719106  0.857225  1
  Cl  Cl22  1  0.220834  0.280894  0.142775  1
  O  O23  1  0.758695  0.210987  0.941059  1
  O  O24  1  0.241305  0.789013  0.058941  1
