# generated using pymatgen
data_K2PtC4(SN)4
_symmetry_space_group_name_H-M   'P 1'
_cell_length_a   4.47118006
_cell_length_b   11.48446764
_cell_length_c   15.27173571
_cell_angle_alpha   90.00000000
_cell_angle_beta   90.00000000
_cell_angle_gamma   102.62864116
_symmetry_Int_Tables_number   1
_chemical_formula_structural   K2PtC4(SN)4
_chemical_formula_sum   'K4 Pt2 C8 S8 N8'
_cell_volume   765.21878275
_cell_formula_units_Z   2
loop_
 _symmetry_equiv_pos_site_id
 _symmetry_equiv_pos_as_xyz
  1  'x, y, z'
loop_
 _atom_site_type_symbol
 _atom_site_label
 _atom_site_symmetry_multiplicity
 _atom_site_fract_x
 _atom_site_fract_y
 _atom_site_fract_z
 _atom_site_occupancy
  K  K0  1  0.344959  0.961315  0.811543  1
  K  K1  1  0.655041  0.038685  0.188457  1
  K  K2  1  0.344959  0.461315  0.688457  1
  K  K3  1  0.655041  0.538685  0.311543  1
  Pt  Pt4  1  0.000000  0.000000  0.000000  1
  Pt  Pt5  1  0.000000  0.500000  0.500000  1
  C  C6  1  0.778880  0.211714  0.655636  1
  C  C7  1  0.221120  0.288286  0.155636  1
  C  C8  1  0.778880  0.711714  0.844364  1
  C  C9  1  0.989650  0.224612  0.922415  1
  C  C10  1  0.221120  0.788286  0.344364  1
  C  C11  1  0.989650  0.724612  0.577585  1
  C  C12  1  0.010350  0.775388  0.077585  1
  C  C13  1  0.010350  0.275388  0.422415  1
  S  S14  1  0.839717  0.076737  0.660449  1
  S  S15  1  0.160283  0.423263  0.160449  1
  S  S16  1  0.839717  0.576737  0.839551  1
  S  S17  1  0.176184  0.356097  0.906816  1
  S  S18  1  0.823816  0.143903  0.406816  1
  S  S19  1  0.176184  0.856097  0.593184  1
  S  S20  1  0.823816  0.643903  0.093184  1
  S  S21  1  0.160283  0.923263  0.339551  1
  N  N22  1  0.737042  0.310552  0.652938  1
  N  N23  1  0.142730  0.878291  0.065236  1
  N  N24  1  0.142730  0.378291  0.434764  1
  N  N25  1  0.857270  0.121709  0.934764  1
  N  N26  1  0.857270  0.621709  0.565236  1
  N  N27  1  0.262958  0.189448  0.152938  1
  N  N28  1  0.737042  0.810552  0.847062  1
  N  N29  1  0.262958  0.689448  0.347062  1
