# generated using pymatgen
data_Tl9SbSe6
_symmetry_space_group_name_H-M   'P 1'
_cell_length_a   8.52922168
_cell_length_b   8.52652340
_cell_length_c   9.03147083
_cell_angle_alpha   118.18397618
_cell_angle_beta   118.17427198
_cell_angle_gamma   89.98669311
_symmetry_Int_Tables_number   1
_chemical_formula_structural   Tl9SbSe6
_chemical_formula_sum   'Tl9 Sb1 Se6'
_cell_volume   488.91649018
_cell_formula_units_Z   1
loop_
 _symmetry_equiv_pos_site_id
 _symmetry_equiv_pos_as_xyz
  1  'x, y, z'
loop_
 _atom_site_type_symbol
 _atom_site_label
 _atom_site_symmetry_multiplicity
 _atom_site_fract_x
 _atom_site_fract_y
 _atom_site_fract_z
 _atom_site_occupancy
  Tl  Tl0  1  0.995029  0.509720  0.304920  1
  Tl  Tl1  1  0.204833  0.004970  0.694861  1
  Tl  Tl2  1  0.000000  0.000000  0.000000  1
  Tl  Tl3  1  0.309763  0.795223  0.304876  1
  Tl  Tl4  1  0.490225  0.690066  0.694954  1
  Tl  Tl5  1  0.509775  0.309934  0.305046  1
  Tl  Tl6  1  0.690237  0.204777  0.695124  1
  Tl  Tl7  1  0.795167  0.995030  0.305139  1
  Tl  Tl8  1  0.004971  0.490280  0.695080  1
  Sb  Sb9  1  0.500000  0.500000  0.000000  1
  Se  Se10  1  0.281195  0.281066  0.562402  1
  Se  Se11  1  0.183477  0.354229  0.000114  1
  Se  Se12  1  0.354239  0.816703  0.000042  1
  Se  Se13  1  0.718805  0.718934  0.437598  1
  Se  Se14  1  0.645761  0.183297  0.999958  1
  Se  Se15  1  0.816523  0.645771  0.999886  1
