# generated using pymatgen
data_Ba2PPd2
_symmetry_space_group_name_H-M   'P 1'
_cell_length_a   12.54580331
_cell_length_b   7.84614277
_cell_length_c   6.88352405
_cell_angle_alpha   90.00000000
_cell_angle_beta   90.00000000
_cell_angle_gamma   51.28846138
_symmetry_Int_Tables_number   1
_chemical_formula_structural   Ba2PPd2
_chemical_formula_sum   'Ba8 P4 Pd8'
_cell_volume   528.72471667
_cell_formula_units_Z   4
loop_
 _symmetry_equiv_pos_site_id
 _symmetry_equiv_pos_as_xyz
  1  'x, y, z'
loop_
 _atom_site_type_symbol
 _atom_site_label
 _atom_site_symmetry_multiplicity
 _atom_site_fract_x
 _atom_site_fract_y
 _atom_site_fract_z
 _atom_site_occupancy
  Ba  Ba0  1  0.191156  0.298479  -0.005019  1
  Ba  Ba1  1  0.308844  0.201521  0.494981  1
  Ba  Ba2  1  0.191156  0.798479  0.505019  1
  Ba  Ba3  1  0.308844  0.701521  0.005019  1
  Ba  Ba4  1  0.691156  0.319210  0.005019  1
  Ba  Ba5  1  0.808844  0.180790  0.505019  1
  Ba  Ba6  1  0.691156  0.819210  0.494981  1
  Ba  Ba7  1  0.808844  0.680790  -0.005019  1
  P  P8  1  1.000000  0.161445  0.842350  1
  P  P9  1  1.000000  0.661445  0.657650  1
  P  P10  1  0.500000  0.338555  0.342350  1
  P  P11  1  0.500000  0.838555  0.157650  1
  Pd  Pd12  1  0.000000  0.204150  0.195172  1
  Pd  Pd13  1  0.000000  0.704150  0.304828  1
  Pd  Pd14  1  0.500000  0.144718  0.062380  1
  Pd  Pd15  1  0.500000  0.295850  0.695172  1
  Pd  Pd16  1  0.500000  0.644718  0.437620  1
  Pd  Pd17  1  0.500000  0.795850  0.804828  1
  Pd  Pd18  1  1.000000  0.355282  0.562380  1
  Pd  Pd19  1  1.000000  0.855282  0.937620  1
