# generated using pymatgen
data_Ba2BeS(OF)4
_symmetry_space_group_name_H-M   'P 1'
_cell_length_a   6.34675768
_cell_length_b   7.39624576
_cell_length_c   7.80782259
_cell_angle_alpha   90.04104852
_cell_angle_beta   90.05924182
_cell_angle_gamma   85.70669003
_symmetry_Int_Tables_number   1
_chemical_formula_structural   Ba2BeS(OF)4
_chemical_formula_sum   'Ba4 Be2 S2 O8 F8'
_cell_volume   365.48745185
_cell_formula_units_Z   2
loop_
 _symmetry_equiv_pos_site_id
 _symmetry_equiv_pos_as_xyz
  1  'x, y, z'
loop_
 _atom_site_type_symbol
 _atom_site_label
 _atom_site_symmetry_multiplicity
 _atom_site_fract_x
 _atom_site_fract_y
 _atom_site_fract_z
 _atom_site_occupancy
  Ba  Ba0  1  0.327614  0.352152  0.947456  1
  Ba  Ba1  1  0.172781  0.147809  0.447231  1
  Ba  Ba2  1  0.771185  0.652677  0.245355  1
  Ba  Ba3  1  0.729235  0.846911  0.745383  1
  Be  Be4  1  0.721176  0.348646  0.649226  1
  Be  Be5  1  0.778666  0.151136  0.149023  1
  S  S6  1  0.267935  0.670547  0.507459  1
  S  S7  1  0.232474  0.830053  0.008423  1
  O  O8  1  0.052716  0.703744  -0.007048  1
  O  O9  1  0.060288  0.781179  0.482051  1
  O  O10  1  0.181108  0.915673  0.812440  1
  O  O11  1  0.326925  0.050939  0.762511  1
  O  O12  1  0.172813  0.449457  0.262032  1
  O  O13  1  0.318416  0.584295  0.312127  1
  O  O14  1  0.446750  0.796844  0.492396  1
  O  O15  1  0.439660  0.718454  -0.017700  1
  F  F16  1  0.492842  0.308789  0.598640  1
  F  F17  1  0.657992  0.054030  0.008544  1
  F  F18  1  0.640843  0.331952  0.182432  1
  F  F19  1  0.793845  0.024971  0.310589  1
  F  F20  1  0.705452  0.474272  0.811263  1
  F  F21  1  0.859338  0.167404  0.681236  1
  F  F22  1  0.007550  0.190889  0.099335  1
  F  F23  1  0.842395  0.447177  0.509596  1
