# generated using pymatgen
data_Ho(FeSn)6
_symmetry_space_group_name_H-M   'P 1'
_cell_length_a   5.40756483
_cell_length_b   8.94004686
_cell_length_c   14.98010502
_cell_angle_alpha   107.34516350
_cell_angle_beta   100.40964044
_cell_angle_gamma   90.02654439
_symmetry_Int_Tables_number   1
_chemical_formula_structural   Ho(FeSn)6
_chemical_formula_sum   'Ho3 Fe18 Sn18'
_cell_volume   678.74749284
_cell_formula_units_Z   3
loop_
 _symmetry_equiv_pos_site_id
 _symmetry_equiv_pos_as_xyz
  1  'x, y, z'
loop_
 _atom_site_type_symbol
 _atom_site_label
 _atom_site_symmetry_multiplicity
 _atom_site_fract_x
 _atom_site_fract_y
 _atom_site_fract_z
 _atom_site_occupancy
  Ho  Ho0  1  0.666829  0.169383  0.335113  1
  Ho  Ho1  1  0.333014  0.830642  0.663662  1
  Ho  Ho2  1  0.999481  0.997786  0.999545  1
  Fe  Fe3  1  0.000140  0.001600  0.500587  1
  Fe  Fe4  1  0.494593  0.244496  0.998725  1
  Fe  Fe5  1  0.663894  0.163060  0.833813  1
  Fe  Fe6  1  0.163108  0.161326  0.833955  1
  Fe  Fe7  1  0.333929  0.328599  0.164748  1
  Fe  Fe8  1  0.504670  0.001316  0.500184  1
  Fe  Fe9  1  0.169827  0.415881  0.334145  1
  Fe  Fe10  1  0.829112  0.080512  0.665713  1
  Fe  Fe11  1  0.831636  0.583014  0.667030  1
  Fe  Fe12  1  0.336534  0.834564  0.165734  1
  Fe  Fe13  1  0.169943  0.918582  0.333608  1
  Fe  Fe14  1  0.837373  0.835566  0.167273  1
  Fe  Fe15  1  0.499190  0.752878  0.000737  1
  Fe  Fe16  1  0.170039  0.668099  0.833856  1
  Fe  Fe17  1  0.998838  0.500466  0.501085  1
  Fe  Fe18  1  0.495659  0.500470  0.499406  1
  Fe  Fe19  1  0.666024  0.670625  0.833917  1
  Fe  Fe20  1  0.835443  0.330274  0.166409  1
  Sn  Sn21  1  0.444191  0.943027  0.887945  1
  Sn  Sn22  1  0.776222  0.279809  0.557493  1
  Sn  Sn23  1  0.115907  0.610215  0.221385  1
  Sn  Sn24  1  0.998949  0.661536  0.998732  1
  Sn  Sn25  1  0.995795  0.335061  0.999901  1
  Sn  Sn26  1  0.330871  0.169364  0.667388  1
  Sn  Sn27  1  0.223856  0.722584  0.442078  1
  Sn  Sn28  1  0.670462  0.504508  0.333139  1
  Sn  Sn29  1  0.557456  0.055125  0.111740  1
  Sn  Sn30  1  0.889282  0.387340  0.778499  1
  Sn  Sn31  1  0.779041  0.776529  0.554140  1
  Sn  Sn32  1  0.889156  0.886334  0.776308  1
  Sn  Sn33  1  0.113038  0.111258  0.222583  1
  Sn  Sn34  1  0.557057  0.553402  0.109902  1
  Sn  Sn35  1  0.220786  0.222537  0.445211  1
  Sn  Sn36  1  0.670786  0.830578  0.332849  1
  Sn  Sn37  1  0.444680  0.443058  0.887703  1
  Sn  Sn38  1  0.334134  0.495807  0.667490  1
