# generated using pymatgen
data_Ca2Zr5Ti2O16
_symmetry_space_group_name_H-M   'P 1'
_cell_length_a   10.25199374
_cell_length_b   15.42120792
_cell_length_c   15.40930966
_cell_angle_alpha   90.00000000
_cell_angle_beta   90.00000000
_cell_angle_gamma   90.00000000
_symmetry_Int_Tables_number   1
_chemical_formula_structural   Ca2Zr5Ti2O16
_chemical_formula_sum   'Ca16 Zr40 Ti16 O128'
_cell_volume   2436.18299652
_cell_formula_units_Z   8
loop_
 _symmetry_equiv_pos_site_id
 _symmetry_equiv_pos_as_xyz
  1  'x, y, z'
loop_
 _atom_site_type_symbol
 _atom_site_label
 _atom_site_symmetry_multiplicity
 _atom_site_fract_x
 _atom_site_fract_y
 _atom_site_fract_z
 _atom_site_occupancy
  Ca  Ca0  1  0.126340  0.332108  0.581511  1
  Ca  Ca1  1  0.626340  0.167892  0.418489  1
  Ca  Ca2  1  0.876164  0.167442  0.583134  1
  Ca  Ca3  1  0.876164  0.332558  0.083134  1
  Ca  Ca4  1  0.623836  0.667442  0.583134  1
  Ca  Ca5  1  0.623836  0.832558  0.083134  1
  Ca  Ca6  1  0.373660  0.832108  0.581511  1
  Ca  Ca7  1  0.126340  0.167892  0.081511  1
  Ca  Ca8  1  0.123836  0.667442  0.916866  1
  Ca  Ca9  1  0.373660  0.667892  0.081511  1
  Ca  Ca10  1  0.626340  0.332108  0.918489  1
  Ca  Ca11  1  0.376164  0.332558  0.416866  1
  Ca  Ca12  1  0.376164  0.167442  0.916866  1
  Ca  Ca13  1  0.873660  0.667892  0.418489  1
  Ca  Ca14  1  0.873660  0.832108  0.918489  1
  Ca  Ca15  1  0.123836  0.832558  0.416866  1
  Zr  Zr16  1  0.392986  0.980012  0.410238  1
  Zr  Zr17  1  0.387998  0.482335  0.586789  1
  Zr  Zr18  1  0.356016  0.839840  0.230663  1
  Zr  Zr19  1  0.607014  0.019988  0.589762  1
  Zr  Zr20  1  0.637590  0.663411  0.231059  1
  Zr  Zr21  1  0.125217  0.483324  0.765277  1
  Zr  Zr22  1  0.625217  0.483324  0.734723  1
  Zr  Zr23  1  0.107014  0.019988  0.910238  1
  Zr  Zr24  1  0.874783  0.516676  0.234723  1
  Zr  Zr25  1  0.356016  0.660160  0.730663  1
  Zr  Zr26  1  0.612002  0.517665  0.413211  1
  Zr  Zr27  1  0.887998  0.482335  0.913211  1
  Zr  Zr28  1  0.143984  0.160160  0.730663  1
  Zr  Zr29  1  0.387998  0.017665  0.086789  1
  Zr  Zr30  1  0.374783  0.516676  0.265277  1
  Zr  Zr31  1  0.856016  0.660160  0.769337  1
  Zr  Zr32  1  0.887998  0.017665  0.413211  1
  Zr  Zr33  1  0.874783  0.983324  0.734723  1
  Zr  Zr34  1  0.612002  0.982335  0.913211  1
  Zr  Zr35  1  0.137590  0.836589  0.768941  1
  Zr  Zr36  1  0.112002  0.982335  0.586789  1
  Zr  Zr37  1  0.107014  0.480012  0.410238  1
  Zr  Zr38  1  0.892986  0.980012  0.089762  1
  Zr  Zr39  1  0.392986  0.519988  0.910238  1
  Zr  Zr40  1  0.137590  0.663411  0.268941  1
  Zr  Zr41  1  0.862410  0.336589  0.731059  1
  Zr  Zr42  1  0.374783  0.983324  0.765277  1
  Zr  Zr43  1  0.362410  0.163411  0.268941  1
  Zr  Zr44  1  0.362410  0.336589  0.768941  1
  Zr  Zr45  1  0.637590  0.836589  0.731059  1
  Zr  Zr46  1  0.643984  0.339840  0.269337  1
  Zr  Zr47  1  0.125217  0.016676  0.265277  1
  Zr  Zr48  1  0.607014  0.480012  0.089762  1
  Zr  Zr49  1  0.862410  0.163411  0.231059  1
  Zr  Zr50  1  0.143984  0.339840  0.230663  1
  Zr  Zr51  1  0.643984  0.160160  0.769337  1
  Zr  Zr52  1  0.625217  0.016676  0.234723  1
  Zr  Zr53  1  0.892986  0.519988  0.589762  1
  Zr  Zr54  1  0.856016  0.839840  0.269337  1
  Zr  Zr55  1  0.112002  0.517665  0.086789  1
  Ti  Ti56  1  0.876798  0.163708  0.914453  1
  Ti  Ti57  1  0.123202  0.663708  0.585547  1
  Ti  Ti58  1  0.376798  0.163708  0.585547  1
  Ti  Ti59  1  0.626503  0.172981  0.077441  1
  Ti  Ti60  1  0.626503  0.327019  0.577441  1
  Ti  Ti61  1  0.126503  0.172981  0.422559  1
  Ti  Ti62  1  0.376798  0.336292  0.085547  1
  Ti  Ti63  1  0.373497  0.827019  0.922559  1
  Ti  Ti64  1  0.876798  0.336292  0.414453  1
  Ti  Ti65  1  0.126503  0.327019  0.922559  1
  Ti  Ti66  1  0.873497  0.827019  0.577441  1
  Ti  Ti67  1  0.623202  0.836292  0.414453  1
  Ti  Ti68  1  0.623202  0.663708  0.914453  1
  Ti  Ti69  1  0.123202  0.836292  0.085547  1
  Ti  Ti70  1  0.873497  0.672981  0.077441  1
  Ti  Ti71  1  0.373497  0.672981  0.422559  1
  O  O72  1  0.043584  0.921905  0.005846  1
  O  O73  1  0.249664  0.070585  0.998601  1
  O  O74  1  0.493098  0.617078  0.835113  1
  O  O75  1  0.297112  0.257089  0.171973  1
  O  O76  1  0.752105  0.212795  0.000448  1
  O  O77  1  0.507263  0.433682  0.329482  1
  O  O78  1  0.746663  0.078455  0.684556  1
  O  O79  1  0.250336  0.929415  0.498601  1
  O  O80  1  0.750147  0.917963  0.640208  1
  O  O81  1  0.246663  0.078455  0.815444  1
  O  O82  1  0.456416  0.078095  0.505846  1
  O  O83  1  0.747202  0.415803  0.367609  1
  O  O84  1  0.504228  0.933016  0.669930  1
  O  O85  1  0.741805  0.918625  0.817471  1
  O  O86  1  0.499294  0.750524  0.962769  1
  O  O87  1  0.297112  0.242911  0.671973  1
  O  O88  1  0.249853  0.417963  0.859792  1
  O  O89  1  0.250147  0.917963  0.859792  1
  O  O90  1  0.202888  0.742911  0.671973  1
  O  O91  1  0.004228  0.933016  0.830070  1
  O  O92  1  0.506902  0.117078  0.664887  1
  O  O93  1  0.752105  0.287205  0.500448  1
  O  O94  1  0.749664  0.070585  0.501399  1
  O  O95  1  0.992737  0.566318  0.829482  1
  O  O96  1  0.249664  0.429415  0.498601  1
  O  O97  1  0.252798  0.915803  0.132391  1
  O  O98  1  0.507263  0.066318  0.829482  1
  O  O99  1  0.004228  0.566984  0.330070  1
  O  O100  1  0.999294  0.749476  0.037231  1
  O  O101  1  0.495772  0.066984  0.330070  1
  O  O102  1  0.502864  0.249686  0.820627  1
  O  O103  1  0.258195  0.418625  0.682529  1
  O  O104  1  0.006902  0.382922  0.335113  1
  O  O105  1  0.000706  0.249476  0.462769  1
  O  O106  1  0.002864  0.250314  0.179373  1
  O  O107  1  0.253337  0.921545  0.315444  1
  O  O108  1  0.044995  0.078022  0.492525  1
  O  O109  1  0.758195  0.081375  0.317471  1
  O  O110  1  0.006902  0.117078  0.835113  1
  O  O111  1  0.002864  0.249686  0.679373  1
  O  O112  1  0.741805  0.581375  0.317471  1
  O  O113  1  0.497136  0.750314  0.179373  1
  O  O114  1  0.708773  0.243469  0.171662  1
  O  O115  1  0.252105  0.287205  0.999552  1
  O  O116  1  0.496447  0.889324  0.831497  1
  O  O117  1  0.252105  0.212795  0.499552  1
  O  O118  1  0.749664  0.429415  0.001399  1
  O  O119  1  0.003553  0.389324  0.831497  1
  O  O120  1  0.992737  0.933682  0.329482  1
  O  O121  1  0.456416  0.421905  0.005846  1
  O  O122  1  0.497136  0.749686  0.679373  1
  O  O123  1  0.493098  0.882922  0.335113  1
  O  O124  1  0.043584  0.578095  0.505846  1
  O  O125  1  0.000706  0.250524  0.962769  1
  O  O126  1  0.241805  0.918625  0.682529  1
  O  O127  1  0.500706  0.249476  0.037231  1
  O  O128  1  0.007263  0.066318  0.670518  1
  O  O129  1  0.543584  0.578095  0.994154  1
  O  O130  1  0.506902  0.382922  0.164887  1
  O  O131  1  0.997136  0.750314  0.320627  1
  O  O132  1  0.752798  0.915803  0.367609  1
  O  O133  1  0.791227  0.756531  0.671662  1
  O  O134  1  0.202888  0.757089  0.171973  1
  O  O135  1  0.492737  0.566318  0.670518  1
  O  O136  1  0.753337  0.921545  0.184556  1
  O  O137  1  0.995772  0.433016  0.669930  1
  O  O138  1  0.758195  0.418625  0.817471  1
  O  O139  1  0.250336  0.570585  0.998601  1
  O  O140  1  0.247202  0.084197  0.632391  1
  O  O141  1  0.504228  0.566984  0.169930  1
  O  O142  1  0.747895  0.712795  0.000448  1
  O  O143  1  0.503553  0.389324  0.668503  1
  O  O144  1  0.747202  0.084197  0.867609  1
  O  O145  1  0.753337  0.578455  0.684556  1
  O  O146  1  0.746663  0.421545  0.184556  1
  O  O147  1  0.291227  0.756531  0.828338  1
  O  O148  1  0.797112  0.242911  0.828027  1
  O  O149  1  0.708773  0.256531  0.671662  1
  O  O150  1  0.208773  0.256531  0.828338  1
  O  O151  1  0.956416  0.078095  0.994154  1
  O  O152  1  0.250147  0.582037  0.359792  1
  O  O153  1  0.495772  0.433016  0.830070  1
  O  O154  1  0.955005  0.578022  0.007475  1
  O  O155  1  0.496447  0.610676  0.331497  1
  O  O156  1  0.455005  0.921978  0.992525  1
  O  O157  1  0.241805  0.581375  0.182529  1
  O  O158  1  0.500706  0.250524  0.537231  1
  O  O159  1  0.246663  0.421545  0.315444  1
  O  O160  1  0.247202  0.415803  0.132391  1
  O  O161  1  0.044995  0.421978  0.992525  1
  O  O162  1  0.544995  0.078022  0.007475  1
  O  O163  1  0.253337  0.578455  0.815444  1
  O  O164  1  0.258195  0.081375  0.182529  1
  O  O165  1  0.291227  0.743469  0.328338  1
  O  O166  1  0.702888  0.757089  0.328027  1
  O  O167  1  0.502864  0.250314  0.320627  1
  O  O168  1  0.996447  0.610676  0.168503  1
  O  O169  1  0.247895  0.787205  0.999552  1
  O  O170  1  0.455005  0.578022  0.492525  1
  O  O171  1  0.797112  0.257089  0.328027  1
  O  O172  1  0.997136  0.749686  0.820627  1
  O  O173  1  0.247895  0.712795  0.499552  1
  O  O174  1  0.956416  0.421905  0.494154  1
  O  O175  1  0.499294  0.749476  0.462769  1
  O  O176  1  0.492737  0.933682  0.170518  1
  O  O177  1  0.955005  0.921978  0.507475  1
  O  O178  1  0.208773  0.243469  0.328338  1
  O  O179  1  0.249853  0.082037  0.359792  1
  O  O180  1  0.752798  0.584197  0.867609  1
  O  O181  1  0.749853  0.417963  0.640208  1
  O  O182  1  0.747895  0.787205  0.500448  1
  O  O183  1  0.750336  0.929415  0.001399  1
  O  O184  1  0.544995  0.421978  0.507475  1
  O  O185  1  0.750336  0.570585  0.501399  1
  O  O186  1  0.749853  0.082037  0.140208  1
  O  O187  1  0.702888  0.742911  0.828027  1
  O  O188  1  0.791227  0.743469  0.171662  1
  O  O189  1  0.252798  0.584197  0.632391  1
  O  O190  1  0.503553  0.110676  0.168503  1
  O  O191  1  0.993098  0.617078  0.664887  1
  O  O192  1  0.995772  0.066984  0.169930  1
  O  O193  1  0.999294  0.750524  0.537231  1
  O  O194  1  0.007263  0.433682  0.170518  1
  O  O195  1  0.543584  0.921905  0.494154  1
  O  O196  1  0.993098  0.882922  0.164887  1
  O  O197  1  0.003553  0.110676  0.331497  1
  O  O198  1  0.750147  0.582037  0.140208  1
  O  O199  1  0.996447  0.889324  0.668503  1
