# generated using pymatgen
data_In2(WO4)3
_symmetry_space_group_name_H-M   'P 1'
_cell_length_a   9.80727371
_cell_length_b   16.68321609
_cell_length_c   16.75480700
_cell_angle_alpha   109.16217799
_cell_angle_beta   90.00000000
_cell_angle_gamma   90.00000000
_symmetry_Int_Tables_number   1
_chemical_formula_structural   In2(WO4)3
_chemical_formula_sum   'In16 W24 O96'
_cell_volume   2589.47868761
_cell_formula_units_Z   8
loop_
 _symmetry_equiv_pos_site_id
 _symmetry_equiv_pos_as_xyz
  1  'x, y, z'
loop_
 _atom_site_type_symbol
 _atom_site_label
 _atom_site_symmetry_multiplicity
 _atom_site_fract_x
 _atom_site_fract_y
 _atom_site_fract_z
 _atom_site_occupancy
  In  In0  1  0.457801  0.324528  0.952309  1
  In  In1  1  0.534885  0.562305  0.681173  1
  In  In2  1  0.026633  0.433311  0.815377  1
  In  In3  1  0.973367  0.566689  0.184623  1
  In  In4  1  0.482261  0.811106  0.417310  1
  In  In5  1  0.517739  0.188894  0.582690  1
  In  In6  1  0.957801  0.175472  0.047691  1
  In  In7  1  0.017739  0.311106  0.417310  1
  In  In8  1  0.034885  0.937695  0.318827  1
  In  In9  1  0.542199  0.675472  0.047691  1
  In  In10  1  0.965115  0.062305  0.681173  1
  In  In11  1  0.526633  0.066689  0.184623  1
  In  In12  1  0.465115  0.437695  0.318827  1
  In  In13  1  0.473367  0.933311  0.815377  1
  In  In14  1  0.042199  0.824528  0.952309  1
  In  In15  1  0.982261  0.688894  0.582690  1
  W  W16  1  0.252506  0.005690  0.512833  1
  W  W17  1  0.745145  0.982158  0.980496  1
  W  W18  1  0.869841  0.638179  0.786836  1
  W  W19  1  0.752506  0.494310  0.487167  1
  W  W20  1  0.612615  0.611103  0.250885  1
  W  W21  1  0.387385  0.388897  0.749115  1
  W  W22  1  0.124196  0.224017  0.863951  1
  W  W23  1  0.630159  0.138179  0.786836  1
  W  W24  1  0.875804  0.775983  0.136049  1
  W  W25  1  0.245145  0.517842  0.019504  1
  W  W26  1  0.130159  0.361821  0.213164  1
  W  W27  1  0.375804  0.724017  0.863951  1
  W  W28  1  0.254855  0.017842  0.019504  1
  W  W29  1  0.754855  0.482158  0.980496  1
  W  W30  1  0.624196  0.275983  0.136049  1
  W  W31  1  0.384158  0.233898  0.384524  1
  W  W32  1  0.747494  0.994310  0.487167  1
  W  W33  1  0.884158  0.266102  0.615476  1
  W  W34  1  0.247494  0.505690  0.512833  1
  W  W35  1  0.369841  0.861821  0.213164  1
  W  W36  1  0.887385  0.111103  0.250885  1
  W  W37  1  0.115842  0.733898  0.384524  1
  W  W38  1  0.112615  0.888897  0.749115  1
  W  W39  1  0.615842  0.766102  0.615476  1
  O  O40  1  0.567219  0.149152  0.689956  1
  O  O41  1  0.891417  0.214731  0.331731  1
  O  O42  1  0.190475  0.001086  0.409275  1
  O  O43  1  0.958259  0.551461  0.806426  1
  O  O44  1  0.622647  0.001372  0.065176  1
  O  O45  1  0.887116  0.994441  0.416146  1
  O  O46  1  0.797523  0.268300  0.095851  1
  O  O47  1  0.884584  0.919174  0.999656  1
  O  O48  1  0.076227  0.878497  0.851478  1
  O  O49  1  0.719616  0.064217  0.248033  1
  O  O50  1  0.702477  0.768300  0.095851  1
  O  O51  1  0.423773  0.378497  0.851478  1
  O  O52  1  0.780384  0.564217  0.248033  1
  O  O53  1  0.661378  0.925547  0.881538  1
  O  O54  1  0.395870  0.763442  0.126322  1
  O  O55  1  0.809525  0.998914  0.590725  1
  O  O56  1  0.192872  0.916283  0.024087  1
  O  O57  1  0.908391  0.685975  0.170017  1
  O  O58  1  0.591609  0.185975  0.170017  1
  O  O59  1  0.338622  0.074453  0.118462  1
  O  O60  1  0.458259  0.948539  0.193574  1
  O  O61  1  0.516194  0.456603  0.726971  1
  O  O62  1  0.501850  0.278845  0.055331  1
  O  O63  1  0.859027  0.586504  0.499060  1
  O  O64  1  0.064269  0.637561  0.302902  1
  O  O65  1  0.895870  0.736558  0.873678  1
  O  O66  1  0.498150  0.721155  0.944669  1
  O  O67  1  0.300861  0.733850  0.390834  1
  O  O68  1  0.435731  0.137561  0.302902  1
  O  O69  1  0.161378  0.574453  0.118462  1
  O  O70  1  0.883633  0.871404  0.228002  1
  O  O71  1  0.297523  0.231700  0.904149  1
  O  O72  1  0.541741  0.051461  0.806426  1
  O  O73  1  0.877353  0.501372  0.065176  1
  O  O74  1  0.187514  0.881225  0.224411  1
  O  O75  1  0.800861  0.766150  0.609166  1
  O  O76  1  0.116367  0.128596  0.771998  1
  O  O77  1  0.307128  0.416283  0.024087  1
  O  O78  1  0.041499  0.736298  0.484159  1
  O  O79  1  0.699139  0.266150  0.609166  1
  O  O80  1  0.001850  0.221155  0.944669  1
  O  O81  1  0.441759  0.327610  0.362560  1
  O  O82  1  0.604130  0.236558  0.873678  1
  O  O83  1  0.483806  0.543397  0.273029  1
  O  O84  1  0.432781  0.850848  0.310044  1
  O  O85  1  0.941759  0.172390  0.637440  1
  O  O86  1  0.615416  0.419174  0.999656  1
  O  O87  1  0.650487  0.897926  0.444702  1
  O  O88  1  0.016194  0.043397  0.273029  1
  O  O89  1  0.983806  0.956603  0.726971  1
  O  O90  1  0.541499  0.763702  0.515841  1
  O  O91  1  0.564269  0.862439  0.697098  1
  O  O92  1  0.608583  0.714731  0.331731  1
  O  O93  1  0.104130  0.263442  0.126322  1
  O  O94  1  0.384584  0.580826  0.000344  1
  O  O95  1  0.280384  0.935783  0.751967  1
  O  O96  1  0.616367  0.371404  0.228002  1
  O  O97  1  0.067219  0.350848  0.310044  1
  O  O98  1  0.576227  0.621503  0.148522  1
  O  O99  1  0.383633  0.628596  0.771998  1
  O  O100  1  0.687514  0.618775  0.775589  1
  O  O101  1  0.202477  0.731700  0.904149  1
  O  O102  1  0.041741  0.448539  0.193574  1
  O  O103  1  0.122647  0.498628  0.934824  1
  O  O104  1  0.309525  0.501086  0.409275  1
  O  O105  1  0.612884  0.494441  0.416146  1
  O  O106  1  0.312486  0.381225  0.224411  1
  O  O107  1  0.199139  0.233850  0.390834  1
  O  O108  1  0.935731  0.362439  0.697098  1
  O  O109  1  0.558241  0.672390  0.637440  1
  O  O110  1  0.998150  0.778845  0.055331  1
  O  O111  1  0.692872  0.583717  0.975913  1
  O  O112  1  0.391417  0.285269  0.668269  1
  O  O113  1  0.923773  0.121503  0.148522  1
  O  O114  1  0.458501  0.236298  0.484159  1
  O  O115  1  0.112884  0.005559  0.583854  1
  O  O116  1  0.108583  0.785269  0.668269  1
  O  O117  1  0.958501  0.263702  0.515841  1
  O  O118  1  0.849513  0.397926  0.444702  1
  O  O119  1  0.359027  0.913496  0.500940  1
  O  O120  1  0.349513  0.102074  0.555298  1
  O  O121  1  0.058241  0.827610  0.362560  1
  O  O122  1  0.690475  0.498914  0.590725  1
  O  O123  1  0.838622  0.425547  0.881538  1
  O  O124  1  0.387116  0.505559  0.583854  1
  O  O125  1  0.115416  0.080826  0.000344  1
  O  O126  1  0.807128  0.083717  0.975913  1
  O  O127  1  0.150487  0.602074  0.555298  1
  O  O128  1  0.219616  0.435783  0.751967  1
  O  O129  1  0.640973  0.086504  0.499060  1
  O  O130  1  0.377353  0.998628  0.934824  1
  O  O131  1  0.408391  0.814025  0.829983  1
  O  O132  1  0.091609  0.314025  0.829983  1
  O  O133  1  0.932781  0.649152  0.689956  1
  O  O134  1  0.140973  0.413496  0.500940  1
  O  O135  1  0.812486  0.118775  0.775589  1
