# generated using pymatgen
data_Al2NiCl8
_symmetry_space_group_name_H-M   'P 1'
_cell_length_a   7.82098197
_cell_length_b   9.40730747
_cell_length_c   9.69213676
_cell_angle_alpha   74.39557655
_cell_angle_beta   66.08511699
_cell_angle_gamma   65.47220619
_symmetry_Int_Tables_number   1
_chemical_formula_structural   Al2NiCl8
_chemical_formula_sum   'Al4 Ni2 Cl16'
_cell_volume   588.68387790
_cell_formula_units_Z   2
loop_
 _symmetry_equiv_pos_site_id
 _symmetry_equiv_pos_as_xyz
  1  'x, y, z'
loop_
 _atom_site_type_symbol
 _atom_site_label
 _atom_site_symmetry_multiplicity
 _atom_site_fract_x
 _atom_site_fract_y
 _atom_site_fract_z
 _atom_site_occupancy
  Al  Al0  1  0.332588  0.863816  0.966263  1
  Al  Al1  1  0.838110  0.362718  0.466275  1
  Al  Al2  1  0.159323  0.641554  0.530841  1
  Al  Al3  1  0.668510  0.138321  0.033395  1
  Ni  Ni4  1  0.001796  0.751285  0.249444  1
  Ni  Ni5  1  0.998064  0.250825  0.749484  1
  Cl  Cl6  1  0.315439  0.766354  0.551747  1
  Cl  Cl7  1  0.687065  0.948964  0.221694  1
  Cl  Cl8  1  0.151593  0.949248  0.187306  1
  Cl  Cl9  1  0.132315  0.211544  0.484488  1
  Cl  Cl10  1  0.850990  0.050756  0.812018  1
  Cl  Cl11  1  0.830527  0.287560  0.015453  1
  Cl  Cl12  1  0.865020  0.791003  0.514270  1
  Cl  Cl13  1  0.711739  0.450747  0.687419  1
  Cl  Cl14  1  0.172924  0.712490  0.982872  1
  Cl  Cl15  1  0.635166  0.741893  0.943367  1
  Cl  Cl16  1  0.143697  0.451469  0.718239  1
  Cl  Cl17  1  0.856011  0.551918  0.277840  1
  Cl  Cl18  1  0.366208  0.259004  0.055726  1
  Cl  Cl19  1  0.286524  0.552431  0.310785  1
  Cl  Cl20  1  0.681591  0.239197  0.444435  1
  Cl  Cl21  1  0.313816  0.054687  0.779927  1
