# generated using pymatgen
data_KAg3Te2
_symmetry_space_group_name_H-M   'P 1'
_cell_length_a   4.78522485
_cell_length_b   9.88336591
_cell_length_c   9.72640483
_cell_angle_alpha   115.54489833
_cell_angle_beta   90.00000000
_cell_angle_gamma   104.00961830
_symmetry_Int_Tables_number   1
_chemical_formula_structural   KAg3Te2
_chemical_formula_sum   'K2 Ag6 Te4'
_cell_volume   399.81696241
_cell_formula_units_Z   2
loop_
 _symmetry_equiv_pos_site_id
 _symmetry_equiv_pos_as_xyz
  1  'x, y, z'
loop_
 _atom_site_type_symbol
 _atom_site_label
 _atom_site_symmetry_multiplicity
 _atom_site_fract_x
 _atom_site_fract_y
 _atom_site_fract_z
 _atom_site_occupancy
  K  K0  1  0.399917  0.799834  0.982109  1
  K  K1  1  0.600083  0.200166  0.017891  1
  Ag  Ag2  1  0.711756  0.423511  0.403487  1
  Ag  Ag3  1  0.265786  0.531572  0.090365  1
  Ag  Ag4  1  0.577391  0.154782  0.620091  1
  Ag  Ag5  1  0.288244  0.576489  0.596513  1
  Ag  Ag6  1  0.422609  0.845218  0.379909  1
  Ag  Ag7  1  0.734214  0.468428  0.909635  1
  Te  Te8  1  0.557051  0.114101  0.317262  1
  Te  Te9  1  0.812507  0.625013  0.266501  1
  Te  Te10  1  0.442949  0.885899  0.682738  1
  Te  Te11  1  0.187493  0.374987  0.733499  1
