# generated using pymatgen
data_MnH9C4NO6
_symmetry_space_group_name_H-M   'P 1'
_cell_length_a   8.33339828
_cell_length_b   8.58373078
_cell_length_c   11.97872142
_cell_angle_alpha   90.05295700
_cell_angle_beta   90.04778586
_cell_angle_gamma   90.07676357
_symmetry_Int_Tables_number   1
_chemical_formula_structural   MnH9C4NO6
_chemical_formula_sum   'Mn4 H36 C16 N4 O24'
_cell_volume   856.85624211
_cell_formula_units_Z   4
loop_
 _symmetry_equiv_pos_site_id
 _symmetry_equiv_pos_as_xyz
  1  'x, y, z'
loop_
 _atom_site_type_symbol
 _atom_site_label
 _atom_site_symmetry_multiplicity
 _atom_site_fract_x
 _atom_site_fract_y
 _atom_site_fract_z
 _atom_site_occupancy
  Mn  Mn0  1  0.500054  0.499976  0.000044  1
  Mn  Mn1  1  0.499969  0.499923  0.500003  1
  Mn  Mn2  1  0.000024  -0.000007  -0.000003  1
  Mn  Mn3  1  0.999792  0.999896  0.499943  1
  H  H4  1  0.655380  0.085358  0.249914  1
  H  H5  1  0.487232  0.145378  0.679654  1
  H  H6  1  0.012887  0.644689  0.679560  1
  H  H7  1  0.522702  0.861315  0.824864  1
  H  H8  1  0.977121  0.361204  0.824808  1
  H  H9  1  0.486487  0.145579  0.820756  1
  H  H10  1  0.022880  0.638807  0.175195  1
  H  H11  1  0.282192  0.779203  0.037719  1
  H  H12  1  0.072406  0.000714  0.749360  1
  H  H13  1  0.778930  0.715065  0.962725  1
  H  H14  1  0.221071  0.284988  0.037298  1
  H  H15  1  0.987116  0.355314  0.320440  1
  H  H16  1  0.422780  0.499728  0.751201  1
  H  H17  1  0.022810  0.638855  0.324746  1
  H  H18  1  0.844869  0.585086  0.249833  1
  H  H19  1  0.522923  0.861795  0.675426  1
  H  H20  1  0.777792  0.720073  0.535240  1
  H  H21  1  0.717806  0.220889  0.962329  1
  H  H22  1  0.222174  0.279940  0.464743  1
  H  H23  1  0.278129  0.779950  0.464580  1
  H  H24  1  0.513524  0.854421  0.179244  1
  H  H25  1  0.477074  0.138210  0.324577  1
  H  H26  1  0.346280  0.911902  0.249449  1
  H  H27  1  0.155133  0.414922  0.750170  1
  H  H28  1  0.927612  0.999293  0.250610  1
  H  H29  1  0.977194  0.361154  0.675257  1
  H  H30  1  0.653718  0.088106  0.750558  1
  H  H31  1  0.577259  0.500285  0.248862  1
  H  H32  1  0.512761  0.854630  0.320344  1
  H  H33  1  0.013599  0.644679  0.821027  1
  H  H34  1  0.721885  0.220061  0.535423  1
  H  H35  1  0.477296  0.138689  0.175138  1
  H  H36  1  0.845485  0.587045  0.748556  1
  H  H37  1  0.344620  0.914651  0.750086  1
  H  H38  1  0.154517  0.412962  0.251449  1
  H  H39  1  0.986409  0.355326  0.178978  1
  C  C40  1  0.976099  0.580942  0.249920  1
  C  C41  1  0.023902  0.419070  0.750085  1
  C  C42  1  0.778284  0.287779  0.029859  1
  C  C43  1  0.475811  0.919310  0.750217  1
  C  C44  1  0.215796  0.715412  0.532133  1
  C  C45  1  0.284747  0.215880  0.532460  1
  C  C46  1  0.524190  0.080695  0.249786  1
  C  C47  1  0.059325  0.979682  0.249722  1
  C  C48  1  0.784212  0.284577  0.467857  1
  C  C49  1  0.713958  0.776999  0.030657  1
  C  C50  1  0.940682  0.020319  0.750218  1
  C  C51  1  0.554809  0.518790  0.754591  1
  C  C52  1  0.286082  0.223054  0.969375  1
  C  C53  1  0.445232  0.481231  0.245428  1
  C  C54  1  0.221785  0.712235  0.970167  1
  C  C55  1  0.715153  0.784055  0.467514  1
  N  N56  1  0.970298  0.584639  0.750139  1
  N  N57  1  0.529052  0.085206  0.750481  1
  N  N58  1  0.029707  0.415372  0.249864  1
  N  N59  1  0.470948  0.914802  0.249520  1
  O  O60  1  0.870092  0.031714  0.843647  1
  O  O61  1  0.912318  0.235810  0.065824  1
  O  O62  1  0.281421  0.595390  0.572178  1
  O  O63  1  0.129913  0.968325  0.156307  1
  O  O64  1  0.080728  0.768416  0.564707  1
  O  O65  1  0.377171  0.472480  0.151093  1
  O  O66  1  0.580101  0.720440  0.062834  1
  O  O67  1  0.420112  0.269112  0.564558  1
  O  O68  1  0.780755  0.903858  0.426819  1
  O  O69  1  0.132132  0.968098  0.342403  1
  O  O70  1  0.224835  0.101322  0.928252  1
  O  O71  1  0.369206  0.467577  0.336868  1
  O  O72  1  0.087729  0.764159  0.934171  1
  O  O73  1  0.775249  0.898752  0.071724  1
  O  O74  1  0.622849  0.527562  0.848928  1
  O  O75  1  0.630800  0.532407  0.663134  1
  O  O76  1  0.219083  0.096080  0.573093  1
  O  O77  1  0.919249  0.231535  0.435256  1
  O  O78  1  0.718602  0.404618  0.427828  1
  O  O79  1  0.419962  0.279585  0.937221  1
  O  O80  1  0.579807  0.730764  0.435468  1
  O  O81  1  0.711886  0.408990  0.067171  1
  O  O82  1  0.288164  0.591038  0.932857  1
  O  O83  1  0.867873  0.031865  0.657561  1
