# generated using pymatgen
data_BaBiO3
_symmetry_space_group_name_H-M   'P 1'
_cell_length_a   11.53369652
_cell_length_b   4.33178825
_cell_length_c   7.08134872
_cell_angle_alpha   118.65481164
_cell_angle_beta   140.29166830
_cell_angle_gamma   61.13594625
_symmetry_Int_Tables_number   1
_chemical_formula_structural   BaBiO3
_chemical_formula_sum   'Ba2 Bi2 O6'
_cell_volume   194.21786697
_cell_formula_units_Z   2
loop_
 _symmetry_equiv_pos_site_id
 _symmetry_equiv_pos_as_xyz
  1  'x, y, z'
loop_
 _atom_site_type_symbol
 _atom_site_label
 _atom_site_symmetry_multiplicity
 _atom_site_fract_x
 _atom_site_fract_y
 _atom_site_fract_z
 _atom_site_occupancy
  Ba  Ba0  1  0.338863  0.900551  0.077164  1
  Ba  Ba1  1  0.642548  -0.015973  -0.036333  1
  Bi  Bi2  1  0.103091  0.657657  0.279948  1
  Bi  Bi3  1  0.857832  -0.084930  0.670309  1
  O  O4  1  0.649325  0.683206  0.222311  1
  O  O5  1  0.521766  0.453640  0.450173  1
  O  O6  1  0.173468  0.187375  0.596036  1
  O  O7  1  0.284077  0.289323  0.606129  1
  O  O8  1  0.456375  0.436328  0.559605  1
  O  O9  1  0.972656  0.992821  0.574660  1
