# generated using pymatgen
data_Rb6Ta4S25
_symmetry_space_group_name_H-M   'P 1'
_cell_length_a   8.37332047
_cell_length_b   13.16524339
_cell_length_c   19.34203932
_cell_angle_alpha   99.05451299
_cell_angle_beta   102.56354122
_cell_angle_gamma   90.05577460
_symmetry_Int_Tables_number   1
_chemical_formula_structural   Rb6Ta4S25
_chemical_formula_sum   'Rb12 Ta8 S50'
_cell_volume   2053.84529508
_cell_formula_units_Z   2
loop_
 _symmetry_equiv_pos_site_id
 _symmetry_equiv_pos_as_xyz
  1  'x, y, z'
loop_
 _atom_site_type_symbol
 _atom_site_label
 _atom_site_symmetry_multiplicity
 _atom_site_fract_x
 _atom_site_fract_y
 _atom_site_fract_z
 _atom_site_occupancy
  Rb  Rb0  1  0.360966  0.265004  0.421658  1
  Rb  Rb1  1  0.280104  0.395054  0.931609  1
  Rb  Rb2  1  0.345992  0.104829  0.067706  1
  Rb  Rb3  1  0.902021  0.364954  0.248445  1
  Rb  Rb4  1  0.645849  0.736683  0.578220  1
  Rb  Rb5  1  0.653066  0.136396  0.750063  1
  Rb  Rb6  1  0.348292  0.865175  0.249711  1
  Rb  Rb7  1  0.653177  0.895333  0.930414  1
  Rb  Rb8  1  0.935694  0.237208  0.577697  1
  Rb  Rb9  1  0.098040  0.635400  0.750879  1
  Rb  Rb10  1  0.723632  0.605603  0.069734  1
  Rb  Rb11  1  0.063434  0.765882  0.421978  1
  Ta  Ta12  1  0.607785  0.558297  0.823985  1
  Ta  Ta13  1  0.128826  0.912807  0.644246  1
  Ta  Ta14  1  0.485163  0.588606  0.355905  1
  Ta  Ta15  1  0.872400  0.088621  0.355386  1
  Ta  Ta16  1  0.515491  0.413032  0.644549  1
  Ta  Ta17  1  0.783759  0.942843  0.176148  1
  Ta  Ta18  1  0.392957  0.442812  0.176260  1
  Ta  Ta19  1  0.215769  0.057209  0.823725  1
  S  S20  1  0.224501  0.457075  0.618066  1
  S  S21  1  0.883287  0.565264  0.909564  1
  S  S22  1  0.484778  0.755264  0.401599  1
  S  S23  1  0.229044  0.126092  0.714854  1
  S  S24  1  0.217164  0.563250  0.270771  1
  S  S25  1  0.385325  0.624431  0.155203  1
  S  S26  1  0.071235  0.201957  0.774128  1
  S  S27  1  0.917886  0.255493  0.400787  1
  S  S28  1  0.972969  0.936417  0.090406  1
  S  S29  1  0.783647  0.438141  0.729394  1
  S  S30  1  0.771934  0.486299  0.629743  1
  S  S31  1  0.772138  0.873639  0.285137  1
  S  S32  1  0.857333  0.986355  0.628824  1
  S  S33  1  0.339362  0.904531  0.762056  1
  S  S34  1  0.944490  0.937861  0.728601  1
  S  S35  1  0.607716  0.044226  0.381784  1
  S  S36  1  0.024904  0.063099  0.908745  1
  S  S37  1  0.514292  0.374495  0.285611  1
  S  S38  1  0.062181  0.787035  0.088257  1
  S  S39  1  0.228512  0.875548  0.844499  1
  S  S40  1  0.769106  0.124236  0.154951  1
  S  S41  1  0.660448  0.095296  0.237975  1
  S  S42  1  0.642085  0.508176  0.454599  1
  S  S43  1  0.939521  0.213496  0.911828  1
  S  S44  1  0.457598  0.630542  0.901107  1
  S  S45  1  0.615805  0.377051  0.845433  1
  S  S46  1  0.703018  0.702477  0.773670  1
  S  S47  1  0.027230  0.285457  0.088002  1
  S  S48  1  0.297966  0.297376  0.225487  1
  S  S49  1  0.357839  0.492521  0.545570  1
  S  S50  1  0.054834  0.063567  0.270581  1
  S  S51  1  0.775568  0.543568  0.381971  1
  S  S52  1  0.485546  0.625883  0.714505  1
  S  S53  1  0.554513  0.871489  0.099217  1
  S  S54  1  0.442652  0.129836  0.901170  1
  S  S55  1  0.228019  0.515894  0.370802  1
  S  S56  1  0.422685  0.405191  0.762438  1
  S  S57  1  0.837351  0.249376  0.999739  1
  S  S58  1  0.117194  0.435352  0.090272  1
  S  S59  1  0.188474  0.992796  0.545774  1
  S  S60  1  0.544061  0.372475  0.099333  1
  S  S61  1  0.162646  0.751784  0.999851  1
  S  S62  1  0.578163  0.595963  0.238238  1
  S  S63  1  0.971678  0.715514  0.912050  1
  S  S64  1  0.814704  0.009115  0.454475  1
  S  S65  1  0.144488  0.016654  0.370662  1
  S  S66  1  0.929431  0.798051  0.225379  1
  S  S67  1  0.081291  0.746539  0.598598  1
  S  S68  1  0.394384  0.956724  0.618518  1
  S  S69  1  0.516257  0.246325  0.599089  1
