# generated using pymatgen
data_Cs5GeAs3
_symmetry_space_group_name_H-M   'P 1'
_cell_length_a   6.12250766
_cell_length_b   14.91493261
_cell_length_c   16.31664772
_cell_angle_alpha   90.00000000
_cell_angle_beta   90.00000000
_cell_angle_gamma   90.00000000
_symmetry_Int_Tables_number   1
_chemical_formula_structural   Cs5GeAs3
_chemical_formula_sum   'Cs20 Ge4 As12'
_cell_volume   1489.98387953
_cell_formula_units_Z   4
loop_
 _symmetry_equiv_pos_site_id
 _symmetry_equiv_pos_as_xyz
  1  'x, y, z'
loop_
 _atom_site_type_symbol
 _atom_site_label
 _atom_site_symmetry_multiplicity
 _atom_site_fract_x
 _atom_site_fract_y
 _atom_site_fract_z
 _atom_site_occupancy
  Cs  Cs0  1  0.750000  0.645620  0.047523  1
  Cs  Cs1  1  0.250000  0.277912  0.206035  1
  Cs  Cs2  1  0.250000  0.551004  0.154592  1
  Cs  Cs3  1  0.250000  0.564693  0.449224  1
  Cs  Cs4  1  0.750000  0.448996  0.845408  1
  Cs  Cs5  1  0.250000  0.119106  0.813874  1
  Cs  Cs6  1  0.750000  0.935307  0.949224  1
  Cs  Cs7  1  0.750000  0.145620  0.452477  1
  Cs  Cs8  1  0.250000  0.064693  0.050776  1
  Cs  Cs9  1  0.250000  0.854380  0.547523  1
  Cs  Cs10  1  0.250000  0.051004  0.345408  1
  Cs  Cs11  1  0.750000  0.722088  0.793965  1
  Cs  Cs12  1  0.750000  0.380894  0.313874  1
  Cs  Cs13  1  0.750000  0.948996  0.654592  1
  Cs  Cs14  1  0.250000  0.354380  0.952477  1
  Cs  Cs15  1  0.250000  0.777912  0.293965  1
  Cs  Cs16  1  0.750000  0.880894  0.186126  1
  Cs  Cs17  1  0.250000  0.619106  0.686126  1
  Cs  Cs18  1  0.750000  0.435307  0.550776  1
  Cs  Cs19  1  0.750000  0.222088  0.706035  1
  Ge  Ge20  1  0.250000  0.260821  0.568506  1
  Ge  Ge21  1  0.750000  0.739179  0.431494  1
  Ge  Ge22  1  0.750000  0.239179  0.068506  1
  Ge  Ge23  1  0.250000  0.760821  0.931494  1
  As  As24  1  0.750000  0.898765  0.411459  1
  As  As25  1  0.750000  0.134026  0.181327  1
  As  As26  1  0.250000  0.101235  0.588541  1
  As  As27  1  0.250000  0.601235  0.911459  1
  As  As28  1  0.250000  0.310009  0.428326  1
  As  As29  1  0.250000  0.365974  0.681326  1
  As  As30  1  0.750000  0.689991  0.571674  1
  As  As31  1  0.750000  0.398765  0.088541  1
  As  As32  1  0.750000  0.634026  0.318673  1
  As  As33  1  0.250000  0.810009  0.071674  1
  As  As34  1  0.250000  0.865974  0.818674  1
  As  As35  1  0.750000  0.189991  0.928326  1
