# generated using pymatgen
data_KH2Au(Cl2O)2
_symmetry_space_group_name_H-M   'P 1'
_cell_length_a   12.30692221
_cell_length_b   9.41401527
_cell_length_c   7.39974398
_cell_angle_alpha   90.00000000
_cell_angle_beta   90.00000000
_cell_angle_gamma   90.00000000
_symmetry_Int_Tables_number   1
_chemical_formula_structural   KH2Au(Cl2O)2
_chemical_formula_sum   'K4 H8 Au4 Cl16 O8'
_cell_volume   857.31623488
_cell_formula_units_Z   4
loop_
 _symmetry_equiv_pos_site_id
 _symmetry_equiv_pos_as_xyz
  1  'x, y, z'
loop_
 _atom_site_type_symbol
 _atom_site_label
 _atom_site_symmetry_multiplicity
 _atom_site_fract_x
 _atom_site_fract_y
 _atom_site_fract_z
 _atom_site_occupancy
  K  K0  1  0.500000  0.885938  0.750000  1
  K  K1  1  0.000000  0.614062  0.250000  1
  K  K2  1  0.500000  0.114062  0.250000  1
  K  K3  1  0.000000  0.385938  0.750000  1
  H  H4  1  0.218568  0.540188  0.959533  1
  H  H5  1  0.281432  0.959812  0.459533  1
  H  H6  1  0.718568  0.959812  0.040467  1
  H  H7  1  0.781432  0.540188  0.540467  1
  H  H8  1  0.781432  0.459812  0.040467  1
  H  H9  1  0.718568  0.040188  0.540467  1
  H  H10  1  0.281432  0.040188  0.959533  1
  H  H11  1  0.218568  0.459812  0.459533  1
  Au  Au12  1  0.000000  0.917545  0.750000  1
  Au  Au13  1  0.500000  0.582455  0.250000  1
  Au  Au14  1  0.000000  0.082455  0.250000  1
  Au  Au15  1  0.500000  0.417545  0.750000  1
  Cl  Cl16  1  0.375802  0.589715  0.666455  1
  Cl  Cl17  1  0.124198  0.910285  0.166455  1
  Cl  Cl18  1  0.875802  0.910285  0.333545  1
  Cl  Cl19  1  0.624198  0.589715  0.833545  1
  Cl  Cl20  1  0.624198  0.410285  0.333545  1
  Cl  Cl21  1  0.875802  0.089715  0.833545  1
  Cl  Cl22  1  0.124198  0.089715  0.666455  1
  Cl  Cl23  1  0.375802  0.410285  0.166455  1
  Cl  Cl24  1  0.126675  0.744099  0.672757  1
  Cl  Cl25  1  0.373325  0.755901  0.172757  1
  Cl  Cl26  1  0.626675  0.755901  0.327243  1
  Cl  Cl27  1  0.873325  0.744099  0.827243  1
  Cl  Cl28  1  0.873325  0.255901  0.327243  1
  Cl  Cl29  1  0.626675  0.244099  0.827243  1
  Cl  Cl30  1  0.373325  0.244099  0.672757  1
  Cl  Cl31  1  0.126675  0.255901  0.172757  1
  O  O32  1  0.138651  0.538041  0.957152  1
  O  O33  1  0.361349  0.961959  0.457152  1
  O  O34  1  0.638651  0.961959  0.042848  1
  O  O35  1  0.861349  0.538041  0.542848  1
  O  O36  1  0.861349  0.461959  0.042848  1
  O  O37  1  0.638651  0.038041  0.542848  1
  O  O38  1  0.361349  0.038041  0.957152  1
  O  O39  1  0.138651  0.461959  0.457152  1
