# generated using pymatgen
data_Cr4Cu3Te8
_symmetry_space_group_name_H-M   'P 1'
_cell_length_a   8.01226566
_cell_length_b   8.01226565
_cell_length_c   8.02751487
_cell_angle_alpha   59.93701733
_cell_angle_beta   59.93701737
_cell_angle_gamma   59.95752680
_symmetry_Int_Tables_number   1
_chemical_formula_structural   Cr4Cu3Te8
_chemical_formula_sum   'Cr4 Cu3 Te8'
_cell_volume   363.93462043
_cell_formula_units_Z   1
loop_
 _symmetry_equiv_pos_site_id
 _symmetry_equiv_pos_as_xyz
  1  'x, y, z'
loop_
 _atom_site_type_symbol
 _atom_site_label
 _atom_site_symmetry_multiplicity
 _atom_site_fract_x
 _atom_site_fract_y
 _atom_site_fract_z
 _atom_site_occupancy
  Cr  Cr0  1  0.488370  0.001589  0.505020  1
  Cr  Cr1  1  0.496225  0.496225  0.996659  1
  Cr  Cr2  1  0.496225  0.496225  0.510891  1
  Cr  Cr3  1  0.001589  0.488370  0.505020  1
  Cu  Cu4  1  0.124878  0.124878  0.125122  1
  Cu  Cu5  1  0.889258  0.889258  0.360742  1
  Cu  Cu6  1  0.875643  0.875643  0.874357  1
  Te  Te7  1  0.256815  0.256815  0.257734  1
  Te  Te8  1  0.274785  0.722390  0.251412  1
  Te  Te9  1  0.256815  0.256815  0.728637  1
  Te  Te10  1  0.722390  0.274785  0.251412  1
  Te  Te11  1  0.271056  0.742116  0.743414  1
  Te  Te12  1  0.742116  0.271056  0.743414  1
  Te  Te13  1  0.738017  0.738017  0.268569  1
  Te  Te14  1  0.738017  0.738017  0.755397  1
