# generated using pymatgen
data_K15Nd7Zr9(PO4)24
_symmetry_space_group_name_H-M   'P 1'
_cell_length_a   10.63052117
_cell_length_b   10.59529626
_cell_length_c   21.19340676
_cell_angle_alpha   89.96372966
_cell_angle_beta   90.07018700
_cell_angle_gamma   89.40242559
_symmetry_Int_Tables_number   1
_chemical_formula_structural   K15Nd7Zr9(PO4)24
_chemical_formula_sum   'K15 Nd7 Zr9 P24 O96'
_cell_volume   2386.95591171
_cell_formula_units_Z   1
loop_
 _symmetry_equiv_pos_site_id
 _symmetry_equiv_pos_as_xyz
  1  'x, y, z'
loop_
 _atom_site_type_symbol
 _atom_site_label
 _atom_site_symmetry_multiplicity
 _atom_site_fract_x
 _atom_site_fract_y
 _atom_site_fract_z
 _atom_site_occupancy
  K  K0  1  0.069199  0.427775  0.285604  1
  K  K1  1  0.062808  0.433394  0.783518  1
  K  K2  1  0.202431  0.798789  0.149829  1
  K  K3  1  0.201485  0.798957  0.648861  1
  K  K4  1  0.297868  0.202165  0.899496  1
  K  K5  1  0.437344  0.566482  0.033668  1
  K  K6  1  0.433347  0.568213  0.534103  1
  K  K7  1  0.573105  0.068268  0.216816  1
  K  K8  1  0.574785  0.069157  0.716682  1
  K  K9  1  0.701846  0.699982  0.851742  1
  K  K10  1  0.701360  0.703080  0.350560  1
  K  K11  1  0.799581  0.298267  0.601881  1
  K  K12  1  0.798107  0.297929  0.100971  1
  K  K13  1  0.928915  0.931814  0.466033  1
  K  K14  1  0.925457  0.930979  0.966922  1
  Nd  Nd15  1  0.581122  0.915092  0.541636  1
  Nd  Nd16  1  0.580040  0.917241  0.042686  1
  Nd  Nd17  1  0.648436  0.342474  0.923592  1
  Nd  Nd18  1  0.851085  0.656403  0.672428  1
  Nd  Nd19  1  0.851031  0.655208  0.175135  1
  Nd  Nd20  1  0.922871  0.081591  0.292430  1
  Nd  Nd21  1  0.920361  0.082553  0.792174  1
  Zr  Zr22  1  0.087883  0.580071  0.458887  1
  Zr  Zr23  1  0.084851  0.582623  0.959612  1
  Zr  Zr24  1  0.151428  0.144891  0.073830  1
  Zr  Zr25  1  0.150452  0.147834  0.570035  1
  Zr  Zr26  1  0.350380  0.860666  0.324808  1
  Zr  Zr27  1  0.348385  0.854801  0.823362  1
  Zr  Zr28  1  0.414405  0.416064  0.210216  1
  Zr  Zr29  1  0.416219  0.416465  0.708382  1
  Zr  Zr30  1  0.638976  0.350288  0.425873  1
  P  P31  1  0.043506  0.759994  0.318480  1
  P  P32  1  0.040326  0.759906  0.817930  1
  P  P33  1  0.132401  0.460325  0.115664  1
  P  P34  1  0.133294  0.460297  0.615355  1
  P  P35  1  0.242312  0.128765  0.230209  1
  P  P36  1  0.242277  0.129224  0.729110  1
  P  P37  1  0.256567  0.869240  0.480881  1
  P  P38  1  0.257591  0.870669  0.980613  1
  P  P39  1  0.367157  0.539086  0.864906  1
  P  P40  1  0.374582  0.539345  0.366771  1
  P  P41  1  0.459278  0.240042  0.068463  1
  P  P42  1  0.462288  0.242624  0.564959  1
  P  P43  1  0.525844  0.731731  0.693052  1
  P  P44  1  0.525246  0.731852  0.193806  1
  P  P45  1  0.622768  0.036152  0.380582  1
  P  P46  1  0.616425  0.027539  0.878469  1
  P  P47  1  0.725439  0.374663  0.269229  1
  P  P48  1  0.729251  0.379156  0.763928  1
  P  P49  1  0.770857  0.620483  0.014486  1
  P  P50  1  0.768736  0.613008  0.512072  1
  P  P51  1  0.885038  0.972313  0.628186  1
  P  P52  1  0.883072  0.971817  0.128794  1
  P  P53  1  0.961571  0.272094  0.441113  1
  P  P54  1  0.974476  0.268140  0.943136  1
  O  O55  1  0.012049  0.408116  0.431436  1
  O  O56  1  0.015233  0.407381  0.932491  1
  O  O57  1  0.031219  0.538867  0.148713  1
  O  O58  1  0.032899  0.539688  0.648552  1
  O  O59  1  0.036156  0.669523  0.376339  1
  O  O60  1  0.031289  0.671397  0.876206  1
  O  O61  1  0.037761  0.209348  0.495814  1
  O  O62  1  0.067521  0.207543  0.991515  1
  O  O63  1  0.091118  0.319653  0.112801  1
  O  O64  1  0.092323  0.319845  0.612632  1
  O  O65  1  0.111988  0.166070  0.254027  1
  O  O66  1  0.113119  0.167029  0.755033  1
  O  O67  1  0.157185  0.511181  0.047528  1
  O  O68  1  0.157246  0.511081  0.547289  1
  O  O69  1  0.182777  0.770692  0.295870  1
  O  O70  1  0.179846  0.769019  0.795026  1
  O  O71  1  0.166567  0.755076  0.487959  1
  O  O72  1  0.167663  0.756519  0.986065  1
  O  O73  1  0.199245  0.978973  0.021514  1
  O  O74  1  0.197719  0.979941  0.520387  1
  O  O75  1  0.234836  0.083427  0.159888  1
  O  O76  1  0.234064  0.084642  0.659022  1
  O  O77  1  0.255170  0.471598  0.155257  1
  O  O78  1  0.256658  0.470662  0.654360  1
  O  O79  1  0.254785  0.528247  0.408141  1
  O  O80  1  0.244049  0.528578  0.904091  1
  O  O81  1  0.263494  0.908476  0.410458  1
  O  O82  1  0.264615  0.916508  0.910516  1
  O  O83  1  0.300901  0.021126  0.770568  1
  O  O84  1  0.300084  0.017897  0.269207  1
  O  O85  1  0.333508  0.243041  0.734132  1
  O  O86  1  0.332473  0.242642  0.234572  1
  O  O87  1  0.319856  0.231372  0.045317  1
  O  O88  1  0.321520  0.234041  0.545024  1
  O  O89  1  0.349665  0.487076  0.299363  1
  O  O90  1  0.343724  0.488797  0.796457  1
  O  O91  1  0.387748  0.833335  0.005259  1
  O  O92  1  0.386717  0.833226  0.506417  1
  O  O93  1  0.408456  0.680061  0.862505  1
  O  O94  1  0.415787  0.679911  0.363311  1
  O  O95  1  0.435046  0.792923  0.243330  1
  O  O96  1  0.432993  0.792550  0.741389  1
  O  O97  1  0.469183  0.328948  0.126571  1
  O  O98  1  0.475687  0.334042  0.622018  1
  O  O99  1  0.467245  0.459610  0.898362  1
  O  O100  1  0.480584  0.460795  0.399292  1
  O  O101  1  0.484000  0.592632  0.183145  1
  O  O102  1  0.484731  0.592777  0.682246  1
  O  O103  1  0.507441  0.108024  0.086944  1
  O  O104  1  0.513190  0.111724  0.582940  1
  O  O105  1  0.509050  0.959746  0.353558  1
  O  O106  1  0.514306  0.934154  0.852601  1
  O  O107  1  0.508295  0.805761  0.131865  1
  O  O108  1  0.510210  0.805677  0.631039  1
  O  O109  1  0.537325  0.301099  0.015982  1
  O  O110  1  0.541150  0.302315  0.510494  1
  O  O111  1  0.587881  0.179836  0.383977  1
  O  O112  1  0.559530  0.162200  0.876218  1
  O  O113  1  0.587454  0.356414  0.245429  1
  O  O114  1  0.587866  0.358792  0.744261  1
  O  O115  1  0.655960  0.988822  0.446861  1
  O  O116  1  0.652170  0.990972  0.946340  1
  O  O117  1  0.661328  0.736999  0.718075  1
  O  O118  1  0.661054  0.737594  0.218468  1
  O  O119  1  0.701703  0.748295  0.009290  1
  O  O120  1  0.693399  0.736843  0.504487  1
  O  O121  1  0.706840  0.515217  0.467032  1
  O  O122  1  0.708402  0.529038  0.968315  1
  O  O123  1  0.719826  0.410916  0.340809  1
  O  O124  1  0.733296  0.431229  0.831775  1
  O  O125  1  0.732694  0.013763  0.335256  1
  O  O126  1  0.731374  0.013443  0.835067  1
  O  O127  1  0.768460  0.986540  0.085100  1
  O  O128  1  0.770013  0.984967  0.584340  1
  O  O129  1  0.766562  0.568157  0.082551  1
  O  O130  1  0.764552  0.563439  0.580323  1
  O  O131  1  0.789359  0.480533  0.232580  1
  O  O132  1  0.791289  0.470850  0.717751  1
  O  O133  1  0.799235  0.251628  0.259295  1
  O  O134  1  0.798241  0.251317  0.758699  1
  O  O135  1  0.819163  0.276960  0.459397  1
  O  O136  1  0.839331  0.262363  0.968472  1
  O  O137  1  0.847230  0.009936  0.196359  1
  O  O138  1  0.848085  0.009601  0.695795  1
  O  O139  1  0.908443  0.634588  0.492055  1
  O  O140  1  0.912233  0.640530  0.994979  1
  O  O141  1  0.940548  0.836929  0.626285  1
  O  O142  1  0.938440  0.836405  0.127466  1
  O  O143  1  0.965175  0.699131  0.266178  1
  O  O144  1  0.962276  0.699034  0.765313  1
  O  O145  1  0.980918  0.194654  0.381450  1
  O  O146  1  0.990352  0.194457  0.881145  1
  O  O147  1  0.985493  0.064415  0.102630  1
  O  O148  1  0.987638  0.064896  0.602980  1
  O  O149  1  0.992125  0.890317  0.337677  1
  O  O150  1  0.992459  0.891885  0.836576  1
