# generated using pymatgen
data_Sr4Nb2O9
_symmetry_space_group_name_H-M   'P 1'
_cell_length_a   5.98353574
_cell_length_b   6.11607071
_cell_length_c   19.90197424
_cell_angle_alpha   55.64949105
_cell_angle_beta   59.45569540
_cell_angle_gamma   59.74339413
_symmetry_Int_Tables_number   1
_chemical_formula_structural   Sr4Nb2O9
_chemical_formula_sum   'Sr8 Nb4 O18'
_cell_volume   493.13453059
_cell_formula_units_Z   2
loop_
 _symmetry_equiv_pos_site_id
 _symmetry_equiv_pos_as_xyz
  1  'x, y, z'
loop_
 _atom_site_type_symbol
 _atom_site_label
 _atom_site_symmetry_multiplicity
 _atom_site_fract_x
 _atom_site_fract_y
 _atom_site_fract_z
 _atom_site_occupancy
  Sr  Sr0  1  0.289217  0.284691  0.047631  1
  Sr  Sr1  1  0.498124  0.438331  0.182944  1
  Sr  Sr2  1  0.278176  0.280584  0.430872  1
  Sr  Sr3  1  0.160013  0.277264  0.798230  1
  Sr  Sr4  1  0.794002  0.728338  0.227521  1
  Sr  Sr5  1  0.735456  0.846243  0.590173  1
  Sr  Sr6  1  0.463731  0.565732  0.831557  1
  Sr  Sr7  1  0.688816  0.739976  0.950200  1
  Nb  Nb8  1  0.961792  0.001237  0.009364  1
  Nb  Nb9  1  0.996235  0.970942  0.296946  1
  Nb  Nb10  1  0.915623  0.087469  0.691138  1
  Nb  Nb11  1  0.544571  0.542753  0.502606  1
  O  O12  1  0.157282  0.703520  0.093197  1
  O  O13  1  0.315985  0.012679  0.277683  1
  O  O14  1  0.717655  0.238881  0.073522  1
  O  O15  1  0.098009  0.602705  0.304724  1
  O  O16  1  0.202924  0.202861  0.594561  1
  O  O17  1  0.671171  0.824439  0.062687  1
  O  O18  1  0.975173  0.105691  0.187146  1
  O  O19  1  0.678129  0.290483  0.306246  1
  O  O20  1  0.642196  0.318800  0.451695  1
  O  O21  1  0.203171  0.821646  0.504355  1
  O  O22  1  0.262949  0.191734  0.934160  1
  O  O23  1  0.654864  0.289342  0.601377  1
  O  O24  1  0.794504  0.754160  0.436453  1
  O  O25  1  0.618589  0.381197  0.723985  1
  O  O26  1  0.060106  0.929479  0.780336  1
  O  O27  1  0.172498  0.796450  0.929492  1
  O  O28  1  0.867947  0.761978  0.712398  1
  O  O29  1  0.760692  0.338993  0.915136  1
