# generated using pymatgen
data_BaLa7Mg5Nb3O24
_symmetry_space_group_name_H-M   'P 1'
_cell_length_a   5.71796632
_cell_length_b   11.44500055
_cell_length_c   15.11428271
_cell_angle_alpha   40.82117946
_cell_angle_beta   55.34954451
_cell_angle_gamma   59.99028235
_symmetry_Int_Tables_number   1
_chemical_formula_structural   BaLa7Mg5Nb3O24
_chemical_formula_sum   'Ba1 La7 Mg5 Nb3 O24'
_cell_volume   527.39159832
_cell_formula_units_Z   1
loop_
 _symmetry_equiv_pos_site_id
 _symmetry_equiv_pos_as_xyz
  1  'x, y, z'
loop_
 _atom_site_type_symbol
 _atom_site_label
 _atom_site_symmetry_multiplicity
 _atom_site_fract_x
 _atom_site_fract_y
 _atom_site_fract_z
 _atom_site_occupancy
  Ba  Ba0  1  0.740908  0.192267  0.375592  1
  La  La1  1  0.275994  0.080382  0.095056  1
  La  La2  1  0.257505  0.556367  0.120976  1
  La  La3  1  0.239465  0.312693  0.636055  1
  La  La4  1  0.271979  0.778668  0.634354  1
  La  La5  1  0.731360  0.657463  0.405643  1
  La  La6  1  0.750006  0.433081  0.873401  1
  La  La7  1  0.752148  0.968425  0.857980  1
  Mg  Mg8  1  0.002803  0.998492  0.000762  1
  Mg  Mg9  1  0.000437  0.499645  0.999235  1
  Mg  Mg10  1  0.502073  0.375063  0.749116  1
  Mg  Mg11  1  0.002655  0.250022  0.499536  1
  Mg  Mg12  1  0.005199  0.751419  0.496551  1
  Nb  Nb13  1  0.496994  0.117975  0.252474  1
  Nb  Nb14  1  0.505327  0.631765  0.246915  1
  Nb  Nb15  1  0.502202  0.872113  0.752612  1
  O  O16  1  0.297384  0.347811  0.103869  1
  O  O17  1  0.674672  0.037967  0.144484  1
  O  O18  1  0.290955  0.233145  0.340278  1
  O  O19  1  0.840561  0.262212  0.119014  1
  O  O20  1  0.192609  0.468173  0.395005  1
  O  O21  1  0.256569  0.081365  0.629900  1
  O  O22  1  0.271692  0.844558  0.117313  1
  O  O23  1  0.663240  0.545682  0.141601  1
  O  O24  1  0.327582  0.728154  0.343677  1
  O  O25  1  0.838482  0.004430  0.628245  1
  O  O26  1  0.745768  0.437519  0.372953  1
  O  O27  1  0.838995  0.774578  0.109130  1
  O  O28  1  0.286760  0.599413  0.604946  1
  O  O29  1  0.190989  0.971312  0.379245  1
  O  O30  1  0.164079  0.224807  0.885139  1
  O  O31  1  0.672842  0.287715  0.639251  1
  O  O32  1  0.321335  0.473783  0.851351  1
  O  O33  1  0.842108  0.527585  0.610313  1
  O  O34  1  0.699574  0.908278  0.396678  1
  O  O35  1  0.732888  0.152629  0.884878  1
  O  O36  1  0.160190  0.731827  0.889569  1
  O  O37  1  0.674540  0.776340  0.654538  1
  O  O38  1  0.338255  0.961083  0.855549  1
  O  O39  1  0.709358  0.646125  0.893438  1
