# generated using pymatgen
data_Ca16HN8
_symmetry_space_group_name_H-M   'P 1'
_cell_length_a   7.29611624
_cell_length_b   29.30103075
_cell_length_c   12.67008422
_cell_angle_alpha   30.13764745
_cell_angle_beta   54.84055010
_cell_angle_gamma   60.13151012
_symmetry_Int_Tables_number   1
_chemical_formula_structural   Ca16HN8
_chemical_formula_sum   'Ca32 H2 N16'
_cell_volume   1111.83928929
_cell_formula_units_Z   2
loop_
 _symmetry_equiv_pos_site_id
 _symmetry_equiv_pos_as_xyz
  1  'x, y, z'
loop_
 _atom_site_type_symbol
 _atom_site_label
 _atom_site_symmetry_multiplicity
 _atom_site_fract_x
 _atom_site_fract_y
 _atom_site_fract_z
 _atom_site_occupancy
  Ca  Ca0  1  0.265254  0.999769  0.265170  1
  Ca  Ca1  1  0.260623  0.111027  0.267322  1
  Ca  Ca2  1  0.705330  0.999769  0.265170  1
  Ca  Ca3  1  0.260968  0.248361  0.267122  1
  Ca  Ca4  1  0.289795  0.001782  0.732137  1
  Ca  Ca5  1  0.735406  0.109971  0.294652  1
  Ca  Ca6  1  0.265612  0.359828  0.264731  1
  Ca  Ca7  1  0.264801  0.139972  0.705256  1
  Ca  Ca8  1  0.738804  0.001782  0.732137  1
  Ca  Ca9  1  0.711344  0.248361  0.267122  1
  Ca  Ca10  1  0.261196  0.501782  0.260737  1
  Ca  Ca11  1  0.294693  0.250262  0.734684  1
  Ca  Ca12  1  0.739025  0.139383  0.732210  1
  Ca  Ca13  1  0.734617  0.360607  0.294170  1
  Ca  Ca14  1  0.264594  0.609971  0.265463  1
  Ca  Ca15  1  0.265768  0.390685  0.702863  1
  Ca  Ca16  1  0.710205  0.501782  0.260737  1
  Ca  Ca17  1  0.734890  0.250262  0.734684  1
  Ca  Ca18  1  0.265110  0.750262  0.264267  1
  Ca  Ca19  1  0.294670  0.499769  0.735753  1
  Ca  Ca20  1  0.739377  0.611027  0.288569  1
  Ca  Ca21  1  0.734680  0.389555  0.736210  1
  Ca  Ca22  1  0.265383  0.860607  0.263403  1
  Ca  Ca23  1  0.260975  0.639383  0.710260  1
  Ca  Ca24  1  0.734746  0.499769  0.735753  1
  Ca  Ca25  1  0.705307  0.750262  0.264267  1
  Ca  Ca26  1  0.288656  0.748361  0.739434  1
  Ca  Ca27  1  0.734388  0.859828  0.295956  1
  Ca  Ca28  1  0.735199  0.639972  0.734858  1
  Ca  Ca29  1  0.265320  0.889555  0.705571  1
  Ca  Ca30  1  0.739032  0.748361  0.739434  1
  Ca  Ca31  1  0.734232  0.890685  0.734399  1
  H  H32  1  0.014344  0.139369  0.456917  1
  H  H33  1  0.985656  0.639369  0.985607  1
  N  N34  1  0.500334  0.125191  0.999284  1
  N  N35  1  0.500749  0.375005  0.999240  1
  N  N36  1  0.500004  0.124920  0.500157  1
  N  N37  1  0.500600  0.249390  0.500857  1
  N  N38  1  0.999566  0.000600  0.499315  1
  N  N39  1  0.499996  0.624920  0.000164  1
  N  N40  1  0.500436  0.375491  0.498581  1
  N  N41  1  0.500598  0.500600  0.498283  1
  N  N42  1  0.000126  0.249390  0.500857  1
  N  N43  1  0.499564  0.875491  0.999454  1
  N  N44  1  0.499666  0.625191  0.499951  1
  N  N45  1  0.499400  0.749390  0.501583  1
  N  N46  1  0.000434  0.500600  0.498283  1
  N  N47  1  0.499251  0.875005  0.500739  1
  N  N48  1  0.999874  0.749390  0.501583  1
  N  N49  1  0.499402  0.000600  0.499315  1
