# generated using pymatgen
data_Te3As2(SF4)3
_symmetry_space_group_name_H-M   'P 1'
_cell_length_a   8.54420470
_cell_length_b   12.04556946
_cell_length_c   15.54802421
_cell_angle_alpha   90.00000000
_cell_angle_beta   90.99476354
_cell_angle_gamma   90.00000000
_symmetry_Int_Tables_number   1
_chemical_formula_structural   Te3As2(SF4)3
_chemical_formula_sum   'Te12 As8 S12 F48'
_cell_volume   1599.95854328
_cell_formula_units_Z   4
loop_
 _symmetry_equiv_pos_site_id
 _symmetry_equiv_pos_as_xyz
  1  'x, y, z'
loop_
 _atom_site_type_symbol
 _atom_site_label
 _atom_site_symmetry_multiplicity
 _atom_site_fract_x
 _atom_site_fract_y
 _atom_site_fract_z
 _atom_site_occupancy
  Te  Te0  1  0.196170  0.851933  0.533208  1
  Te  Te1  1  0.410535  0.234491  0.819851  1
  Te  Te2  1  0.910535  0.265509  0.319851  1
  Te  Te3  1  0.803830  0.148067  0.466792  1
  Te  Te4  1  0.893675  0.693921  0.169907  1
  Te  Te5  1  0.393675  0.806079  0.669907  1
  Te  Te6  1  0.106325  0.306079  0.830093  1
  Te  Te7  1  0.696170  0.648067  0.033208  1
  Te  Te8  1  0.589465  0.765509  0.180149  1
  Te  Te9  1  0.089465  0.734491  0.680149  1
  Te  Te10  1  0.303830  0.351933  0.966792  1
  Te  Te11  1  0.606325  0.193921  0.330093  1
  As  As12  1  0.690807  0.525344  0.772807  1
  As  As13  1  0.729470  0.797405  0.437261  1
  As  As14  1  0.770530  0.297405  0.062739  1
  As  As15  1  0.229470  0.702595  0.937261  1
  As  As16  1  0.270530  0.202595  0.562739  1
  As  As17  1  0.309193  0.474656  0.227193  1
  As  As18  1  0.190807  0.974656  0.272807  1
  As  As19  1  0.809193  0.025344  0.727193  1
  S  S20  1  0.176564  0.079713  0.954978  1
  S  S21  1  0.374278  0.048867  0.888288  1
  S  S22  1  0.125722  0.548867  0.611712  1
  S  S23  1  0.735524  0.822104  0.949758  1
  S  S24  1  0.235524  0.677896  0.449758  1
  S  S25  1  0.676564  0.420287  0.454978  1
  S  S26  1  0.764476  0.322104  0.550242  1
  S  S27  1  0.823436  0.920287  0.045022  1
  S  S28  1  0.625722  0.951133  0.111712  1
  S  S29  1  0.323436  0.579713  0.545022  1
  S  S30  1  0.874278  0.451133  0.388288  1
  S  S31  1  0.264476  0.177896  0.050242  1
  F  F32  1  0.751336  0.883590  0.733993  1
  F  F33  1  0.135050  0.832767  0.278270  1
  F  F34  1  0.196580  0.616060  0.845162  1
  F  F35  1  0.079187  0.004616  0.365260  1
  F  F36  1  0.854650  0.553362  0.841261  1
  F  F37  1  0.766859  0.714650  0.529018  1
  F  F38  1  0.474563  0.504503  0.293581  1
  F  F39  1  0.918772  0.370115  0.006762  1
  F  F40  1  0.233141  0.285350  0.470982  1
  F  F41  1  0.635050  0.667233  0.778270  1
  F  F42  1  0.266859  0.785350  0.029018  1
  F  F43  1  0.119439  0.271317  0.619409  1
  F  F44  1  0.694702  0.056773  0.819054  1
  F  F45  1  0.870605  0.896466  0.475637  1
  F  F46  1  0.581228  0.870115  0.493238  1
  F  F47  1  0.591558  0.700885  0.397043  1
  F  F48  1  0.145350  0.446638  0.158739  1
  F  F49  1  0.305298  0.943227  0.180946  1
  F  F50  1  0.303420  0.116060  0.654838  1
  F  F51  1  0.629395  0.396466  0.024363  1
  F  F52  1  0.920813  0.995384  0.634740  1
  F  F53  1  0.248664  0.116410  0.266007  1
  F  F54  1  0.748664  0.383590  0.766007  1
  F  F55  1  0.370605  0.603534  0.975637  1
  F  F56  1  0.025437  0.004503  0.206419  1
  F  F57  1  0.129395  0.103534  0.524363  1
  F  F58  1  0.579187  0.495384  0.865260  1
  F  F59  1  0.251336  0.616410  0.233993  1
  F  F60  1  0.880561  0.728683  0.380592  1
  F  F61  1  0.805298  0.556773  0.680946  1
  F  F62  1  0.974563  0.995497  0.793581  1
  F  F63  1  0.354650  0.946638  0.341261  1
  F  F64  1  0.194702  0.443227  0.319054  1
  F  F65  1  0.091558  0.799115  0.897043  1
  F  F66  1  0.525437  0.495497  0.706419  1
  F  F67  1  0.418772  0.129885  0.506762  1
  F  F68  1  0.908442  0.200885  0.102957  1
  F  F69  1  0.733141  0.214650  0.970982  1
  F  F70  1  0.420813  0.504616  0.134740  1
  F  F71  1  0.364950  0.332767  0.221730  1
  F  F72  1  0.408442  0.299115  0.602957  1
  F  F73  1  0.864950  0.167233  0.721730  1
  F  F74  1  0.645350  0.053362  0.658739  1
  F  F75  1  0.380561  0.771317  0.880591  1
  F  F76  1  0.081228  0.629885  0.993238  1
  F  F77  1  0.696580  0.883940  0.345162  1
  F  F78  1  0.803420  0.383940  0.154838  1
  F  F79  1  0.619439  0.228683  0.119409  1
