# generated using pymatgen
data_IrSe3
_symmetry_space_group_name_H-M   'P 1'
_cell_length_a   6.05710574
_cell_length_b   6.00958965
_cell_length_c   17.97643453
_cell_angle_alpha   90.09855766
_cell_angle_beta   91.99161880
_cell_angle_gamma   89.72031166
_symmetry_Int_Tables_number   1
_chemical_formula_structural   IrSe3
_chemical_formula_sum   'Ir7 Se21'
_cell_volume   653.95129876
_cell_formula_units_Z   7
loop_
 _symmetry_equiv_pos_site_id
 _symmetry_equiv_pos_as_xyz
  1  'x, y, z'
loop_
 _atom_site_type_symbol
 _atom_site_label
 _atom_site_symmetry_multiplicity
 _atom_site_fract_x
 _atom_site_fract_y
 _atom_site_fract_z
 _atom_site_occupancy
  Ir  Ir0  1  0.517750  0.000079  0.835918  1
  Ir  Ir1  1  0.502092  0.495220  0.669904  1
  Ir  Ir2  1  0.491898  0.987268  0.502509  1
  Ir  Ir3  1  0.510108  0.492708  0.334544  1
  Ir  Ir4  1  0.516270  0.016972  0.170177  1
  Ir  Ir5  1  0.529057  0.490448  0.004705  1
  Ir  Ir6  1  0.002712  0.994794  0.669424  1
  Se  Se7  1  0.125074  0.884490  0.801653  1
  Se  Se8  1  0.111389  0.612599  0.628015  1
  Se  Se9  1  0.111420  0.860463  0.466009  1
  Se  Se10  1  0.391655  0.382324  0.797882  1
  Se  Se11  1  0.394531  0.372740  0.456649  1
  Se  Se12  1  0.402495  0.117946  0.960928  1
  Se  Se13  1  0.353611  0.362780  0.115588  1
  Se  Se14  1  0.376134  0.116428  0.629065  1
  Se  Se15  1  0.380042  0.124494  0.292260  1
  Se  Se16  1  0.628968  0.874072  0.709790  1
  Se  Se17  1  0.614034  0.873306  0.377037  1
  Se  Se18  1  0.630274  0.616433  0.879556  1
  Se  Se19  1  0.629002  0.874472  0.045205  1
  Se  Se20  1  0.616538  0.607476  0.542953  1
  Se  Se21  1  0.505621  0.642530  0.208880  1
  Se  Se22  1  0.898101  0.122456  0.874510  1
  Se  Se23  1  0.892451  0.375355  0.712313  1
  Se  Se24  1  0.884184  0.104562  0.537061  1
  Se  Se25  1  0.885210  0.369668  0.309991  1
  Se  Se26  1  0.867449  0.196035  0.184861  1
  Se  Se27  1  0.895432  0.412182  0.062547  1
