# generated using pymatgen
data_Ag7(SI)2
_symmetry_space_group_name_H-M   'P 1'
_cell_length_a   4.24840623
_cell_length_b   4.36484841
_cell_length_c   20.07899321
_cell_angle_alpha   96.06844913
_cell_angle_beta   111.36057524
_cell_angle_gamma   112.81003539
_symmetry_Int_Tables_number   1
_chemical_formula_structural   Ag7(SI)2
_chemical_formula_sum   'Ag7 S2 I2'
_cell_volume   306.13482857
_cell_formula_units_Z   1
loop_
 _symmetry_equiv_pos_site_id
 _symmetry_equiv_pos_as_xyz
  1  'x, y, z'
loop_
 _atom_site_type_symbol
 _atom_site_label
 _atom_site_symmetry_multiplicity
 _atom_site_fract_x
 _atom_site_fract_y
 _atom_site_fract_z
 _atom_site_occupancy
  Ag  Ag0  1  0.138963  0.493130  0.688968  1
  Ag  Ag1  1  0.071280  0.948612  0.918160  1
  Ag  Ag2  1  0.069886  0.393356  0.367207  1
  Ag  Ag3  1  0.323230  0.053141  0.609560  1
  Ag  Ag4  1  0.603337  0.008129  0.148350  1
  Ag  Ag5  1  0.475527  0.517378  0.239436  1
  Ag  Ag6  1  0.781057  0.446472  0.053085  1
  S  S7  1  0.070755  0.013222  0.263173  1
  S  S8  1  0.108018  0.043065  0.041619  1
  I  I9  1  0.936637  0.841969  0.452886  1
  I  I10  1  0.965310  0.937528  0.777557  1
