# generated using pymatgen
data_Ba3Y2Cu2PtO10
_symmetry_space_group_name_H-M   'P 1'
_cell_length_a   5.87679520
_cell_length_b   6.95376391
_cell_length_c   7.53128675
_cell_angle_alpha   104.04591609
_cell_angle_beta   90.00000000
_cell_angle_gamma   114.99645429
_symmetry_Int_Tables_number   1
_chemical_formula_structural   Ba3Y2Cu2PtO10
_chemical_formula_sum   'Ba3 Y2 Cu2 Pt1 O10'
_cell_volume   268.75743432
_cell_formula_units_Z   1
loop_
 _symmetry_equiv_pos_site_id
 _symmetry_equiv_pos_as_xyz
  1  'x, y, z'
loop_
 _atom_site_type_symbol
 _atom_site_label
 _atom_site_symmetry_multiplicity
 _atom_site_fract_x
 _atom_site_fract_y
 _atom_site_fract_z
 _atom_site_occupancy
  O  O0  1  0.667478  0.334955  0.552085  1
  O  O1  1  0.332522  0.665045  0.447915  1
  O  O2  1  0.545886  0.634398  0.875291  1
  O  O3  1  0.911488  0.365602  0.124709  1
  O  O4  1  0.454114  0.365602  0.124709  1
  O  O5  1  0.088512  0.634398  0.875291  1
  O  O6  1  0.703557  0.966000  0.282363  1
  O  O7  1  0.737557  0.034000  0.717637  1
  O  O8  1  0.262443  0.966000  0.282363  1
  O  O9  1  0.296443  0.034000  0.717637  1
  Cu  Cu10  1  0.589427  0.178855  0.199883  1
  Cu  Cu11  1  0.410573  0.821145  0.800117  1
  Y  Y12  1  0.688745  0.377490  0.873730  1
  Y  Y13  1  0.311255  0.622510  0.126270  1
  Ba  Ba14  1  0.846781  0.693562  0.459558  1
  Ba  Ba15  1  0.000000  0.000000  0.000000  1
  Ba  Ba16  1  0.153219  0.306438  0.540442  1
  Pt  Pt17  1  0.500000  0.000000  0.500000  1
