# generated using pymatgen
data_Ba2Sm(CuO2)3
_symmetry_space_group_name_H-M   'P 1'
_cell_length_a   3.90866655
_cell_length_b   3.90866687
_cell_length_c   12.16005957
_cell_angle_alpha   90.00003789
_cell_angle_beta   90.00015073
_cell_angle_gamma   90.00027822
_symmetry_Int_Tables_number   1
_chemical_formula_structural   Ba2Sm(CuO2)3
_chemical_formula_sum   'Ba2 Sm1 Cu3 O6'
_cell_volume   185.77744356
_cell_formula_units_Z   1
loop_
 _symmetry_equiv_pos_site_id
 _symmetry_equiv_pos_as_xyz
  1  'x, y, z'
loop_
 _atom_site_type_symbol
 _atom_site_label
 _atom_site_symmetry_multiplicity
 _atom_site_fract_x
 _atom_site_fract_y
 _atom_site_fract_z
 _atom_site_occupancy
  Ba  Ba0  1  0.500000  0.500001  0.195141  1
  Ba  Ba1  1  0.500001  0.500000  0.804870  1
  Sm  Sm2  1  0.499999  0.500000  0.499995  1
  Cu  Cu3  1  0.999997  0.000001  0.362470  1
  Cu  Cu4  1  0.000004  -0.000003  -0.000032  1
  Cu  Cu5  1  0.000003  0.999996  0.637428  1
  O  O6  1  0.499998  1.000000  0.375424  1
  O  O7  1  0.999998  0.500001  0.375424  1
  O  O8  1  0.500000  0.000000  0.624561  1
  O  O9  1  -0.000000  0.000002  0.148665  1
  O  O10  1  -0.000001  0.000002  0.851492  1
  O  O11  1  0.000000  0.499999  0.624561  1
