# generated using pymatgen
data_Na2PrO3
_symmetry_space_group_name_H-M   'P 1'
_cell_length_a   7.52064230
_cell_length_b   7.52064396
_cell_length_c   20.90413907
_cell_angle_alpha   99.45188231
_cell_angle_beta   99.45188009
_cell_angle_gamma   120.83056076
_symmetry_Int_Tables_number   1
_chemical_formula_structural   Na2PrO3
_chemical_formula_sum   'Na24 Pr12 O36'
_cell_volume   957.45032509
_cell_formula_units_Z   12
loop_
 _symmetry_equiv_pos_site_id
 _symmetry_equiv_pos_as_xyz
  1  'x, y, z'
loop_
 _atom_site_type_symbol
 _atom_site_label
 _atom_site_symmetry_multiplicity
 _atom_site_fract_x
 _atom_site_fract_y
 _atom_site_fract_z
 _atom_site_occupancy
  Na  Na0  1  0.058520  0.975099  0.670902  1
  Na  Na1  1  0.000000  0.000000  0.333333  1
  Na  Na2  1  0.225279  0.874357  0.823361  1
  Na  Na3  1  0.165495  0.834744  0.511266  1
  Na  Na4  1  0.217864  0.806542  0.173726  1
  Na  Na5  1  0.306542  0.717864  0.673726  1
  Na  Na6  1  0.082406  0.417593  0.083333  1
  Na  Na7  1  0.523938  0.851328  0.915767  1
  Na  Na8  1  0.374357  0.725279  0.323361  1
  Na  Na9  1  0.334744  0.665495  0.011266  1
  Na  Na10  1  0.941480  0.024901  0.995765  1
  Na  Na11  1  0.648672  0.976062  0.250900  1
  Na  Na12  1  0.500000  0.500000  0.833333  1
  Na  Na13  1  0.524901  0.441480  0.495765  1
  Na  Na14  1  0.475099  0.558520  0.170902  1
  Na  Na15  1  0.476062  0.148672  0.750900  1
  Na  Na16  1  0.693458  0.282136  0.992941  1
  Na  Na17  1  0.351328  0.023938  0.415767  1
  Na  Na18  1  0.665256  0.334505  0.655400  1
  Na  Na19  1  0.625643  0.274721  0.343306  1
  Na  Na20  1  0.917593  0.582407  0.583333  1
  Na  Na21  1  0.774721  0.125643  0.843306  1
  Na  Na22  1  0.782136  0.193458  0.492941  1
  Na  Na23  1  0.834505  0.165256  0.155400  1
  Pr  Pr24  1  0.054915  0.381088  0.749638  1
  Pr  Pr25  1  0.118912  0.445085  0.417029  1
  Pr  Pr26  1  0.256191  0.253512  0.919136  1
  Pr  Pr27  1  0.606124  0.893876  0.583333  1
  Pr  Pr28  1  0.224592  0.275408  0.583333  1
  Pr  Pr29  1  0.246488  0.243809  0.247531  1
  Pr  Pr30  1  0.743809  0.746488  0.747531  1
  Pr  Pr31  1  0.753512  0.756191  0.419136  1
  Pr  Pr32  1  0.775408  0.724592  0.083333  1
  Pr  Pr33  1  0.393876  0.106124  0.083333  1
  Pr  Pr34  1  0.945085  0.618912  0.917029  1
  Pr  Pr35  1  0.881088  0.554915  0.249638  1
  O  O36  1  0.285868  0.975211  0.956053  1
  O  O37  1  0.334639  0.002262  0.626436  1
  O  O38  1  0.987449  0.320157  0.957432  1
  O  O39  1  0.254494  0.943146  0.291069  1
  O  O40  1  0.939370  0.274746  0.622222  1
  O  O41  1  0.194259  0.524126  0.875749  1
  O  O42  1  0.975874  0.305741  0.290918  1
  O  O43  1  0.225254  0.560630  0.544445  1
  O  O44  1  0.112483  0.114689  0.791994  1
  O  O45  1  0.443146  0.754494  0.791069  1
  O  O46  1  0.179843  0.512551  0.209234  1
  O  O47  1  0.117043  0.140000  0.457167  1
  O  O48  1  0.475211  0.785868  0.456053  1
  O  O49  1  0.360000  0.382957  0.709500  1
  O  O50  1  0.109165  0.108731  0.121804  1
  O  O51  1  0.640000  0.617043  0.957167  1
  O  O52  1  0.502262  0.834639  0.126436  1
  O  O53  1  0.385311  0.387517  0.374672  1
  O  O54  1  0.608731  0.609166  0.621804  1
  O  O55  1  0.556854  0.245506  0.875597  1
  O  O56  1  0.391269  0.390834  0.044863  1
  O  O57  1  0.887517  0.885311  0.874672  1
  O  O58  1  0.614689  0.612483  0.291994  1
  O  O59  1  0.497738  0.165361  0.540231  1
  O  O60  1  0.890834  0.891269  0.544863  1
  O  O61  1  0.805741  0.475874  0.790918  1
  O  O62  1  0.524789  0.214132  0.210614  1
  O  O63  1  0.882957  0.860000  0.209500  1
  O  O64  1  0.820157  0.487449  0.457432  1
  O  O65  1  0.012551  0.679843  0.709234  1
  O  O66  1  0.774746  0.439370  0.122222  1
  O  O67  1  0.024126  0.694259  0.375749  1
  O  O68  1  0.714132  0.024789  0.710614  1
  O  O69  1  0.060630  0.725254  0.044445  1
  O  O70  1  0.745506  0.056854  0.375597  1
  O  O71  1  0.665361  -0.002262  0.040231  1
