# generated using pymatgen
data_CeSiP3
_symmetry_space_group_name_H-M   'P 1'
_cell_length_a   5.67187466
_cell_length_b   5.85785123
_cell_length_c   24.57401027
_cell_angle_alpha   90.00664584
_cell_angle_beta   89.89477743
_cell_angle_gamma   90.01639697
_symmetry_Int_Tables_number   1
_chemical_formula_structural   CeSiP3
_chemical_formula_sum   'Ce8 Si8 P24'
_cell_volume   816.47002552
_cell_formula_units_Z   8
loop_
 _symmetry_equiv_pos_site_id
 _symmetry_equiv_pos_as_xyz
  1  'x, y, z'
loop_
 _atom_site_type_symbol
 _atom_site_label
 _atom_site_symmetry_multiplicity
 _atom_site_fract_x
 _atom_site_fract_y
 _atom_site_fract_z
 _atom_site_occupancy
  Ce  Ce0  1  0.752719  0.024844  0.595224  1
  Ce  Ce1  1  0.752643  0.524704  0.905023  1
  Ce  Ce2  1  0.252813  0.474595  0.095331  1
  Ce  Ce3  1  0.254290  0.521752  0.586379  1
  Ce  Ce4  1  0.754656  0.978217  0.086066  1
  Ce  Ce5  1  0.252642  0.974723  0.404446  1
  Ce  Ce6  1  0.254304  0.021833  0.913821  1
  Ce  Ce7  1  0.754277  0.478224  0.413546  1
  Si  Si8  1  0.339581  0.056777  0.205040  1
  Si  Si9  1  0.839782  0.443099  0.705091  1
  Si  Si10  1  0.835117  0.883419  0.291614  1
  Si  Si11  1  0.835025  0.383140  0.208224  1
  Si  Si12  1  0.339456  0.556962  0.294973  1
  Si  Si13  1  0.334994  0.116616  0.708549  1
  Si  Si14  1  0.334962  0.616689  0.791644  1
  Si  Si15  1  0.839637  0.943284  0.794884  1
  P  P16  1  0.749250  0.029558  0.878663  1
  P  P17  1  0.726403  0.082574  0.714473  1
  P  P18  1  0.249375  0.470653  0.378694  1
  P  P19  1  0.229564  0.480416  0.709688  1
  P  P20  1  0.729653  0.019569  0.209289  1
  P  P21  1  0.555829  0.307801  0.998920  1
  P  P22  1  0.249241  0.970730  0.120969  1
  P  P23  1  0.749176  0.529544  0.621246  1
  P  P24  1  0.969242  0.812055  0.502507  1
  P  P25  1  0.471173  0.688848  0.002780  1
  P  P26  1  0.748803  0.485416  0.125080  1
  P  P27  1  0.229762  0.980738  0.790148  1
  P  P28  1  0.054744  0.191111  0.498630  1
  P  P29  1  0.726356  0.582840  0.785606  1
  P  P30  1  0.248747  0.014621  0.625170  1
  P  P31  1  0.748831  0.985351  0.374736  1
  P  P32  1  0.226587  0.917538  0.285560  1
  P  P33  1  0.226518  0.417233  0.214366  1
  P  P34  1  0.053387  0.691393  0.001680  1
  P  P35  1  0.248933  0.514808  0.874653  1
  P  P36  1  0.555190  0.808992  0.501452  1
  P  P37  1  0.968757  0.311450  0.997852  1
  P  P38  1  0.729602  0.519849  0.290377  1
  P  P39  1  0.469577  0.188034  0.497608  1
