# generated using pymatgen
data_Cu(NO3)2
_symmetry_space_group_name_H-M   'P 1'
_cell_length_a   7.62413193
_cell_length_b   13.10025248
_cell_length_c   14.33757070
_cell_angle_alpha   90.00000000
_cell_angle_beta   90.00000000
_cell_angle_gamma   90.00000000
_symmetry_Int_Tables_number   1
_chemical_formula_structural   Cu(NO3)2
_chemical_formula_sum   'Cu12 N24 O72'
_cell_volume   1432.00864948
_cell_formula_units_Z   12
loop_
 _symmetry_equiv_pos_site_id
 _symmetry_equiv_pos_as_xyz
  1  'x, y, z'
loop_
 _atom_site_type_symbol
 _atom_site_label
 _atom_site_symmetry_multiplicity
 _atom_site_fract_x
 _atom_site_fract_y
 _atom_site_fract_z
 _atom_site_occupancy
  Cu  Cu0  1  0.175137  0.703089  0.185743  1
  Cu  Cu1  1  0.824863  0.203089  0.185743  1
  Cu  Cu2  1  0.675137  0.796911  0.685743  1
  Cu  Cu3  1  0.000000  0.000000  0.500000  1
  Cu  Cu4  1  0.175137  0.796911  0.814257  1
  Cu  Cu5  1  0.675137  0.703089  0.314257  1
  Cu  Cu6  1  0.324863  0.296911  0.685743  1
  Cu  Cu7  1  0.500000  0.500000  0.000000  1
  Cu  Cu8  1  0.000000  0.500000  0.500000  1
  Cu  Cu9  1  0.500000  0.000000  0.000000  1
  Cu  Cu10  1  0.824863  0.296911  0.814257  1
  Cu  Cu11  1  0.324863  0.203089  0.314257  1
  N  N12  1  0.254584  0.992910  0.858721  1
  N  N13  1  0.656308  0.195215  0.360904  1
  N  N14  1  0.754584  0.507090  0.358721  1
  N  N15  1  0.254584  0.507090  0.141279  1
  N  N16  1  0.292393  0.880924  0.112592  1
  N  N17  1  0.245416  0.007090  0.358721  1
  N  N18  1  0.754584  0.992910  0.641279  1
  N  N19  1  0.792393  0.880924  0.387408  1
  N  N20  1  0.707607  0.380924  0.112592  1
  N  N21  1  0.343692  0.695215  0.360904  1
  N  N22  1  0.156308  0.195215  0.139096  1
  N  N23  1  0.656308  0.304785  0.639096  1
  N  N24  1  0.207607  0.119076  0.612592  1
  N  N25  1  0.245416  0.492910  0.641279  1
  N  N26  1  0.343692  0.804785  0.639096  1
  N  N27  1  0.745416  0.007090  0.141279  1
  N  N28  1  0.792393  0.619076  0.612592  1
  N  N29  1  0.843692  0.804785  0.860904  1
  N  N30  1  0.292393  0.619076  0.887408  1
  N  N31  1  0.156308  0.304785  0.860904  1
  N  N32  1  0.707607  0.119076  0.887408  1
  N  N33  1  0.745416  0.492910  0.858721  1
  N  N34  1  0.843692  0.695215  0.139096  1
  N  N35  1  0.207607  0.380924  0.387408  1
  O  O36  1  0.195599  0.688469  0.392045  1
  O  O37  1  0.242693  0.584870  0.626187  1
  O  O38  1  0.982976  0.689837  0.089136  1
  O  O39  1  0.694217  0.476622  0.093039  1
  O  O40  1  0.304401  0.188469  0.107955  1
  O  O41  1  0.805783  0.976622  0.406961  1
  O  O42  1  0.376144  0.790752  0.728581  1
  O  O43  1  0.482976  0.689837  0.410864  1
  O  O44  1  0.853809  0.570780  0.405111  1
  O  O45  1  0.242693  0.915130  0.373813  1
  O  O46  1  0.017024  0.310163  0.910864  1
  O  O47  1  0.304401  0.311531  0.892045  1
  O  O48  1  0.194217  0.023378  0.593039  1
  O  O49  1  0.695599  0.811531  0.892045  1
  O  O50  1  0.146191  0.429220  0.594889  1
  O  O51  1  0.330633  0.143382  0.669658  1
  O  O52  1  0.155363  0.951529  0.797378  1
  O  O53  1  0.391207  0.683739  0.921465  1
  O  O54  1  0.694217  0.023378  0.906961  1
  O  O55  1  0.517024  0.310163  0.589136  1
  O  O56  1  0.305783  0.523378  0.906961  1
  O  O57  1  0.669367  0.856618  0.330342  1
  O  O58  1  0.123856  0.290752  0.771419  1
  O  O59  1  0.108793  0.316261  0.421465  1
  O  O60  1  0.257307  0.084870  0.873813  1
  O  O61  1  0.646191  0.429220  0.905111  1
  O  O62  1  0.757307  0.084870  0.626187  1
  O  O63  1  0.804401  0.311531  0.607955  1
  O  O64  1  0.891207  0.816261  0.421465  1
  O  O65  1  0.169367  0.643382  0.830342  1
  O  O66  1  0.376144  0.709248  0.271419  1
  O  O67  1  0.608793  0.183739  0.921465  1
  O  O68  1  0.194217  0.476622  0.406961  1
  O  O69  1  0.669367  0.643382  0.669658  1
  O  O70  1  0.391207  0.816261  0.078535  1
  O  O71  1  0.844637  0.048471  0.202622  1
  O  O72  1  0.195599  0.811531  0.607955  1
  O  O73  1  0.891207  0.683739  0.578535  1
  O  O74  1  0.655363  0.548471  0.297378  1
  O  O75  1  0.608793  0.316261  0.078535  1
  O  O76  1  0.123856  0.209248  0.228581  1
  O  O77  1  0.982976  0.810163  0.910864  1
  O  O78  1  0.146191  0.070780  0.405111  1
  O  O79  1  0.646191  0.070780  0.094889  1
  O  O80  1  0.108793  0.183739  0.578535  1
  O  O81  1  0.482976  0.810163  0.589136  1
  O  O82  1  0.517024  0.189837  0.410864  1
  O  O83  1  0.305783  0.976622  0.093039  1
  O  O84  1  0.257307  0.415130  0.126187  1
  O  O85  1  0.623856  0.209248  0.271419  1
  O  O86  1  0.353809  0.570780  0.094889  1
  O  O87  1  0.623856  0.290752  0.728581  1
  O  O88  1  0.330633  0.356618  0.330342  1
  O  O89  1  0.757307  0.415130  0.373813  1
  O  O90  1  0.804401  0.188469  0.392045  1
  O  O91  1  0.876144  0.790752  0.771419  1
  O  O92  1  0.655363  0.951529  0.702622  1
  O  O93  1  0.344637  0.048471  0.297378  1
  O  O94  1  0.742693  0.584870  0.873813  1
  O  O95  1  0.344637  0.451529  0.702622  1
  O  O96  1  0.805783  0.523378  0.593039  1
  O  O97  1  0.742693  0.915130  0.126187  1
  O  O98  1  0.169367  0.856618  0.169658  1
  O  O99  1  0.876144  0.709248  0.228581  1
  O  O100  1  0.353809  0.929220  0.905111  1
  O  O101  1  0.155363  0.548471  0.202622  1
  O  O102  1  0.695599  0.688469  0.107955  1
  O  O103  1  0.844637  0.451529  0.797378  1
  O  O104  1  0.017024  0.189837  0.089136  1
  O  O105  1  0.853809  0.929220  0.594889  1
  O  O106  1  0.830633  0.356618  0.169658  1
  O  O107  1  0.830633  0.143382  0.830342  1
