# generated using pymatgen
data_Eu3(AsPd)4
_symmetry_space_group_name_H-M   'P 1'
_cell_length_a   4.17886311
_cell_length_b   4.36141273
_cell_length_c   12.91248916
_cell_angle_alpha   90.00221583
_cell_angle_beta   89.90704041
_cell_angle_gamma   90.01370368
_symmetry_Int_Tables_number   1
_chemical_formula_structural   Eu3(AsPd)4
_chemical_formula_sum   'Eu3 As4 Pd4'
_cell_volume   235.33944077
_cell_formula_units_Z   1
loop_
 _symmetry_equiv_pos_site_id
 _symmetry_equiv_pos_as_xyz
  1  'x, y, z'
loop_
 _atom_site_type_symbol
 _atom_site_label
 _atom_site_symmetry_multiplicity
 _atom_site_fract_x
 _atom_site_fract_y
 _atom_site_fract_z
 _atom_site_occupancy
  Eu  Eu0  1  0.999690  0.999923  0.798954  1
  Eu  Eu1  1  0.000338  -0.000006  0.201040  1
  Eu  Eu2  1  0.000001  0.499994  0.499915  1
  As  As3  1  0.499008  0.499984  0.882298  1
  As  As4  1  0.499547  0.999890  0.600124  1
  As  As5  1  0.500986  0.500010  0.117719  1
  As  As6  1  0.500444  0.000090  0.399811  1
  Pd  Pd7  1  0.499929  0.500153  0.310743  1
  Pd  Pd8  1  0.500079  0.499908  0.689282  1
  Pd  Pd9  1  -0.000004  0.500018  0.000049  1
  Pd  Pd10  1  0.499981  0.000038  0.000066  1
