# generated using pymatgen
data_Na3Nd5Cl15
_symmetry_space_group_name_H-M   'P 1'
_cell_length_a   40.01622469
_cell_length_b   13.85623730
_cell_length_c   8.89800525
_cell_angle_alpha   38.95069933
_cell_angle_beta   26.03584462
_cell_angle_gamma   30.04969863
_symmetry_Int_Tables_number   1
_chemical_formula_structural   Na3Nd5Cl15
_chemical_formula_sum   'Na6 Nd10 Cl30'
_cell_volume   1084.41240662
_cell_formula_units_Z   2
loop_
 _symmetry_equiv_pos_site_id
 _symmetry_equiv_pos_as_xyz
  1  'x, y, z'
loop_
 _atom_site_type_symbol
 _atom_site_label
 _atom_site_symmetry_multiplicity
 _atom_site_fract_x
 _atom_site_fract_y
 _atom_site_fract_z
 _atom_site_occupancy
  Na  Na0  1  0.113883  0.000019  0.429374  1
  Na  Na1  1  0.286117  -0.000019  0.570626  1
  Na  Na2  1  0.449442  0.000050  0.750921  1
  Na  Na3  1  0.785924  0.999288  0.070779  1
  Na  Na4  1  0.614076  0.000712  0.929221  1
  Na  Na5  1  0.950558  -0.000050  0.249079  1
  Nd  Nd6  1  0.052873  0.330127  0.740699  1
  Nd  Nd7  1  0.146563  0.668908  0.263825  1
  Nd  Nd8  1  0.253437  0.331092  0.736175  1
  Nd  Nd9  1  0.347127  0.669873  0.259301  1
  Nd  Nd10  1  0.449220  0.333898  0.752086  1
  Nd  Nd11  1  0.550859  0.666454  0.245038  1
  Nd  Nd12  1  0.646822  0.335743  0.762721  1
  Nd  Nd13  1  0.753178  0.664257  0.237279  1
  Nd  Nd14  1  0.849141  0.333546  0.754962  1
  Nd  Nd15  1  0.950780  0.666102  0.247914  1
  Cl  Cl16  1  0.056878  0.079305  0.246858  1
  Cl  Cl17  1  0.106512  0.306259  0.238929  1
  Cl  Cl18  1  0.089330  0.610026  0.249828  1
  Cl  Cl19  1  0.260332  0.077008  0.250173  1
  Cl  Cl20  1  0.111880  0.379971  0.757074  1
  Cl  Cl21  1  0.306395  0.292444  0.252559  1
  Cl  Cl22  1  0.093605  0.707556  0.747441  1
  Cl  Cl23  1  0.288120  0.620029  0.242926  1
  Cl  Cl24  1  0.460237  0.078673  0.251969  1
  Cl  Cl25  1  0.139668  0.922992  0.749827  1
  Cl  Cl26  1  0.310670  0.389974  0.750172  1
  Cl  Cl27  1  0.506068  0.293858  0.255742  1
  Cl  Cl28  1  0.293488  0.693741  0.761071  1
  Cl  Cl29  1  0.482984  0.631529  0.247798  1
  Cl  Cl30  1  0.656563  0.081645  0.253781  1
  Cl  Cl31  1  0.343122  0.920695  0.753142  1
  Cl  Cl32  1  0.513581  0.386935  0.744169  1
  Cl  Cl33  1  0.705939  0.302246  0.252712  1
  Cl  Cl34  1  0.494886  0.691187  0.754087  1
  Cl  Cl35  1  0.684371  0.623853  0.251802  1
  Cl  Cl36  1  0.855451  0.081541  0.251282  1
  Cl  Cl37  1  0.544549  0.918459  0.748718  1
  Cl  Cl38  1  0.715629  0.376147  0.748198  1
  Cl  Cl39  1  0.905114  0.308813  0.245913  1
  Cl  Cl40  1  0.694061  0.697754  0.747288  1
  Cl  Cl41  1  0.886419  0.613065  0.255831  1
  Cl  Cl42  1  0.743437  0.918355  0.746219  1
  Cl  Cl43  1  0.917016  0.368470  0.752202  1
  Cl  Cl44  1  0.893932  0.706142  0.744258  1
  Cl  Cl45  1  0.939763  0.921327  0.748031  1
