# generated using pymatgen
data_K6Ba3Ta12(Si2O13)4
_symmetry_space_group_name_H-M   'P 1'
_cell_length_a   9.16424945
_cell_length_b   18.32413418
_cell_length_c   7.90392215
_cell_angle_alpha   90.00000000
_cell_angle_beta   90.00000000
_cell_angle_gamma   120.00787974
_symmetry_Int_Tables_number   1
_chemical_formula_structural   K6Ba3Ta12(Si2O13)4
_chemical_formula_sum   'K6 Ba3 Ta12 Si8 O52'
_cell_volume   1149.36816006
_cell_formula_units_Z   1
loop_
 _symmetry_equiv_pos_site_id
 _symmetry_equiv_pos_as_xyz
  1  'x, y, z'
loop_
 _atom_site_type_symbol
 _atom_site_label
 _atom_site_symmetry_multiplicity
 _atom_site_fract_x
 _atom_site_fract_y
 _atom_site_fract_z
 _atom_site_occupancy
  K  K0  1  0.591910  0.500000  0.500000  1
  K  K1  1  0.612374  0.500000  0.000000  1
  K  K2  1  0.390166  0.195085  0.000000  1
  K  K3  1  -0.000005  0.804915  0.000000  1
  K  K4  1  0.409137  0.204873  0.500000  1
  K  K5  1  0.999391  0.795127  0.500000  1
  Ba  Ba6  1  0.402251  0.700713  0.500000  1
  Ba  Ba7  1  0.000825  0.299287  0.500000  1
  Ba  Ba8  1  0.595683  0.000000  0.500000  1
  Ta  Ta9  1  0.239751  0.000000  0.749531  1
  Ta  Ta10  1  0.236295  0.500000  0.247202  1
  Ta  Ta11  1  0.236295  0.500000  0.752798  1
  Ta  Ta12  1  0.763595  0.881478  0.248474  1
  Ta  Ta13  1  0.763595  0.881478  0.751526  1
  Ta  Ta14  1  0.000640  0.118522  0.248474  1
  Ta  Ta15  1  0.239751  0.000000  0.250469  1
  Ta  Ta16  1  0.760267  0.380424  0.249523  1
  Ta  Ta17  1  0.999420  0.619576  0.750477  1
  Ta  Ta18  1  0.760267  0.380424  0.750477  1
  Ta  Ta19  1  0.999420  0.619576  0.249523  1
  Ta  Ta20  1  0.000640  0.118522  0.751526  1
  Si  Si21  1  0.336245  0.833616  0.796316  1
  Si  Si22  1  0.336245  0.833616  0.203684  1
  Si  Si23  1  0.664420  0.666988  0.794303  1
  Si  Si24  1  0.330444  0.333012  0.794303  1
  Si  Si25  1  0.664420  0.666988  0.205697  1
  Si  Si26  1  0.330444  0.333012  0.205697  1
  Si  Si27  1  0.669013  0.166384  0.796316  1
  Si  Si28  1  0.669013  0.166384  0.203684  1
  O  O29  1  0.000559  0.911394  0.755440  1
  O  O30  1  0.312139  0.911347  0.271411  1
  O  O31  1  0.312139  0.911347  0.728589  1
  O  O32  1  0.179817  0.744506  0.728744  1
  O  O33  1  0.179817  0.744506  0.271256  1
  O  O34  1  0.331601  0.833686  0.000000  1
  O  O35  1  0.176846  0.588716  0.246518  1
  O  O36  1  0.176846  0.588716  0.753482  1
  O  O37  1  0.999413  0.411284  0.753482  1
  O  O38  1  0.512220  0.845501  0.277754  1
  O  O39  1  0.512220  0.845501  0.722246  1
  O  O40  1  0.237466  0.500000  0.500000  1
  O  O41  1  0.262290  0.500000  0.000000  1
  O  O42  1  0.822332  0.000000  0.752613  1
  O  O43  1  0.746603  0.870313  0.000000  1
  O  O44  1  0.005977  0.129687  0.000000  1
  O  O45  1  0.758067  0.880905  0.500000  1
  O  O46  1  0.996258  0.119095  0.500000  1
  O  O47  1  0.487589  0.589086  0.273483  1
  O  O48  1  0.309416  0.410914  0.273483  1
  O  O49  1  0.487589  0.589086  0.726517  1
  O  O50  1  0.309416  0.410914  0.726517  1
  O  O51  1  0.687471  0.755922  0.273378  1
  O  O52  1  0.687471  0.755922  0.726622  1
  O  O53  1  0.175627  0.244078  0.726622  1
  O  O54  1  0.175627  0.244078  0.273378  1
  O  O55  1  0.668329  0.666982  0.000000  1
  O  O56  1  0.334366  0.333018  0.000000  1
  O  O57  1  0.000559  0.911394  0.244560  1
  O  O58  1  0.177771  0.088606  0.244560  1
  O  O59  1  0.177771  0.088606  0.755440  1
  O  O60  1  0.823051  0.656391  0.266756  1
  O  O61  1  0.823051  0.656391  0.733244  1
  O  O62  1  0.510269  0.343609  0.266756  1
  O  O63  1  0.510269  0.343609  0.733244  1
  O  O64  1  0.241915  0.000000  0.500000  1
  O  O65  1  0.254961  0.000000  0.000000  1
  O  O66  1  0.822949  0.500000  0.243666  1
  O  O67  1  0.822949  0.500000  0.756334  1
  O  O68  1  0.994348  0.628772  0.000000  1
  O  O69  1  0.736804  0.371228  0.000000  1
  O  O70  1  0.004012  0.620508  0.500000  1
  O  O71  1  0.762995  0.379492  0.500000  1
  O  O72  1  0.489445  0.088653  0.271411  1
  O  O73  1  0.489445  0.088653  0.728589  1
  O  O74  1  0.690805  0.255494  0.271256  1
  O  O75  1  0.690805  0.255494  0.728744  1
  O  O76  1  0.664229  0.166314  0.000000  1
  O  O77  1  0.999413  0.411284  0.246518  1
  O  O78  1  0.821218  0.154499  0.277754  1
  O  O79  1  0.821218  0.154499  0.722246  1
  O  O80  1  0.822332  0.000000  0.247387  1
