# generated using pymatgen
data_FeHO2
_symmetry_space_group_name_H-M   'P 1'
_cell_length_a   11.28875464
_cell_length_b   6.01483104
_cell_length_c   12.26571003
_cell_angle_alpha   90.05027821
_cell_angle_beta   96.43047518
_cell_angle_gamma   89.77185645
_symmetry_Int_Tables_number   1
_chemical_formula_structural   FeHO2
_chemical_formula_sum   'Fe16 H16 O32'
_cell_volume   827.59465308
_cell_formula_units_Z   16
loop_
 _symmetry_equiv_pos_site_id
 _symmetry_equiv_pos_as_xyz
  1  'x, y, z'
loop_
 _atom_site_type_symbol
 _atom_site_label
 _atom_site_symmetry_multiplicity
 _atom_site_fract_x
 _atom_site_fract_y
 _atom_site_fract_z
 _atom_site_occupancy
  Fe  Fe0  1  0.338890  0.021756  0.082098  1
  Fe  Fe1  1  0.156450  0.991882  0.639756  1
  Fe  Fe2  1  0.854794  0.209256  0.568365  1
  Fe  Fe3  1  0.666849  0.257116  0.129691  1
  Fe  Fe4  1  0.665264  0.055382  0.870804  1
  Fe  Fe5  1  0.858608  0.977772  0.319185  1
  Fe  Fe6  1  0.171297  0.197016  0.381106  1
  Fe  Fe7  1  0.353764  0.234031  0.815305  1
  Fe  Fe8  1  0.344125  0.511653  0.086187  1
  Fe  Fe9  1  0.172911  0.472148  0.638460  1
  Fe  Fe10  1  0.856745  0.719523  0.572670  1
  Fe  Fe11  1  0.717412  0.749628  0.130438  1
  Fe  Fe12  1  0.652226  0.532272  0.870348  1
  Fe  Fe13  1  0.886019  0.488994  0.318501  1
  Fe  Fe14  1  0.174789  0.702036  0.387448  1
  Fe  Fe15  1  0.343023  0.752596  0.827212  1
  H  H16  1  0.014070  0.963567  0.466432  1
  H  H17  1  0.403025  0.969837  0.643717  1
  H  H18  1  0.753757  0.414488  0.701093  1
  H  H19  1  0.904066  0.243656  0.138288  1
  H  H20  1  0.720862  0.922150  0.674986  1
  H  H21  1  0.627213  0.992160  0.308537  1
  H  H22  1  0.496798  0.259751  0.991986  1
  H  H23  1  0.270377  0.406673  0.261392  1
  H  H24  1  0.412614  0.529242  0.655130  1
  H  H25  1  0.210114  0.449441  0.910038  1
  H  H26  1  0.512500  0.772020  0.975977  1
  H  H27  1  0.012101  0.467185  0.499872  1
  H  H28  1  0.662072  0.519733  0.314831  1
  H  H29  1  0.214372  0.806020  0.181893  1
  H  H30  1  0.509032  0.729608  0.191424  1
  H  H31  1  0.106523  0.759552  0.812943  1
  O  O32  1  0.237800  0.942343  0.314964  1
  O  O33  1  0.032063  0.963169  0.387766  1
  O  O34  1  0.359265  0.978840  0.707561  1
  O  O35  1  0.318298  0.000714  0.923253  1
  O  O36  1  0.744462  0.302729  0.814053  1
  O  O37  1  0.524267  0.260552  0.867236  1
  O  O38  1  0.856033  0.243671  0.199387  1
  O  O39  1  0.828784  0.238743  0.411054  1
  O  O40  1  0.744796  0.961546  0.600474  1
  O  O41  1  0.978342  0.970247  0.596232  1
  O  O42  1  0.674376  0.001282  0.246658  1
  O  O43  1  0.695929  0.006980  0.032739  1
  O  O44  1  0.261061  0.274731  0.135884  1
  O  O45  1  0.480497  0.262899  0.073849  1
  O  O46  1  0.176867  0.240987  0.750952  1
  O  O47  1  0.202157  0.222257  0.539017  1
  O  O48  1  0.277465  0.445620  0.341313  1
  O  O49  1  0.051600  0.460694  0.367143  1
  O  O50  1  0.359033  0.506709  0.711049  1
  O  O51  1  0.294428  0.487259  0.922626  1
  O  O52  1  0.702738  0.795833  0.797626  1
  O  O53  1  0.507190  0.730472  0.898556  1
  O  O54  1  0.873673  0.738952  0.208930  1
  O  O55  1  0.824669  0.720262  0.415136  1
  O  O56  1  0.769699  0.461032  0.623021  1
  O  O57  1  0.990653  0.469451  0.577550  1
  O  O58  1  0.646703  0.517327  0.234449  1
  O  O59  1  0.700236  0.502115  0.031147  1
  O  O60  1  0.230875  0.766983  0.105371  1
  O  O61  1  0.461802  0.763352  0.120885  1
  O  O62  1  0.162578  0.739530  0.758805  1
  O  O63  1  0.200614  0.731242  0.546033  1
