# generated using pymatgen
data_FeC3SeO3
_symmetry_space_group_name_H-M   'P 1'
_cell_length_a   6.65361658
_cell_length_b   7.76099260
_cell_length_c   11.90140463
_cell_angle_alpha   84.13161282
_cell_angle_beta   75.02128009
_cell_angle_gamma   77.45161147
_symmetry_Int_Tables_number   1
_chemical_formula_structural   FeC3SeO3
_chemical_formula_sum   'Fe4 C12 Se4 O12'
_cell_volume   578.81644471
_cell_formula_units_Z   4
loop_
 _symmetry_equiv_pos_site_id
 _symmetry_equiv_pos_as_xyz
  1  'x, y, z'
loop_
 _atom_site_type_symbol
 _atom_site_label
 _atom_site_symmetry_multiplicity
 _atom_site_fract_x
 _atom_site_fract_y
 _atom_site_fract_z
 _atom_site_occupancy
  Fe  Fe0  1  0.366022  0.493394  0.272498  1
  Fe  Fe1  1  0.633978  0.506606  0.727502  1
  Fe  Fe2  1  0.792378  0.174941  0.769319  1
  Fe  Fe3  1  0.207622  0.825059  0.230681  1
  C  C4  1  0.402108  0.289688  0.356439  1
  C  C5  1  0.154370  0.798436  0.093262  1
  C  C6  1  0.845630  0.201564  0.906738  1
  C  C7  1  0.548969  0.099872  0.830774  1
  C  C8  1  0.364705  0.486562  0.790640  1
  C  C9  1  0.037135  0.034392  0.265223  1
  C  C10  1  0.962865  0.965608  0.734777  1
  C  C11  1  0.664187  0.594236  0.854141  1
  C  C12  1  0.335813  0.405764  0.145859  1
  C  C13  1  0.597892  0.710312  0.643561  1
  C  C14  1  0.635295  0.513438  0.209360  1
  C  C15  1  0.451031  0.900128  0.169226  1
  Se  Se16  1  0.005672  0.627841  0.352971  1
  Se  Se17  1  0.994328  0.372159  0.647029  1
  Se  Se18  1  0.272874  0.712756  0.416594  1
  Se  Se19  1  0.727126  0.287244  0.583406  1
  O  O20  1  0.190679  0.471714  0.831695  1
  O  O21  1  0.393012  0.047973  0.868252  1
  O  O22  1  0.929038  0.171298  0.287396  1
  O  O23  1  0.428715  0.154468  0.407675  1
  O  O24  1  0.606988  0.952027  0.131748  1
  O  O25  1  0.070962  0.828702  0.712604  1
  O  O26  1  0.680507  0.655632  0.935212  1
  O  O27  1  0.809321  0.528286  0.168305  1
  O  O28  1  0.878060  0.218482  0.995398  1
  O  O29  1  0.121940  0.781518  0.004602  1
  O  O30  1  0.571285  0.845532  0.592325  1
  O  O31  1  0.319493  0.344368  0.064788  1
