# generated using pymatgen
data_Li16Nb2N8O
_symmetry_space_group_name_H-M   'P 1'
_cell_length_a   9.21674654
_cell_length_b   9.21674654
_cell_length_c   9.21674654
_cell_angle_alpha   38.11132803
_cell_angle_beta   38.11132808
_cell_angle_gamma   38.11132801
_symmetry_Int_Tables_number   1
_chemical_formula_structural   Li16Nb2N8O
_chemical_formula_sum   'Li16 Nb2 N8 O1'
_cell_volume   267.77273121
_cell_formula_units_Z   1
loop_
 _symmetry_equiv_pos_site_id
 _symmetry_equiv_pos_as_xyz
  1  'x, y, z'
loop_
 _atom_site_type_symbol
 _atom_site_label
 _atom_site_symmetry_multiplicity
 _atom_site_fract_x
 _atom_site_fract_y
 _atom_site_fract_z
 _atom_site_occupancy
  Li  Li0  1  0.582783  0.582782  0.582783  1
  Li  Li1  1  0.417217  0.417218  0.417218  1
  Li  Li2  1  0.922219  0.922219  0.922220  1
  Li  Li3  1  0.077781  0.077781  0.077781  1
  Li  Li4  1  0.668399  0.316800  0.943671  1
  Li  Li5  1  0.316800  0.943671  0.668399  1
  Li  Li6  1  0.943672  0.668400  0.316798  1
  Li  Li7  1  0.331599  0.683202  0.056328  1
  Li  Li8  1  0.683200  0.056328  0.331601  1
  Li  Li9  1  0.056329  0.331600  0.683201  1
  Li  Li10  1  0.826815  0.168317  0.579372  1
  Li  Li11  1  0.420628  0.173186  0.831682  1
  Li  Li12  1  0.831683  0.420626  0.173186  1
  Li  Li13  1  0.168316  0.579373  0.826814  1
  Li  Li14  1  0.579373  0.826814  0.168317  1
  Li  Li15  1  0.173186  0.831683  0.420626  1
  N  N16  1  0.326925  0.326924  0.326926  1
  N  N17  1  0.673075  0.673075  0.673074  1
  N  N18  1  0.225592  0.910886  0.536925  1
  N  N19  1  0.910886  0.536924  0.225593  1
  N  N20  1  0.536925  0.225592  0.910887  1
  N  N21  1  0.463075  0.774407  0.089114  1
  N  N22  1  0.089114  0.463076  0.774407  1
  N  N23  1  0.774407  0.089114  0.463075  1
  O  O24  1  0.000000  0.000000  0.000000  1
  Nb  Nb25  1  0.249368  0.249368  0.249367  1
  Nb  Nb26  1  0.750632  0.750632  0.750633  1
