# generated using pymatgen
data_AgHgAsS3
_symmetry_space_group_name_H-M   'P 1'
_cell_length_a   6.68711710
_cell_length_b   6.68711711
_cell_length_c   7.92357103
_cell_angle_alpha   101.51382707
_cell_angle_beta   101.51382704
_cell_angle_gamma   118.96904486
_symmetry_Int_Tables_number   1
_chemical_formula_structural   AgHgAsS3
_chemical_formula_sum   'Ag2 Hg2 As2 S6'
_cell_volume   285.03482620
_cell_formula_units_Z   2
loop_
 _symmetry_equiv_pos_site_id
 _symmetry_equiv_pos_as_xyz
  1  'x, y, z'
loop_
 _atom_site_type_symbol
 _atom_site_label
 _atom_site_symmetry_multiplicity
 _atom_site_fract_x
 _atom_site_fract_y
 _atom_site_fract_z
 _atom_site_occupancy
  S  S0  1  0.991866  0.229117  0.063444  1
  S  S1  1  0.229117  0.991866  0.563444  1
  S  S2  1  0.816127  0.258542  0.525768  1
  S  S3  1  0.561878  0.593713  0.583596  1
  S  S4  1  0.593713  0.561878  0.083596  1
  S  S5  1  0.258542  0.816127  0.025768  1
  As  As6  1  0.336888  0.613579  0.210044  1
  As  As7  1  0.613579  0.336888  0.710044  1
  Ag  Ag8  1  0.024473  0.963733  0.244325  1
  Ag  Ag9  1  0.963733  0.024473  0.744325  1
  Hg  Hg10  1  0.658671  0.270213  0.205223  1
  Hg  Hg11  1  0.270213  0.658671  0.705223  1
