# generated using pymatgen
data_Te(HO)6
_symmetry_space_group_name_H-M   'P 1'
_cell_length_a   5.56749974
_cell_length_b   5.77860831
_cell_length_c   5.58280701
_cell_angle_alpha   61.48384398
_cell_angle_beta   62.85082480
_cell_angle_gamma   60.26552483
_symmetry_Int_Tables_number   1
_chemical_formula_structural   Te(HO)6
_chemical_formula_sum   'Te1 H6 O6'
_cell_volume   131.24753551
_cell_formula_units_Z   1
loop_
 _symmetry_equiv_pos_site_id
 _symmetry_equiv_pos_as_xyz
  1  'x, y, z'
loop_
 _atom_site_type_symbol
 _atom_site_label
 _atom_site_symmetry_multiplicity
 _atom_site_fract_x
 _atom_site_fract_y
 _atom_site_fract_z
 _atom_site_occupancy
  Te  Te0  1  0.011381  0.000287  0.995886  1
  H  H1  1  0.190758  0.780241  0.625756  1
  H  H2  1  0.375479  0.221025  0.816932  1
  H  H3  1  0.374371  0.577092  0.234513  1
  H  H4  1  0.805230  0.205159  0.390366  1
  H  H5  1  0.610965  0.814778  0.201723  1
  H  H6  1  0.747345  0.426092  0.659385  1
  O  O7  1  0.260625  0.742236  0.778611  1
  O  O8  1  0.223296  0.254477  0.747821  1
  O  O9  1  0.275439  0.774385  0.235156  1
  O  O10  1  0.753460  0.253665  0.220467  1
  O  O11  1  0.789841  0.752841  0.247798  1
  O  O12  1  0.762425  0.225661  0.741308  1
