# generated using pymatgen
data_AgP2H8SN7O2
_symmetry_space_group_name_H-M   'P 1'
_cell_length_a   10.30309715
_cell_length_b   9.10362545
_cell_length_c   11.77796639
_cell_angle_alpha   90.00000000
_cell_angle_beta   114.74415570
_cell_angle_gamma   90.00000000
_symmetry_Int_Tables_number   1
_chemical_formula_structural   AgP2H8SN7O2
_chemical_formula_sum   'Ag4 P8 H32 S4 N28 O8'
_cell_volume   1003.29172217
_cell_formula_units_Z   4
loop_
 _symmetry_equiv_pos_site_id
 _symmetry_equiv_pos_as_xyz
  1  'x, y, z'
loop_
 _atom_site_type_symbol
 _atom_site_label
 _atom_site_symmetry_multiplicity
 _atom_site_fract_x
 _atom_site_fract_y
 _atom_site_fract_z
 _atom_site_occupancy
  Ag  Ag0  1  0.529879  0.808287  0.216333  1
  Ag  Ag1  1  0.029879  0.691713  0.716333  1
  Ag  Ag2  1  0.470121  0.191713  0.783667  1
  Ag  Ag3  1  0.970121  0.308287  0.283667  1
  P  P4  1  0.326969  0.100748  0.055172  1
  P  P5  1  0.826969  0.399252  0.555172  1
  P  P6  1  0.673031  0.899252  0.944828  1
  P  P7  1  0.173031  0.600748  0.444828  1
  P  P8  1  0.111368  0.003550  0.789089  1
  P  P9  1  0.611368  0.496450  0.289089  1
  P  P10  1  0.888632  0.996450  0.210911  1
  P  P11  1  0.388632  0.503550  0.710911  1
  H  H12  1  0.507724  0.282744  0.116016  1
  H  H13  1  0.007724  0.217256  0.616016  1
  H  H14  1  0.492276  0.717256  0.883984  1
  H  H15  1  0.992276  0.782744  0.383984  1
  H  H16  1  0.563948  0.114758  0.091409  1
  H  H17  1  0.063948  0.385242  0.591409  1
  H  H18  1  0.436052  0.885242  0.908591  1
  H  H19  1  0.936052  0.614758  0.408591  1
  H  H20  1  0.171601  0.037019  0.624783  1
  H  H21  1  0.671601  0.462981  0.124783  1
  H  H22  1  0.828399  0.962981  0.375217  1
  H  H23  1  0.328399  0.537019  0.875217  1
  H  H24  1  0.309097  0.730722  0.622063  1
  H  H25  1  0.809097  0.769278  0.122063  1
  H  H26  1  0.690903  0.269278  0.377937  1
  H  H27  1  0.190903  0.230722  0.877937  1
  H  H28  1  0.873623  0.047023  0.700596  1
  H  H29  1  0.373623  0.452977  0.200596  1
  H  H30  1  0.126377  0.952977  0.299404  1
  H  H31  1  0.626377  0.547023  0.799404  1
  H  H32  1  0.933092  0.041892  0.860886  1
  H  H33  1  0.433092  0.458108  0.360886  1
  H  H34  1  0.066908  0.958108  0.139114  1
  H  H35  1  0.566908  0.541892  0.639114  1
  H  H36  1  0.139633  0.195106  0.090863  1
  H  H37  1  0.639633  0.304894  0.590863  1
  H  H38  1  0.860367  0.804894  0.909137  1
  H  H39  1  0.360367  0.695106  0.409137  1
  H  H40  1  0.296892  0.207299  0.220506  1
  H  H41  1  0.796892  0.292701  0.720506  1
  H  H42  1  0.703108  0.792701  0.779494  1
  H  H43  1  0.203108  0.707299  0.279494  1
  S  S44  1  0.216583  0.809497  0.994607  1
  S  S45  1  0.716583  0.690503  0.494607  1
  S  S46  1  0.783417  0.190503  0.005393  1
  S  S47  1  0.283417  0.309497  0.505393  1
  N  N48  1  0.347649  0.922806  0.076147  1
  N  N49  1  0.847649  0.577194  0.576147  1
  N  N50  1  0.652351  0.077194  0.923853  1
  N  N51  1  0.152351  0.422806  0.423853  1
  N  N52  1  0.184744  0.842046  0.849784  1
  N  N53  1  0.684744  0.657954  0.349784  1
  N  N54  1  0.815256  0.157954  0.150216  1
  N  N55  1  0.315256  0.342046  0.650216  1
  N  N56  1  0.219294  0.124069  0.903891  1
  N  N57  1  0.719294  0.375931  0.403891  1
  N  N58  1  0.780706  0.875931  0.096109  1
  N  N59  1  0.280706  0.624069  0.596109  1
  N  N60  1  0.486740  0.168283  0.108389  1
  N  N61  1  0.986740  0.331717  0.608389  1
  N  N62  1  0.513260  0.831717  0.891611  1
  N  N63  1  0.013260  0.668283  0.391611  1
  N  N64  1  0.091548  0.040922  0.653904  1
  N  N65  1  0.591548  0.459078  0.153904  1
  N  N66  1  0.908452  0.959078  0.346096  1
  N  N67  1  0.408452  0.540922  0.846096  1
  N  N68  1  0.949464  0.012284  0.784258  1
  N  N69  1  0.449464  0.487716  0.284258  1
  N  N70  1  0.050536  0.987716  0.215742  1
  N  N71  1  0.550536  0.512284  0.715742  1
  N  N72  1  0.248718  0.200815  0.125354  1
  N  N73  1  0.748718  0.299185  0.625354  1
  N  N74  1  0.751282  0.799185  0.874646  1
  N  N75  1  0.251282  0.700815  0.374646  1
  O  O76  1  0.091878  0.841597  0.021032  1
  O  O77  1  0.591878  0.658403  0.521032  1
  O  O78  1  0.908122  0.158403  0.978968  1
  O  O79  1  0.408122  0.341597  0.478968  1
  O  O80  1  0.271393  0.661316  0.026046  1
  O  O81  1  0.771393  0.838684  0.526046  1
  O  O82  1  0.728607  0.338684  0.973954  1
  O  O83  1  0.228607  0.161316  0.473954  1
