# generated using pymatgen
data_Cu2H6C3N4O
_symmetry_space_group_name_H-M   'P 1'
_cell_length_a   11.81693986
_cell_length_b   8.37702817
_cell_length_c   7.87102636
_cell_angle_alpha   90.00000000
_cell_angle_beta   93.68477096
_cell_angle_gamma   90.00000000
_symmetry_Int_Tables_number   1
_chemical_formula_structural   Cu2H6C3N4O
_chemical_formula_sum   'Cu8 H24 C12 N16 O4'
_cell_volume   777.54876713
_cell_formula_units_Z   4
loop_
 _symmetry_equiv_pos_site_id
 _symmetry_equiv_pos_as_xyz
  1  'x, y, z'
loop_
 _atom_site_type_symbol
 _atom_site_label
 _atom_site_symmetry_multiplicity
 _atom_site_fract_x
 _atom_site_fract_y
 _atom_site_fract_z
 _atom_site_occupancy
  Cu  Cu0  1  0.068235  0.393542  0.130302  1
  Cu  Cu1  1  0.931765  0.893542  0.369698  1
  Cu  Cu2  1  0.931765  0.606458  0.869698  1
  Cu  Cu3  1  0.068235  0.106458  0.630302  1
  Cu  Cu4  1  0.399317  0.210945  0.822704  1
  Cu  Cu5  1  0.600683  0.710945  0.677296  1
  Cu  Cu6  1  0.600683  0.789055  0.177296  1
  Cu  Cu7  1  0.399317  0.289055  0.322704  1
  H  H8  1  0.801391  0.946133  0.898054  1
  H  H9  1  0.198609  0.446133  0.601946  1
  H  H10  1  0.198609  0.053867  0.101946  1
  H  H11  1  0.801391  0.553867  0.398054  1
  H  H12  1  0.878729  0.107928  0.858677  1
  H  H13  1  0.121271  0.607928  0.641323  1
  H  H14  1  0.121271  0.892072  0.141323  1
  H  H15  1  0.878729  0.392072  0.358677  1
  H  H16  1  0.756033  0.134083  0.956144  1
  H  H17  1  0.243967  0.634083  0.543856  1
  H  H18  1  0.243967  0.865917  0.043856  1
  H  H19  1  0.756033  0.365917  0.456144  1
  H  H20  1  0.752649  0.086294  0.749306  1
  H  H21  1  0.247351  0.586294  0.750694  1
  H  H22  1  0.247351  0.913706  0.250694  1
  H  H23  1  0.752649  0.413706  0.249306  1
  H  H24  1  0.724214  0.386063  0.978992  1
  H  H25  1  0.275786  0.886063  0.521008  1
  H  H26  1  0.275786  0.613937  0.021008  1
  H  H27  1  0.724214  0.113937  0.478992  1
  H  H28  1  0.611884  0.319661  0.033864  1
  H  H29  1  0.388116  0.819661  0.466136  1
  H  H30  1  0.388116  0.680339  0.966136  1
  H  H31  1  0.611884  0.180339  0.533864  1
  C  C32  1  0.039999  0.587355  0.233129  1
  C  C33  1  0.960001  0.087355  0.266871  1
  C  C34  1  0.960001  0.412645  0.766871  1
  C  C35  1  0.039999  0.912645  0.733129  1
  C  C36  1  0.464606  0.014519  0.768509  1
  C  C37  1  0.535394  0.514519  0.731491  1
  C  C38  1  0.535394  0.985481  0.231491  1
  C  C39  1  0.464606  0.485481  0.268509  1
  C  C40  1  0.272520  0.271284  0.939957  1
  C  C41  1  0.727480  0.771284  0.560043  1
  C  C42  1  0.727480  0.728716  0.060043  1
  C  C43  1  0.272520  0.228716  0.439957  1
  N  N44  1  0.981344  0.204485  0.191503  1
  N  N45  1  0.018656  0.704485  0.308497  1
  N  N46  1  0.018656  0.795515  0.808497  1
  N  N47  1  0.981344  0.295515  0.691503  1
  N  N48  1  0.488352  0.395914  0.765318  1
  N  N49  1  0.511648  0.895914  0.734682  1
  N  N50  1  0.511648  0.604086  0.234682  1
  N  N51  1  0.488352  0.104086  0.265318  1
  N  N52  1  0.194289  0.316368  0.012931  1
  N  N53  1  0.805711  0.816368  0.487069  1
  N  N54  1  0.805711  0.683632  0.987069  1
  N  N55  1  0.194289  0.183632  0.512931  1
  N  N56  1  0.797010  0.066653  0.866292  1
  N  N57  1  0.202990  0.566653  0.633708  1
  N  N58  1  0.202990  0.933347  0.133708  1
  N  N59  1  0.797010  0.433347  0.366292  1
  O  O60  1  0.693858  0.308262  0.055567  1
  O  O61  1  0.306142  0.808262  0.444433  1
  O  O62  1  0.306142  0.691738  0.944433  1
  O  O63  1  0.693858  0.191738  0.555567  1
