# generated using pymatgen
data_KGaBP2H3O10
_symmetry_space_group_name_H-M   'P 1'
_cell_length_a   8.54055310
_cell_length_b   8.32726655
_cell_length_c   7.18954745
_cell_angle_alpha   72.69956684
_cell_angle_beta   75.34294013
_cell_angle_gamma   75.04498261
_symmetry_Int_Tables_number   1
_chemical_formula_structural   KGaBP2H3O10
_chemical_formula_sum   'K2 Ga2 B2 P4 H6 O20'
_cell_volume   462.95481973
_cell_formula_units_Z   2
loop_
 _symmetry_equiv_pos_site_id
 _symmetry_equiv_pos_as_xyz
  1  'x, y, z'
loop_
 _atom_site_type_symbol
 _atom_site_label
 _atom_site_symmetry_multiplicity
 _atom_site_fract_x
 _atom_site_fract_y
 _atom_site_fract_z
 _atom_site_occupancy
  K  K0  1  0.378533  0.656358  0.770209  1
  K  K1  1  0.614360  0.301446  0.264661  1
  Ga  Ga2  1  0.027406  0.511970  0.315808  1
  Ga  Ga3  1  0.475556  0.031641  0.062112  1
  B  B4  1  0.000479  0.004427  0.242855  1
  B  B5  1  0.002109  0.987847  0.756350  1
  P  P6  1  0.198257  0.988887  0.021855  1
  P  P7  1  0.093050  0.814110  0.453192  1
  P  P8  1  0.907604  0.179992  0.545482  1
  P  P9  1  0.799157  0.020190  0.978127  1
  H  H10  1  0.786409  0.202783  0.919524  1
  H  H11  1  0.263186  0.820339  0.418960  1
  H  H12  1  -0.000923  0.518548  0.010486  1
  H  H13  1  0.737707  0.167622  0.597629  1
  H  H14  1  0.472034  0.032914  0.487487  1
  H  H15  1  0.240123  0.804639  0.084603  1
  O  O16  1  0.526632  0.760410  0.122071  1
  O  O17  1  0.492065  0.033879  0.634417  1
  O  O18  1  0.246927  0.365718  0.261729  1
  O  O19  1  0.708943  0.524647  0.870564  1
  O  O20  1  0.631505  0.744695  0.394915  1
  O  O21  1  0.963059  0.158046  0.322665  1
  O  O22  1  0.860165  0.975425  0.190222  1
  O  O23  1  0.906131  0.370507  0.525708  1
  O  O24  1  0.552378  0.672368  0.317952  1
  O  O25  1  0.056775  0.324587  0.944860  1
  O  O26  1  0.968083  0.613899  0.082000  1
  O  O27  1  0.451555  0.307593  0.677346  1
  O  O28  1  0.084176  0.629576  0.462862  1
  O  O29  1  0.148426  0.994388  0.814427  1
  O  O30  1  0.024986  0.838083  0.672669  1
  O  O31  1  0.368127  0.189087  0.659895  1
  O  O32  1  0.340879  0.476340  0.145665  1
  O  O33  1  0.751829  0.662231  0.780932  1
  O  O34  1  0.432162  0.053333  0.312502  1
  O  O35  1  0.490150  0.261475  0.877258  1
