# generated using pymatgen
data_Mn2GeSe4
_symmetry_space_group_name_H-M   'P 1'
_cell_length_a   6.40143243
_cell_length_b   7.66988485
_cell_length_c   13.20131150
_cell_angle_alpha   90.02774376
_cell_angle_beta   89.99570400
_cell_angle_gamma   90.02338303
_symmetry_Int_Tables_number   1
_chemical_formula_structural   Mn2GeSe4
_chemical_formula_sum   'Mn8 Ge4 Se16'
_cell_volume   648.16115553
_cell_formula_units_Z   4
loop_
 _symmetry_equiv_pos_site_id
 _symmetry_equiv_pos_as_xyz
  1  'x, y, z'
loop_
 _atom_site_type_symbol
 _atom_site_label
 _atom_site_symmetry_multiplicity
 _atom_site_fract_x
 _atom_site_fract_y
 _atom_site_fract_z
 _atom_site_occupancy
  Mn  Mn0  1  0.002094  0.749893  0.733491  1
  Mn  Mn1  1  0.497865  0.749975  0.233663  1
  Mn  Mn2  1  0.502079  0.249931  0.766381  1
  Mn  Mn3  1  0.499966  0.500033  0.499917  1
  Mn  Mn4  1  0.997865  0.250083  0.266524  1
  Mn  Mn5  1  0.000092  0.999949  0.000080  1
  Mn  Mn6  1  0.999959  0.500009  0.000089  1
  Mn  Mn7  1  0.499986  0.000109  0.499892  1
  Ge  Ge8  1  0.915599  0.749955  0.411406  1
  Ge  Ge9  1  0.415662  0.250040  0.088645  1
  Ge  Ge10  1  0.584380  0.749914  0.911394  1
  Ge  Ge11  1  0.084339  0.250076  0.588617  1
  Se  Se12  1  0.263422  0.496013  0.669047  1
  Se  Se13  1  0.242717  0.249977  0.922418  1
  Se  Se14  1  0.299916  0.749946  0.408368  1
  Se  Se15  1  0.236553  0.003852  0.169152  1
  Se  Se16  1  0.799899  0.249955  0.091742  1
  Se  Se17  1  0.236658  0.496052  0.169117  1
  Se  Se18  1  0.257459  0.249936  0.422411  1
  Se  Se19  1  0.200160  0.749898  0.908239  1
  Se  Se20  1  0.742510  0.750149  0.577541  1
  Se  Se21  1  0.700010  0.250176  0.591633  1
  Se  Se22  1  0.757327  0.750023  0.077564  1
  Se  Se23  1  0.736487  0.996394  0.330839  1
  Se  Se24  1  0.736572  0.504050  0.330951  1
  Se  Se25  1  0.263515  0.003628  0.669135  1
  Se  Se26  1  0.763556  0.996121  0.830833  1
  Se  Se27  1  0.763355  0.503861  0.830909  1
