# generated using pymatgen
data_Ca6Ga6Si3(HO12)2
_symmetry_space_group_name_H-M   'P 1'
_cell_length_a   7.97358595
_cell_length_b   7.79294827
_cell_length_c   23.37728872
_cell_angle_alpha   109.16352916
_cell_angle_beta   109.83801986
_cell_angle_gamma   109.65262438
_symmetry_Int_Tables_number   1
_chemical_formula_structural   Ca6Ga6Si3(HO12)2
_chemical_formula_sum   'Ca12 Ga12 Si6 H4 O48'
_cell_volume   1114.85884911
_cell_formula_units_Z   2
loop_
 _symmetry_equiv_pos_site_id
 _symmetry_equiv_pos_as_xyz
  1  'x, y, z'
loop_
 _atom_site_type_symbol
 _atom_site_label
 _atom_site_symmetry_multiplicity
 _atom_site_fract_x
 _atom_site_fract_y
 _atom_site_fract_z
 _atom_site_occupancy
  Ca  Ca0  1  0.002015  0.002548  0.903876  1
  Ca  Ca1  1  0.287020  0.280073  0.761090  1
  Ca  Ca2  1  0.688582  0.992369  0.666328  1
  Ca  Ca3  1  0.294107  0.281365  0.426723  1
  Ca  Ca4  1  0.687801  0.994893  0.331486  1
  Ca  Ca5  1  0.016007  0.713999  0.668368  1
  Ca  Ca6  1  0.010535  0.997230  0.570952  1
  Ca  Ca7  1  0.296123  0.297428  0.097924  1
  Ca  Ca8  1  0.009542  0.709129  0.331795  1
  Ca  Ca9  1  0.009008  0.000436  0.236536  1
  Ca  Ca10  1  0.715704  0.003460  0.000161  1
  Ca  Ca11  1  0.998776  0.714583  0.000525  1
  Ga  Ga12  1  0.246314  0.501915  0.918137  1
  Ga  Ga13  1  0.497558  0.745751  0.753128  1
  Ga  Ga14  1  0.492787  0.245977  0.913451  1
  Ga  Ga15  1  0.250394  0.757650  0.501160  1
  Ga  Ga16  1  0.254101  0.755362  0.165402  1
  Ga  Ga17  1  0.751032  0.498433  0.749824  1
  Ga  Ga18  1  0.250698  0.496777  0.250531  1
  Ga  Ga19  1  0.750697  0.251894  0.834281  1
  Ga  Ga20  1  0.742817  0.502202  0.413996  1
  Ga  Ga21  1  0.749600  0.240925  0.499908  1
  Ga  Ga22  1  0.749031  0.503274  0.082034  1
  Ga  Ga23  1  0.743705  0.242462  0.167002  1
  Si  Si24  1  0.246892  0.745623  0.832648  1
  Si  Si25  1  0.254804  0.498258  0.582859  1
  Si  Si26  1  0.498948  0.747976  0.418388  1
  Si  Si27  1  0.507089  0.265596  0.584323  1
  Si  Si28  1  0.502907  0.750757  0.083677  1
  Si  Si29  1  0.501089  0.253777  0.250042  1
  H  H30  1  0.364773  0.013500  0.671013  1
  H  H31  1  0.654683  0.652773  0.885132  1
  H  H32  1  0.361375  0.007312  0.335368  1
  H  H33  1  0.353591  0.019959  0.006725  1
  O  O34  1  0.974740  0.988922  0.724223  1
  O  O35  1  0.001369  0.467343  0.912003  1
  O  O36  1  0.019064  0.726041  0.814151  1
  O  O37  1  0.429615  0.975409  0.902457  1
  O  O38  1  0.228749  0.988254  0.662907  1
  O  O39  1  0.275594  0.562795  0.848317  1
  O  O40  1  0.264644  0.718404  0.761485  1
  O  O41  1  0.260801  0.263163  0.903907  1
  O  O42  1  0.998979  0.736151  0.480157  1
  O  O43  1  0.422097  0.705255  0.660723  1
  O  O44  1  0.443640  0.032478  0.577448  1
  O  O45  1  0.234439  0.996891  0.333508  1
  O  O46  1  0.278055  0.553484  0.522701  1
  O  O47  1  0.779153  0.778480  0.925384  1
  O  O48  1  0.535158  0.273442  0.843370  1
  O  O49  1  0.293573  0.723054  0.425752  1
  O  O50  1  0.300548  0.297225  0.573560  1
  O  O51  1  0.541360  0.533910  0.757915  1
  O  O52  1  0.715080  0.257698  0.751740  1
  O  O53  1  0.451760  0.732023  0.342271  1
  O  O54  1  0.457557  0.025707  0.244797  1
  O  O55  1  0.712647  0.451929  0.659937  1
  O  O56  1  0.733416  0.994846  0.817010  1
  O  O57  1  0.299675  0.563597  0.187833  1
  O  O58  1  0.798631  0.812402  0.603791  1
  O  O59  1  0.554648  0.281499  0.522319  1
  O  O60  1  0.297120  0.272898  0.245100  1
  O  O61  1  0.298031  0.731718  0.090325  1
  O  O62  1  0.541693  0.561051  0.425344  1
  O  O63  1  0.700124  0.265114  0.421679  1
  O  O64  1  0.461458  0.736329  0.007602  1
  O  O65  1  0.218399  0.998970  0.998959  1
  O  O66  1  0.710934  0.445146  0.326129  1
  O  O67  1  0.707994  0.975093  0.482234  1
  O  O68  1  0.711712  0.977647  0.148503  1
  O  O69  1  0.970920  0.173628  0.662353  1
  O  O70  1  0.983506  0.003445  0.395246  1
  O  O71  1  0.806408  0.821584  0.274592  1
  O  O72  1  0.023489  0.423388  0.574435  1
  O  O73  1  0.544664  0.276447  0.188342  1
  O  O74  1  0.546565  0.565202  0.091757  1
  O  O75  1  0.695153  0.258660  0.087067  1
  O  O76  1  0.734802  0.445010  0.997342  1
  O  O77  1  0.983411  0.184706  0.335646  1
  O  O78  1  0.007239  0.013022  0.075783  1
  O  O79  1  0.001429  0.435639  0.246528  1
  O  O80  1  0.006328  0.737887  0.151656  1
  O  O81  1  0.004857  0.220682  0.002030  1
