# generated using pymatgen
data_Ta2Br5
_symmetry_space_group_name_H-M   'P 1'
_cell_length_a   18.80991510
_cell_length_b   18.80991449
_cell_length_c   18.80991456
_cell_angle_alpha   109.47121957
_cell_angle_beta   109.47121889
_cell_angle_gamma   109.47122301
_symmetry_Int_Tables_number   1
_chemical_formula_structural   Ta2Br5
_chemical_formula_sum   'Ta48 Br120'
_cell_volume   5123.16792376
_cell_formula_units_Z   24
loop_
 _symmetry_equiv_pos_site_id
 _symmetry_equiv_pos_as_xyz
  1  'x, y, z'
loop_
 _atom_site_type_symbol
 _atom_site_label
 _atom_site_symmetry_multiplicity
 _atom_site_fract_x
 _atom_site_fract_y
 _atom_site_fract_z
 _atom_site_occupancy
  Ta  Ta0  1  0.396113  0.983623  0.524400  1
  Ta  Ta1  1  0.412490  0.016377  0.040777  1
  Ta  Ta2  1  0.024400  0.483623  0.896113  1
  Ta  Ta3  1  0.959223  0.871714  0.975600  1
  Ta  Ta4  1  0.371714  0.412490  0.896113  1
  Ta  Ta5  1  0.483623  0.087510  0.459223  1
  Ta  Ta6  1  0.475600  0.603887  0.016377  1
  Ta  Ta7  1  0.896113  0.371714  0.412490  1
  Ta  Ta8  1  0.524400  0.628286  0.540777  1
  Ta  Ta9  1  0.540777  0.524400  0.628286  1
  Ta  Ta10  1  0.087510  0.128286  0.603887  1
  Ta  Ta11  1  0.896113  0.024400  0.483623  1
  Ta  Ta12  1  0.871714  0.396113  0.912490  1
  Ta  Ta13  1  0.912490  0.540777  0.516377  1
  Ta  Ta14  1  0.396113  0.912490  0.871714  1
  Ta  Ta15  1  0.959223  0.587510  0.983623  1
  Ta  Ta16  1  0.371714  0.459223  0.475600  1
  Ta  Ta17  1  0.524400  0.396113  0.983623  1
  Ta  Ta18  1  0.040777  0.412490  0.016377  1
  Ta  Ta19  1  0.983623  0.959223  0.587510  1
  Ta  Ta20  1  0.483623  0.896113  0.024400  1
  Ta  Ta21  1  0.983623  0.524400  0.396113  1
  Ta  Ta22  1  0.628286  0.587510  0.103887  1
  Ta  Ta23  1  0.087510  0.459223  0.483623  1
  Ta  Ta24  1  0.628286  0.540777  0.524400  1
  Ta  Ta25  1  0.103887  0.628286  0.587510  1
  Ta  Ta26  1  0.516377  0.103887  0.975600  1
  Ta  Ta27  1  0.871714  0.975600  0.959223  1
  Ta  Ta28  1  0.024400  0.040777  0.128286  1
  Ta  Ta29  1  0.603887  0.087510  0.128286  1
  Ta  Ta30  1  0.128286  0.603887  0.087510  1
  Ta  Ta31  1  0.040777  0.128286  0.024400  1
  Ta  Ta32  1  0.603887  0.016377  0.475600  1
  Ta  Ta33  1  0.975600  0.516377  0.103887  1
  Ta  Ta34  1  0.516377  0.912490  0.540777  1
  Ta  Ta35  1  0.975600  0.959223  0.871714  1
  Ta  Ta36  1  0.128286  0.024400  0.040777  1
  Ta  Ta37  1  0.459223  0.483623  0.087510  1
  Ta  Ta38  1  0.103887  0.975600  0.516377  1
  Ta  Ta39  1  0.912490  0.871714  0.396113  1
  Ta  Ta40  1  0.587510  0.983623  0.959223  1
  Ta  Ta41  1  0.459223  0.475600  0.371714  1
  Ta  Ta42  1  0.016377  0.040777  0.412490  1
  Ta  Ta43  1  0.475600  0.371714  0.459223  1
  Ta  Ta44  1  0.540777  0.516377  0.912490  1
  Ta  Ta45  1  0.587510  0.103887  0.628286  1
  Ta  Ta46  1  0.412490  0.896113  0.371714  1
  Ta  Ta47  1  0.016377  0.475600  0.603887  1
  Br  Br48  1  0.293397  0.372718  0.979515  1
  Br  Br49  1  0.607104  0.553552  0.803552  1
  Br  Br50  1  0.628483  0.394849  0.487904  1
  Br  Br51  1  0.371517  0.605151  0.512096  1
  Br  Br52  1  0.946448  0.892896  0.696448  1
  Br  Br53  1  0.105151  0.871517  0.012096  1
  Br  Br54  1  0.392896  0.446448  0.196448  1
  Br  Br55  1  0.479515  0.106798  0.686119  1
  Br  Br56  1  0.128483  0.987904  0.894849  1
  Br  Br57  1  0.686119  0.706603  0.579321  1
  Br  Br58  1  0.393202  0.872718  0.579321  1
  Br  Br59  1  0.512096  0.371517  0.605151  1
  Br  Br60  1  0.520485  0.127282  0.206603  1
  Br  Br61  1  0.893202  0.313881  0.520485  1
  Br  Br62  1  0.605151  0.512096  0.371517  1
  Br  Br63  1  0.196448  0.303552  0.750000  1
  Br  Br64  1  0.696448  0.946448  0.892896  1
  Br  Br65  1  0.987904  0.593056  0.859421  1
  Br  Br66  1  0.020484  0.813881  0.393202  1
  Br  Br67  1  0.793397  0.479515  0.872718  1
  Br  Br68  1  0.406944  0.766366  0.394849  1
  Br  Br69  1  0.733634  0.093056  0.105151  1
  Br  Br70  1  0.872718  0.579321  0.393202  1
  Br  Br71  1  0.605151  0.593056  0.233634  1
  Br  Br72  1  0.871517  0.359421  0.766366  1
  Br  Br73  1  0.053552  0.107104  0.303552  1
  Br  Br74  1  0.266366  0.906944  0.894849  1
  Br  Br75  1  0.303552  0.053552  0.107104  1
  Br  Br76  1  0.446448  0.750000  0.053552  1
  Br  Br77  1  0.894849  0.266366  0.906944  1
  Br  Br78  1  0.553552  0.250000  0.946448  1
  Br  Br79  1  0.372718  0.893202  0.079321  1
  Br  Br80  1  0.750000  0.196448  0.303552  1
  Br  Br81  1  0.750000  0.053552  0.446448  1
  Br  Br82  1  0.106798  0.686119  0.479515  1
  Br  Br83  1  0.053552  0.446448  0.750000  1
  Br  Br84  1  0.871517  0.012096  0.105151  1
  Br  Br85  1  0.186119  0.606798  0.979515  1
  Br  Br86  1  0.706603  0.579321  0.686119  1
  Br  Br87  1  0.593056  0.859421  0.987904  1
  Br  Br88  1  0.107104  0.303552  0.053552  1
  Br  Br89  1  0.093056  0.105151  0.733634  1
  Br  Br90  1  0.803552  0.696448  0.250000  1
  Br  Br91  1  0.813881  0.920679  0.793397  1
  Br  Br92  1  0.012096  0.105151  0.871517  1
  Br  Br93  1  0.628483  0.733634  0.140579  1
  Br  Br94  1  0.627282  0.106798  0.920679  1
  Br  Br95  1  0.371517  0.266366  0.859421  1
  Br  Br96  1  0.606798  0.127282  0.420679  1
  Br  Br97  1  0.206603  0.520485  0.127282  1
  Br  Br98  1  0.593056  0.233634  0.605151  1
  Br  Br99  1  0.512096  0.640579  0.906944  1
  Br  Br100  1  0.359421  0.093056  0.487904  1
  Br  Br101  1  0.420679  0.606798  0.127282  1
  Br  Br102  1  0.394849  0.487904  0.628483  1
  Br  Br103  1  0.105151  0.733634  0.093056  1
  Br  Br104  1  0.553552  0.803552  0.607104  1
  Br  Br105  1  0.487904  0.628483  0.394849  1
  Br  Br106  1  0.406944  0.140579  0.012096  1
  Br  Br107  1  0.487904  0.359421  0.093056  1
  Br  Br108  1  0.920679  0.793397  0.813881  1
  Br  Br109  1  0.303552  0.750000  0.196448  1
  Br  Br110  1  0.793397  0.813881  0.920679  1
  Br  Br111  1  0.446448  0.196448  0.392896  1
  Br  Br112  1  0.686119  0.479515  0.106798  1
  Br  Br113  1  0.106798  0.920679  0.627282  1
  Br  Br114  1  0.894849  0.128483  0.987904  1
  Br  Br115  1  0.979515  0.293397  0.372718  1
  Br  Br116  1  0.233634  0.605151  0.593056  1
  Br  Br117  1  0.250000  0.803552  0.696448  1
  Br  Br118  1  0.627282  0.020484  0.706603  1
  Br  Br119  1  0.140579  0.012096  0.406944  1
  Br  Br120  1  0.140579  0.628483  0.733634  1
  Br  Br121  1  0.640579  0.906944  0.512096  1
  Br  Br122  1  0.020484  0.706603  0.627282  1
  Br  Br123  1  0.906944  0.894849  0.266366  1
  Br  Br124  1  0.093056  0.487904  0.359421  1
  Br  Br125  1  0.872718  0.793397  0.479515  1
  Br  Br126  1  0.946448  0.553552  0.250000  1
  Br  Br127  1  0.859421  0.371517  0.266366  1
  Br  Br128  1  0.127282  0.206603  0.520485  1
  Br  Br129  1  0.359421  0.766366  0.871517  1
  Br  Br130  1  0.579321  0.393202  0.872718  1
  Br  Br131  1  0.250000  0.946448  0.553552  1
  Br  Br132  1  0.393202  0.020484  0.813881  1
  Br  Br133  1  0.420679  0.313881  0.293397  1
  Br  Br134  1  0.766366  0.871517  0.359421  1
  Br  Br135  1  0.893202  0.079321  0.372718  1
  Br  Br136  1  0.906944  0.512096  0.640579  1
  Br  Br137  1  0.012096  0.406944  0.140579  1
  Br  Br138  1  0.372718  0.979515  0.293397  1
  Br  Br139  1  0.813881  0.393202  0.020484  1
  Br  Br140  1  0.128483  0.640579  0.233634  1
  Br  Br141  1  0.803552  0.607104  0.553552  1
  Br  Br142  1  0.206603  0.186119  0.079321  1
  Br  Br143  1  0.394849  0.406944  0.766366  1
  Br  Br144  1  0.079321  0.206603  0.186119  1
  Br  Br145  1  0.293397  0.420679  0.313881  1
  Br  Br146  1  0.979515  0.186119  0.606798  1
  Br  Br147  1  0.313881  0.520485  0.893202  1
  Br  Br148  1  0.920679  0.627282  0.106798  1
  Br  Br149  1  0.892896  0.696448  0.946448  1
  Br  Br150  1  0.079321  0.372718  0.893202  1
  Br  Br151  1  0.196448  0.392896  0.446448  1
  Br  Br152  1  0.479515  0.872718  0.793397  1
  Br  Br153  1  0.859421  0.987904  0.593056  1
  Br  Br154  1  0.579321  0.686119  0.706603  1
  Br  Br155  1  0.640579  0.233634  0.128483  1
  Br  Br156  1  0.520485  0.893202  0.313881  1
  Br  Br157  1  0.127282  0.420679  0.606798  1
  Br  Br158  1  0.766366  0.394849  0.406944  1
  Br  Br159  1  0.987904  0.894849  0.128483  1
  Br  Br160  1  0.706603  0.627282  0.020484  1
  Br  Br161  1  0.696448  0.250000  0.803552  1
  Br  Br162  1  0.266366  0.859421  0.371517  1
  Br  Br163  1  0.606798  0.979515  0.186119  1
  Br  Br164  1  0.733634  0.140579  0.628483  1
  Br  Br165  1  0.233634  0.128483  0.640579  1
  Br  Br166  1  0.186119  0.079321  0.206603  1
  Br  Br167  1  0.313881  0.293397  0.420679  1
