# generated using pymatgen
data_Na3Sm17Si12(O25F)2
_symmetry_space_group_name_H-M   'P 1'
_cell_length_a   9.56287773
_cell_length_b   9.56287744
_cell_length_c   14.02426361
_cell_angle_alpha   90.00000000
_cell_angle_beta   90.00000000
_cell_angle_gamma   120.00000096
_symmetry_Int_Tables_number   1
_chemical_formula_structural   Na3Sm17Si12(O25F)2
_chemical_formula_sum   'Na3 Sm17 Si12 O50 F2'
_cell_volume   1110.67727716
_cell_formula_units_Z   1
loop_
 _symmetry_equiv_pos_site_id
 _symmetry_equiv_pos_as_xyz
  1  'x, y, z'
loop_
 _atom_site_type_symbol
 _atom_site_label
 _atom_site_symmetry_multiplicity
 _atom_site_fract_x
 _atom_site_fract_y
 _atom_site_fract_z
 _atom_site_occupancy
  Na  Na0  1  0.333333  0.666667  0.747062  1
  Na  Na1  1  0.666667  0.333333  0.998142  1
  Na  Na2  1  0.666667  0.333333  0.496047  1
  Sm  Sm3  1  0.233089  0.992339  0.124455  1
  Sm  Sm4  1  0.249661  0.991298  0.624891  1
  Sm  Sm5  1  0.007661  0.240750  0.124455  1
  Sm  Sm6  1  0.008702  0.258363  0.624891  1
  Sm  Sm7  1  0.333333  0.666667  0.505247  1
  Sm  Sm8  1  0.333333  0.666667  0.994466  1
  Sm  Sm9  1  0.333333  0.666667  0.249491  1
  Sm  Sm10  1  0.243836  0.233157  0.375554  1
  Sm  Sm11  1  0.259085  0.249866  0.875639  1
  Sm  Sm12  1  0.759250  0.766911  0.124455  1
  Sm  Sm13  1  0.741637  0.750339  0.624891  1
  Sm  Sm14  1  0.666667  0.333333  0.248784  1
  Sm  Sm15  1  0.666667  0.333333  0.750255  1
  Sm  Sm16  1  0.989322  0.756164  0.375554  1
  Sm  Sm17  1  0.990782  0.740915  0.875639  1
  Sm  Sm18  1  0.766843  0.010678  0.375554  1
  Sm  Sm19  1  0.750134  0.009218  0.875639  1
  Si  Si20  1  0.028380  0.398236  0.373249  1
  Si  Si21  1  0.026479  0.391659  0.873789  1
  Si  Si22  1  0.369857  0.971620  0.373249  1
  Si  Si23  1  0.365180  0.973521  0.873789  1
  Si  Si24  1  0.399253  0.370216  0.125003  1
  Si  Si25  1  0.392334  0.365365  0.623625  1
  Si  Si26  1  0.601764  0.630143  0.373249  1
  Si  Si27  1  0.608341  0.634820  0.873789  1
  Si  Si28  1  0.629784  0.029037  0.125003  1
  Si  Si29  1  0.634635  0.026969  0.623625  1
  Si  Si30  1  0.973031  0.607666  0.623625  1
  Si  Si31  1  0.970963  0.600747  0.125003  1
  O  O32  1  0.000000  0.000000  0.127043  1
  O  O33  1  0.251787  0.906289  0.467640  1
  O  O34  1  0.246112  0.905016  0.968273  1
  O  O35  1  0.246571  0.898306  0.280818  1
  O  O36  1  0.234680  0.912765  0.785230  1
  O  O37  1  0.125753  0.597926  0.375065  1
  O  O38  1  0.118342  0.590217  0.877887  1
  O  O39  1  0.169980  0.682192  0.124380  1
  O  O40  1  0.169230  0.691332  0.620385  1
  O  O41  1  0.101694  0.348265  0.280818  1
  O  O42  1  0.087235  0.321915  0.785230  1
  O  O43  1  0.093711  0.345499  0.467640  1
  O  O44  1  0.094984  0.341096  0.968273  1
  O  O45  1  0.000000  0.000000  0.376720  1
  O  O46  1  0.471876  0.881658  0.877887  1
  O  O47  1  0.472172  0.874247  0.375065  1
  O  O48  1  0.317808  0.487788  0.124380  1
  O  O49  1  0.308668  0.477898  0.620385  1
  O  O50  1  0.512212  0.830020  0.124380  1
  O  O51  1  0.522102  0.830770  0.620385  1
  O  O52  1  0.402074  0.527828  0.375065  1
  O  O53  1  0.409783  0.528124  0.877887  1
  O  O54  1  0.325838  0.244634  0.034899  1
  O  O55  1  0.321389  0.234865  0.535298  1
  O  O56  1  0.341596  0.249724  0.218817  1
  O  O57  1  0.339931  0.246478  0.717955  1
  O  O58  1  0.651735  0.753429  0.280818  1
  O  O59  1  0.654501  0.748213  0.467640  1
  O  O60  1  0.678085  0.765320  0.785230  1
  O  O61  1  0.658904  0.753888  0.968273  1
  O  O62  1  0.595789  0.476545  0.129099  1
  O  O63  1  0.590380  0.473218  0.628637  1
  O  O64  1  0.477191  0.166660  0.369447  1
  O  O65  1  0.477944  0.169305  0.869770  1
  O  O66  1  0.689468  0.522809  0.369447  1
  O  O67  1  0.691362  0.522056  0.869770  1
  O  O68  1  0.523455  0.119244  0.129099  1
  O  O69  1  0.526782  0.117162  0.628637  1
  O  O70  1  0.918796  0.674162  0.034899  1
  O  O71  1  0.908128  0.658404  0.218817  1
  O  O72  1  0.913477  0.678611  0.535298  1
  O  O73  1  0.906547  0.660069  0.717955  1
  O  O74  1  0.833340  0.310532  0.369447  1
  O  O75  1  0.830695  0.308638  0.869770  1
  O  O76  1  0.880756  0.404211  0.129099  1
  O  O77  1  0.882838  0.409620  0.628637  1
  O  O78  1  0.750276  0.091872  0.218817  1
  O  O79  1  0.753522  0.093452  0.717955  1
  O  O80  1  0.755366  0.081204  0.034899  1
  O  O81  1  0.765135  0.086523  0.535298  1
  F  F82  1  0.000000  0.000000  0.629937  1
  F  F83  1  0.000000  0.000000  0.877396  1
