# generated using pymatgen
data_NaU2Cl6
_symmetry_space_group_name_H-M   'P 1'
_cell_length_a   7.73662597
_cell_length_b   15.54172655
_cell_length_c   4.12508494
_cell_angle_alpha   90.96273019
_cell_angle_beta   89.46413085
_cell_angle_gamma   120.34234412
_symmetry_Int_Tables_number   1
_chemical_formula_structural   NaU2Cl6
_chemical_formula_sum   'Na2 U4 Cl12'
_cell_volume   428.00054566
_cell_formula_units_Z   2
loop_
 _symmetry_equiv_pos_site_id
 _symmetry_equiv_pos_as_xyz
  1  'x, y, z'
loop_
 _atom_site_type_symbol
 _atom_site_label
 _atom_site_symmetry_multiplicity
 _atom_site_fract_x
 _atom_site_fract_y
 _atom_site_fract_z
 _atom_site_occupancy
  Na  Na0  1  0.000459  -0.000892  0.998896  1
  Na  Na1  1  -0.000499  0.500188  0.501974  1
  U  U2  1  0.331731  0.833216  0.245825  1
  U  U3  1  0.326666  0.332521  0.246734  1
  U  U4  1  0.669880  0.667028  0.755035  1
  U  U5  1  0.668652  0.166665  0.755584  1
  Cl  Cl6  1  0.305293  0.961014  0.745504  1
  Cl  Cl7  1  0.086143  0.691468  0.747647  1
  Cl  Cl8  1  0.386986  0.653277  0.251448  1
  Cl  Cl9  1  0.620725  0.850701  0.748505  1
  Cl  Cl10  1  0.304437  0.461762  0.748214  1
  Cl  Cl11  1  0.084040  0.191746  0.749570  1
  Cl  Cl12  1  0.922559  0.808241  0.248221  1
  Cl  Cl13  1  0.705547  0.542463  0.250788  1
  Cl  Cl14  1  0.383814  0.151520  0.250329  1
  Cl  Cl15  1  0.615177  0.349452  0.748453  1
  Cl  Cl16  1  0.920312  0.309943  0.249907  1
  Cl  Cl17  1  0.703531  0.041924  0.252049  1
