# generated using pymatgen
data_Na3Pb2S3ClO12
_symmetry_space_group_name_H-M   'P 1'
_cell_length_a   9.90809018
_cell_length_b   9.97838429
_cell_length_c   7.16947798
_cell_angle_alpha   90.00000000
_cell_angle_beta   90.00000000
_cell_angle_gamma   119.88678285
_symmetry_Int_Tables_number   1
_chemical_formula_structural   Na3Pb2S3ClO12
_chemical_formula_sum   'Na6 Pb4 S6 Cl2 O24'
_cell_volume   614.55772016
_cell_formula_units_Z   2
loop_
 _symmetry_equiv_pos_site_id
 _symmetry_equiv_pos_as_xyz
  1  'x, y, z'
loop_
 _atom_site_type_symbol
 _atom_site_label
 _atom_site_symmetry_multiplicity
 _atom_site_fract_x
 _atom_site_fract_y
 _atom_site_fract_z
 _atom_site_occupancy
  Na  Na0  1  0.260175  0.000068  0.250000  1
  Na  Na1  1  0.339206  0.674520  0.001984  1
  Na  Na2  1  0.339206  0.674520  0.498016  1
  Na  Na3  1  0.660794  0.325480  0.501984  1
  Na  Na4  1  0.660794  0.325480  0.998016  1
  Na  Na5  1  0.739825  -0.000068  0.750000  1
  Pb  Pb6  1  0.994336  0.242174  0.250000  1
  Pb  Pb7  1  0.258450  0.249276  0.750000  1
  Pb  Pb8  1  0.741550  0.750724  0.250000  1
  Pb  Pb9  1  0.005664  0.757826  0.750000  1
  S  S10  1  0.033344  0.412684  0.750000  1
  S  S11  1  0.377676  0.964244  0.750000  1
  S  S12  1  0.413376  0.381088  0.250000  1
  S  S13  1  0.586624  0.618912  0.750000  1
  S  S14  1  0.622324  0.035756  0.250000  1
  S  S15  1  0.966656  0.587316  0.250000  1
  Cl  Cl16  1  0.000000  0.000000  0.000000  1
  Cl  Cl17  1  0.000000  0.000000  0.500000  1
  O  O18  1  0.135752  0.645284  0.250000  1
  O  O19  1  0.272445  0.915919  0.581566  1
  O  O20  1  0.272445  0.915919  0.918434  1
  O  O21  1  0.124743  0.586431  0.750000  1
  O  O22  1  0.082878  0.357492  0.582726  1
  O  O23  1  0.082878  0.357492  0.917274  1
  O  O24  1  0.466175  0.880854  0.750000  1
  O  O25  1  0.516810  0.864724  0.250000  1
  O  O26  1  0.358304  0.494820  0.250000  1
  O  O27  1  0.410930  0.536582  0.750000  1
  O  O28  1  0.357403  0.279152  0.082553  1
  O  O29  1  0.357403  0.279152  0.417447  1
  O  O30  1  0.642597  0.720848  0.582553  1
  O  O31  1  0.642597  0.720848  0.917447  1
  O  O32  1  0.589070  0.463418  0.250000  1
  O  O33  1  0.641696  0.505180  0.750000  1
  O  O34  1  0.483190  0.135276  0.750000  1
  O  O35  1  0.533825  0.119146  0.250000  1
  O  O36  1  0.917122  0.642508  0.082726  1
  O  O37  1  0.917122  0.642508  0.417274  1
  O  O38  1  0.875257  0.413569  0.250000  1
  O  O39  1  0.727555  0.084081  0.081566  1
  O  O40  1  0.727555  0.084081  0.418434  1
  O  O41  1  0.864248  0.354716  0.750000  1
