# generated using pymatgen
data_Nd4AlSi5(NO)7
_symmetry_space_group_name_H-M   'P 1'
_cell_length_a   6.95714423
_cell_length_b   6.83639165
_cell_length_c   20.50503271
_cell_angle_alpha   87.41248687
_cell_angle_beta   86.01214090
_cell_angle_gamma   91.45264708
_symmetry_Int_Tables_number   1
_chemical_formula_structural   Nd4AlSi5(NO)7
_chemical_formula_sum   'Nd12 Al3 Si15 N21 O21'
_cell_volume   971.50503361
_cell_formula_units_Z   3
loop_
 _symmetry_equiv_pos_site_id
 _symmetry_equiv_pos_as_xyz
  1  'x, y, z'
loop_
 _atom_site_type_symbol
 _atom_site_label
 _atom_site_symmetry_multiplicity
 _atom_site_fract_x
 _atom_site_fract_y
 _atom_site_fract_z
 _atom_site_occupancy
  Nd  Nd0  1  0.388981  0.276288  0.275968  1
  Nd  Nd1  1  0.411255  0.297247  0.585157  1
  Nd  Nd2  1  0.379509  0.678281  0.088791  1
  Nd  Nd3  1  0.415382  0.718398  0.419643  1
  Nd  Nd4  1  0.364392  0.362893  0.903574  1
  Nd  Nd5  1  0.329670  0.732201  0.728914  1
  Nd  Nd6  1  0.631433  0.175540  0.112427  1
  Nd  Nd7  1  0.621035  0.186683  0.422111  1
  Nd  Nd8  1  0.677018  0.812525  0.573401  1
  Nd  Nd9  1  0.630359  0.763130  0.263934  1
  Nd  Nd10  1  0.585029  0.820464  0.886516  1
  Nd  Nd11  1  0.634687  0.251479  0.747134  1
  Al  Al12  1  0.924357  0.014951  0.332650  1
  Al  Al13  1  0.801533  0.646415  0.004928  1
  Al  Al14  1  0.799742  0.625601  0.696739  1
  Si  Si15  1  0.026898  0.031856  0.013529  1
  Si  Si16  1  0.927797  0.548228  0.137664  1
  Si  Si17  1  0.045957  0.979710  0.652207  1
  Si  Si18  1  0.844355  0.367884  0.297006  1
  Si  Si19  1  0.869158  0.356322  0.617874  1
  Si  Si20  1  0.831851  0.588104  0.395977  1
  Si  Si21  1  0.852554  0.290976  0.978845  1
  Si  Si22  1  0.153038  0.162215  0.136180  1
  Si  Si23  1  0.164406  0.075700  0.445499  1
  Si  Si24  1  0.180590  0.891462  0.205230  1
  Si  Si25  1  0.144361  0.097683  0.800065  1
  Si  Si26  1  0.240684  0.878049  0.540283  1
  Si  Si27  1  0.098688  0.850832  0.884176  1
  Si  Si28  1  0.089597  0.498112  0.497226  1
  Si  Si29  1  0.934913  0.460651  0.838885  1
  N  N30  1  0.490932  0.514091  0.336751  1
  N  N31  1  0.550545  0.562109  0.664190  1
  N  N32  1  0.623306  0.459149  0.193503  1
  N  N33  1  0.185718  0.537402  0.819576  1
  N  N34  1  0.263549  0.623735  0.533234  1
  N  N35  1  0.276129  0.685770  0.859231  1
  N  N36  1  0.683817  0.079966  0.985452  1
  N  N37  1  0.705883  0.151060  0.302647  1
  N  N38  1  0.676128  0.545999  0.126690  1
  N  N39  1  0.705483  0.494430  0.478977  1
  N  N40  1  0.808678  0.501461  0.221459  1
  N  N41  1  0.750321  0.813991  0.374648  1
  N  N42  1  0.790298  0.925227  0.028220  1
  N  N43  1  0.782617  0.004016  0.675473  1
  N  N44  1  0.695587  0.151610  0.631151  1
  N  N45  1  0.773552  0.603340  0.791049  1
  N  N46  1  0.856107  0.473635  0.533618  1
  N  N47  1  0.665741  0.468864  0.845805  1
  N  N48  1  0.424558  0.917224  0.184121  1
  N  N49  1  0.475776  0.987348  0.508735  1
  N  N50  1  0.379347  0.118785  0.823467  1
  O  O51  1  0.538658  0.638594  0.984457  1
  O  O52  1  0.187160  0.019196  0.070219  1
  O  O53  1  0.069120  0.869796  0.278467  1
  O  O54  1  0.331011  0.327641  0.124419  1
  O  O55  1  0.327127  0.058362  0.380876  1
  O  O56  1  0.295945  0.941202  0.619382  1
  O  O57  1  0.214548  0.293763  0.480896  1
  O  O58  1  0.174658  0.048598  0.722673  1
  O  O59  1  0.174839  0.956182  0.950775  1
  O  O60  1  0.112369  0.681485  0.169790  1
  O  O61  1  0.001057  0.907555  0.571430  1
  O  O62  1  0.903507  0.721834  0.914648  1
  O  O63  1  0.959196  0.294426  0.130441  1
  O  O64  1  0.957683  0.113007  0.414087  1
  O  O65  1  0.958727  0.253997  0.793761  1
  O  O66  1  0.008775  0.625913  0.059686  1
  O  O67  1  0.057639  0.600135  0.423342  1
  O  O68  1  0.030338  0.741019  0.688168  1
  O  O69  1  0.059142  0.270155  0.291891  1
  O  O70  1  0.078595  0.237038  0.620381  1
  O  O71  1  -0.003396  0.341008  0.909682  1
