# generated using pymatgen
data_CuH2(CO2)2
_symmetry_space_group_name_H-M   'P 1'
_cell_length_a   6.39311639
_cell_length_b   9.63702113
_cell_length_c   14.00743279
_cell_angle_alpha   90.00000000
_cell_angle_beta   90.00000000
_cell_angle_gamma   90.00000000
_symmetry_Int_Tables_number   1
_chemical_formula_structural   CuH2(CO2)2
_chemical_formula_sum   'Cu8 H16 C16 O32'
_cell_volume   863.00630695
_cell_formula_units_Z   8
loop_
 _symmetry_equiv_pos_site_id
 _symmetry_equiv_pos_as_xyz
  1  'x, y, z'
loop_
 _atom_site_type_symbol
 _atom_site_label
 _atom_site_symmetry_multiplicity
 _atom_site_fract_x
 _atom_site_fract_y
 _atom_site_fract_z
 _atom_site_occupancy
  Cu  Cu0  1  0.801381  0.856491  0.396651  1
  Cu  Cu1  1  0.801381  0.356491  0.103349  1
  Cu  Cu2  1  0.698619  0.856491  0.896651  1
  Cu  Cu3  1  0.301381  0.143509  0.103349  1
  Cu  Cu4  1  0.301381  0.643509  0.396651  1
  Cu  Cu5  1  0.698619  0.356491  0.603349  1
  Cu  Cu6  1  0.198619  0.143509  0.603349  1
  Cu  Cu7  1  0.198619  0.643509  0.896651  1
  H  H8  1  0.365843  0.818851  0.752273  1
  H  H9  1  0.365843  0.318851  0.747727  1
  H  H10  1  0.865843  0.681149  0.752273  1
  H  H11  1  0.634157  0.681149  0.252273  1
  H  H12  1  0.134157  0.818851  0.252273  1
  H  H13  1  0.634157  0.181149  0.247727  1
  H  H14  1  0.710162  0.695203  0.581315  1
  H  H15  1  0.789838  0.695203  0.081315  1
  H  H16  1  0.710162  0.195203  0.918685  1
  H  H17  1  0.865843  0.181149  0.747727  1
  H  H18  1  0.289838  0.804797  0.081315  1
  H  H19  1  0.210162  0.304797  0.918685  1
  H  H20  1  0.289838  0.304797  0.418685  1
  H  H21  1  0.210162  0.804797  0.581315  1
  H  H22  1  0.134157  0.318851  0.247727  1
  H  H23  1  0.789838  0.195203  0.418685  1
  C  C24  1  0.304583  0.621186  0.769748  1
  C  C25  1  0.804583  0.878814  0.769748  1
  C  C26  1  0.185714  0.864307  0.514491  1
  C  C27  1  0.195417  0.621186  0.269748  1
  C  C28  1  0.804583  0.378814  0.730252  1
  C  C29  1  0.695417  0.878814  0.269748  1
  C  C30  1  0.304583  0.121186  0.730252  1
  C  C31  1  0.185714  0.364307  0.985509  1
  C  C32  1  0.685714  0.135693  0.985509  1
  C  C33  1  0.685714  0.635693  0.514491  1
  C  C34  1  0.814286  0.635693  0.014491  1
  C  C35  1  0.814286  0.135693  0.485509  1
  C  C36  1  0.314286  0.364307  0.485509  1
  C  C37  1  0.695417  0.378814  0.230252  1
  C  C38  1  0.314286  0.864307  0.014491  1
  C  C39  1  0.195417  0.121186  0.230252  1
  O  O40  1  0.393493  0.226917  0.777530  1
  O  O41  1  0.393493  0.726917  0.722470  1
  O  O42  1  0.759807  0.011311  0.489943  1
  O  O43  1  0.759807  0.511311  0.010057  1
  O  O44  1  0.901444  0.702964  0.943966  1
  O  O45  1  0.801902  0.494843  0.766029  1
  O  O46  1  0.259807  0.988689  0.010057  1
  O  O47  1  0.098556  0.797036  0.443966  1
  O  O48  1  0.198098  0.005157  0.266029  1
  O  O49  1  0.401444  0.297036  0.556034  1
  O  O50  1  0.598556  0.202964  0.056034  1
  O  O51  1  0.606507  0.273083  0.277530  1
  O  O52  1  0.240193  0.488689  0.989943  1
  O  O53  1  0.606507  0.773083  0.222470  1
  O  O54  1  0.698098  0.994843  0.233971  1
  O  O55  1  0.801902  0.994843  0.733971  1
  O  O56  1  0.098556  0.297036  0.056034  1
  O  O57  1  0.106507  0.726917  0.222470  1
  O  O58  1  0.198098  0.505157  0.233971  1
  O  O59  1  0.240193  0.988689  0.510057  1
  O  O60  1  0.598556  0.702964  0.443966  1
  O  O61  1  0.740193  0.511311  0.510057  1
  O  O62  1  0.301902  0.505157  0.733971  1
  O  O63  1  0.401444  0.797036  0.943966  1
  O  O64  1  0.259807  0.488689  0.489943  1
  O  O65  1  0.740193  0.011311  0.989943  1
  O  O66  1  0.698098  0.494843  0.266029  1
  O  O67  1  0.893493  0.773083  0.722470  1
  O  O68  1  0.893493  0.273083  0.777530  1
  O  O69  1  0.301902  0.005157  0.766029  1
  O  O70  1  0.901444  0.202964  0.556034  1
  O  O71  1  0.106507  0.226917  0.277530  1
