# generated using pymatgen
data_FeTeS2N2Cl5
_symmetry_space_group_name_H-M   'P 1'
_cell_length_a   7.64162526
_cell_length_b   12.56750337
_cell_length_c   12.82016971
_cell_angle_alpha   90.00000000
_cell_angle_beta   97.39351343
_cell_angle_gamma   90.00000000
_symmetry_Int_Tables_number   1
_chemical_formula_structural   FeTeS2N2Cl5
_chemical_formula_sum   'Fe4 Te4 S8 N8 Cl20'
_cell_volume   1220.96323924
_cell_formula_units_Z   4
loop_
 _symmetry_equiv_pos_site_id
 _symmetry_equiv_pos_as_xyz
  1  'x, y, z'
loop_
 _atom_site_type_symbol
 _atom_site_label
 _atom_site_symmetry_multiplicity
 _atom_site_fract_x
 _atom_site_fract_y
 _atom_site_fract_z
 _atom_site_occupancy
  Fe  Fe0  1  0.726964  0.856850  0.462316  1
  Fe  Fe1  1  0.273036  0.356850  0.037684  1
  Fe  Fe2  1  0.273036  0.143150  0.537684  1
  Fe  Fe3  1  0.726964  0.643150  0.962316  1
  Te  Te4  1  0.138629  0.938077  0.260135  1
  Te  Te5  1  0.861371  0.438077  0.239865  1
  Te  Te6  1  0.861371  0.061923  0.739865  1
  Te  Te7  1  0.138629  0.561923  0.760135  1
  S  S8  1  0.626935  0.985067  0.839457  1
  S  S9  1  0.291241  0.692118  0.589157  1
  S  S10  1  0.373065  0.485067  0.660543  1
  S  S11  1  0.291241  0.807882  0.089157  1
  S  S12  1  0.626935  0.514933  0.339457  1
  S  S13  1  0.708759  0.307882  0.410843  1
  S  S14  1  0.708759  0.192118  0.910843  1
  S  S15  1  0.373065  0.014933  0.160543  1
  N  N16  1  0.394854  0.915031  0.082971  1
  N  N17  1  0.394854  0.584969  0.582971  1
  N  N18  1  0.836677  0.309262  0.324823  1
  N  N19  1  0.605146  0.415031  0.417029  1
  N  N20  1  0.163323  0.809262  0.175177  1
  N  N21  1  0.836677  0.190738  0.824823  1
  N  N22  1  0.605146  0.084969  0.917029  1
  N  N23  1  0.163323  0.690738  0.675177  1
  Cl  Cl24  1  0.122829  0.998130  0.845480  1
  Cl  Cl25  1  0.057516  0.231815  0.600826  1
  Cl  Cl26  1  0.057516  0.268185  0.100826  1
  Cl  Cl27  1  0.264014  0.166891  0.364621  1
  Cl  Cl28  1  0.877171  0.001870  0.154520  1
  Cl  Cl29  1  0.122829  0.501870  0.345480  1
  Cl  Cl30  1  0.735986  0.666891  0.135379  1
  Cl  Cl31  1  0.758297  0.026544  0.430618  1
  Cl  Cl32  1  0.473401  0.703303  0.877806  1
  Cl  Cl33  1  0.241703  0.526544  0.069382  1
  Cl  Cl34  1  0.942484  0.731815  0.899174  1
  Cl  Cl35  1  0.758297  0.473456  0.930618  1
  Cl  Cl36  1  0.241703  0.973456  0.569382  1
  Cl  Cl37  1  0.735986  0.833109  0.635379  1
  Cl  Cl38  1  0.942484  0.768185  0.399174  1
  Cl  Cl39  1  0.473401  0.796697  0.377806  1
  Cl  Cl40  1  0.877171  0.498130  0.654520  1
  Cl  Cl41  1  0.264014  0.333109  0.864621  1
  Cl  Cl42  1  0.526599  0.203303  0.622194  1
  Cl  Cl43  1  0.526599  0.296697  0.122194  1
