# generated using pymatgen
data_InCu6ClO8
_symmetry_space_group_name_H-M   'P 1'
_cell_length_a   6.52029865
_cell_length_b   6.51915790
_cell_length_c   6.52054946
_cell_angle_alpha   60.05264942
_cell_angle_beta   60.06582532
_cell_angle_gamma   60.05631544
_symmetry_Int_Tables_number   1
_chemical_formula_structural   InCu6ClO8
_chemical_formula_sum   'In1 Cu6 Cl1 O8'
_cell_volume   196.24620859
_cell_formula_units_Z   1
loop_
 _symmetry_equiv_pos_site_id
 _symmetry_equiv_pos_as_xyz
  1  'x, y, z'
loop_
 _atom_site_type_symbol
 _atom_site_label
 _atom_site_symmetry_multiplicity
 _atom_site_fract_x
 _atom_site_fract_y
 _atom_site_fract_z
 _atom_site_occupancy
  In  In0  1  0.499999  0.499999  0.500001  1
  Cu  Cu1  1  0.500000  0.000002  0.499995  1
  Cu  Cu2  1  0.500002  0.500000  0.999999  1
  Cu  Cu3  1  1.000000  0.500001  0.499999  1
  Cu  Cu4  1  -0.000003  0.500000  0.000003  1
  Cu  Cu5  1  0.000002  -0.000001  0.499999  1
  Cu  Cu6  1  0.500003  0.999998  0.000001  1
  Cl  Cl7  1  0.999999  0.000000  0.000000  1
  O  O8  1  0.642630  0.072412  0.642650  1
  O  O9  1  0.072405  0.642582  0.642657  1
  O  O10  1  0.642659  0.642606  0.072405  1
  O  O11  1  0.927593  0.357417  0.357346  1
  O  O12  1  0.642570  0.642474  0.642541  1
  O  O13  1  0.357430  0.357526  0.357459  1
  O  O14  1  0.357369  0.927588  0.357350  1
  O  O15  1  0.357341  0.357394  0.927595  1
