# generated using pymatgen
data_CsYb3F10
_symmetry_space_group_name_H-M   'P 1'
_cell_length_a   8.16426417
_cell_length_b   8.16426399
_cell_length_c   17.83951937
_cell_angle_alpha   90.00000000
_cell_angle_beta   90.00000000
_cell_angle_gamma   120.00000078
_symmetry_Int_Tables_number   1
_chemical_formula_structural   CsYb3F10
_chemical_formula_sum   'Cs4 Yb12 F40'
_cell_volume   1029.78809162
_cell_formula_units_Z   4
loop_
 _symmetry_equiv_pos_site_id
 _symmetry_equiv_pos_as_xyz
  1  'x, y, z'
loop_
 _atom_site_type_symbol
 _atom_site_label
 _atom_site_symmetry_multiplicity
 _atom_site_fract_x
 _atom_site_fract_y
 _atom_site_fract_z
 _atom_site_occupancy
  Yb  Yb0  1  0.486831  0.973661  0.750044  1
  Yb  Yb1  1  0.026339  0.513169  0.750044  1
  Yb  Yb2  1  0.487427  0.512573  0.501737  1
  Yb  Yb3  1  0.973661  0.486831  0.250044  1
  Yb  Yb4  1  0.025145  0.512573  0.501737  1
  Yb  Yb5  1  0.486831  0.513169  0.750044  1
  Yb  Yb6  1  0.512573  0.025145  0.001737  1
  Yb  Yb7  1  0.487427  0.974855  0.501737  1
  Yb  Yb8  1  0.513169  0.486831  0.250044  1
  Yb  Yb9  1  0.512573  0.487427  0.001737  1
  Yb  Yb10  1  0.974855  0.487427  0.001737  1
  Yb  Yb11  1  0.513169  0.026339  0.250044  1
  Cs  Cs12  1  0.000000  0.000000  0.626322  1
  Cs  Cs13  1  0.000000  0.000000  0.126322  1
  Cs  Cs14  1  0.000000  0.000000  0.872236  1
  Cs  Cs15  1  0.000000  0.000000  0.372236  1
  F  F16  1  0.215261  0.784739  0.002459  1
  F  F17  1  0.520444  0.479556  0.125805  1
  F  F18  1  0.324421  0.162210  0.245303  1
  F  F19  1  0.675579  0.837790  0.745303  1
  F  F20  1  0.479556  0.959112  0.625805  1
  F  F21  1  0.159039  0.318078  0.501099  1
  F  F22  1  0.436865  0.218433  0.746277  1
  F  F23  1  0.479556  0.520444  0.625805  1
  F  F24  1  0.840961  0.681922  0.001099  1
  F  F25  1  0.666667  0.333333  0.290433  1
  F  F26  1  0.959112  0.479556  0.125805  1
  F  F27  1  0.430523  0.215261  0.502459  1
  F  F28  1  0.666667  0.333333  0.974027  1
  F  F29  1  0.781567  0.563135  0.746277  1
  F  F30  1  0.837790  0.675579  0.245303  1
  F  F31  1  0.500182  0.000363  0.375770  1
  F  F32  1  0.837790  0.162210  0.245303  1
  F  F33  1  0.218433  0.436865  0.246277  1
  F  F34  1  0.999637  0.499818  0.375770  1
  F  F35  1  0.159039  0.840961  0.501099  1
  F  F36  1  0.500182  0.499818  0.375770  1
  F  F37  1  0.162210  0.837790  0.745303  1
  F  F38  1  0.333333  0.666667  0.474027  1
  F  F39  1  0.563135  0.781567  0.246277  1
  F  F40  1  0.499818  0.999637  0.875770  1
  F  F41  1  0.784739  0.569477  0.502459  1
  F  F42  1  0.318078  0.159039  0.001099  1
  F  F43  1  0.000363  0.500182  0.875770  1
  F  F44  1  0.215261  0.430523  0.002459  1
  F  F45  1  0.499818  0.500182  0.875770  1
  F  F46  1  0.784739  0.215261  0.502459  1
  F  F47  1  0.681922  0.840961  0.501099  1
  F  F48  1  0.040888  0.520444  0.625805  1
  F  F49  1  0.569477  0.784739  0.002459  1
  F  F50  1  0.781567  0.218433  0.746277  1
  F  F51  1  0.333333  0.666667  0.790433  1
  F  F52  1  0.840961  0.159039  0.001099  1
  F  F53  1  0.520444  0.040888  0.125805  1
  F  F54  1  0.218433  0.781567  0.246277  1
  F  F55  1  0.162210  0.324421  0.745303  1
