# generated using pymatgen
data_Rb5HfFe(MoO4)6
_symmetry_space_group_name_H-M   'P 1'
_cell_length_a   10.23347774
_cell_length_b   10.23347758
_cell_length_c   15.29367330
_cell_angle_alpha   90.00000000
_cell_angle_beta   90.00000000
_cell_angle_gamma   120.00000055
_symmetry_Int_Tables_number   1
_chemical_formula_structural   Rb5HfFe(MoO4)6
_chemical_formula_sum   'Rb10 Hf2 Fe2 Mo12 O48'
_cell_volume   1387.03982042
_cell_formula_units_Z   2
loop_
 _symmetry_equiv_pos_site_id
 _symmetry_equiv_pos_as_xyz
  1  'x, y, z'
loop_
 _atom_site_type_symbol
 _atom_site_label
 _atom_site_symmetry_multiplicity
 _atom_site_fract_x
 _atom_site_fract_y
 _atom_site_fract_z
 _atom_site_occupancy
  Rb  Rb0  1  0.070584  0.315279  0.257483  1
  Rb  Rb1  1  0.000000  0.000000  0.510067  1
  Rb  Rb2  1  0.666667  0.333333  0.572763  1
  Rb  Rb3  1  0.000000  0.000000  0.010067  1
  Rb  Rb4  1  0.755304  0.070584  0.757483  1
  Rb  Rb5  1  0.315279  0.244696  0.757483  1
  Rb  Rb6  1  0.333333  0.666667  0.072763  1
  Rb  Rb7  1  0.684721  0.755304  0.257483  1
  Rb  Rb8  1  0.929416  0.684721  0.757483  1
  Rb  Rb9  1  0.244696  0.929416  0.257483  1
  Hf  Hf10  1  0.666667  0.333333  0.973196  1
  Hf  Hf11  1  0.333333  0.666667  0.473196  1
  Fe  Fe12  1  0.666667  0.333333  0.309873  1
  Fe  Fe13  1  0.333333  0.666667  0.809873  1
  Mo  Mo14  1  0.630500  0.657209  0.920770  1
  Mo  Mo15  1  0.410358  0.313412  0.155887  1
  Mo  Mo16  1  0.342791  0.973291  0.920770  1
  Mo  Mo17  1  0.096946  0.410358  0.655887  1
  Mo  Mo18  1  0.589642  0.686588  0.655887  1
  Mo  Mo19  1  0.026709  0.369500  0.920770  1
  Mo  Mo20  1  0.686588  0.096946  0.155887  1
  Mo  Mo21  1  0.369500  0.342791  0.420770  1
  Mo  Mo22  1  0.657209  0.026709  0.420770  1
  Mo  Mo23  1  0.903054  0.589642  0.155887  1
  Mo  Mo24  1  0.973291  0.630500  0.420770  1
  Mo  Mo25  1  0.313412  0.903054  0.655887  1
  O  O26  1  0.562303  0.406445  0.385089  1
  O  O27  1  0.509024  0.763306  0.733677  1
  O  O28  1  0.952900  0.779244  0.140843  1
  O  O29  1  0.437697  0.593555  0.885089  1
  O  O30  1  0.236694  0.745718  0.733677  1
  O  O31  1  0.254282  0.490976  0.733677  1
  O  O32  1  0.826191  0.314450  0.900154  1
  O  O33  1  0.179994  0.944453  0.864431  1
  O  O34  1  0.355297  0.844126  0.550896  1
  O  O35  1  0.294486  0.940460  0.032199  1
  O  O36  1  0.490976  0.236694  0.233677  1
  O  O37  1  0.220756  0.173656  0.140843  1
  O  O38  1  0.820006  0.055547  0.364431  1
  O  O39  1  0.408827  0.475333  0.195337  1
  O  O40  1  0.155858  0.562303  0.885089  1
  O  O41  1  0.406445  0.844142  0.885089  1
  O  O42  1  0.055547  0.235541  0.864431  1
  O  O43  1  0.524667  0.933494  0.195337  1
  O  O44  1  0.764459  0.820006  0.864431  1
  O  O45  1  0.826344  0.047100  0.140843  1
  O  O46  1  0.488259  0.173809  0.900154  1
  O  O47  1  0.047100  0.220756  0.640843  1
  O  O48  1  0.644703  0.155874  0.050896  1
  O  O49  1  0.066506  0.591173  0.195337  1
  O  O50  1  0.488830  0.644703  0.550896  1
  O  O51  1  0.235541  0.179994  0.364431  1
  O  O52  1  0.591173  0.524667  0.695337  1
  O  O53  1  0.511170  0.355297  0.050896  1
  O  O54  1  0.593555  0.155858  0.385089  1
  O  O55  1  0.685550  0.511741  0.900154  1
  O  O56  1  0.059540  0.354026  0.032199  1
  O  O57  1  0.779244  0.826344  0.640843  1
  O  O58  1  0.475333  0.066506  0.695337  1
  O  O59  1  0.354026  0.294486  0.532199  1
  O  O60  1  0.314450  0.488259  0.400154  1
  O  O61  1  0.940460  0.645974  0.532199  1
  O  O62  1  0.745718  0.509024  0.233677  1
  O  O63  1  0.763306  0.254282  0.233677  1
  O  O64  1  0.645974  0.705514  0.032199  1
  O  O65  1  0.844126  0.488830  0.050896  1
  O  O66  1  0.511741  0.826191  0.400154  1
  O  O67  1  0.155874  0.511170  0.550896  1
  O  O68  1  0.705514  0.059540  0.532199  1
  O  O69  1  0.933494  0.408827  0.695337  1
  O  O70  1  0.844142  0.437697  0.385089  1
  O  O71  1  0.173809  0.685550  0.400154  1
  O  O72  1  0.173656  0.952900  0.640843  1
  O  O73  1  0.944453  0.764459  0.364431  1
