# generated using pymatgen
data_Na2Sr3P4
_symmetry_space_group_name_H-M   'P 1'
_cell_length_a   9.06772622
_cell_length_b   9.47236732
_cell_length_c   11.29014672
_cell_angle_alpha   99.38593714
_cell_angle_beta   90.00000000
_cell_angle_gamma   90.00000000
_symmetry_Int_Tables_number   1
_chemical_formula_structural   Na2Sr3P4
_chemical_formula_sum   'Na8 Sr12 P16'
_cell_volume   956.75998988
_cell_formula_units_Z   4
loop_
 _symmetry_equiv_pos_site_id
 _symmetry_equiv_pos_as_xyz
  1  'x, y, z'
loop_
 _atom_site_type_symbol
 _atom_site_label
 _atom_site_symmetry_multiplicity
 _atom_site_fract_x
 _atom_site_fract_y
 _atom_site_fract_z
 _atom_site_occupancy
  Na  Na0  1  0.037402  0.535382  0.814249  1
  Na  Na1  1  0.290433  0.286146  0.137181  1
  Na  Na2  1  0.209567  0.786146  0.637181  1
  Na  Na3  1  0.462598  0.035382  0.314249  1
  Na  Na4  1  0.537402  0.964618  0.685751  1
  Na  Na5  1  0.790433  0.213854  0.362819  1
  Na  Na6  1  0.709567  0.713854  0.862819  1
  Na  Na7  1  0.962598  0.464618  0.185751  1
  Sr  Sr8  1  0.952573  0.814669  0.066028  1
  Sr  Sr9  1  0.046264  0.928398  0.355319  1
  Sr  Sr10  1  0.164905  0.329231  0.435179  1
  Sr  Sr11  1  0.335095  0.829231  0.935179  1
  Sr  Sr12  1  0.547427  0.314669  0.566028  1
  Sr  Sr13  1  0.453736  0.428398  0.855319  1
  Sr  Sr14  1  0.546264  0.571602  0.144681  1
  Sr  Sr15  1  0.452573  0.685331  0.433972  1
  Sr  Sr16  1  0.664905  0.170769  0.064821  1
  Sr  Sr17  1  0.835095  0.670769  0.564821  1
  Sr  Sr18  1  0.953736  0.071602  0.644681  1
  Sr  Sr19  1  0.047427  0.185331  0.933972  1
  P  P20  1  0.982999  0.846530  0.807367  1
  P  P21  1  0.121183  0.628461  0.387796  1
  P  P22  1  0.224972  0.560094  0.043104  1
  P  P23  1  0.270450  0.200909  0.723018  1
  P  P24  1  0.229550  0.700909  0.223018  1
  P  P25  1  0.275028  0.060094  0.543104  1
  P  P26  1  0.378817  0.128461  0.887796  1
  P  P27  1  0.517001  0.346530  0.307367  1
  P  P28  1  0.482999  0.653470  0.692633  1
  P  P29  1  0.621183  0.871539  0.112204  1
  P  P30  1  0.724972  0.939906  0.456896  1
  P  P31  1  0.770450  0.299091  0.776982  1
  P  P32  1  0.729550  0.799091  0.276982  1
  P  P33  1  0.878817  0.371539  0.612204  1
  P  P34  1  0.775028  0.439906  0.956896  1
  P  P35  1  0.017001  0.153470  0.192633  1
