# generated using pymatgen
data_YbCo(BO2)5
_symmetry_space_group_name_H-M   'P 1'
_cell_length_a   7.47541062
_cell_length_b   8.71945422
_cell_length_c   9.45337424
_cell_angle_alpha   93.59014939
_cell_angle_beta   90.00000000
_cell_angle_gamma   90.00000000
_symmetry_Int_Tables_number   1
_chemical_formula_structural   YbCo(BO2)5
_chemical_formula_sum   'Yb4 Co4 B20 O40'
_cell_volume   614.97586191
_cell_formula_units_Z   4
loop_
 _symmetry_equiv_pos_site_id
 _symmetry_equiv_pos_as_xyz
  1  'x, y, z'
loop_
 _atom_site_type_symbol
 _atom_site_label
 _atom_site_symmetry_multiplicity
 _atom_site_fract_x
 _atom_site_fract_y
 _atom_site_fract_z
 _atom_site_occupancy
  Yb  Yb0  1  0.316217  0.688604  0.734511  1
  Yb  Yb1  1  0.816217  0.811396  0.765489  1
  Yb  Yb2  1  0.183783  0.188604  0.234511  1
  Yb  Yb3  1  0.683783  0.311396  0.265489  1
  Co  Co4  1  0.094758  0.092331  0.634092  1
  Co  Co5  1  0.405242  0.592331  0.134092  1
  Co  Co6  1  0.594758  0.407669  0.865908  1
  Co  Co7  1  0.905242  0.907669  0.365908  1
  B  B8  1  0.812753  0.569453  0.088438  1
  B  B9  1  0.900496  0.333893  0.492050  1
  B  B10  1  0.035445  0.780032  0.054484  1
  B  B11  1  0.535445  0.719968  0.445516  1
  B  B12  1  0.571860  0.912743  0.254578  1
  B  B13  1  0.178260  0.982008  0.897302  1
  B  B14  1  0.321740  0.482008  0.397302  1
  B  B15  1  0.428140  0.087257  0.745422  1
  B  B16  1  0.400496  0.166107  0.007950  1
  B  B17  1  0.964555  0.219968  0.945516  1
  B  B18  1  0.099504  0.666107  0.507950  1
  B  B19  1  0.187247  0.430547  0.911562  1
  B  B20  1  0.687247  0.069453  0.588438  1
  B  B21  1  0.928140  0.412743  0.754578  1
  B  B22  1  0.821740  0.017992  0.102698  1
  B  B23  1  0.464555  0.280032  0.554484  1
  B  B24  1  0.071860  0.587257  0.245422  1
  B  B25  1  0.678260  0.517992  0.602698  1
  B  B26  1  0.312753  0.930547  0.411562  1
  B  B27  1  0.599504  0.833893  0.992050  1
  O  O28  1  0.157023  0.682644  0.137330  1
  O  O29  1  0.774900  0.451403  0.482631  1
  O  O30  1  0.209002  0.469535  0.267301  1
  O  O31  1  0.607989  0.668424  0.576780  1
  O  O32  1  0.879235  0.682141  0.010489  1
  O  O33  1  0.471302  0.588664  0.345647  1
  O  O34  1  0.853374  0.000404  0.560824  1
  O  O35  1  0.033598  0.693894  0.372134  1
  O  O36  1  0.966402  0.306106  0.627866  1
  O  O37  1  0.392011  0.331576  0.423220  1
  O  O38  1  0.596221  0.015481  0.700124  1
  O  O39  1  0.403779  0.984519  0.299876  1
  O  O40  1  0.657023  0.817356  0.362670  1
  O  O41  1  0.466402  0.193894  0.872134  1
  O  O42  1  0.725100  0.951403  0.982631  1
  O  O43  1  0.146626  0.999596  0.439176  1
  O  O44  1  0.225100  0.548597  0.517369  1
  O  O45  1  0.353374  0.499596  0.939176  1
  O  O46  1  0.379235  0.817859  0.489511  1
  O  O47  1  0.028698  0.088664  0.845647  1
  O  O48  1  0.049678  0.747228  0.624135  1
  O  O49  1  0.096221  0.484519  0.799876  1
  O  O50  1  0.450322  0.247228  0.124135  1
  O  O51  1  0.549678  0.752772  0.875865  1
  O  O52  1  0.533598  0.806106  0.127866  1
  O  O53  1  0.290998  0.969535  0.767301  1
  O  O54  1  0.709002  0.030465  0.232699  1
  O  O55  1  0.903779  0.515481  0.200124  1
  O  O56  1  0.790998  0.530465  0.732699  1
  O  O57  1  0.620765  0.182141  0.510489  1
  O  O58  1  0.646626  0.500404  0.060824  1
  O  O59  1  0.950322  0.252772  0.375865  1
  O  O60  1  0.342977  0.182644  0.637330  1
  O  O61  1  0.120765  0.317859  0.989511  1
  O  O62  1  0.892011  0.168424  0.076780  1
  O  O63  1  0.274900  0.048597  0.017369  1
  O  O64  1  0.107989  0.831576  0.923220  1
  O  O65  1  0.528698  0.411336  0.654353  1
  O  O66  1  0.842977  0.317356  0.862670  1
  O  O67  1  0.971302  0.911336  0.154353  1
