# generated using pymatgen
data_SrH6(CO3)2
_symmetry_space_group_name_H-M   'P 1'
_cell_length_a   6.79015402
_cell_length_b   8.40244290
_cell_length_c   12.75898828
_cell_angle_alpha   90.00000000
_cell_angle_beta   90.00000000
_cell_angle_gamma   90.00000000
_symmetry_Int_Tables_number   1
_chemical_formula_structural   SrH6(CO3)2
_chemical_formula_sum   'Sr4 H24 C8 O24'
_cell_volume   727.94980456
_cell_formula_units_Z   4
loop_
 _symmetry_equiv_pos_site_id
 _symmetry_equiv_pos_as_xyz
  1  'x, y, z'
loop_
 _atom_site_type_symbol
 _atom_site_label
 _atom_site_symmetry_multiplicity
 _atom_site_fract_x
 _atom_site_fract_y
 _atom_site_fract_z
 _atom_site_occupancy
  Sr  Sr0  1  0.197099  0.338554  0.609375  1
  Sr  Sr1  1  0.802901  0.838554  0.890625  1
  Sr  Sr2  1  0.302901  0.661446  0.109375  1
  Sr  Sr3  1  0.697099  0.161446  0.390625  1
  H  H4  1  0.489117  0.393548  0.049964  1
  H  H5  1  0.418232  0.868575  0.619005  1
  H  H6  1  0.606210  0.119873  0.173872  1
  H  H7  1  0.223535  0.371630  0.340687  1
  H  H8  1  0.010883  0.606452  0.549964  1
  H  H9  1  -0.010883  0.106452  0.950036  1
  H  H10  1  0.688700  0.514422  0.784520  1
  H  H11  1  0.551764  0.763122  0.330766  1
  H  H12  1  0.188700  -0.014422  0.215480  1
  H  H13  1  0.393790  0.619873  0.326128  1
  H  H14  1  0.893790  0.880127  0.673872  1
  H  H15  1  0.311300  0.014422  0.715480  1
  H  H16  1  0.948236  0.236878  0.830766  1
  H  H17  1  0.811300  0.485578  0.284520  1
  H  H18  1  0.510883  0.893548  0.450036  1
  H  H19  1  0.051764  0.736878  0.669234  1
  H  H20  1  0.106210  0.380127  0.826128  1
  H  H21  1  0.276465  0.628370  0.840687  1
  H  H22  1  0.776465  0.871630  0.159313  1
  H  H23  1  0.448236  0.263122  0.169234  1
  H  H24  1  0.581768  0.368575  0.880995  1
  H  H25  1  0.081768  0.131425  0.119005  1
  H  H26  1  0.723535  0.128370  0.659313  1
  H  H27  1  0.918232  0.631425  0.380995  1
  C  C28  1  0.359908  0.128137  0.930843  1
  C  C29  1  0.640092  0.628137  0.569157  1
  C  C30  1  0.859908  0.371863  0.069157  1
  C  C31  1  0.940559  0.551821  0.313688  1
  C  C32  1  0.140092  0.871863  0.430843  1
  C  C33  1  0.440559  0.948179  0.686312  1
  C  C34  1  0.559441  0.448179  0.813688  1
  C  C35  1  0.059441  0.051821  0.186312  1
  O  O36  1  0.290372  0.689500  0.905951  1
  O  O37  1  0.134453  0.974349  0.489671  1
  O  O38  1  0.003167  0.344194  0.435065  1
  O  O39  1  0.094586  0.557588  0.261315  1
  O  O40  1  0.594586  0.942412  0.738685  1
  O  O41  1  0.117667  0.614214  0.600571  1
  O  O42  1  0.209628  0.310500  0.405951  1
  O  O43  1  0.634453  0.525651  0.510328  1
  O  O44  1  0.790372  0.810500  0.094049  1
  O  O45  1  0.709628  0.189500  0.594049  1
  O  O46  1  0.005305  0.331324  0.782326  1
  O  O47  1  0.996833  0.844194  0.064935  1
  O  O48  1  0.365547  0.025651  0.989672  1
  O  O49  1  0.617667  0.885786  0.399429  1
  O  O50  1  -0.005305  0.831324  0.717674  1
  O  O51  1  0.503167  0.155806  0.564935  1
  O  O52  1  0.496833  0.655806  0.935065  1
  O  O53  1  0.905414  0.057588  0.238685  1
  O  O54  1  0.505305  0.168676  0.217674  1
  O  O55  1  0.382333  0.385786  0.100571  1
  O  O56  1  0.882333  0.114214  0.899429  1
  O  O57  1  0.865547  0.474349  0.010328  1
  O  O58  1  0.405414  0.442412  0.761315  1
  O  O59  1  0.494695  0.668676  0.282326  1
