# generated using pymatgen
data_Ce3(AlI)2
_symmetry_space_group_name_H-M   'P 1'
_cell_length_a   4.21671621
_cell_length_b   9.97331104
_cell_length_c   11.09995957
_cell_angle_alpha   70.18293639
_cell_angle_beta   78.70161711
_cell_angle_gamma   77.90046677
_symmetry_Int_Tables_number   1
_chemical_formula_structural   Ce3(AlI)2
_chemical_formula_sum   'Ce6 Al4 I4'
_cell_volume   425.43054342
_cell_formula_units_Z   2
loop_
 _symmetry_equiv_pos_site_id
 _symmetry_equiv_pos_as_xyz
  1  'x, y, z'
loop_
 _atom_site_type_symbol
 _atom_site_label
 _atom_site_symmetry_multiplicity
 _atom_site_fract_x
 _atom_site_fract_y
 _atom_site_fract_z
 _atom_site_occupancy
  Ce  Ce0  1  0.170530  0.052534  0.603441  1
  Ce  Ce1  1  0.462694  0.377066  0.692049  1
  Ce  Ce2  1  0.242442  0.313723  0.195969  1
  Ce  Ce3  1  0.750896  0.690511  0.804307  1
  Ce  Ce4  1  0.531638  0.622348  0.309927  1
  Ce  Ce5  1  0.826944  0.946945  0.400586  1
  Al  Al6  1  0.925792  0.613851  0.533629  1
  Al  Al7  1  0.070180  0.386899  0.468592  1
  Al  Al8  1  0.657262  0.263985  0.416750  1
  Al  Al9  1  0.336502  0.735931  0.585083  1
  I  I10  1  0.853257  0.341782  0.941017  1
  I  I11  1  0.576077  0.016877  0.830188  1
  I  I12  1  0.136940  0.661836  0.059815  1
  I  I13  1  0.421857  0.984062  0.173209  1
