# generated using pymatgen
data_K2BiH5(CO2)5
_symmetry_space_group_name_H-M   'P 1'
_cell_length_a   7.24695141
_cell_length_b   7.24695141
_cell_length_c   12.38186502
_cell_angle_alpha   87.46476166
_cell_angle_beta   92.53523834
_cell_angle_gamma   67.65008831
_symmetry_Int_Tables_number   1
_chemical_formula_structural   K2BiH5(CO2)5
_chemical_formula_sum   'K4 Bi2 H10 C10 O20'
_cell_volume   599.52334403
_cell_formula_units_Z   2
loop_
 _symmetry_equiv_pos_site_id
 _symmetry_equiv_pos_as_xyz
  1  'x, y, z'
loop_
 _atom_site_type_symbol
 _atom_site_label
 _atom_site_symmetry_multiplicity
 _atom_site_fract_x
 _atom_site_fract_y
 _atom_site_fract_z
 _atom_site_occupancy
  K  K0  1  0.045123  0.249204  0.881205  1
  K  K1  1  0.249204  0.045123  0.618795  1
  K  K2  1  0.954877  0.750796  0.118795  1
  K  K3  1  0.750796  0.954877  0.381205  1
  Bi  Bi4  1  0.830184  0.830184  0.750000  1
  Bi  Bi5  1  0.169816  0.169816  0.250000  1
  H  H6  1  0.349076  0.654195  0.932469  1
  H  H7  1  0.654195  0.349076  0.567531  1
  H  H8  1  0.650924  0.345805  0.067531  1
  H  H9  1  0.345805  0.650924  0.432469  1
  H  H10  1  0.485996  0.225125  0.956369  1
  H  H11  1  0.225125  0.485996  0.543631  1
  H  H12  1  0.514004  0.774875  0.043631  1
  H  H13  1  0.774875  0.514004  0.456369  1
  H  H14  1  0.494524  0.494524  0.750000  1
  H  H15  1  0.505476  0.505476  0.250000  1
  C  C16  1  0.202251  0.700624  0.885872  1
  C  C17  1  0.700624  0.202251  0.614128  1
  C  C18  1  0.797749  0.299376  0.114128  1
  C  C19  1  0.299376  0.797749  0.385872  1
  C  C20  1  0.570229  0.113942  0.898745  1
  C  C21  1  0.113942  0.570229  0.601255  1
  C  C22  1  0.429771  0.886058  0.101255  1
  C  C23  1  0.886058  0.429771  0.398745  1
  C  C24  1  0.587038  0.587038  0.750000  1
  C  C25  1  0.412962  0.412962  0.250000  1
  O  O26  1  0.160919  0.839539  0.811154  1
  O  O27  1  0.839539  0.160919  0.688846  1
  O  O28  1  0.839081  0.160461  0.188846  1
  O  O29  1  0.160461  0.839081  0.311154  1
  O  O30  1  0.086399  0.612963  0.909072  1
  O  O31  1  0.612963  0.086399  0.590928  1
  O  O32  1  0.913601  0.387037  0.090928  1
  O  O33  1  0.387037  0.913601  0.409072  1
  O  O34  1  0.758797  0.026213  0.919276  1
  O  O35  1  0.026213  0.758797  0.580724  1
  O  O36  1  0.241203  0.973787  0.080724  1
  O  O37  1  0.973787  0.241203  0.419276  1
  O  O38  1  0.474007  0.083638  0.818569  1
  O  O39  1  0.083638  0.474007  0.681431  1
  O  O40  1  0.525993  0.916362  0.181431  1
  O  O41  1  0.916362  0.525993  0.318569  1
  O  O42  1  0.582063  0.690173  0.663462  1
  O  O43  1  0.690173  0.582063  0.836538  1
  O  O44  1  0.417937  0.309827  0.336538  1
  O  O45  1  0.309827  0.417937  0.163462  1
