# generated using pymatgen
data_PuIO
_symmetry_space_group_name_H-M   'P 1'
_cell_length_a   4.01087435
_cell_length_b   4.01087601
_cell_length_c   9.46777815
_cell_angle_alpha   90.00160202
_cell_angle_beta   90.00036324
_cell_angle_gamma   89.99954730
_symmetry_Int_Tables_number   1
_chemical_formula_structural   PuIO
_chemical_formula_sum   'Pu2 I2 O2'
_cell_volume   152.30928045
_cell_formula_units_Z   2
loop_
 _symmetry_equiv_pos_site_id
 _symmetry_equiv_pos_as_xyz
  1  'x, y, z'
loop_
 _atom_site_type_symbol
 _atom_site_label
 _atom_site_symmetry_multiplicity
 _atom_site_fract_x
 _atom_site_fract_y
 _atom_site_fract_z
 _atom_site_occupancy
  Pu  Pu0  1  0.249977  0.250009  0.877478  1
  Pu  Pu1  1  0.750025  0.750004  0.122501  1
  I  I2  1  0.249995  0.250002  0.323015  1
  I  I3  1  0.750007  0.749977  0.677075  1
  O  O4  1  0.750003  0.250007  0.999964  1
  O  O5  1  0.249994  0.750001  0.999967  1
