# generated using pymatgen
data_Ca3UN4
_symmetry_space_group_name_H-M   'P 1'
_cell_length_a   6.92183800
_cell_length_b   9.21330816
_cell_length_c   6.08064926
_cell_angle_alpha   29.08252039
_cell_angle_beta   55.27427273
_cell_angle_gamma   41.29296831
_symmetry_Int_Tables_number   1
_chemical_formula_structural   Ca3UN4
_chemical_formula_sum   'Ca3 U1 N4'
_cell_volume   119.72625028
_cell_formula_units_Z   1
loop_
 _symmetry_equiv_pos_site_id
 _symmetry_equiv_pos_as_xyz
  1  'x, y, z'
loop_
 _atom_site_type_symbol
 _atom_site_label
 _atom_site_symmetry_multiplicity
 _atom_site_fract_x
 _atom_site_fract_y
 _atom_site_fract_z
 _atom_site_occupancy
  Ca  Ca0  1  0.248649  0.502757  0.996402  1
  Ca  Ca1  1  0.748492  0.502734  0.996705  1
  Ca  Ca2  1  0.497201  0.003143  0.997656  1
  U  U3  1  0.995255  0.004821  0.994570  1
  N  N4  1  0.511473  0.489671  0.509667  1
  N  N5  1  0.201021  0.002479  0.592514  1
  N  N6  1  0.998097  0.509079  0.490246  1
  N  N7  1  0.796948  0.002273  0.401264  1
