# generated using pymatgen
data_Sr3InRhO6
_symmetry_space_group_name_H-M   'P 1'
_cell_length_a   6.82203417
_cell_length_b   6.82185763
_cell_length_c   6.82027979
_cell_angle_alpha   91.09765069
_cell_angle_beta   91.09874454
_cell_angle_gamma   91.10066795
_symmetry_Int_Tables_number   1
_chemical_formula_structural   Sr3InRhO6
_chemical_formula_sum   'Sr6 In2 Rh2 O12'
_cell_volume   317.23118700
_cell_formula_units_Z   2
loop_
 _symmetry_equiv_pos_site_id
 _symmetry_equiv_pos_as_xyz
  1  'x, y, z'
loop_
 _atom_site_type_symbol
 _atom_site_label
 _atom_site_symmetry_multiplicity
 _atom_site_fract_x
 _atom_site_fract_y
 _atom_site_fract_z
 _atom_site_occupancy
  Sr  Sr0  1  0.749999  0.381485  0.118492  1
  Sr  Sr1  1  0.118525  0.749867  0.381403  1
  Sr  Sr2  1  0.618514  0.881427  0.249982  1
  Sr  Sr3  1  0.881428  0.249838  0.618541  1
  Sr  Sr4  1  0.250051  0.618501  0.881550  1
  Sr  Sr5  1  0.381642  0.118485  0.750092  1
  In  In6  1  0.750024  0.750193  0.749741  1
  In  In7  1  0.249894  0.250000  0.250215  1
  Rh  Rh8  1  0.000049  -0.000023  0.000030  1
  Rh  Rh9  1  0.499969  0.499959  0.500025  1
  O  O10  1  0.540508  0.210633  0.405556  1
  O  O11  1  0.594353  0.459539  0.789433  1
  O  O12  1  0.094272  0.289377  0.959503  1
  O  O13  1  0.959444  0.094305  0.289616  1
  O  O14  1  0.289461  0.959576  0.094368  1
  O  O15  1  0.405621  0.540564  0.210458  1
  O  O16  1  0.040590  0.905748  0.710454  1
  O  O17  1  0.459380  0.789332  0.594367  1
  O  O18  1  0.905682  0.710666  0.040444  1
  O  O19  1  0.710580  0.040530  0.905678  1
  O  O20  1  0.210551  0.405679  0.540641  1
  O  O21  1  0.789463  0.594318  0.459412  1
