# generated using pymatgen
data_Na2SrLa2Ti5O15
_symmetry_space_group_name_H-M   'P 1'
_cell_length_a   5.52378448
_cell_length_b   27.60898026
_cell_length_c   25.29605663
_cell_angle_alpha   10.90812267
_cell_angle_beta   57.09625962
_cell_angle_gamma   60.15724149
_symmetry_Int_Tables_number   1
_chemical_formula_structural   Na2SrLa2Ti5O15
_chemical_formula_sum   'Na4 Sr2 La4 Ti10 O30'
_cell_volume   597.16537751
_cell_formula_units_Z   2
loop_
 _symmetry_equiv_pos_site_id
 _symmetry_equiv_pos_as_xyz
  1  'x, y, z'
loop_
 _atom_site_type_symbol
 _atom_site_label
 _atom_site_symmetry_multiplicity
 _atom_site_fract_x
 _atom_site_fract_y
 _atom_site_fract_z
 _atom_site_occupancy
  Na  Na0  1  0.253591  0.252105  0.247443  1
  Na  Na1  1  0.253081  0.447641  0.252246  1
  Na  Na2  1  0.252321  0.650340  0.247993  1
  Na  Na3  1  0.246716  0.850950  0.248420  1
  Sr  Sr4  1  0.251511  0.050026  0.249916  1
  Sr  Sr5  1  0.749766  0.549045  0.750491  1
  La  La6  1  0.745512  0.147754  0.751257  1
  La  La7  1  0.751256  0.353881  0.744450  1
  La  La8  1  0.752762  0.751704  0.749176  1
  La  La9  1  0.752823  0.947896  0.751431  1
  Ti  Ti10  1  0.001138  0.000597  0.997222  1
  Ti  Ti11  1  0.004275  0.205403  0.992151  1
  Ti  Ti12  1  0.000091  0.398820  0.002082  1
  Ti  Ti13  1  0.005870  0.598403  0.001009  1
  Ti  Ti14  1  0.000325  0.797341  0.001280  1
  Ti  Ti15  1  0.504283  0.097072  0.503329  1
  Ti  Ti16  1  0.500286  0.296397  0.502705  1
  Ti  Ti17  1  0.500839  0.497001  0.501875  1
  Ti  Ti18  1  0.503984  0.702108  0.495485  1
  Ti  Ti19  1  0.501073  0.899809  0.501154  1
  O  O20  1  0.278397  0.175958  0.217694  1
  O  O21  1  0.747261  0.013282  0.287624  1
  O  O22  1  0.301665  0.396822  0.193257  1
  O  O23  1  0.779760  0.134558  0.261598  1
  O  O24  1  0.745908  0.198661  0.303281  1
  O  O25  1  0.191523  0.064486  0.746834  1
  O  O26  1  0.305642  0.597113  0.192010  1
  O  O27  1  0.787942  0.339844  0.253487  1
  O  O28  1  0.257580  0.194923  0.704918  1
  O  O29  1  0.747993  0.396548  0.304155  1
  O  O30  1  0.196778  0.262690  0.748519  1
  O  O31  1  0.703099  0.014807  0.794057  1
  O  O32  1  0.305390  0.793669  0.196280  1
  O  O33  1  0.795635  0.541987  0.248984  1
  O  O34  1  0.259106  0.394687  0.704697  1
  O  O35  1  0.747553  0.596636  0.303261  1
  O  O36  1  0.218773  0.451775  0.756387  1
  O  O37  1  0.709728  0.216305  0.791599  1
  O  O38  1  0.302260  0.989388  0.201018  1
  O  O39  1  0.799514  0.743139  0.247130  1
  O  O40  1  0.248478  0.580917  0.719892  1
  O  O41  1  0.752181  0.799598  0.299604  1
  O  O42  1  0.195303  0.661356  0.749116  1
  O  O43  1  0.718581  0.421760  0.783617  1
  O  O44  1  0.788363  0.952363  0.238339  1
  O  O45  1  0.237249  0.790633  0.711232  1
  O  O46  1  0.193449  0.864398  0.746389  1
  O  O47  1  0.708087  0.622640  0.787896  1
  O  O48  1  0.243189  0.995361  0.705503  1
  O  O49  1  0.699462  0.815460  0.795257  1
