# generated using pymatgen
data_Na3DyTi2Nb2O12
_symmetry_space_group_name_H-M   'P 1'
_cell_length_a   5.47026292
_cell_length_b   5.62391332
_cell_length_c   15.45711257
_cell_angle_alpha   89.99927661
_cell_angle_beta   90.00008938
_cell_angle_gamma   89.99226635
_symmetry_Int_Tables_number   1
_chemical_formula_structural   Na3DyTi2Nb2O12
_chemical_formula_sum   'Na6 Dy2 Ti4 Nb4 O24'
_cell_volume   475.52700394
_cell_formula_units_Z   2
loop_
 _symmetry_equiv_pos_site_id
 _symmetry_equiv_pos_as_xyz
  1  'x, y, z'
loop_
 _atom_site_type_symbol
 _atom_site_label
 _atom_site_symmetry_multiplicity
 _atom_site_fract_x
 _atom_site_fract_y
 _atom_site_fract_z
 _atom_site_occupancy
  Na  Na0  1  0.004572  0.966134  0.373326  1
  Na  Na1  1  0.004548  0.966036  0.876675  1
  Na  Na2  1  0.495417  0.465921  0.876671  1
  Na  Na3  1  0.495405  0.466021  0.373333  1
  Na  Na4  1  0.509038  0.512978  0.624992  1
  Na  Na5  1  0.990725  0.013013  0.624995  1
  Dy  Dy6  1  0.516215  0.567637  0.124996  1
  Dy  Dy7  1  0.983925  0.067653  0.124997  1
  Ti  Ti8  1  0.014398  0.530094  0.998669  1
  Ti  Ti9  1  0.014353  0.530096  0.251325  1
  Ti  Ti10  1  0.485765  0.030056  0.251326  1
  Ti  Ti11  1  0.485704  0.030061  0.998667  1
  Nb  Nb12  1  0.997313  0.481195  0.497599  1
  Nb  Nb13  1  0.997311  0.481129  0.752398  1
  Nb  Nb14  1  0.502490  0.981101  0.752414  1
  Nb  Nb15  1  0.502488  0.981173  0.497585  1
  O  O16  1  0.099012  0.466648  0.125002  1
  O  O17  1  0.079717  0.489711  0.625003  1
  O  O18  1  0.217712  0.222184  0.478107  1
  O  O19  1  0.196028  0.194686  0.261464  1
  O  O20  1  0.217615  0.222078  0.771895  1
  O  O21  1  0.196042  0.194657  0.988532  1
  O  O22  1  0.304078  0.694671  0.261483  1
  O  O23  1  0.282246  0.722091  0.478104  1
  O  O24  1  0.282304  0.721983  0.771897  1
  O  O25  1  0.304077  0.694652  0.988518  1
  O  O26  1  0.401073  0.966571  0.125000  1
  O  O27  1  0.420186  -0.010328  0.624996  1
  O  O28  1  0.572877  0.021040  0.879702  1
  O  O29  1  0.572881  0.021035  0.370310  1
  O  O30  1  0.701583  0.281781  0.031946  1
  O  O31  1  0.701594  0.281775  0.218048  1
  O  O32  1  0.715954  0.284697  0.731774  1
  O  O33  1  0.716030  0.284644  0.518236  1
  O  O34  1  0.798570  0.781764  0.031946  1
  O  O35  1  0.798577  0.781754  0.218051  1
  O  O36  1  0.783900  0.784713  0.518240  1
  O  O37  1  0.783962  0.784744  0.731774  1
  O  O38  1  0.927153  0.521078  0.370297  1
  O  O39  1  0.927163  0.521071  0.879705  1
