# generated using pymatgen
data_NaLiCO3
_symmetry_space_group_name_H-M   'P 1'
_cell_length_a   8.08176109
_cell_length_b   8.08176123
_cell_length_c   4.60264280
_cell_angle_alpha   90.00000000
_cell_angle_beta   90.00000000
_cell_angle_gamma   119.99999937
_symmetry_Int_Tables_number   1
_chemical_formula_structural   NaLiCO3
_chemical_formula_sum   'Na3 Li3 C3 O9'
_cell_volume   260.34541254
_cell_formula_units_Z   3
loop_
 _symmetry_equiv_pos_site_id
 _symmetry_equiv_pos_as_xyz
  1  'x, y, z'
loop_
 _atom_site_type_symbol
 _atom_site_label
 _atom_site_symmetry_multiplicity
 _atom_site_fract_x
 _atom_site_fract_y
 _atom_site_fract_z
 _atom_site_occupancy
  Na  Na0  1  0.666667  0.333333  0.000000  1
  Na  Na1  1  0.333333  0.666667  0.000000  1
  Na  Na2  1  0.000000  0.000000  0.500000  1
  Li  Li3  1  0.496251  0.503749  0.500000  1
  Li  Li4  1  0.007499  0.503749  0.500000  1
  Li  Li5  1  0.496251  0.992501  0.500000  1
  C  C6  1  0.333333  0.666667  0.500000  1
  C  C7  1  0.000000  0.000000  0.000000  1
  C  C8  1  0.666667  0.333333  0.500000  1
  O  O9  1  0.486406  0.513594  0.000000  1
  O  O10  1  0.182281  0.364563  0.000000  1
  O  O11  1  0.907075  0.814150  0.000000  1
  O  O12  1  0.027189  0.513594  0.000000  1
  O  O13  1  0.907075  0.092925  0.000000  1
  O  O14  1  0.486406  -0.027189  0.000000  1
  O  O15  1  0.182281  0.817719  0.000000  1
  O  O16  1  0.635437  0.817719  0.000000  1
  O  O17  1  0.185850  0.092925  0.000000  1
