# generated using pymatgen
data_SiO2
_symmetry_space_group_name_H-M   'P 1'
_cell_length_a   9.17854237
_cell_length_b   15.19403841
_cell_length_c   19.36708352
_cell_angle_alpha   90.00000000
_cell_angle_beta   90.00000000
_cell_angle_gamma   90.00000000
_symmetry_Int_Tables_number   1
_chemical_formula_structural   SiO2
_chemical_formula_sum   'Si48 O96'
_cell_volume   2700.91652765
_cell_formula_units_Z   48
loop_
 _symmetry_equiv_pos_site_id
 _symmetry_equiv_pos_as_xyz
  1  'x, y, z'
loop_
 _atom_site_type_symbol
 _atom_site_label
 _atom_site_symmetry_multiplicity
 _atom_site_fract_x
 _atom_site_fract_y
 _atom_site_fract_z
 _atom_site_occupancy
  Si  Si0  1  0.176013  0.857028  0.321776  1
  Si  Si1  1  0.176013  0.142972  0.678224  1
  Si  Si2  1  0.323987  0.857028  0.178224  1
  Si  Si3  1  0.323987  0.142972  0.821776  1
  Si  Si4  1  0.823987  0.142972  0.678224  1
  Si  Si5  1  0.823987  0.857028  0.321776  1
  Si  Si6  1  0.676013  0.142972  0.821776  1
  Si  Si7  1  0.676013  0.857028  0.178224  1
  Si  Si8  1  0.676013  0.357028  0.321776  1
  Si  Si9  1  0.676013  0.642972  0.678224  1
  Si  Si10  1  0.823987  0.357028  0.178224  1
  Si  Si11  1  0.823987  0.642972  0.821776  1
  Si  Si12  1  0.323987  0.642972  0.678224  1
  Si  Si13  1  0.323987  0.357028  0.321776  1
  Si  Si14  1  0.176013  0.642972  0.821776  1
  Si  Si15  1  0.176013  0.357028  0.178224  1
  Si  Si16  1  0.171195  0.997129  0.082546  1
  Si  Si17  1  0.171195  0.002871  0.917454  1
  Si  Si18  1  0.328805  0.997129  0.417454  1
  Si  Si19  1  0.328805  0.002871  0.582546  1
  Si  Si20  1  0.828805  0.002871  0.917454  1
  Si  Si21  1  0.828805  0.997129  0.082546  1
  Si  Si22  1  0.671195  0.002871  0.582546  1
  Si  Si23  1  0.671195  0.997129  0.417454  1
  Si  Si24  1  0.671195  0.497129  0.082546  1
  Si  Si25  1  0.671195  0.502871  0.917454  1
  Si  Si26  1  0.828805  0.497129  0.417454  1
  Si  Si27  1  0.828805  0.502871  0.582546  1
  Si  Si28  1  0.328805  0.502871  0.917454  1
  Si  Si29  1  0.328805  0.497129  0.082546  1
  Si  Si30  1  0.171195  0.502871  0.582546  1
  Si  Si31  1  0.171195  0.497129  0.417454  1
  Si  Si32  1  0.325259  0.155701  0.320837  1
  Si  Si33  1  0.325259  0.844299  0.679163  1
  Si  Si34  1  0.174741  0.155701  0.179163  1
  Si  Si35  1  0.174741  0.844299  0.820837  1
  Si  Si36  1  0.674741  0.844299  0.679163  1
  Si  Si37  1  0.674741  0.155701  0.320837  1
  Si  Si38  1  0.825259  0.844299  0.820837  1
  Si  Si39  1  0.825259  0.155701  0.179163  1
  Si  Si40  1  0.825259  0.655701  0.320837  1
  Si  Si41  1  0.825259  0.344299  0.679163  1
  Si  Si42  1  0.674741  0.655701  0.179163  1
  Si  Si43  1  0.674741  0.344299  0.820837  1
  Si  Si44  1  0.174741  0.344299  0.679163  1
  Si  Si45  1  0.174741  0.655701  0.320837  1
  Si  Si46  1  0.325259  0.344299  0.820837  1
  Si  Si47  1  0.325259  0.655701  0.179163  1
  O  O48  1  0.250000  0.890629  0.250000  1
  O  O49  1  0.250000  0.109371  0.750000  1
  O  O50  1  0.750000  0.109371  0.750000  1
  O  O51  1  0.750000  0.890629  0.250000  1
  O  O52  1  0.750000  0.390629  0.250000  1
  O  O53  1  0.750000  0.609371  0.750000  1
  O  O54  1  0.250000  0.609371  0.750000  1
  O  O55  1  0.250000  0.390629  0.250000  1
  O  O56  1  0.000000  0.861231  0.314911  1
  O  O57  1  0.000000  0.138769  0.685089  1
  O  O58  1  0.500000  0.861231  0.185089  1
  O  O59  1  0.500000  0.138769  0.814911  1
  O  O60  1  0.500000  0.361231  0.314911  1
  O  O61  1  0.500000  0.638769  0.685089  1
  O  O62  1  0.000000  0.361231  0.185089  1
  O  O63  1  0.000000  0.638769  0.814911  1
  O  O64  1  0.228163  0.755929  0.337374  1
  O  O65  1  0.228163  0.244071  0.662626  1
  O  O66  1  0.271837  0.755929  0.162626  1
  O  O67  1  0.271837  0.244071  0.837374  1
  O  O68  1  0.771837  0.244071  0.662626  1
  O  O69  1  0.771837  0.755929  0.337374  1
  O  O70  1  0.728163  0.244071  0.837374  1
  O  O71  1  0.728163  0.755929  0.162626  1
  O  O72  1  0.728163  0.255929  0.337374  1
  O  O73  1  0.728163  0.744071  0.662626  1
  O  O74  1  0.771837  0.255929  0.162626  1
  O  O75  1  0.771837  0.744071  0.837374  1
  O  O76  1  0.271837  0.744071  0.662626  1
  O  O77  1  0.271837  0.255929  0.337374  1
  O  O78  1  0.228163  0.744071  0.837374  1
  O  O79  1  0.228163  0.255929  0.162626  1
  O  O80  1  0.229587  0.919306  0.384572  1
  O  O81  1  0.229587  0.080694  0.615428  1
  O  O82  1  0.270413  0.919306  0.115428  1
  O  O83  1  0.270413  0.080694  0.884572  1
  O  O84  1  0.770413  0.080694  0.615428  1
  O  O85  1  0.770413  0.919306  0.384572  1
  O  O86  1  0.729587  0.080694  0.884572  1
  O  O87  1  0.729587  0.919306  0.115428  1
  O  O88  1  0.729587  0.419306  0.384572  1
  O  O89  1  0.729587  0.580694  0.615428  1
  O  O90  1  0.770413  0.419306  0.115428  1
  O  O91  1  0.770413  0.580694  0.884572  1
  O  O92  1  0.270413  0.580694  0.615428  1
  O  O93  1  0.270413  0.419306  0.384572  1
  O  O94  1  0.229587  0.580694  0.884572  1
  O  O95  1  0.229587  0.419306  0.115428  1
  O  O96  1  0.220095  0.091707  0.115522  1
  O  O97  1  0.220095  0.908293  0.884478  1
  O  O98  1  0.279905  0.091707  0.384478  1
  O  O99  1  0.279905  0.908293  0.615522  1
  O  O100  1  0.779905  0.908293  0.884478  1
  O  O101  1  0.779905  0.091707  0.115522  1
  O  O102  1  0.720095  0.908293  0.615522  1
  O  O103  1  0.720095  0.091707  0.384478  1
  O  O104  1  0.720095  0.591707  0.115522  1
  O  O105  1  0.720095  0.408293  0.884478  1
  O  O106  1  0.779905  0.591707  0.384478  1
  O  O107  1  0.779905  0.408293  0.615522  1
  O  O108  1  0.279905  0.408293  0.884478  1
  O  O109  1  0.279905  0.591707  0.115522  1
  O  O110  1  0.220095  0.408293  0.615522  1
  O  O111  1  0.220095  0.591707  0.384478  1
  O  O112  1  0.196954  0.000000  0.000000  1
  O  O113  1  0.303046  0.000000  0.500000  1
  O  O114  1  0.803046  0.000000  0.000000  1
  O  O115  1  0.696954  0.000000  0.500000  1
  O  O116  1  0.696954  0.500000  0.000000  1
  O  O117  1  0.803046  0.500000  0.500000  1
  O  O118  1  0.303046  0.500000  0.000000  1
  O  O119  1  0.196954  0.500000  0.500000  1
  O  O120  1  0.000000  0.978185  0.099601  1
  O  O121  1  0.000000  0.021815  0.900399  1
  O  O122  1  0.500000  0.978185  0.400399  1
  O  O123  1  0.500000  0.021815  0.599601  1
  O  O124  1  0.500000  0.478185  0.099601  1
  O  O125  1  0.500000  0.521815  0.900399  1
  O  O126  1  0.000000  0.478185  0.400399  1
  O  O127  1  0.000000  0.521815  0.599601  1
  O  O128  1  0.250000  0.120433  0.250000  1
  O  O129  1  0.250000  0.879567  0.750000  1
  O  O130  1  0.750000  0.879567  0.750000  1
  O  O131  1  0.750000  0.120433  0.250000  1
  O  O132  1  0.750000  0.620433  0.250000  1
  O  O133  1  0.750000  0.379567  0.750000  1
  O  O134  1  0.250000  0.379567  0.750000  1
  O  O135  1  0.250000  0.620433  0.250000  1
  O  O136  1  0.500000  0.154440  0.310401  1
  O  O137  1  0.500000  0.845560  0.689599  1
  O  O138  1  0.000000  0.154440  0.189599  1
  O  O139  1  0.000000  0.845560  0.810401  1
  O  O140  1  0.000000  0.654440  0.310401  1
  O  O141  1  0.000000  0.345560  0.689599  1
  O  O142  1  0.500000  0.654440  0.189599  1
  O  O143  1  0.500000  0.345560  0.810401  1
