# generated using pymatgen
data_Ce3Br6N
_symmetry_space_group_name_H-M   'P 1'
_cell_length_a   11.16013337
_cell_length_b   11.82819154
_cell_length_c   17.11194621
_cell_angle_alpha   90.00000000
_cell_angle_beta   90.00000000
_cell_angle_gamma   90.00000000
_symmetry_Int_Tables_number   1
_chemical_formula_structural   Ce3Br6N
_chemical_formula_sum   'Ce24 Br48 N8'
_cell_volume   2258.84868626
_cell_formula_units_Z   8
loop_
 _symmetry_equiv_pos_site_id
 _symmetry_equiv_pos_as_xyz
  1  'x, y, z'
loop_
 _atom_site_type_symbol
 _atom_site_label
 _atom_site_symmetry_multiplicity
 _atom_site_fract_x
 _atom_site_fract_y
 _atom_site_fract_z
 _atom_site_occupancy
  Ce  Ce0  1  0.652520  0.461791  0.328006  1
  Ce  Ce1  1  0.347480  0.538209  0.671994  1
  Ce  Ce2  1  0.489622  0.721409  0.050184  1
  Ce  Ce3  1  0.510378  0.278591  0.949816  1
  Ce  Ce4  1  0.152520  0.038209  0.671994  1
  Ce  Ce5  1  0.847480  0.538209  0.828006  1
  Ce  Ce6  1  0.989622  0.778591  0.949816  1
  Ce  Ce7  1  0.865299  0.520460  0.058744  1
  Ce  Ce8  1  0.365299  0.520460  0.441256  1
  Ce  Ce9  1  0.634701  0.020460  0.058744  1
  Ce  Ce10  1  0.489622  0.778591  0.550184  1
  Ce  Ce11  1  0.634701  0.479540  0.558744  1
  Ce  Ce12  1  0.652520  0.038209  0.828006  1
  Ce  Ce13  1  0.989622  0.721409  0.449816  1
  Ce  Ce14  1  0.865299  0.979540  0.558744  1
  Ce  Ce15  1  0.152520  0.461791  0.171994  1
  Ce  Ce16  1  0.134701  0.479540  0.941256  1
  Ce  Ce17  1  0.365299  0.979540  0.941256  1
  Ce  Ce18  1  0.510378  0.221409  0.449816  1
  Ce  Ce19  1  0.010378  0.278591  0.550184  1
  Ce  Ce20  1  0.847480  0.961791  0.328006  1
  Ce  Ce21  1  0.010378  0.221409  0.050184  1
  Ce  Ce22  1  0.134701  0.020460  0.441256  1
  Ce  Ce23  1  0.347480  0.961791  0.171994  1
  Br  Br24  1  0.367889  0.062499  0.338360  1
  Br  Br25  1  0.132111  0.937501  0.838360  1
  Br  Br26  1  0.835050  0.786226  0.809935  1
  Br  Br27  1  0.367889  0.437501  0.838360  1
  Br  Br28  1  0.641164  0.531435  0.945522  1
  Br  Br29  1  0.604378  0.914106  0.225320  1
  Br  Br30  1  0.755660  0.715107  0.545791  1
  Br  Br31  1  0.244340  0.284893  0.454209  1
  Br  Br32  1  0.395622  0.085894  0.774680  1
  Br  Br33  1  0.467723  0.314171  0.625079  1
  Br  Br34  1  0.604378  0.585894  0.725320  1
  Br  Br35  1  0.032277  0.814171  0.625079  1
  Br  Br36  1  0.244340  0.215107  0.954209  1
  Br  Br37  1  0.358836  0.468565  0.054478  1
  Br  Br38  1  0.744340  0.215107  0.545791  1
  Br  Br39  1  0.632111  0.937501  0.661640  1
  Br  Br40  1  0.967723  0.185829  0.374921  1
  Br  Br41  1  0.632111  0.562499  0.161640  1
  Br  Br42  1  0.858836  0.468565  0.445522  1
  Br  Br43  1  0.255660  0.784893  0.454209  1
  Br  Br44  1  0.867889  0.062499  0.161640  1
  Br  Br45  1  0.164950  0.213774  0.190065  1
  Br  Br46  1  0.132111  0.562499  0.338360  1
  Br  Br47  1  0.141164  0.531435  0.554478  1
  Br  Br48  1  0.141164  0.968565  0.054478  1
  Br  Br49  1  0.532277  0.685829  0.374921  1
  Br  Br50  1  0.744340  0.284893  0.045791  1
  Br  Br51  1  0.858836  0.031435  0.945522  1
  Br  Br52  1  0.664950  0.286226  0.809935  1
  Br  Br53  1  0.835050  0.713774  0.309935  1
  Br  Br54  1  0.104378  0.585894  0.774680  1
  Br  Br55  1  0.358836  0.031435  0.554478  1
  Br  Br56  1  0.467723  0.185829  0.125079  1
  Br  Br57  1  0.664950  0.213774  0.309935  1
  Br  Br58  1  0.395622  0.414106  0.274680  1
  Br  Br59  1  0.895622  0.085894  0.725320  1
  Br  Br60  1  0.755660  0.784893  0.045791  1
  Br  Br61  1  0.335050  0.713774  0.190065  1
  Br  Br62  1  0.532277  0.814171  0.874921  1
  Br  Br63  1  0.335050  0.786226  0.690065  1
  Br  Br64  1  0.641164  0.968565  0.445522  1
  Br  Br65  1  0.164950  0.286226  0.690065  1
  Br  Br66  1  0.032277  0.685829  0.125079  1
  Br  Br67  1  0.895622  0.414106  0.225320  1
  Br  Br68  1  0.104378  0.914106  0.274680  1
  Br  Br69  1  0.967723  0.314171  0.874921  1
  Br  Br70  1  0.255660  0.715107  0.954209  1
  Br  Br71  1  0.867889  0.437501  0.661640  1
  N  N72  1  0.451009  0.589519  0.559090  1
  N  N73  1  0.548991  0.089519  0.940910  1
  N  N74  1  0.951009  0.910481  0.440910  1
  N  N75  1  0.451009  0.910481  0.059090  1
  N  N76  1  0.048991  0.410481  0.059090  1
  N  N77  1  0.951009  0.589519  0.940910  1
  N  N78  1  0.548991  0.410481  0.440910  1
  N  N79  1  0.048991  0.089519  0.559090  1
