# generated using pymatgen
data_Mg3Sn
_symmetry_space_group_name_H-M   'P 1'
_cell_length_a   10.99097310
_cell_length_b   10.99070224
_cell_length_c   5.22795319
_cell_angle_alpha   89.99839896
_cell_angle_beta   90.00168509
_cell_angle_gamma   120.00407191
_symmetry_Int_Tables_number   1
_chemical_formula_structural   Mg3Sn
_chemical_formula_sum   'Mg18 Sn6'
_cell_volume   546.89768844
_cell_formula_units_Z   6
loop_
 _symmetry_equiv_pos_site_id
 _symmetry_equiv_pos_as_xyz
  1  'x, y, z'
loop_
 _atom_site_type_symbol
 _atom_site_label
 _atom_site_symmetry_multiplicity
 _atom_site_fract_x
 _atom_site_fract_y
 _atom_site_fract_z
 _atom_site_occupancy
  Mg  Mg0  1  0.503509  0.826348  0.250351  1
  Mg  Mg1  1  0.322818  0.496468  0.250361  1
  Mg  Mg2  1  0.173646  0.677163  0.250355  1
  Mg  Mg3  1  0.496482  0.173663  0.749654  1
  Mg  Mg4  1  0.677182  0.503535  0.749642  1
  Mg  Mg5  1  0.826350  0.322838  0.749646  1
  Mg  Mg6  1  0.170005  0.160028  0.250354  1
  Mg  Mg7  1  0.990038  0.830003  0.250354  1
  Mg  Mg8  1  0.839973  0.009962  0.250361  1
  Mg  Mg9  1  0.829992  0.839977  0.749640  1
  Mg  Mg10  1  0.009955  0.169993  0.749641  1
  Mg  Mg11  1  0.160027  0.990034  0.749642  1
  Mg  Mg12  1  0.837154  0.492967  0.250328  1
  Mg  Mg13  1  0.655814  0.162840  0.250332  1
  Mg  Mg14  1  0.507038  0.344201  0.250322  1
  Mg  Mg15  1  0.162845  0.507040  0.749683  1
  Mg  Mg16  1  0.344188  0.837166  0.749674  1
  Mg  Mg17  1  0.492964  0.655803  0.749675  1
  Sn  Sn18  1  0.666980  0.666976  0.249714  1
  Sn  Sn19  1  -0.000019  0.333032  0.249699  1
  Sn  Sn20  1  0.333052  0.000015  0.249688  1
  Sn  Sn21  1  0.333020  0.333024  0.750285  1
  Sn  Sn22  1  0.000042  0.666952  0.750293  1
  Sn  Sn23  1  0.666947  -0.000025  0.750305  1
