# generated using pymatgen
data_B3H52C16(NO)12
_symmetry_space_group_name_H-M   'P 1'
_cell_length_a   10.68607631
_cell_length_b   10.74672681
_cell_length_c   10.74672681
_cell_angle_alpha   88.69812932
_cell_angle_beta   90.00000000
_cell_angle_gamma   90.00000000
_symmetry_Int_Tables_number   1
_chemical_formula_structural   B3H52C16(NO)12
_chemical_formula_sum   'B3 H52 C16 N12 O12'
_cell_volume   1233.83921519
_cell_formula_units_Z   1
loop_
 _symmetry_equiv_pos_site_id
 _symmetry_equiv_pos_as_xyz
  1  'x, y, z'
loop_
 _atom_site_type_symbol
 _atom_site_label
 _atom_site_symmetry_multiplicity
 _atom_site_fract_x
 _atom_site_fract_y
 _atom_site_fract_z
 _atom_site_occupancy
  B  B0  1  0.503392  0.000000  0.500000  1
  B  B1  1  0.000060  0.500000  0.500000  1
  B  B2  1  0.503392  0.500000  0.000000  1
  H  H3  1  0.229032  0.508784  0.348477  1
  H  H4  1  0.229032  0.651523  0.491216  1
  H  H5  1  0.229032  0.348477  0.508784  1
  H  H6  1  0.229032  0.491216  0.651523  1
  H  H7  1  0.501476  0.226517  0.345854  1
  H  H8  1  0.501476  0.345854  0.226517  1
  H  H9  1  0.501476  0.654146  0.773483  1
  H  H10  1  0.501476  0.773483  0.654146  1
  H  H11  1  0.612731  0.730906  0.976891  1
  H  H12  1  0.612731  0.976891  0.730906  1
  H  H13  1  0.612731  0.023109  0.269094  1
  H  H14  1  0.612731  0.269094  0.023109  1
  H  H15  1  0.653264  0.225929  0.498900  1
  H  H16  1  0.653264  0.501100  0.774071  1
  H  H17  1  0.653264  0.498900  0.225929  1
  H  H18  1  0.653264  0.774071  0.501100  1
  H  H19  1  0.708363  0.708572  0.111872  1
  H  H20  1  0.708363  0.888128  0.291428  1
  H  H21  1  0.708363  0.111872  0.708572  1
  H  H22  1  0.708363  0.291428  0.888128  1
  H  H23  1  0.734443  0.617330  0.975445  1
  H  H24  1  0.734443  0.975445  0.617330  1
  H  H25  1  0.734443  0.024555  0.382670  1
  H  H26  1  0.734443  0.382670  0.024555  1
  H  H27  1  0.889090  0.710297  0.289703  1
  H  H28  1  0.889090  0.289703  0.710297  1
  H  H29  1  0.975441  0.613733  0.732473  1
  H  H30  1  0.975441  0.732473  0.613733  1
  H  H31  1  0.975441  0.267527  0.386267  1
  H  H32  1  0.975441  0.386267  0.267527  1
  H  H33  1  0.024955  0.615258  0.268146  1
  H  H34  1  0.024955  0.268146  0.615258  1
  H  H35  1  0.024955  0.731854  0.384742  1
  H  H36  1  0.024955  0.384742  0.731854  1
  H  H37  1  0.111492  0.707743  0.707743  1
  H  H38  1  0.111492  0.292257  0.292257  1
  H  H39  1  0.270164  0.612007  0.025627  1
  H  H40  1  0.270164  0.025627  0.612007  1
  H  H41  1  0.270164  0.974373  0.387993  1
  H  H42  1  0.270164  0.387993  0.974373  1
  H  H43  1  0.291883  0.708296  0.888518  1
  H  H44  1  0.291883  0.888518  0.708296  1
  H  H45  1  0.291883  0.111482  0.291704  1
  H  H46  1  0.291883  0.291704  0.111482  1
  H  H47  1  0.382990  0.733903  0.026847  1
  H  H48  1  0.382990  0.973153  0.266097  1
  H  H49  1  0.382990  0.026847  0.733903  1
  H  H50  1  0.382990  0.266097  0.973153  1
  H  H51  1  0.773040  0.505109  0.657868  1
  H  H52  1  0.773040  0.657868  0.505109  1
  H  H53  1  0.773040  0.342132  0.494891  1
  H  H54  1  0.773040  0.494891  0.342132  1
  C  C55  1  0.353025  0.646546  0.353454  1
  C  C56  1  0.353025  0.353454  0.646546  1
  C  C57  1  0.646756  0.648710  0.648710  1
  C  C58  1  0.662931  0.660731  0.034994  1
  C  C59  1  0.662931  0.965006  0.339269  1
  C  C60  1  0.662931  0.034994  0.660731  1
  C  C61  1  0.662931  0.339269  0.965006  1
  C  C62  1  0.966750  0.662329  0.337671  1
  C  C63  1  0.966750  0.337671  0.662329  1
  C  C64  1  0.033933  0.660827  0.660827  1
  C  C65  1  0.033933  0.339173  0.339173  1
  C  C66  1  0.339903  0.662587  0.967755  1
  C  C67  1  0.339903  0.967755  0.662587  1
  C  C68  1  0.339903  0.032245  0.337413  1
  C  C69  1  0.339903  0.337413  0.032245  1
  C  C70  1  0.646756  0.351290  0.351290  1
  N  N71  1  0.300444  0.705771  0.449872  1
  N  N72  1  0.300444  0.294229  0.550128  1
  N  N73  1  0.300444  0.449872  0.705771  1
  N  N74  1  0.545086  0.301022  0.301022  1
  N  N75  1  0.545086  0.698978  0.698978  1
  N  N76  1  0.699154  0.298641  0.453079  1
  N  N77  1  0.699154  0.546921  0.701359  1
  N  N78  1  0.699154  0.701359  0.546921  1
  N  N79  1  0.300444  0.550128  0.294229  1
  N  N80  1  0.457302  0.300406  0.699594  1
  N  N81  1  0.457302  0.699594  0.300406  1
  N  N82  1  0.699154  0.453079  0.298641  1
  O  O83  1  0.581527  0.570074  0.088035  1
  O  O84  1  0.581527  0.911965  0.429926  1
  O  O85  1  0.581527  0.088035  0.570074  1
  O  O86  1  0.581527  0.429926  0.911965  1
  O  O87  1  0.911918  0.575958  0.424042  1
  O  O88  1  0.911918  0.424042  0.575958  1
  O  O89  1  0.086720  0.575452  0.575452  1
  O  O90  1  0.086720  0.424548  0.424548  1
  O  O91  1  0.430815  0.582634  0.916967  1
  O  O92  1  0.430815  0.916967  0.582634  1
  O  O93  1  0.430815  0.083033  0.417366  1
  O  O94  1  0.430815  0.417366  0.083033  1
