# generated using pymatgen
data_Sr15Fe10(Bi5O23)2
_symmetry_space_group_name_H-M   'P 1'
_cell_length_a   5.54635931
_cell_length_b   21.40565674
_cell_length_c   21.40565707
_cell_angle_alpha   100.09453578
_cell_angle_beta   90.00000000
_cell_angle_gamma   90.00000000
_symmetry_Int_Tables_number   1
_chemical_formula_structural   Sr15Fe10(Bi5O23)2
_chemical_formula_sum   'Sr30 Fe20 Bi20 O92'
_cell_volume   2502.01333638
_cell_formula_units_Z   2
loop_
 _symmetry_equiv_pos_site_id
 _symmetry_equiv_pos_as_xyz
  1  'x, y, z'
loop_
 _atom_site_type_symbol
 _atom_site_label
 _atom_site_symmetry_multiplicity
 _atom_site_fract_x
 _atom_site_fract_y
 _atom_site_fract_z
 _atom_site_occupancy
  Sr  Sr0  1  0.253087  0.688463  0.210210  1
  Sr  Sr1  1  0.255108  0.500000  0.000000  1
  Sr  Sr2  1  0.256567  0.187176  0.907851  1
  Sr  Sr3  1  0.746913  0.789790  0.311537  1
  Sr  Sr4  1  0.746913  0.210210  0.688463  1
  Sr  Sr5  1  0.249649  0.005310  0.280609  1
  Sr  Sr6  1  0.743433  0.092149  0.812824  1
  Sr  Sr7  1  0.750351  0.719391  0.994690  1
  Sr  Sr8  1  0.746324  0.530174  0.787046  1
  Sr  Sr9  1  0.249649  0.994690  0.719391  1
  Sr  Sr10  1  0.253087  0.311537  0.789790  1
  Sr  Sr11  1  0.751121  0.677895  0.431118  1
  Sr  Sr12  1  0.743433  0.907851  0.187176  1
  Sr  Sr13  1  0.751347  0.407174  0.894174  1
  Sr  Sr14  1  0.744892  0.000000  0.500000  1
  Sr  Sr15  1  0.253676  0.212954  0.469826  1
  Sr  Sr16  1  0.256567  0.812824  0.092149  1
  Sr  Sr17  1  0.742207  0.893229  0.625775  1
  Sr  Sr18  1  0.751121  0.322105  0.568882  1
  Sr  Sr19  1  0.248653  0.894174  0.407174  1
  Sr  Sr20  1  0.253676  0.787046  0.530174  1
  Sr  Sr21  1  0.742207  0.106771  0.374225  1
  Sr  Sr22  1  0.248879  0.568882  0.322105  1
  Sr  Sr23  1  0.751347  0.592826  0.105826  1
  Sr  Sr24  1  0.248879  0.431118  0.677895  1
  Sr  Sr25  1  0.257793  0.374225  0.106771  1
  Sr  Sr26  1  0.248653  0.105826  0.592826  1
  Sr  Sr27  1  0.257793  0.625775  0.893229  1
  Sr  Sr28  1  0.746324  0.469826  0.212954  1
  Sr  Sr29  1  0.750351  0.280609  0.005310  1
  Fe  Fe30  1  0.246383  0.847516  0.249896  1
  Fe  Fe31  1  0.244660  0.944545  0.563222  1
  Fe  Fe32  1  0.747847  0.050566  0.655604  1
  Fe  Fe33  1  0.246383  0.152484  0.750104  1
  Fe  Fe34  1  0.753617  0.249896  0.847516  1
  Fe  Fe35  1  0.252153  0.655604  0.050566  1
  Fe  Fe36  1  0.249496  0.730258  0.372324  1
  Fe  Fe37  1  0.749363  0.163237  0.530073  1
  Fe  Fe38  1  0.249496  0.269742  0.627676  1
  Fe  Fe39  1  0.750504  0.372324  0.730258  1
  Fe  Fe40  1  0.250637  0.469927  0.836763  1
  Fe  Fe41  1  0.755340  0.436777  0.055455  1
  Fe  Fe42  1  0.750504  0.627676  0.269742  1
  Fe  Fe43  1  0.749363  0.836763  0.469927  1
  Fe  Fe44  1  0.755340  0.563222  0.944545  1
  Fe  Fe45  1  0.244660  0.055455  0.436777  1
  Fe  Fe46  1  0.252153  0.344396  0.949434  1
  Fe  Fe47  1  0.250637  0.530073  0.163237  1
  Fe  Fe48  1  0.753617  0.750104  0.152484  1
  Fe  Fe49  1  0.747847  0.949434  0.344396  1
  Bi  Bi50  1  0.229630  0.808773  0.912812  1
  Bi  Bi51  1  0.774277  0.716480  0.624059  1
  Bi  Bi52  1  0.780809  0.282796  0.183138  1
  Bi  Bi53  1  0.212048  0.396891  0.481475  1
  Bi  Bi54  1  0.787952  0.481475  0.396891  1
  Bi  Bi55  1  0.770370  0.087188  0.191227  1
  Bi  Bi56  1  0.220165  0.007508  0.899963  1
  Bi  Bi57  1  0.219191  0.183138  0.282796  1
  Bi  Bi58  1  0.219191  0.816862  0.717204  1
  Bi  Bi59  1  0.220165  0.992492  0.100037  1
  Bi  Bi60  1  0.779835  0.899963  0.007508  1
  Bi  Bi61  1  0.229630  0.191227  0.087188  1
  Bi  Bi62  1  0.787952  0.518525  0.603109  1
  Bi  Bi63  1  0.770370  0.912812  0.808773  1
  Bi  Bi64  1  0.225723  0.375941  0.283520  1
  Bi  Bi65  1  0.779835  0.100037  0.992492  1
  Bi  Bi66  1  0.212048  0.603109  0.518525  1
  Bi  Bi67  1  0.780809  0.717204  0.816862  1
  Bi  Bi68  1  0.225723  0.624059  0.716480  1
  Bi  Bi69  1  0.774277  0.283520  0.375941  1
  O  O70  1  0.154565  0.921840  0.813579  1
  O  O71  1  0.845435  0.813579  0.921840  1
  O  O72  1  0.998894  0.884629  0.523180  1
  O  O73  1  0.733374  0.835905  0.069764  1
  O  O74  1  0.165564  0.272535  0.170988  1
  O  O75  1  0.266626  0.930236  0.164095  1
  O  O76  1  0.165923  0.900737  0.012874  1
  O  O77  1  0.762120  0.500000  0.000000  1
  O  O78  1  0.135520  0.549389  0.639689  1
  O  O79  1  0.236056  0.787992  0.309414  1
  O  O80  1  0.001106  0.523180  0.884629  1
  O  O81  1  0.257414  0.877039  0.650979  1
  O  O82  1  0.993439  0.009583  0.382875  1
  O  O83  1  0.000000  0.330834  0.669166  1
  O  O84  1  0.834077  0.012874  0.900737  1
  O  O85  1  0.274360  0.743763  0.974012  1
  O  O86  1  0.834436  0.829012  0.727465  1
  O  O87  1  0.834077  0.987126  0.099263  1
  O  O88  1  0.834436  0.170988  0.272535  1
  O  O89  1  0.993439  0.990417  0.617125  1
  O  O90  1  0.000000  0.191648  0.808352  1
  O  O91  1  0.493236  0.113767  0.478960  1
  O  O92  1  0.299385  0.668882  0.461831  1
  O  O93  1  0.500000  0.672247  0.327753  1
  O  O94  1  0.506764  0.521040  0.886233  1
  O  O95  1  0.505548  0.290808  0.904939  1
  O  O96  1  0.763944  0.309414  0.787992  1
  O  O97  1  0.498091  0.007824  0.384822  1
  O  O98  1  0.997498  0.906623  0.288498  1
  O  O99  1  0.000000  0.558005  0.441995  1
  O  O100  1  0.000000  0.669166  0.330834  1
  O  O101  1  0.502985  0.220521  0.575037  1
  O  O102  1  0.242554  0.594298  0.107391  1
  O  O103  1  0.506764  0.478960  0.113767  1
  O  O104  1  0.700615  0.538169  0.331118  1
  O  O105  1  0.997498  0.093377  0.711502  1
  O  O106  1  0.700615  0.461831  0.668882  1
  O  O107  1  0.502985  0.779479  0.424963  1
  O  O108  1  0.000000  0.808352  0.191648  1
  O  O109  1  0.728998  0.776573  0.557908  1
  O  O110  1  0.998365  0.775997  0.428977  1
  O  O111  1  0.242554  0.405702  0.892609  1
  O  O112  1  0.154565  0.078160  0.186421  1
  O  O113  1  0.165923  0.099263  0.987126  1
  O  O114  1  0.742586  0.349021  0.122961  1
  O  O115  1  0.000000  0.441995  0.558005  1
  O  O116  1  0.494452  0.904939  0.290808  1
  O  O117  1  0.497015  0.575037  0.220521  1
  O  O118  1  0.728998  0.223427  0.442092  1
  O  O119  1  0.002502  0.711502  0.093377  1
  O  O120  1  0.271002  0.557908  0.776573  1
  O  O121  1  0.998894  0.115371  0.476820  1
  O  O122  1  0.763944  0.690586  0.212008  1
  O  O123  1  0.153132  0.265113  0.360274  1
  O  O124  1  0.501909  0.615178  0.992176  1
  O  O125  1  0.742586  0.650979  0.877039  1
  O  O126  1  0.500000  0.805378  0.194622  1
  O  O127  1  0.237880  0.000000  0.500000  1
  O  O128  1  0.998365  0.224003  0.571023  1
  O  O129  1  0.006561  0.382875  0.009583  1
  O  O130  1  0.266626  0.069764  0.835905  1
  O  O131  1  0.864480  0.639689  0.549389  1
  O  O132  1  0.274360  0.256237  0.025988  1
  O  O133  1  0.500000  0.194622  0.805378  1
  O  O134  1  0.497015  0.424963  0.779479  1
  O  O135  1  0.001106  0.476820  0.115371  1
  O  O136  1  0.153132  0.734887  0.639726  1
  O  O137  1  0.006561  0.617125  0.990417  1
  O  O138  1  0.002502  0.288498  0.906623  1
  O  O139  1  0.001635  0.571023  0.224003  1
  O  O140  1  0.725640  0.025988  0.256237  1
  O  O141  1  0.001635  0.428977  0.775997  1
  O  O142  1  0.757446  0.892609  0.405702  1
  O  O143  1  0.257414  0.122961  0.349021  1
  O  O144  1  0.271002  0.442092  0.223427  1
  O  O145  1  0.165564  0.727465  0.829012  1
  O  O146  1  0.494452  0.095061  0.709192  1
  O  O147  1  0.505548  0.709192  0.095061  1
  O  O148  1  0.864480  0.360311  0.450611  1
  O  O149  1  0.500000  0.327753  0.672247  1
  O  O150  1  0.135520  0.450611  0.360311  1
  O  O151  1  0.725640  0.974012  0.743763  1
  O  O152  1  0.757446  0.107391  0.594298  1
  O  O153  1  0.299385  0.331118  0.538169  1
  O  O154  1  0.498091  0.992176  0.615178  1
  O  O155  1  0.733374  0.164095  0.930236  1
  O  O156  1  0.845435  0.186421  0.078160  1
  O  O157  1  0.501909  0.384822  0.007824  1
  O  O158  1  0.236056  0.212008  0.690586  1
  O  O159  1  0.846868  0.639726  0.734887  1
  O  O160  1  0.846868  0.360274  0.265113  1
  O  O161  1  0.493236  0.886233  0.521040  1
