# generated using pymatgen
data_K3WC4N4OF
_symmetry_space_group_name_H-M   'P 1'
_cell_length_a   8.08284718
_cell_length_b   8.27434998
_cell_length_c   8.71191519
_cell_angle_alpha   94.38000582
_cell_angle_beta   100.77550710
_cell_angle_gamma   92.50370349
_symmetry_Int_Tables_number   1
_chemical_formula_structural   K3WC4N4OF
_chemical_formula_sum   'K6 W2 C8 N8 O2 F2'
_cell_volume   569.70996421
_cell_formula_units_Z   2
loop_
 _symmetry_equiv_pos_site_id
 _symmetry_equiv_pos_as_xyz
  1  'x, y, z'
loop_
 _atom_site_type_symbol
 _atom_site_label
 _atom_site_symmetry_multiplicity
 _atom_site_fract_x
 _atom_site_fract_y
 _atom_site_fract_z
 _atom_site_occupancy
  K  K0  1  0.713365  0.327749  0.509091  1
  K  K1  1  0.286635  0.672251  0.490909  1
  K  K2  1  0.796568  0.156615  0.000992  1
  K  K3  1  0.203432  0.843385  0.999008  1
  K  K4  1  0.262872  0.266929  0.778243  1
  K  K5  1  0.737128  0.733071  0.221757  1
  W  W6  1  0.256301  0.250756  0.278040  1
  W  W7  1  0.743699  0.749244  0.721960  1
  C  C8  1  0.652807  0.530353  0.814902  1
  C  C9  1  0.021362  0.370901  0.281438  1
  C  C10  1  0.347193  0.469647  0.185098  1
  C  C11  1  0.471689  0.117218  0.228901  1
  C  C12  1  0.528311  0.882782  0.771099  1
  C  C13  1  0.863907  0.981191  0.682518  1
  C  C14  1  0.978638  0.629099  0.718562  1
  C  C15  1  0.136093  0.018809  0.317482  1
  N  N16  1  0.895940  0.437456  0.283208  1
  N  N17  1  0.390341  0.595695  0.147726  1
  N  N18  1  0.073249  0.889605  0.326823  1
  N  N19  1  0.926751  0.110395  0.673177  1
  N  N20  1  0.589041  0.044989  0.208606  1
  N  N21  1  0.609659  0.404305  0.852274  1
  N  N22  1  0.410959  0.955011  0.791394  1
  N  N23  1  0.104060  0.562544  0.716792  1
  O  O24  1  0.348886  0.315297  0.477614  1
  O  O25  1  0.651114  0.684703  0.522386  1
  F  F26  1  0.851729  0.823360  0.955159  1
  F  F27  1  0.148271  0.176640  0.044841  1
