# generated using pymatgen
data_In4Cu9
_symmetry_space_group_name_H-M   'P 1'
_cell_length_a   9.18776907
_cell_length_b   9.18775643
_cell_length_c   9.18777501
_cell_angle_alpha   90.00051236
_cell_angle_beta   90.00028019
_cell_angle_gamma   89.99948315
_symmetry_Int_Tables_number   1
_chemical_formula_structural   In4Cu9
_chemical_formula_sum   'In16 Cu36'
_cell_volume   775.58588365
_cell_formula_units_Z   4
loop_
 _symmetry_equiv_pos_site_id
 _symmetry_equiv_pos_as_xyz
  1  'x, y, z'
loop_
 _atom_site_type_symbol
 _atom_site_label
 _atom_site_symmetry_multiplicity
 _atom_site_fract_x
 _atom_site_fract_y
 _atom_site_fract_z
 _atom_site_occupancy
  In  In0  1  0.191744  0.535775  0.191742  1
  In  In1  1  0.808256  0.535777  0.808257  1
  In  In2  1  0.191744  0.808255  0.464223  1
  In  In3  1  0.873072  0.126925  0.873072  1
  In  In4  1  0.808257  0.191743  0.464223  1
  In  In5  1  0.191741  0.191743  0.535780  1
  In  In6  1  0.808256  0.808257  0.535778  1
  In  In7  1  0.464223  0.808256  0.191743  1
  In  In8  1  0.535773  0.191743  0.191739  1
  In  In9  1  0.464220  0.191743  0.808258  1
  In  In10  1  0.126926  0.126928  0.126939  1
  In  In11  1  0.808255  0.464226  0.191741  1
  In  In12  1  0.535776  0.808256  0.808255  1
  In  In13  1  0.126927  0.873071  0.873069  1
  In  In14  1  0.191743  0.464221  0.808255  1
  In  In15  1  0.873072  0.873077  0.126932  1
  Cu  Cu16  1  0.679257  0.968227  0.320745  1
  Cu  Cu17  1  0.320732  0.679263  0.968228  1
  Cu  Cu18  1  0.358586  0.000003  0.999999  1
  Cu  Cu19  1  0.500002  0.500000  0.857077  1
  Cu  Cu20  1  0.330343  0.330344  0.330341  1
  Cu  Cu21  1  0.031777  0.320742  0.320741  1
  Cu  Cu22  1  0.402033  0.402027  0.597963  1
  Cu  Cu23  1  0.031777  0.679264  0.679265  1
  Cu  Cu24  1  0.831095  0.168905  0.168907  1
  Cu  Cu25  1  0.402036  0.597957  0.402031  1
  Cu  Cu26  1  0.500000  0.857075  0.500000  1
  Cu  Cu27  1  0.500002  0.142935  0.500003  1
  Cu  Cu28  1  0.679262  0.031783  0.679260  1
  Cu  Cu29  1  0.669666  0.330333  0.669665  1
  Cu  Cu30  1  0.679263  0.679268  0.031774  1
  Cu  Cu31  1  0.168892  0.168889  0.831107  1
  Cu  Cu32  1  0.679265  0.320734  0.968223  1
  Cu  Cu33  1  0.857077  0.500002  0.499995  1
  Cu  Cu34  1  0.499997  0.499999  0.142915  1
  Cu  Cu35  1  0.320746  0.031775  0.320748  1
  Cu  Cu36  1  0.597968  0.597957  0.597956  1
  Cu  Cu37  1  0.000001  0.000003  0.358594  1
  Cu  Cu38  1  0.641410  -0.000002  0.999997  1
  Cu  Cu39  1  0.968226  0.679262  0.320739  1
  Cu  Cu40  1  -0.000003  0.641409  0.999998  1
  Cu  Cu41  1  0.669666  0.669669  0.330331  1
  Cu  Cu42  1  0.168897  0.831102  0.168899  1
  Cu  Cu43  1  0.597976  0.402030  0.402024  1
  Cu  Cu44  1  0.320739  0.968220  0.679259  1
  Cu  Cu45  1  0.000004  0.000002  0.641411  1
  Cu  Cu46  1  0.320731  0.320735  0.031773  1
  Cu  Cu47  1  0.142928  0.500001  0.500003  1
  Cu  Cu48  1  0.000002  0.358594  0.000004  1
  Cu  Cu49  1  0.330342  0.669659  0.669662  1
  Cu  Cu50  1  0.968221  0.320740  0.679259  1
  Cu  Cu51  1  0.831099  0.831103  0.831100  1
