# generated using pymatgen
data_La21Fe8Bi7C12
_symmetry_space_group_name_H-M   'P 1'
_cell_length_a   11.66424761
_cell_length_b   11.66348647
_cell_length_c   11.66350671
_cell_angle_alpha   60.00071267
_cell_angle_beta   60.00274764
_cell_angle_gamma   60.00289332
_symmetry_Int_Tables_number   1
_chemical_formula_structural   La21Fe8Bi7C12
_chemical_formula_sum   'La21 Fe8 Bi7 C12'
_cell_volume   1122.07043211
_cell_formula_units_Z   1
loop_
 _symmetry_equiv_pos_site_id
 _symmetry_equiv_pos_as_xyz
  1  'x, y, z'
loop_
 _atom_site_type_symbol
 _atom_site_label
 _atom_site_symmetry_multiplicity
 _atom_site_fract_x
 _atom_site_fract_y
 _atom_site_fract_z
 _atom_site_occupancy
  La  La0  1  0.342168  0.999974  0.999963  1
  La  La1  1  0.657841  0.342122  0.000018  1
  La  La2  1  0.362605  0.362575  0.362560  1
  La  La3  1  0.342155  0.657879  0.999984  1
  La  La4  1  0.999972  0.999975  0.342123  1
  La  La5  1  0.087812  0.637417  0.637380  1
  La  La6  1  0.362627  0.912230  0.362582  1
  La  La7  1  0.657874  0.000000  0.342135  1
  La  La8  1  0.657865  0.000010  0.000001  1
  La  La9  1  0.637378  0.637439  0.087770  1
  La  La10  1  0.999998  0.342111  0.999989  1
  La  La11  1  0.637398  0.087739  0.637425  1
  La  La12  1  0.999992  0.657913  0.342109  1
  La  La13  1  -0.000000  0.657906  0.999992  1
  La  La14  1  0.912183  0.362622  0.362608  1
  La  La15  1  0.637384  0.637449  0.637410  1
  La  La16  1  0.000008  0.342104  0.657882  1
  La  La17  1  0.999991  -0.000003  0.657903  1
  La  La18  1  0.362625  0.362594  0.912224  1
  La  La19  1  0.342158  0.999986  0.657878  1
  La  La20  1  0.500004  0.500005  0.499996  1
  Fe  Fe21  1  0.803646  0.589089  0.803619  1
  Fe  Fe22  1  0.196395  0.410813  0.196402  1
  Fe  Fe23  1  0.803613  0.803642  0.803588  1
  Fe  Fe24  1  0.410844  0.196369  0.196416  1
  Fe  Fe25  1  0.589097  0.803633  0.803625  1
  Fe  Fe26  1  0.196359  0.196342  0.410937  1
  Fe  Fe27  1  0.196382  0.196351  0.196398  1
  Fe  Fe28  1  0.803616  0.803641  0.589125  1
  Bi  Bi29  1  0.290913  0.709092  0.709074  1
  Bi  Bi30  1  0.709092  0.290923  0.709067  1
  Bi  Bi31  1  0.290917  0.290929  0.709073  1
  Bi  Bi32  1  0.709089  0.709084  0.290914  1
  Bi  Bi33  1  0.000003  0.000006  -0.000007  1
  Bi  Bi34  1  0.290916  0.709089  0.290919  1
  Bi  Bi35  1  0.709088  0.290924  0.290915  1
  C  C36  1  0.891384  0.608607  0.608615  1
  C  C37  1  0.608637  0.891386  0.608610  1
  C  C38  1  0.108620  0.108612  0.391387  1
  C  C39  1  0.891378  0.891407  0.608613  1
  C  C40  1  0.391356  0.108615  0.108616  1
  C  C41  1  0.391374  0.391407  0.108618  1
  C  C42  1  0.108628  0.391367  0.391403  1
  C  C43  1  0.108607  0.391386  0.108594  1
  C  C44  1  0.608640  0.608603  0.891376  1
  C  C45  1  0.391337  0.108636  0.391408  1
  C  C46  1  0.608636  0.891395  0.891370  1
  C  C47  1  0.891394  0.608608  0.891394  1
