# generated using pymatgen
data_Tb6PbSe10
_symmetry_space_group_name_H-M   'P 1'
_cell_length_a   7.63384120
_cell_length_b   7.62691111
_cell_length_c   38.18241708
_cell_angle_alpha   109.30375137
_cell_angle_beta   109.48043418
_cell_angle_gamma   109.56858828
_symmetry_Int_Tables_number   1
_chemical_formula_structural   Tb6PbSe10
_chemical_formula_sum   'Tb24 Pb4 Se40'
_cell_volume   1712.60594058
_cell_formula_units_Z   4
loop_
 _symmetry_equiv_pos_site_id
 _symmetry_equiv_pos_as_xyz
  1  'x, y, z'
loop_
 _atom_site_type_symbol
 _atom_site_label
 _atom_site_symmetry_multiplicity
 _atom_site_fract_x
 _atom_site_fract_y
 _atom_site_fract_z
 _atom_site_occupancy
  Tb  Tb0  1  0.132360  0.757721  0.977871  1
  Tb  Tb1  1  0.118095  0.752833  0.775029  1
  Tb  Tb2  1  0.253275  0.625080  0.874131  1
  Tb  Tb3  1  0.373740  0.246137  0.925773  1
  Tb  Tb4  1  0.096436  0.736696  0.569364  1
  Tb  Tb5  1  0.251751  0.622874  0.672943  1
  Tb  Tb6  1  0.371476  0.243538  0.724622  1
  Tb  Tb7  1  0.627019  0.375168  0.850066  1
  Tb  Tb8  1  0.131604  0.752316  0.374302  1
  Tb  Tb9  1  0.248919  0.608086  0.472091  1
  Tb  Tb10  1  0.373186  0.249953  0.523785  1
  Tb  Tb11  1  0.750910  0.876353  0.623762  1
  Tb  Tb12  1  0.623524  0.372389  0.648843  1
  Tb  Tb13  1  0.119417  0.747375  0.174097  1
  Tb  Tb14  1  0.257969  0.630994  0.275299  1
  Tb  Tb15  1  0.387065  0.253813  0.329148  1
  Tb  Tb16  1  0.740443  0.884465  0.427319  1
  Tb  Tb17  1  0.257055  0.637864  0.078358  1
  Tb  Tb18  1  0.616822  0.372098  0.247158  1
  Tb  Tb19  1  0.738558  0.852560  0.220996  1
  Tb  Tb20  1  0.875165  0.131237  0.350932  1
  Tb  Tb21  1  0.768371  0.891489  0.030441  1
  Tb  Tb22  1  0.621950  0.379534  0.053406  1
  Tb  Tb23  1  0.875905  0.122645  0.148800  1
  Pb  Pb24  1  0.756110  0.881905  0.827067  1
  Pb  Pb25  1  0.884676  0.126938  0.951866  1
  Pb  Pb26  1  0.874391  0.121664  0.750511  1
  Pb  Pb27  1  0.868514  0.112286  0.546163  1
  Se  Se28  1  0.013037  0.379000  0.901724  1
  Se  Se29  1  0.998266  0.846145  0.697134  1
  Se  Se30  1  0.503117  0.002618  0.974312  1
  Se  Se31  1  0.167712  0.160143  0.832029  1
  Se  Se32  1  0.356359  0.498601  0.799736  1
  Se  Se33  1  0.009885  0.853094  0.497322  1
  Se  Se34  1  0.636059  0.628974  0.927741  1
  Se  Se35  1  0.013243  0.357483  0.500029  1
  Se  Se36  1  0.151621  0.146361  0.631043  1
  Se  Se37  1  0.483038  0.998250  0.869699  1
  Se  Se38  1  0.373254  0.509019  0.601910  1
  Se  Se39  1  0.012950  0.843821  0.901119  1
  Se  Se40  1  0.633879  0.623782  0.725666  1
  Se  Se41  1  0.479853  0.998721  0.769834  1
  Se  Se42  1  0.486023  0.997404  0.572978  1
  Se  Se43  1  0.856809  0.501667  0.800858  1
  Se  Se44  1  0.489418  0.997958  0.669301  1
  Se  Se45  1  0.118703  0.125650  0.425770  1
  Se  Se46  1  0.347016  0.498648  0.398388  1
  Se  Se47  1  0.642253  0.645376  0.530884  1
  Se  Se48  1  0.857286  0.506914  0.601028  1
  Se  Se49  1  0.004559  0.369183  0.699433  1
  Se  Se50  1  0.478787  0.986409  0.468844  1
  Se  Se51  1  0.138958  0.136853  0.227806  1
  Se  Se52  1  0.350044  0.503115  0.201410  1
  Se  Se53  1  0.638422  0.629352  0.326061  1
  Se  Se54  1  0.497810  0.991810  0.367728  1
  Se  Se55  1  0.502042  0.993619  0.173373  1
  Se  Se56  1  0.864023  0.503440  0.397643  1
  Se  Se57  1  0.503081  0.010152  0.272780  1
  Se  Se58  1  0.151014  0.146322  0.030129  1
  Se  Se59  1  0.373462  0.509130  0.001218  1
  Se  Se60  1  0.995882  0.864355  0.299725  1
  Se  Se61  1  0.647615  0.655942  0.130682  1
  Se  Se62  1  0.870501  0.504336  0.202051  1
  Se  Se63  1  0.994332  0.360008  0.297768  1
  Se  Se64  1  0.506240  0.996686  0.071158  1
  Se  Se65  1  0.003711  0.851919  0.101291  1
  Se  Se66  1  0.862574  0.513948  0.003141  1
  Se  Se67  1  0.992453  0.362780  0.100109  1
