# generated using pymatgen
data_Ti9Fe2(B4Ru9)2
_symmetry_space_group_name_H-M   'P 1'
_cell_length_a   2.99699187
_cell_length_b   17.59578322
_cell_length_c   17.59578322
_cell_angle_alpha   90.00000000
_cell_angle_beta   90.00000000
_cell_angle_gamma   90.00000000
_symmetry_Int_Tables_number   1
_chemical_formula_structural   Ti9Fe2(B4Ru9)2
_chemical_formula_sum   'Ti18 Fe4 B16 Ru36'
_cell_volume   927.90340947
_cell_formula_units_Z   2
loop_
 _symmetry_equiv_pos_site_id
 _symmetry_equiv_pos_as_xyz
  1  'x, y, z'
loop_
 _atom_site_type_symbol
 _atom_site_label
 _atom_site_symmetry_multiplicity
 _atom_site_fract_x
 _atom_site_fract_y
 _atom_site_fract_z
 _atom_site_occupancy
  Ti  Ti0  1  0.500000  0.964236  0.188018  1
  Ti  Ti1  1  0.500000  0.811982  0.964236  1
  Ti  Ti2  1  0.500000  0.304098  0.804098  1
  Ti  Ti3  1  0.500000  0.195902  0.304098  1
  Ti  Ti4  1  0.500000  0.464236  0.311982  1
  Ti  Ti5  1  0.500000  0.188018  0.035764  1
  Ti  Ti6  1  0.500000  0.695902  0.195902  1
  Ti  Ti7  1  0.500000  0.804098  0.695902  1
  Ti  Ti8  1  0.500000  0.000000  0.000000  1
  Ti  Ti9  1  0.500000  0.535764  0.688018  1
  Ti  Ti10  1  0.500000  0.671589  0.828411  1
  Ti  Ti11  1  0.500000  0.828411  0.328411  1
  Ti  Ti12  1  0.500000  0.171589  0.671589  1
  Ti  Ti13  1  0.500000  0.688018  0.464236  1
  Ti  Ti14  1  0.500000  0.035764  0.811982  1
  Ti  Ti15  1  0.500000  0.311982  0.535764  1
  Ti  Ti16  1  0.500000  0.500000  0.500000  1
  Ti  Ti17  1  0.500000  0.328411  0.171589  1
  Fe  Fe18  1  0.500000  0.548116  0.951884  1
  Fe  Fe19  1  0.500000  0.048116  0.548116  1
  Fe  Fe20  1  0.500000  0.451884  0.048116  1
  Fe  Fe21  1  0.500000  0.951884  0.451884  1
  B  B22  1  0.500000  0.037169  0.335315  1
  B  B23  1  0.500000  0.462831  0.835315  1
  B  B24  1  0.500000  0.669517  0.621033  1
  B  B25  1  0.500000  0.962831  0.664685  1
  B  B26  1  0.500000  0.378967  0.669517  1
  B  B27  1  0.500000  0.878967  0.830483  1
  B  B28  1  0.500000  0.335315  0.962831  1
  B  B29  1  0.500000  0.169517  0.878967  1
  B  B30  1  0.500000  0.830483  0.121033  1
  B  B31  1  0.500000  0.330483  0.378967  1
  B  B32  1  0.500000  0.835315  0.537169  1
  B  B33  1  0.500000  0.121033  0.169517  1
  B  B34  1  0.500000  0.164685  0.462831  1
  B  B35  1  0.500000  0.621033  0.330483  1
  B  B36  1  0.500000  0.537169  0.164685  1
  B  B37  1  0.500000  0.664685  0.037169  1
  Ru  Ru38  1  0.000000  0.948423  0.329872  1
  Ru  Ru39  1  0.000000  0.789287  0.831257  1
  Ru  Ru40  1  0.000000  0.402070  0.430769  1
  Ru  Ru41  1  0.000000  0.902070  0.069231  1
  Ru  Ru42  1  0.000000  0.448423  0.170128  1
  Ru  Ru43  1  0.000000  0.051577  0.670128  1
  Ru  Ru44  1  0.000000  0.168743  0.789287  1
  Ru  Ru45  1  0.000000  0.829872  0.448423  1
  Ru  Ru46  1  0.000000  0.754210  0.580502  1
  Ru  Ru47  1  0.000000  0.080502  0.254210  1
  Ru  Ru48  1  0.000000  0.097930  0.930769  1
  Ru  Ru49  1  0.000000  0.930769  0.902070  1
  Ru  Ru50  1  0.000000  0.710713  0.331257  1
  Ru  Ru51  1  0.000000  0.670128  0.948423  1
  Ru  Ru52  1  0.000000  0.082672  0.417328  1
  Ru  Ru53  1  0.000000  0.069231  0.097930  1
  Ru  Ru54  1  0.000000  0.551577  0.829872  1
  Ru  Ru55  1  0.000000  0.170128  0.551577  1
  Ru  Ru56  1  0.000000  0.919498  0.745790  1
  Ru  Ru57  1  0.000000  0.582672  0.082672  1
  Ru  Ru58  1  0.000000  0.745790  0.080502  1
  Ru  Ru59  1  0.000000  0.417328  0.917328  1
  Ru  Ru60  1  0.000000  0.245790  0.419498  1
  Ru  Ru61  1  0.000000  0.419498  0.754210  1
  Ru  Ru62  1  0.000000  0.254210  0.919498  1
  Ru  Ru63  1  0.000000  0.831257  0.210713  1
  Ru  Ru64  1  0.000000  0.331257  0.289287  1
  Ru  Ru65  1  0.000000  0.210713  0.168743  1
  Ru  Ru66  1  0.000000  0.569231  0.402070  1
  Ru  Ru67  1  0.000000  0.668743  0.710713  1
  Ru  Ru68  1  0.000000  0.430769  0.597930  1
  Ru  Ru69  1  0.000000  0.597930  0.569231  1
  Ru  Ru70  1  0.000000  0.580502  0.245790  1
  Ru  Ru71  1  0.000000  0.289287  0.668743  1
  Ru  Ru72  1  0.000000  0.917328  0.582672  1
  Ru  Ru73  1  0.000000  0.329872  0.051577  1
