# generated using pymatgen
data_La5In3Br
_symmetry_space_group_name_H-M   'P 1'
_cell_length_a   9.80402266
_cell_length_b   9.80535277
_cell_length_c   6.97329002
_cell_angle_alpha   89.99426349
_cell_angle_beta   89.99464859
_cell_angle_gamma   120.00465144
_symmetry_Int_Tables_number   1
_chemical_formula_structural   La5In3Br
_chemical_formula_sum   'La10 In6 Br2'
_cell_volume   580.51777679
_cell_formula_units_Z   2
loop_
 _symmetry_equiv_pos_site_id
 _symmetry_equiv_pos_as_xyz
  1  'x, y, z'
loop_
 _atom_site_type_symbol
 _atom_site_label
 _atom_site_symmetry_multiplicity
 _atom_site_fract_x
 _atom_site_fract_y
 _atom_site_fract_z
 _atom_site_occupancy
  La  La0  1  0.734180  0.734176  0.250053  1
  La  La1  1  0.000003  0.734214  0.749983  1
  La  La2  1  0.734187  0.000026  0.749990  1
  La  La3  1  0.333316  0.666633  0.499942  1
  La  La4  1  0.265831  0.265862  0.749988  1
  La  La5  1  0.000007  0.265814  0.249932  1
  La  La6  1  0.666681  0.333325  0.499958  1
  La  La7  1  0.265824  0.000002  0.249987  1
  La  La8  1  0.333349  0.666651  0.000081  1
  La  La9  1  0.666653  0.333325  0.000024  1
  In  In10  1  0.391700  -0.000020  0.750050  1
  In  In11  1  -0.000038  0.608259  0.250005  1
  In  In12  1  0.608324  0.000048  0.249994  1
  In  In13  1  0.999969  0.391728  0.750002  1
  In  In14  1  0.391724  0.391683  0.250049  1
  In  In15  1  0.608243  0.608257  0.749988  1
  Br  Br16  1  0.000032  -0.000001  0.500025  1
  Br  Br17  1  0.000013  0.000019  -0.000052  1
