# generated using pymatgen
data_Cs2Ti2S9
_symmetry_space_group_name_H-M   'P 1'
_cell_length_a   10.49225962
_cell_length_b   10.49231158
_cell_length_c   10.49219295
_cell_angle_alpha   83.52399236
_cell_angle_beta   83.52475855
_cell_angle_gamma   83.52443630
_symmetry_Int_Tables_number   1
_chemical_formula_structural   Cs2Ti2S9
_chemical_formula_sum   'Cs6 Ti6 S27'
_cell_volume   1134.50148191
_cell_formula_units_Z   3
loop_
 _symmetry_equiv_pos_site_id
 _symmetry_equiv_pos_as_xyz
  1  'x, y, z'
loop_
 _atom_site_type_symbol
 _atom_site_label
 _atom_site_symmetry_multiplicity
 _atom_site_fract_x
 _atom_site_fract_y
 _atom_site_fract_z
 _atom_site_occupancy
  Cs  Cs0  1  0.340181  0.340180  0.340181  1
  Cs  Cs1  1  0.559528  0.213715  0.825620  1
  Cs  Cs2  1  0.213715  0.825620  0.559526  1
  Cs  Cs3  1  0.764886  0.764893  0.764894  1
  Cs  Cs4  1  0.825620  0.559526  0.213713  1
  Cs  Cs5  1  0.999648  0.999649  0.999650  1
  Ti  Ti6  1  0.132902  0.469619  0.831223  1
  Ti  Ti7  1  0.007133  0.269745  0.667916  1
  Ti  Ti8  1  0.469619  0.831229  0.132900  1
  Ti  Ti9  1  0.269745  0.667913  0.007134  1
  Ti  Ti10  1  0.667916  0.007136  0.269743  1
  Ti  Ti11  1  0.831224  0.132899  0.469619  1
  S  S12  1  0.087608  0.685791  0.885007  1
  S  S13  1  0.605488  0.105850  0.492211  1
  S  S14  1  0.177760  0.213546  0.804127  1
  S  S15  1  0.294154  0.487320  0.650218  1
  S  S16  1  0.213544  0.804124  0.177757  1
  S  S17  1  0.617007  0.220387  0.165260  1
  S  S18  1  0.827669  0.441029  0.670719  1
  S  S19  1  0.396528  0.845172  0.907441  1
  S  S20  1  0.670721  0.827666  0.441028  1
  S  S21  1  0.987439  0.290203  0.426767  1
  S  S22  1  0.290206  0.426766  0.987439  1
  S  S23  1  0.685794  0.885007  0.087608  1
  S  S24  1  0.487321  0.650217  0.294156  1
  S  S25  1  0.047081  0.113130  0.356215  1
  S  S26  1  0.885009  0.087609  0.685796  1
  S  S27  1  0.650214  0.294155  0.487321  1
  S  S28  1  0.356213  0.047083  0.113129  1
  S  S29  1  0.113126  0.356216  0.047085  1
  S  S30  1  0.845179  0.907449  0.396531  1
  S  S31  1  0.105849  0.492210  0.605489  1
  S  S32  1  0.220386  0.165262  0.617007  1
  S  S33  1  0.804127  0.177761  0.213545  1
  S  S34  1  0.492211  0.605492  0.105851  1
  S  S35  1  0.165260  0.617009  0.220389  1
  S  S36  1  0.426767  0.987440  0.290203  1
  S  S37  1  0.441032  0.670713  0.827666  1
  S  S38  1  0.907450  0.396528  0.845176  1
