# generated using pymatgen
data_Y2Si3N4O3
_symmetry_space_group_name_H-M   'P 1'
_cell_length_a   4.95004679
_cell_length_b   7.64863368
_cell_length_c   7.64863368
_cell_angle_alpha   90.00000000
_cell_angle_beta   90.00000000
_cell_angle_gamma   90.00000000
_symmetry_Int_Tables_number   1
_chemical_formula_structural   Y2Si3N4O3
_chemical_formula_sum   'Y4 Si6 N8 O6'
_cell_volume   289.58564329
_cell_formula_units_Z   2
loop_
 _symmetry_equiv_pos_site_id
 _symmetry_equiv_pos_as_xyz
  1  'x, y, z'
loop_
 _atom_site_type_symbol
 _atom_site_label
 _atom_site_symmetry_multiplicity
 _atom_site_fract_x
 _atom_site_fract_y
 _atom_site_fract_z
 _atom_site_occupancy
  N  N0  1  0.792898  0.667386  0.577099  1
  N  N1  1  0.792898  0.332614  0.422901  1
  N  N2  1  0.207102  0.422901  0.667386  1
  N  N3  1  0.207102  0.577099  0.332614  1
  N  N4  1  0.792898  0.922901  0.832614  1
  N  N5  1  0.207102  0.832614  0.077099  1
  N  N6  1  0.207102  0.167386  0.922901  1
  N  N7  1  0.792898  0.077099  0.167386  1
  O  O8  1  0.278604  0.868530  0.631470  1
  O  O9  1  0.721396  0.631470  0.131470  1
  O  O10  1  0.184148  0.500000  0.000000  1
  O  O11  1  0.815852  0.000000  0.500000  1
  O  O12  1  0.278604  0.131470  0.368530  1
  O  O13  1  0.721396  0.368530  0.868530  1
  Si  Si14  1  0.945340  0.854657  0.645343  1
  Si  Si15  1  0.054660  0.645343  0.145343  1
  Si  Si16  1  0.054660  0.354657  0.854657  1
  Si  Si17  1  0.945340  0.145343  0.354657  1
  Si  Si18  1  0.000000  0.500000  0.500000  1
  Si  Si19  1  0.000000  0.000000  0.000000  1
  Y  Y20  1  0.504073  0.670405  0.829595  1
  Y  Y21  1  0.495927  0.829595  0.329595  1
  Y  Y22  1  0.495927  0.170405  0.670405  1
  Y  Y23  1  0.504073  0.329595  0.170405  1
