# generated using pymatgen
data_Sm11Br24
_symmetry_space_group_name_H-M   'P 1'
_cell_length_a   7.10431220
_cell_length_b   7.50755475
_cell_length_c   79.28539498
_cell_angle_alpha   90.00000000
_cell_angle_beta   90.00000000
_cell_angle_gamma   89.99464755
_symmetry_Int_Tables_number   1
_chemical_formula_structural   Sm11Br24
_chemical_formula_sum   'Sm44 Br96'
_cell_volume   4228.76682075
_cell_formula_units_Z   4
loop_
 _symmetry_equiv_pos_site_id
 _symmetry_equiv_pos_as_xyz
  1  'x, y, z'
loop_
 _atom_site_type_symbol
 _atom_site_label
 _atom_site_symmetry_multiplicity
 _atom_site_fract_x
 _atom_site_fract_y
 _atom_site_fract_z
 _atom_site_occupancy
  Sm  Sm0  1  0.971137  0.721314  0.156945  1
  Sm  Sm1  1  0.512699  0.831153  0.113698  1
  Sm  Sm2  1  0.967094  0.711998  0.068587  1
  Sm  Sm3  1  0.531251  0.128854  0.701423  1
  Sm  Sm4  1  0.531425  0.871031  0.201379  1
  Sm  Sm5  1  0.528863  0.778686  0.656945  1
  Sm  Sm6  1  0.031425  0.371031  0.298621  1
  Sm  Sm7  1  0.032906  0.288002  0.931413  1
  Sm  Sm8  1  0.471642  0.778922  0.843146  1
  Sm  Sm9  1  0.537861  0.861358  0.026126  1
  Sm  Sm10  1  0.462139  0.138642  0.973874  1
  Sm  Sm11  1  0.028863  0.278686  0.843055  1
  Sm  Sm12  1  0.987468  0.331205  0.113715  1
  Sm  Sm13  1  0.033569  0.712112  0.431486  1
  Sm  Sm14  1  0.037710  0.638937  0.973886  1
  Sm  Sm15  1  0.987301  0.668847  0.613698  1
  Sm  Sm16  1  0.468575  0.128969  0.798621  1
  Sm  Sm17  1  0.499990  0.851524  0.749976  1
  Sm  Sm18  1  0.962290  0.361063  0.026114  1
  Sm  Sm19  1  0.012699  0.331153  0.386302  1
  Sm  Sm20  1  0.031251  0.628854  0.798577  1
  Sm  Sm21  1  0.968575  0.628969  0.701379  1
  Sm  Sm22  1  0.028358  0.721078  0.343146  1
  Sm  Sm23  1  0.532906  0.788002  0.568587  1
  Sm  Sm24  1  0.037861  0.361358  0.473874  1
  Sm  Sm25  1  0.468749  0.871146  0.298577  1
  Sm  Sm26  1  0.466431  0.787888  0.931486  1
  Sm  Sm27  1  0.487468  0.831205  0.386285  1
  Sm  Sm28  1  0.512532  0.168795  0.613715  1
  Sm  Sm29  1  0.471137  0.221314  0.343055  1
  Sm  Sm30  1  0.487301  0.168847  0.886302  1
  Sm  Sm31  1  0.971642  0.278922  0.656854  1
  Sm  Sm32  1  0.462290  0.861063  0.473886  1
  Sm  Sm33  1  0.012532  0.668795  0.886285  1
  Sm  Sm34  1  0.966431  0.287888  0.568514  1
  Sm  Sm35  1  0.968749  0.371146  0.201423  1
  Sm  Sm36  1  0.537710  0.138937  0.526114  1
  Sm  Sm37  1  0.962139  0.638642  0.526126  1
  Sm  Sm38  1  0.467094  0.211998  0.431413  1
  Sm  Sm39  1  0.528358  0.221078  0.156854  1
  Sm  Sm40  1  0.000010  0.648476  0.249976  1
  Sm  Sm41  1  0.533569  0.212112  0.068514  1
  Sm  Sm42  1  0.500010  0.148476  0.250024  1
  Sm  Sm43  1  -0.000010  0.351524  0.750024  1
  Br  Br44  1  0.225526  0.897257  0.777255  1
  Br  Br45  1  0.325067  0.815314  0.689532  1
  Br  Br46  1  0.229575  0.619270  0.496396  1
  Br  Br47  1  0.688260  0.474573  0.635158  1
  Br  Br48  1  0.229453  0.380619  0.996371  1
  Br  Br49  1  0.810538  0.022011  0.091527  1
  Br  Br50  1  0.773563  0.382327  0.268024  1
  Br  Br51  1  0.810579  0.977996  0.591522  1
  Br  Br52  1  0.274474  0.602743  0.277255  1
  Br  Br53  1  0.828623  0.955165  0.679154  1
  Br  Br54  1  0.316924  0.169260  0.037632  1
  Br  Br55  1  0.311633  0.474193  0.864847  1
  Br  Br56  1  0.770425  0.380730  0.503604  1
  Br  Br57  1  0.163643  0.037275  0.452796  1
  Br  Br58  1  0.853589  0.373898  0.350412  1
  Br  Br59  1  0.617151  0.803096  0.885152  1
  Br  Br60  1  0.882435  0.302899  0.885250  1
  Br  Br61  1  0.825067  0.315314  0.810468  1
  Br  Br62  1  0.183076  0.330740  0.537632  1
  Br  Br63  1  0.662850  0.463160  0.547211  1
  Br  Br64  1  0.617565  0.197101  0.385250  1
  Br  Br65  1  0.816924  0.669260  0.462368  1
  Br  Br66  1  0.189462  0.977989  0.908473  1
  Br  Br67  1  0.226437  0.617673  0.731976  1
  Br  Br68  1  0.225424  0.102920  0.277273  1
  Br  Br69  1  0.774576  0.897080  0.722727  1
  Br  Br70  1  0.729453  0.880619  0.503629  1
  Br  Br71  1  0.811740  0.025427  0.135158  1
  Br  Br72  1  0.158381  0.622534  0.578571  1
  Br  Br73  1  0.689421  0.522004  0.091522  1
  Br  Br74  1  0.836357  0.962725  0.547204  1
  Br  Br75  1  0.146411  0.626102  0.649588  1
  Br  Br76  1  0.311740  0.525427  0.364842  1
  Br  Br77  1  0.328384  0.545285  0.320840  1
  Br  Br78  1  0.188260  0.974573  0.864842  1
  Br  Br79  1  0.683492  0.168992  0.462336  1
  Br  Br80  1  0.341619  0.877466  0.078571  1
  Br  Br81  1  0.689462  0.477989  0.591527  1
  Br  Br82  1  0.337150  0.536840  0.452789  1
  Br  Br83  1  0.310579  0.477996  0.908478  1
  Br  Br84  1  0.725424  0.602920  0.222727  1
  Br  Br85  1  0.325058  0.184622  0.189505  1
  Br  Br86  1  0.174933  0.684686  0.189532  1
  Br  Br87  1  0.854007  0.625711  0.850386  1
  Br  Br88  1  0.274576  0.397080  0.777273  1
  Br  Br89  1  0.683076  0.830740  0.962368  1
  Br  Br90  1  0.837150  0.036840  0.047211  1
  Br  Br91  1  0.353589  0.873898  0.149588  1
  Br  Br92  1  0.688367  0.525807  0.135153  1
  Br  Br93  1  0.645993  0.874289  0.350386  1
  Br  Br94  1  0.354007  0.125711  0.649614  1
  Br  Br95  1  0.158820  0.377125  0.078593  1
  Br  Br96  1  0.341180  0.122875  0.578593  1
  Br  Br97  1  0.382849  0.196904  0.114848  1
  Br  Br98  1  0.174942  0.315378  0.689505  1
  Br  Br99  1  0.162850  0.963160  0.952789  1
  Br  Br100  1  0.171377  0.044835  0.320846  1
  Br  Br101  1  0.882849  0.696904  0.385152  1
  Br  Br102  1  0.328623  0.455165  0.820846  1
  Br  Br103  1  0.336357  0.462725  0.952796  1
  Br  Br104  1  0.726437  0.117673  0.768024  1
  Br  Br105  1  0.316508  0.831008  0.537664  1
  Br  Br106  1  0.770547  0.619381  0.003629  1
  Br  Br107  1  0.671616  0.454715  0.679160  1
  Br  Br108  1  0.382435  0.802899  0.614750  1
  Br  Br109  1  0.671377  0.544835  0.179154  1
  Br  Br110  1  0.841619  0.377466  0.421429  1
  Br  Br111  1  0.171616  0.954715  0.820840  1
  Br  Br112  1  0.226755  0.382169  0.231991  1
  Br  Br113  1  0.729575  0.119270  0.003604  1
  Br  Br114  1  0.674933  0.184686  0.310468  1
  Br  Br115  1  0.273245  0.117831  0.731991  1
  Br  Br116  1  0.725526  0.397257  0.722745  1
  Br  Br117  1  0.663643  0.537275  0.047204  1
  Br  Br118  1  0.674942  0.815378  0.810495  1
  Br  Br119  1  0.117565  0.697101  0.114750  1
  Br  Br120  1  0.811633  0.974193  0.635153  1
  Br  Br121  1  0.816508  0.331008  0.962336  1
  Br  Br122  1  0.646411  0.126102  0.850412  1
  Br  Br123  1  0.841180  0.622875  0.921407  1
  Br  Br124  1  0.117151  0.303096  0.614848  1
  Br  Br125  1  0.189421  0.022004  0.408478  1
  Br  Br126  1  0.658820  0.877125  0.421407  1
  Br  Br127  1  0.270547  0.119381  0.496371  1
  Br  Br128  1  0.270425  0.880730  0.996396  1
  Br  Br129  1  0.310538  0.522011  0.408473  1
  Br  Br130  1  0.273563  0.882327  0.231976  1
  Br  Br131  1  0.825058  0.684622  0.310495  1
  Br  Br132  1  0.188367  0.025807  0.364847  1
  Br  Br133  1  0.773245  0.617831  0.768009  1
  Br  Br134  1  0.183492  0.668992  0.037664  1
  Br  Br135  1  0.828384  0.045285  0.179160  1
  Br  Br136  1  0.726755  0.882169  0.268009  1
  Br  Br137  1  0.774474  0.102743  0.222745  1
  Br  Br138  1  0.658381  0.122534  0.921429  1
  Br  Br139  1  0.145993  0.374289  0.149614  1
