# generated using pymatgen
data_K2Nb6Ag(PO8)3
_symmetry_space_group_name_H-M   'P 1'
_cell_length_a   8.57769351
_cell_length_b   8.64329910
_cell_length_c   8.57769408
_cell_angle_alpha   104.58704237
_cell_angle_beta   104.38378824
_cell_angle_gamma   104.58705078
_symmetry_Int_Tables_number   1
_chemical_formula_structural   K2Nb6Ag(PO8)3
_chemical_formula_sum   'K2 Nb6 Ag1 P3 O24'
_cell_volume   561.62354423
_cell_formula_units_Z   1
loop_
 _symmetry_equiv_pos_site_id
 _symmetry_equiv_pos_as_xyz
  1  'x, y, z'
loop_
 _atom_site_type_symbol
 _atom_site_label
 _atom_site_symmetry_multiplicity
 _atom_site_fract_x
 _atom_site_fract_y
 _atom_site_fract_z
 _atom_site_occupancy
  K  K0  1  0.476774  0.779762  0.169997  1
  K  K1  1  0.830003  0.220238  0.523226  1
  Nb  Nb2  1  0.034498  0.351359  0.151725  1
  Nb  Nb3  1  0.154746  0.038538  0.354655  1
  Nb  Nb4  1  0.645345  0.961462  0.845254  1
  Nb  Nb5  1  0.351852  0.154426  0.036767  1
  Nb  Nb6  1  0.848275  0.648641  0.965502  1
  Nb  Nb7  1  0.963233  0.845574  0.648148  1
  Ag  Ag8  1  0.496481  0.500000  0.503519  1
  P  P9  1  0.268636  0.731618  0.497750  1
  P  P10  1  0.502250  0.268382  0.731364  1
  P  P11  1  0.729776  0.500000  0.270224  1
  O  O12  1  0.020871  0.977676  0.497511  1
  O  O13  1  0.001848  0.846203  0.152784  1
  O  O14  1  0.125186  0.717082  0.574779  1
  O  O15  1  0.153416  0.000000  0.846584  1
  O  O16  1  0.067454  0.207587  0.312403  1
  O  O17  1  0.289483  0.872180  0.416267  1
  O  O18  1  0.235931  0.560427  0.358322  1
  O  O19  1  0.440489  0.768120  0.639991  1
  O  O20  1  0.212860  0.312082  0.076438  1
  O  O21  1  0.425221  0.282918  0.874814  1
  O  O22  1  0.360009  0.231880  0.559511  1
  O  O23  1  0.315946  0.068313  0.210297  1
  O  O24  1  0.502489  0.022324  0.979129  1
  O  O25  1  0.687597  0.792413  0.932546  1
  O  O26  1  0.641678  0.439573  0.764069  1
  O  O27  1  0.583733  0.127820  0.710517  1
  O  O28  1  0.789703  0.931687  0.684054  1
  O  O29  1  0.559644  0.358179  0.236894  1
  O  O30  1  0.763106  0.641821  0.440356  1
  O  O31  1  0.710433  0.579225  0.127938  1
  O  O32  1  0.923562  0.687918  0.787140  1
  O  O33  1  0.872062  0.420775  0.289567  1
  O  O34  1  0.847216  0.153797  0.998152  1
  O  O35  1  0.974193  0.500000  0.025807  1
