# generated using pymatgen
data_K24Zr18Se91
_symmetry_space_group_name_H-M   'P 1'
_cell_length_a   18.35013681
_cell_length_b   18.94988280
_cell_length_c   17.86229256
_cell_angle_alpha   62.19648011
_cell_angle_beta   78.17080319
_cell_angle_gamma   68.25902404
_symmetry_Int_Tables_number   1
_chemical_formula_structural   K24Zr18Se91
_chemical_formula_sum   'K24 Zr18 Se91'
_cell_volume   5099.48519662
_cell_formula_units_Z   1
loop_
 _symmetry_equiv_pos_site_id
 _symmetry_equiv_pos_as_xyz
  1  'x, y, z'
loop_
 _atom_site_type_symbol
 _atom_site_label
 _atom_site_symmetry_multiplicity
 _atom_site_fract_x
 _atom_site_fract_y
 _atom_site_fract_z
 _atom_site_occupancy
  K  K0  1  0.823845  0.221408  0.318884  1
  K  K1  1  0.220160  0.092781  0.741671  1
  K  K2  1  0.120869  0.422061  0.070396  1
  K  K3  1  0.065980  0.457352  0.657014  1
  K  K4  1  0.084471  0.819835  0.947135  1
  K  K5  1  0.323385  0.064374  0.972625  1
  K  K6  1  0.233931  0.436305  0.278028  1
  K  K7  1  0.243398  0.568433  0.476908  1
  K  K8  1  0.300154  0.413934  0.815611  1
  K  K9  1  0.718546  0.024527  0.436738  1
  K  K10  1  0.464898  0.559436  0.743309  1
  K  K11  1  0.345489  0.714267  0.042041  1
  K  K12  1  0.511317  0.256335  0.064321  1
  K  K13  1  0.534642  0.412633  0.290466  1
  K  K14  1  0.518097  0.035287  0.332045  1
  K  K15  1  0.667003  0.657473  0.099797  1
  K  K16  1  0.857271  0.419991  0.462659  1
  K  K17  1  0.778682  0.486292  0.763369  1
  K  K18  1  0.627240  0.953071  0.082712  1
  K  K19  1  0.008527  0.260485  0.967285  1
  K  K20  1  0.962979  0.611743  0.233632  1
  K  K21  1  0.720744  0.760585  0.627623  1
  K  K22  1  0.811526  0.928941  0.213004  1
  K  K23  1  0.018295  0.832432  0.660843  1
  Zr  Zr24  1  0.081830  0.102738  0.533754  1
  Zr  Zr25  1  0.945220  0.568978  0.825223  1
  Zr  Zr26  1  0.114075  0.301973  0.505610  1
  Zr  Zr27  1  0.139280  0.805749  0.273580  1
  Zr  Zr28  1  0.301753  0.208921  0.150014  1
  Zr  Zr29  1  0.719093  0.246952  0.854121  1
  Zr  Zr30  1  0.557518  0.219604  0.804167  1
  Zr  Zr31  1  0.187100  0.829125  0.442079  1
  Zr  Zr32  1  0.310003  0.809180  0.773860  1
  Zr  Zr33  1  0.718557  0.216595  0.122617  1
  Zr  Zr34  1  0.797172  0.831342  0.849224  1
  Zr  Zr35  1  0.419570  0.752831  0.247027  1
  Zr  Zr36  1  0.632245  0.979945  0.808586  1
  Zr  Zr37  1  0.502061  0.834741  0.856688  1
  Zr  Zr38  1  0.935646  0.183295  0.782757  1
  Zr  Zr39  1  0.901058  0.656243  0.510571  1
  Zr  Zr40  1  0.041390  0.271225  0.331522  1
  Zr  Zr41  1  0.967849  0.886408  0.415530  1
  Se  Se42  1  0.886248  0.034585  0.303343  1
  Se  Se43  1  0.071638  0.848365  0.135341  1
  Se  Se44  1  0.034999  0.087249  0.416560  1
  Se  Se45  1  0.996697  0.396599  0.561164  1
  Se  Se46  1  0.065942  0.397578  0.350225  1
  Se  Se47  1  0.052128  0.182061  0.636598  1
  Se  Se48  1  0.167045  0.198631  0.860702  1
  Se  Se49  1  0.267267  0.263404  0.552327  1
  Se  Se50  1  0.062075  0.703511  0.292798  1
  Se  Se51  1  0.163872  0.214451  0.113064  1
  Se  Se52  1  0.184066  0.600012  0.008774  1
  Se  Se53  1  0.084492  0.747672  0.502996  1
  Se  Se54  1  0.920585  0.056485  0.157146  1
  Se  Se55  1  0.503681  0.078849  0.498014  1
  Se  Se56  1  0.134164  0.627450  0.125278  1
  Se  Se57  1  0.191280  0.408641  0.486676  1
  Se  Se58  1  0.175163  0.197584  0.253996  1
  Se  Se59  1  0.749262  0.572009  0.942655  1
  Se  Se60  1  0.004540  0.622822  0.903043  1
  Se  Se61  1  0.207472  0.850014  0.122338  1
  Se  Se62  1  0.217315  0.307554  0.763856  1
  Se  Se63  1  0.372894  0.216127  0.256754  1
  Se  Se64  1  0.841778  0.288266  0.856442  1
  Se  Se65  1  0.154174  0.968713  0.471794  1
  Se  Se66  1  0.735941  0.323917  0.451412  1
  Se  Se67  1  0.461396  0.959143  0.230400  1
  Se  Se68  1  0.164205  0.840964  0.746061  1
  Se  Se69  1  0.324614  0.795704  0.493256  1
  Se  Se70  1  0.273013  0.746469  0.344215  1
  Se  Se71  1  0.336001  0.660914  0.876107  1
  Se  Se72  1  0.316742  0.335279  0.019829  1
  Se  Se73  1  0.344860  0.059895  0.151235  1
  Se  Se74  1  0.362520  0.452620  0.069624  1
  Se  Se75  1  0.328145  0.564912  0.625949  1
  Se  Se76  1  0.566288  0.197725  0.370919  1
  Se  Se77  1  0.580760  0.218502  0.487255  1
  Se  Se78  1  0.606071  0.629325  0.782405  1
  Se  Se79  1  0.624835  0.144725  0.942751  1
  Se  Se80  1  0.596584  0.353208  0.754142  1
  Se  Se81  1  0.485379  0.980208  0.870397  1
  Se  Se82  1  0.346094  0.887404  0.841438  1
  Se  Se83  1  0.619444  0.137171  0.715449  1
  Se  Se84  1  0.413098  0.227426  0.826967  1
  Se  Se85  1  0.549661  0.797947  0.164434  1
  Se  Se86  1  0.412392  0.846342  0.328830  1
  Se  Se87  1  0.661713  0.095764  0.193196  1
  Se  Se88  1  0.400507  0.609944  0.262258  1
  Se  Se89  1  0.530827  0.596146  0.280223  1
  Se  Se90  1  0.378233  0.849814  0.100283  1
  Se  Se91  1  0.410460  0.353263  0.198428  1
  Se  Se92  1  0.400985  0.904153  0.560299  1
  Se  Se93  1  0.408277  0.767323  0.663314  1
  Se  Se94  1  0.617940  0.426582  0.440082  1
  Se  Se95  1  0.640198  0.544758  0.923578  1
  Se  Se96  1  0.738330  0.941870  0.910909  1
  Se  Se97  1  0.526184  0.703985  0.987931  1
  Se  Se98  1  0.669407  0.308433  0.970494  1
  Se  Se99  1  0.799301  0.224513  0.708146  1
  Se  Se100  1  0.712934  0.181909  0.509612  1
  Se  Se101  1  0.868367  0.205360  0.102333  1
  Se  Se102  1  0.514290  0.991061  0.726508  1
  Se  Se103  1  0.259733  0.705582  0.608578  1
  Se  Se104  1  0.898611  0.960963  0.504191  1
  Se  Se105  1  0.176575  0.182932  0.440066  1
  Se  Se106  1  0.557599  0.785400  0.734209  1
  Se  Se107  1  0.649458  0.862809  0.285262  1
  Se  Se108  1  0.659276  0.747787  0.260013  1
  Se  Se109  1  0.822139  0.105174  0.842204  1
  Se  Se110  1  0.335179  0.249868  0.703766  1
  Se  Se111  1  0.966996  0.285728  0.207035  1
  Se  Se112  1  0.828516  0.821435  0.699266  1
  Se  Se113  1  0.820967  0.547037  0.561349  1
  Se  Se114  1  0.065080  0.449938  0.851911  1
  Se  Se115  1  0.524127  0.930161  0.567980  1
  Se  Se116  1  0.051846  0.035828  0.847616  1
  Se  Se117  1  0.668025  0.804047  0.872518  1
  Se  Se118  1  0.946433  0.232547  0.463858  1
  Se  Se119  1  0.866996  0.467002  0.926604  1
  Se  Se120  1  0.927078  0.346013  0.704611  1
  Se  Se121  1  0.758305  0.692822  0.470045  1
  Se  Se122  1  0.956946  0.411694  0.213832  1
  Se  Se123  1  0.765636  0.741411  0.160840  1
  Se  Se124  1  0.871554  0.815145  0.409472  1
  Se  Se125  1  0.914104  0.636138  0.666232  1
  Se  Se126  1  0.025467  0.591498  0.432795  1
  Se  Se127  1  0.765649  0.960089  0.694924  1
  Se  Se128  1  0.935735  0.750720  0.920211  1
  Se  Se129  1  0.089914  0.935518  0.309059  1
  Se  Se130  1  0.666127  0.308658  0.197253  1
  Se  Se131  1  0.981358  0.098111  0.942054  1
  Se  Se132  1  0.129824  0.995627  0.691980  1
