# generated using pymatgen
data_Eu5Si(Cl3O2)2
_symmetry_space_group_name_H-M   'P 1'
_cell_length_a   8.35147531
_cell_length_b   8.35085212
_cell_length_c   11.15858520
_cell_angle_alpha   97.19724342
_cell_angle_beta   97.24275845
_cell_angle_gamma   114.66446351
_symmetry_Int_Tables_number   1
_chemical_formula_structural   Eu5Si(Cl3O2)2
_chemical_formula_sum   'Eu10 Si2 Cl12 O8'
_cell_volume   687.78388802
_cell_formula_units_Z   2
loop_
 _symmetry_equiv_pos_site_id
 _symmetry_equiv_pos_as_xyz
  1  'x, y, z'
loop_
 _atom_site_type_symbol
 _atom_site_label
 _atom_site_symmetry_multiplicity
 _atom_site_fract_x
 _atom_site_fract_y
 _atom_site_fract_z
 _atom_site_occupancy
  Eu  Eu0  1  0.573298  0.732690  0.132132  1
  Eu  Eu1  1  0.426577  0.267308  0.867821  1
  Eu  Eu2  1  0.267236  0.426621  0.367784  1
  Eu  Eu3  1  0.733282  0.573921  0.632451  1
  Eu  Eu4  1  0.699790  0.300219  0.249948  1
  Eu  Eu5  1  0.926978  0.184611  0.980949  1
  Eu  Eu6  1  0.815514  0.073116  0.519032  1
  Eu  Eu7  1  0.184557  0.926899  0.480923  1
  Eu  Eu8  1  0.073104  0.815434  0.019130  1
  Eu  Eu9  1  0.300446  0.699594  0.749997  1
  Si  Si10  1  0.921086  0.078834  0.249976  1
  Si  Si11  1  0.078879  0.921115  0.750052  1
  Cl  Cl12  1  0.778681  0.480444  0.047338  1
  Cl  Cl13  1  0.221314  0.519531  0.952701  1
  Cl  Cl14  1  0.745443  0.254838  0.749887  1
  Cl  Cl15  1  0.354818  0.294518  0.139730  1
  Cl  Cl16  1  0.254525  0.745514  0.250039  1
  Cl  Cl17  1  0.294768  0.354855  0.639627  1
  Cl  Cl18  1  0.519780  0.221698  0.452836  1
  Cl  Cl19  1  0.480604  0.778589  0.547321  1
  Cl  Cl20  1  0.999743  0.499997  0.500057  1
  Cl  Cl21  1  0.705517  0.645138  0.360502  1
  Cl  Cl22  1  0.645362  0.705331  0.860104  1
  Cl  Cl23  1  0.500095  0.000065  0.000039  1
  O  O24  1  0.897559  0.937702  0.124951  1
  O  O25  1  0.937188  0.896956  0.624891  1
  O  O26  1  0.721557  0.020160  0.287448  1
  O  O27  1  0.062365  0.102441  0.375103  1
  O  O28  1  0.278354  0.979974  0.712519  1
  O  O29  1  0.979819  0.278473  0.212552  1
  O  O30  1  0.019349  0.721193  0.787146  1
  O  O31  1  0.102410  0.062221  0.875017  1
