# generated using pymatgen
data_H2S
_symmetry_space_group_name_H-M   'P 1'
_cell_length_a   8.83753126
_cell_length_b   8.83753126
_cell_length_c   8.83753126
_cell_angle_alpha   118.69031892
_cell_angle_beta   118.69031892
_cell_angle_gamma   92.28380920
_symmetry_Int_Tables_number   1
_chemical_formula_structural   H2S
_chemical_formula_sum   'H16 S8'
_cell_volume   497.29950018
_cell_formula_units_Z   8
loop_
 _symmetry_equiv_pos_site_id
 _symmetry_equiv_pos_as_xyz
  1  'x, y, z'
loop_
 _atom_site_type_symbol
 _atom_site_label
 _atom_site_symmetry_multiplicity
 _atom_site_fract_x
 _atom_site_fract_y
 _atom_site_fract_z
 _atom_site_occupancy
  H  H0  1  0.126192  0.831213  0.859650  1
  H  H1  1  0.626192  0.766542  0.294978  1
  H  H2  1  0.778436  0.983458  0.359650  1
  H  H3  1  0.278436  0.918787  0.794979  1
  H  H4  1  0.971564  0.266542  0.140350  1
  H  H5  1  0.471564  0.331213  0.705021  1
  H  H6  1  0.623808  0.418787  0.640350  1
  H  H7  1  0.123808  0.483458  0.205021  1
  H  H8  1  0.168787  0.028436  0.294978  1
  H  H9  1  0.233458  0.528436  0.859650  1
  H  H10  1  0.016542  0.376192  0.794979  1
  H  H11  1  0.081213  0.876192  0.359650  1
  H  H12  1  0.733458  0.873808  0.705021  1
  H  H13  1  0.668787  0.373808  0.140350  1
  H  H14  1  0.581213  0.221564  0.205021  1
  H  H15  1  0.516542  0.721564  0.640350  1
  S  S16  1  0.125000  0.849057  0.224057  1
  S  S17  1  0.625000  0.400943  0.275943  1
  S  S18  1  0.125000  0.349057  0.724057  1
  S  S19  1  0.625000  0.900943  0.775943  1
  S  S20  1  0.150943  0.375000  0.275943  1
  S  S21  1  0.599057  0.875000  0.224057  1
  S  S22  1  0.650943  0.375000  0.775943  1
  S  S23  1  0.099057  0.875000  0.724057  1
