# generated using pymatgen
data_K2Al11Si13(Ag3O16)3
_symmetry_space_group_name_H-M   'P 1'
_cell_length_a   12.92473846
_cell_length_b   12.17549166
_cell_length_c   12.33948872
_cell_angle_alpha   90.07062715
_cell_angle_beta   89.52035214
_cell_angle_gamma   90.00486504
_symmetry_Int_Tables_number   1
_chemical_formula_structural   K2Al11Si13(Ag3O16)3
_chemical_formula_sum   'K2 Al11 Si13 Ag9 O48'
_cell_volume   1941.73467904
_cell_formula_units_Z   1
loop_
 _symmetry_equiv_pos_site_id
 _symmetry_equiv_pos_as_xyz
  1  'x, y, z'
loop_
 _atom_site_type_symbol
 _atom_site_label
 _atom_site_symmetry_multiplicity
 _atom_site_fract_x
 _atom_site_fract_y
 _atom_site_fract_z
 _atom_site_occupancy
  K  K0  1  0.504044  -0.010090  0.002622  1
  K  K1  1  0.543060  0.399060  0.866170  1
  Al  Al2  1  0.183239  -0.000057  0.629591  1
  Al  Al3  1  0.171878  0.367580  0.997495  1
  Al  Al4  1  0.366989  0.799363  0.000501  1
  Al  Al5  1  0.619581  0.993391  0.204023  1
  Al  Al6  1  0.622031  0.200904  0.008193  1
  Al  Al7  1  0.624959  0.994217  0.806628  1
  Al  Al8  1  0.619879  0.784235  0.005047  1
  Al  Al9  1  0.832509  0.991627  0.369866  1
  Al  Al10  1  0.835164  0.992285  0.634194  1
  Al  Al11  1  0.826076  0.363581  0.002718  1
  Al  Al12  1  0.839043  0.636397  0.003080  1
  Si  Si13  1  0.179882  0.002225  0.369538  1
  Si  Si14  1  0.174530  0.616708  0.995361  1
  Si  Si15  1  0.367092  0.995026  0.192409  1
  Si  Si16  1  0.366456  0.184264  0.002248  1
  Si  Si17  1  0.371436  -0.002736  0.810207  1
  Si  Si18  1  0.003010  0.182424  0.370911  1
  Si  Si19  1  0.003343  0.183633  0.631825  1
  Si  Si20  1  0.991190  0.365563  0.189300  1
  Si  Si21  1  0.991901  0.362912  0.813449  1
  Si  Si22  1  0.001325  0.625236  0.187381  1
  Si  Si23  1  0.997714  0.624096  0.812604  1
  Si  Si24  1  0.011724  0.809126  0.370588  1
  Si  Si25  1  0.012882  0.805367  0.630268  1
  Ag  Ag26  1  0.199375  0.210971  0.196242  1
  Ag  Ag27  1  0.188885  0.186281  0.813278  1
  Ag  Ag28  1  0.201846  0.788542  0.193095  1
  Ag  Ag29  1  0.200349  0.802529  0.809603  1
  Ag  Ag30  1  0.799933  0.163818  0.180035  1
  Ag  Ag31  1  0.809275  0.152491  0.836421  1
  Ag  Ag32  1  0.794588  0.817798  0.185018  1
  Ag  Ag33  1  0.798647  0.821289  0.821074  1
  Ag  Ag34  1  0.772512  0.982899  0.005608  1
  O  O35  1  0.982368  0.496995  0.221695  1
  O  O36  1  0.002049  0.301985  0.695017  1
  O  O37  1  0.979066  0.494554  0.786253  1
  O  O38  1  0.018960  0.777922  0.498882  1
  O  O39  1  0.018870  0.687913  0.697056  1
  O  O40  1  0.115234  0.117234  0.340117  1
  O  O41  1  0.096330  0.344010  0.116130  1
  O  O42  1  0.112732  0.121426  0.659987  1
  O  O43  1  0.106680  0.633612  0.109178  1
  O  O44  1  0.100742  0.340441  0.878534  1
  O  O45  1  0.113358  0.889975  0.335979  1
  O  O46  1  0.104909  0.636684  0.885591  1
  O  O47  1  0.116962  0.876128  0.663310  1
  O  O48  1  0.212558  -0.000832  0.492817  1
  O  O49  1  0.226148  0.497390  0.993315  1
  O  O50  1  0.292388  0.006302  0.710798  1
  O  O51  1  0.259505  0.713885  0.994517  1
  O  O52  1  0.281574  0.006200  0.290279  1
  O  O53  1  0.275492  0.274201  0.002395  1
  O  O54  1  0.345422  0.105333  0.112007  1
  O  O55  1  0.344275  0.105482  0.893899  1
  O  O56  1  0.340632  0.885498  0.119390  1
  O  O57  1  0.347150  0.887835  0.885367  1
  O  O58  1  0.483766  -0.004285  0.234499  1
  O  O59  1  0.483457  0.233607  -0.000596  1
  O  O60  1  0.489549  0.748420  0.003153  1
  O  O61  1  0.491392  0.001056  0.775398  1
  O  O62  1  0.640024  0.114381  0.120377  1
  O  O63  1  0.643605  0.115016  0.891231  1
  O  O64  1  0.640238  0.877625  0.117108  1
  O  O65  1  0.642777  0.879739  0.894548  1
  O  O66  1  0.727597  0.989852  0.718328  1
  O  O67  1  0.715414  0.686887  0.003953  1
  O  O68  1  0.721240  0.992127  0.292808  1
  O  O69  1  0.696388  0.318560  0.996002  1
  O  O70  1  0.856720  0.498730  0.002138  1
  O  O71  1  0.807626  0.997744  0.502440  1
  O  O72  1  0.910384  0.106709  0.326467  1
  O  O73  1  0.907475  0.111083  0.675614  1
  O  O74  1  0.889218  0.317619  0.126964  1
  O  O75  1  0.893870  0.312290  0.882311  1
  O  O76  1  0.906639  0.683011  0.124053  1
  O  O77  1  0.905289  0.683188  0.881036  1
  O  O78  1  0.906517  0.869399  0.335372  1
  O  O79  1  0.909781  0.871000  0.665608  1
  O  O80  1  0.000350  0.207430  0.500415  1
  O  O81  1  0.007696  0.298516  0.304583  1
  O  O82  1  0.031035  0.697167  0.297090  1
