# generated using pymatgen
data_Bi28Mo2O47
_symmetry_space_group_name_H-M   'P 1'
_cell_length_a   8.87171995
_cell_length_b   8.88826679
_cell_length_c   21.31785570
_cell_angle_alpha   114.50358755
_cell_angle_beta   114.41789940
_cell_angle_gamma   90.06977892
_symmetry_Int_Tables_number   1
_chemical_formula_structural   Bi28Mo2O47
_chemical_formula_sum   'Bi28 Mo2 O47'
_cell_volume   1362.20643263
_cell_formula_units_Z   1
loop_
 _symmetry_equiv_pos_site_id
 _symmetry_equiv_pos_as_xyz
  1  'x, y, z'
loop_
 _atom_site_type_symbol
 _atom_site_label
 _atom_site_symmetry_multiplicity
 _atom_site_fract_x
 _atom_site_fract_y
 _atom_site_fract_z
 _atom_site_occupancy
  Bi  Bi0  1  0.131615  0.726315  0.830990  1
  Bi  Bi1  1  0.054311  0.871221  0.666780  1
  Bi  Bi2  1  0.343280  0.355787  0.841514  1
  Bi  Bi3  1  0.273357  0.472018  0.666227  1
  Bi  Bi4  1  0.214795  0.551099  0.499005  1
  Bi  Bi5  1  0.524744  0.942829  0.826523  1
  Bi  Bi6  1  0.123054  0.718792  0.328566  1
  Bi  Bi7  1  0.056731  0.872880  0.167762  1
  Bi  Bi8  1  0.462995  0.060374  0.667525  1
  Bi  Bi9  1  0.442420  0.215507  0.498029  1
  Bi  Bi10  1  0.714133  0.534119  0.826450  1
  Bi  Bi11  1  0.338928  0.346830  0.340043  1
  Bi  Bi12  1  0.654624  0.659875  0.658457  1
  Bi  Bi13  1  0.274462  0.469121  0.166855  1
  Bi  Bi14  1  0.556844  0.791354  0.500008  1
  Bi  Bi15  1  0.216660  0.554236  0.000094  1
  Bi  Bi16  1  0.525449  0.939933  0.329624  1
  Bi  Bi17  1  0.937249  0.139237  0.828425  1
  Bi  Bi18  1  0.860712  0.277740  0.664710  1
  Bi  Bi19  1  0.465986  0.059127  0.167133  1
  Bi  Bi20  1  0.782106  0.446937  0.498174  1
  Bi  Bi21  1  0.446465  0.217550  0.998391  1
  Bi  Bi22  1  0.718052  0.532128  0.327202  1
  Bi  Bi23  1  0.661112  0.663906  0.158884  1
  Bi  Bi24  1  0.557222  0.793342  0.001834  1
  Bi  Bi25  1  0.937003  0.130852  0.329389  1
  Bi  Bi26  1  0.867946  0.275555  0.166025  1
  Bi  Bi27  1  0.786090  0.449667  0.998611  1
  Mo  Mo28  1  0.980291  0.015999  0.981805  1
  Mo  Mo29  1  0.952121  0.023148  0.484445  1
  O  O30  1  0.193446  0.986628  0.016674  1
  O  O31  1  0.997894  0.172887  0.747197  1
  O  O32  1  0.238471  0.300189  0.920044  1
  O  O33  1  0.296637  0.605086  0.920839  1
  O  O34  1  0.179238  0.506259  0.754469  1
  O  O35  1  0.114178  0.622028  0.616595  1
  O  O36  1  0.378592  0.889146  0.880956  1
  O  O37  1  0.326772  0.002241  0.746179  1
  O  O38  1  0.002937  0.173608  0.250351  1
  O  O39  1  0.545668  0.244546  0.919742  1
  O  O40  1  0.597009  0.551823  0.918858  1
  O  O41  1  0.495751  0.672196  0.743947  1
  O  O42  1  0.494883  0.331316  0.750681  1
  O  O43  1  0.241198  0.301049  0.420664  1
  O  O44  1  0.400653  0.461476  0.579933  1
  O  O45  1  0.292978  0.600989  0.419727  1
  O  O46  1  0.173871  0.494919  0.250214  1
  O  O47  1  0.452409  0.764557  0.580572  1
  O  O48  1  0.118443  0.623610  0.117791  1
  O  O49  1  0.663305  0.003966  0.746587  1
  O  O50  1  0.377619  0.888867  0.382988  1
  O  O51  1  0.613163  0.120925  0.617468  1
  O  O52  1  0.327878  0.006994  0.252070  1
  O  O53  1  0.873503  0.883335  0.878568  1
  O  O54  1  0.880953  0.390210  0.878325  1
  O  O55  1  0.542467  0.240216  0.420303  1
  O  O56  1  0.814747  0.498339  0.741916  1
  O  O57  1  0.696305  0.399392  0.577131  1
  O  O58  1  0.600554  0.546068  0.420324  1
  O  O59  1  0.760169  0.703206  0.578128  1
  O  O60  1  0.492522  0.669112  0.246567  1
  O  O61  1  0.495340  0.329327  0.249323  1
  O  O62  1  0.399595  0.457334  0.078072  1
  O  O63  1  0.456384  0.759385  0.079261  1
  O  O64  1  0.999586  0.828863  0.746375  1
  O  O65  1  0.791102  0.987683  0.512996  1
  O  O66  1  0.668419  0.996328  0.245706  1
  O  O67  1  0.617212  0.117265  0.116302  1
  O  O68  1  0.907027  0.859414  0.383603  1
  O  O69  1  0.879958  0.384141  0.380875  1
  O  O70  1  0.076867  0.223459  0.513814  1
  O  O71  1  0.823918  0.494350  0.244278  1
  O  O72  1  0.703427  0.400289  0.077551  1
  O  O73  1  0.758778  0.709516  0.080518  1
  O  O74  1  0.993678  0.824781  0.244902  1
  O  O75  1  0.868436  0.962263  0.026258  1
  O  O76  1  0.982703  0.233343  0.999272  1
