# generated using pymatgen
data_Fe2SiS4
_symmetry_space_group_name_H-M   'P 1'
_cell_length_a   5.80815663
_cell_length_b   7.02692684
_cell_length_c   12.16652664
_cell_angle_alpha   90.11924482
_cell_angle_beta   89.91110316
_cell_angle_gamma   89.90562094
_symmetry_Int_Tables_number   1
_chemical_formula_structural   Fe2SiS4
_chemical_formula_sum   'Fe8 Si4 S16'
_cell_volume   496.55608514
_cell_formula_units_Z   4
loop_
 _symmetry_equiv_pos_site_id
 _symmetry_equiv_pos_as_xyz
  1  'x, y, z'
loop_
 _atom_site_type_symbol
 _atom_site_label
 _atom_site_symmetry_multiplicity
 _atom_site_fract_x
 _atom_site_fract_y
 _atom_site_fract_z
 _atom_site_occupancy
  Fe  Fe0  1  0.007028  0.749876  0.262091  1
  Fe  Fe1  1  0.507017  0.250097  0.237897  1
  Fe  Fe2  1  0.500007  0.000055  0.500015  1
  Fe  Fe3  1  0.992898  0.250121  0.737846  1
  Fe  Fe4  1  0.492966  0.749901  0.762081  1
  Fe  Fe5  1  0.999984  0.000030  0.000016  1
  Fe  Fe6  1  0.999992  0.499980  0.000016  1
  Fe  Fe7  1  0.500008  0.499955  0.500014  1
  Si  Si8  1  0.407556  0.250231  0.912036  1
  Si  Si9  1  0.592446  0.749761  0.087974  1
  Si  Si10  1  0.092152  0.250203  0.412069  1
  Si  Si11  1  0.907839  0.749797  0.587953  1
  S  S12  1  0.759036  0.749969  0.425411  1
  S  S13  1  0.722837  0.249982  0.408462  1
  S  S14  1  0.750628  0.509250  0.167859  1
  S  S15  1  0.240927  0.250031  0.574638  1
  S  S16  1  0.251369  0.009476  0.331882  1
  S  S17  1  0.251172  0.490284  0.331974  1
  S  S18  1  0.748932  0.509629  0.668032  1
  S  S19  1  0.777247  0.250181  0.908648  1
  S  S20  1  0.740938  0.749850  0.925214  1
  S  S21  1  0.222790  0.749821  0.091323  1
  S  S22  1  0.750493  0.990872  0.168034  1
  S  S23  1  0.277168  0.750017  0.591519  1
  S  S24  1  0.249409  0.009220  0.831949  1
  S  S25  1  0.259151  0.250149  0.074808  1
  S  S26  1  0.748737  0.990615  0.668119  1
  S  S27  1  0.249273  0.490649  0.832125  1
