# generated using pymatgen
data_K3CrF3
_symmetry_space_group_name_H-M   'P 1'
_cell_length_a   6.42198637
_cell_length_b   6.04819961
_cell_length_c   6.13643197
_cell_angle_alpha   63.31941290
_cell_angle_beta   58.42803437
_cell_angle_gamma   54.91349717
_symmetry_Int_Tables_number   1
_chemical_formula_structural   K3CrF3
_chemical_formula_sum   'K3 Cr1 F3'
_cell_volume   162.37722556
_cell_formula_units_Z   1
loop_
 _symmetry_equiv_pos_site_id
 _symmetry_equiv_pos_as_xyz
  1  'x, y, z'
loop_
 _atom_site_type_symbol
 _atom_site_label
 _atom_site_symmetry_multiplicity
 _atom_site_fract_x
 _atom_site_fract_y
 _atom_site_fract_z
 _atom_site_occupancy
  K  K0  1  0.245310  0.249015  0.261831  1
  K  K1  1  0.501075  0.504844  0.511011  1
  K  K2  1  0.758721  0.748729  0.750245  1
  Cr  Cr3  1  0.009895  0.997959  0.037524  1
  F  F4  1  0.225083  0.219233  0.829474  1
  F  F5  1  0.849880  0.187054  0.723150  1
  F  F6  1  0.770037  0.803166  0.246766  1
