# generated using pymatgen
data_Ce5C2Cl9
_symmetry_space_group_name_H-M   'P 1'
_cell_length_a   9.50327402
_cell_length_b   8.66068412
_cell_length_c   11.77699435
_cell_angle_alpha   85.61680662
_cell_angle_beta   81.81750794
_cell_angle_gamma   58.78840081
_symmetry_Int_Tables_number   1
_chemical_formula_structural   Ce5C2Cl9
_chemical_formula_sum   'Ce10 C4 Cl18'
_cell_volume   820.56259765
_cell_formula_units_Z   2
loop_
 _symmetry_equiv_pos_site_id
 _symmetry_equiv_pos_as_xyz
  1  'x, y, z'
loop_
 _atom_site_type_symbol
 _atom_site_label
 _atom_site_symmetry_multiplicity
 _atom_site_fract_x
 _atom_site_fract_y
 _atom_site_fract_z
 _atom_site_occupancy
  Ce  Ce0  1  0.850443  0.316395  0.008053  1
  Ce  Ce1  1  0.149557  0.683605  0.991947  1
  Ce  Ce2  1  0.122230  0.227585  0.693719  1
  Ce  Ce3  1  0.252194  0.905564  0.223856  1
  Ce  Ce4  1  0.360750  0.398021  0.234352  1
  Ce  Ce5  1  0.173143  0.695972  0.517701  1
  Ce  Ce6  1  0.826857  0.304028  0.482299  1
  Ce  Ce7  1  0.639250  0.601979  0.765648  1
  Ce  Ce8  1  0.747806  0.094436  0.776144  1
  Ce  Ce9  1  0.877770  0.772415  0.306281  1
  C  C10  1  0.157658  0.705941  0.315911  1
  C  C11  1  0.145341  0.705997  0.191961  1
  C  C12  1  0.842342  0.294059  0.684089  1
  C  C13  1  0.854659  0.294003  0.808039  1
  Cl  Cl14  1  0.983916  0.625298  0.753059  1
  Cl  Cl15  1  0.707746  0.699918  0.973748  1
  Cl  Cl16  1  0.416241  0.338239  0.474201  1
  Cl  Cl17  1  0.812639  0.001422  0.016971  1
  Cl  Cl18  1  0.016084  0.374702  0.246941  1
  Cl  Cl19  1  0.187361  -0.001422  -0.016971  1
  Cl  Cl20  1  0.187197  0.025749  0.465518  1
  Cl  Cl21  1  0.476358  0.007663  0.731435  1
  Cl  Cl22  1  0.292254  0.300082  0.026252  1
  Cl  Cl23  1  0.583759  0.661761  0.525799  1
  Cl  Cl24  1  0.846081  0.127290  0.260640  1
  Cl  Cl25  1  0.153919  0.872710  0.739360  1
  Cl  Cl26  1  0.500000  0.500000  0.000000  1
  Cl  Cl27  1  0.523642  -0.007663  0.268565  1
  Cl  Cl28  1  0.812803  -0.025749  0.534482  1
  Cl  Cl29  1  0.000000  0.500000  0.500000  1
  Cl  Cl30  1  0.443449  0.438755  0.744887  1
  Cl  Cl31  1  0.556551  0.561245  0.255113  1
