# generated using pymatgen
data_Na7Cu3O8
_symmetry_space_group_name_H-M   'P 1'
_cell_length_a   5.51065576
_cell_length_b   6.53044431
_cell_length_c   7.42831496
_cell_angle_alpha   106.06380356
_cell_angle_beta   108.56219441
_cell_angle_gamma   90.21269779
_symmetry_Int_Tables_number   1
_chemical_formula_structural   Na7Cu3O8
_chemical_formula_sum   'Na7 Cu3 O8'
_cell_volume   242.28205432
_cell_formula_units_Z   1
loop_
 _symmetry_equiv_pos_site_id
 _symmetry_equiv_pos_as_xyz
  1  'x, y, z'
loop_
 _atom_site_type_symbol
 _atom_site_label
 _atom_site_symmetry_multiplicity
 _atom_site_fract_x
 _atom_site_fract_y
 _atom_site_fract_z
 _atom_site_occupancy
  Na  Na0  1  0.271738  0.415851  0.385381  1
  Na  Na1  1  0.561867  0.160630  0.721720  1
  Na  Na2  1  0.763297  0.606587  0.042940  1
  Na  Na3  1  0.000000  0.000000  0.500000  1
  Na  Na4  1  0.236703  0.393413  0.957060  1
  Na  Na5  1  0.438133  0.839370  0.278280  1
  Na  Na6  1  0.728262  0.584149  0.614619  1
  Cu  Cu7  1  0.726694  0.241387  0.233279  1
  Cu  Cu8  1  0.000000  0.000000  0.000000  1
  Cu  Cu9  1  0.273306  0.758613  0.766721  1
  O  O10  1  0.601586  0.503151  0.260258  1
  O  O11  1  0.623304  0.190918  0.430109  1
  O  O12  1  0.894551  0.275728  0.053055  1
  O  O13  1  0.848653  0.970654  0.181273  1
  O  O14  1  0.151347  0.029346  0.818727  1
  O  O15  1  0.105449  0.724272  0.946945  1
  O  O16  1  0.376696  0.809082  0.569891  1
  O  O17  1  0.398414  0.496849  0.739742  1
