# generated using pymatgen
data_Ce21Fe8Bi7C12
_symmetry_space_group_name_H-M   'P 1'
_cell_length_a   11.39685331
_cell_length_b   11.39814896
_cell_length_c   11.39651789
_cell_angle_alpha   59.98474853
_cell_angle_beta   60.02115632
_cell_angle_gamma   60.02184122
_symmetry_Int_Tables_number   1
_chemical_formula_structural   Ce21Fe8Bi7C12
_chemical_formula_sum   'Ce21 Fe8 Bi7 C12'
_cell_volume   1047.04994724
_cell_formula_units_Z   1
loop_
 _symmetry_equiv_pos_site_id
 _symmetry_equiv_pos_as_xyz
  1  'x, y, z'
loop_
 _atom_site_type_symbol
 _atom_site_label
 _atom_site_symmetry_multiplicity
 _atom_site_fract_x
 _atom_site_fract_y
 _atom_site_fract_z
 _atom_site_occupancy
  Ce  Ce0  1  0.000014  0.342851  0.657142  1
  Ce  Ce1  1  0.342846  0.000003  -0.000001  1
  Ce  Ce2  1  0.000003  0.999988  0.657181  1
  Ce  Ce3  1  0.083733  0.638757  0.638782  1
  Ce  Ce4  1  0.342786  0.657198  0.000002  1
  Ce  Ce5  1  0.000008  0.342800  0.000025  1
  Ce  Ce6  1  0.361329  0.361160  0.361101  1
  Ce  Ce7  1  0.361361  0.361240  0.916242  1
  Ce  Ce8  1  0.000013  0.657133  0.000012  1
  Ce  Ce9  1  -0.000002  0.657222  0.342745  1
  Ce  Ce10  1  0.657141  0.342684  0.000113  1
  Ce  Ce11  1  0.657223  0.000067  0.342617  1
  Ce  Ce12  1  0.657196  0.000057  0.000099  1
  Ce  Ce13  1  -0.000014  0.000038  0.342806  1
  Ce  Ce14  1  0.361372  0.916293  0.361199  1
  Ce  Ce15  1  0.638691  0.083694  0.638804  1
  Ce  Ce16  1  0.916342  0.361229  0.361201  1
  Ce  Ce17  1  0.342849  0.999962  0.657174  1
  Ce  Ce18  1  0.638648  0.638839  0.638833  1
  Ce  Ce19  1  0.638574  0.638680  0.084027  1
  Ce  Ce20  1  0.499971  0.500134  0.499784  1
  Fe  Fe21  1  0.193732  0.418807  0.193742  1
  Fe  Fe22  1  0.806200  0.806263  0.581276  1
  Fe  Fe23  1  0.581164  0.806265  0.806290  1
  Fe  Fe24  1  0.418861  0.193690  0.193751  1
  Fe  Fe25  1  0.806247  0.806272  0.806260  1
  Fe  Fe26  1  0.193754  0.193740  0.193783  1
  Fe  Fe27  1  0.193754  0.193710  0.418746  1
  Fe  Fe28  1  0.806212  0.581246  0.806292  1
  Bi  Bi29  1  0.707910  0.708063  0.292017  1
  Bi  Bi30  1  0.707917  0.292005  0.708064  1
  Bi  Bi31  1  0.292054  0.292008  0.707981  1
  Bi  Bi32  1  0.292060  0.707963  0.291960  1
  Bi  Bi33  1  0.292058  0.707979  0.707993  1
  Bi  Bi34  1  0.707921  0.292022  0.291994  1
  Bi  Bi35  1  -0.000018  0.999980  0.000037  1
  C  C36  1  0.604107  0.604153  0.895922  1
  C  C37  1  0.895783  0.604184  0.895821  1
  C  C38  1  0.395820  0.104170  0.395763  1
  C  C39  1  0.104206  0.395772  0.104210  1
  C  C40  1  0.104268  0.104253  0.395742  1
  C  C41  1  0.604200  0.895849  0.604139  1
  C  C42  1  0.895772  0.604296  0.604226  1
  C  C43  1  0.604183  0.895809  0.895872  1
  C  C44  1  0.895775  0.895750  0.604221  1
  C  C45  1  0.395848  0.395839  0.104130  1
  C  C46  1  0.104257  0.395714  0.395696  1
  C  C47  1  0.395868  0.104167  0.104182  1
