# generated using pymatgen
data_DyCuSb2
_symmetry_space_group_name_H-M   'P 1'
_cell_length_a   4.32335689
_cell_length_b   4.31838126
_cell_length_c   9.77440098
_cell_angle_alpha   90.41927786
_cell_angle_beta   89.83641096
_cell_angle_gamma   90.15052829
_symmetry_Int_Tables_number   1
_chemical_formula_structural   DyCuSb2
_chemical_formula_sum   'Dy2 Cu2 Sb4'
_cell_volume   182.48087233
_cell_formula_units_Z   2
loop_
 _symmetry_equiv_pos_site_id
 _symmetry_equiv_pos_as_xyz
  1  'x, y, z'
loop_
 _atom_site_type_symbol
 _atom_site_label
 _atom_site_symmetry_multiplicity
 _atom_site_fract_x
 _atom_site_fract_y
 _atom_site_fract_z
 _atom_site_occupancy
  Dy  Dy0  1  0.251370  0.248826  0.250266  1
  Dy  Dy1  1  0.748646  0.750996  0.749724  1
  Cu  Cu2  1  0.745662  0.241395  0.000272  1
  Cu  Cu3  1  0.253975  0.760768  0.999754  1
  Sb  Sb4  1  0.247806  0.255272  0.838548  1
  Sb  Sb5  1  0.752380  0.744954  0.161425  1
  Sb  Sb6  1  0.250108  0.749019  0.500004  1
  Sb  Sb7  1  0.750052  0.248771  0.500007  1
