# generated using pymatgen
data_Sr5La3Mn8(O5F)4
_symmetry_space_group_name_H-M   'P 1'
_cell_length_a   5.62855810
_cell_length_b   5.68952884
_cell_length_c   15.55925528
_cell_angle_alpha   89.88712288
_cell_angle_beta   90.06671947
_cell_angle_gamma   90.18356160
_symmetry_Int_Tables_number   1
_chemical_formula_structural   Sr5La3Mn8(O5F)4
_chemical_formula_sum   'Sr5 La3 Mn8 O20 F4'
_cell_volume   498.26329983
_cell_formula_units_Z   1
loop_
 _symmetry_equiv_pos_site_id
 _symmetry_equiv_pos_as_xyz
  1  'x, y, z'
loop_
 _atom_site_type_symbol
 _atom_site_label
 _atom_site_symmetry_multiplicity
 _atom_site_fract_x
 _atom_site_fract_y
 _atom_site_fract_z
 _atom_site_occupancy
  Sr  Sr0  1  0.009458  0.502178  0.123104  1
  Sr  Sr1  1  0.005579  0.501076  0.623456  1
  Sr  Sr2  1  0.498827  0.000186  0.379158  1
  Sr  Sr3  1  0.486678  0.001563  0.874489  1
  Sr  Sr4  1  0.500265  0.006728  0.121555  1
  La  La5  1  0.528251  0.999680  0.618121  1
  La  La6  1  0.975369  0.499328  0.383293  1
  La  La7  1  0.000050  0.497147  0.876943  1
  Mn  Mn8  1  0.010668  0.014826  0.001548  1
  Mn  Mn9  1  0.501189  0.500012  0.249178  1
  Mn  Mn10  1  0.509653  0.512078  0.751131  1
  Mn  Mn11  1  0.487344  0.489490  0.001541  1
  Mn  Mn12  1  0.497985  0.498459  0.500278  1
  Mn  Mn13  1  0.003041  0.001956  0.249171  1
  Mn  Mn14  1  0.003670  0.998254  0.499896  1
  Mn  Mn15  1  0.988000  0.986647  0.750841  1
  O  O16  1  0.990402  0.073434  0.374123  1
  O  O17  1  0.010846  0.074639  0.873817  1
  O  O18  1  0.233235  0.732717  0.481100  1
  O  O19  1  0.234456  0.735156  0.767834  1
  O  O20  1  0.226662  0.733242  0.982527  1
  O  O21  1  0.257514  0.244282  0.012576  1
  O  O22  1  0.250795  0.250306  0.237420  1
  O  O23  1  0.268566  0.232053  0.517093  1
  O  O24  1  0.493571  0.565626  0.125301  1
  O  O25  1  0.496594  0.573369  0.625746  1
  O  O26  1  0.497351  0.444003  0.874279  1
  O  O27  1  0.525283  0.439430  0.374333  1
  O  O28  1  0.763515  0.739241  0.267928  1
  O  O29  1  0.742090  0.755787  0.487679  1
  O  O30  1  0.748495  0.748766  0.770348  1
  O  O31  1  0.761827  0.267654  0.011674  1
  O  O32  1  0.758870  0.254431  0.515734  1
  O  O33  1  0.747406  0.245610  0.733005  1
  O  O34  1  0.000607  0.942740  0.124750  1
  O  O35  1  0.990728  0.942338  0.625726  1
  F  F36  1  0.247404  0.744917  0.276865  1
  F  F37  1  0.259794  0.238927  0.729792  1
  F  F38  1  0.738061  0.762713  0.980007  1
  F  F39  1  0.749903  0.249011  0.226639  1
