# generated using pymatgen
data_H2O
_symmetry_space_group_name_H-M   'P 1'
_cell_length_a   7.41270024
_cell_length_b   7.78460196
_cell_length_c   7.47937853
_cell_angle_alpha   73.01119777
_cell_angle_beta   70.09977959
_cell_angle_gamma   69.54509110
_symmetry_Int_Tables_number   1
_chemical_formula_structural   H2O
_chemical_formula_sum   'H28 O14'
_cell_volume   372.81356383
_cell_formula_units_Z   14
loop_
 _symmetry_equiv_pos_site_id
 _symmetry_equiv_pos_as_xyz
  1  'x, y, z'
loop_
 _atom_site_type_symbol
 _atom_site_label
 _atom_site_symmetry_multiplicity
 _atom_site_fract_x
 _atom_site_fract_y
 _atom_site_fract_z
 _atom_site_occupancy
  H  H0  1  0.285087  0.092062  0.129780  1
  H  H1  1  0.327050  0.687885  0.200511  1
  H  H2  1  0.319420  0.801160  0.705822  1
  H  H3  1  0.534622  0.230804  0.612668  1
  H  H4  1  0.388665  0.001772  0.792370  1
  H  H5  1  0.514087  0.598992  0.049520  1
  H  H6  1  0.405442  0.532774  0.520486  1
  H  H7  1  0.676885  0.174720  0.248524  1
  H  H8  1  0.535665  0.290144  0.899238  1
  H  H9  1  0.513972  0.264078  0.010874  1
  H  H10  1  0.874698  0.015027  0.050677  1
  H  H11  1  0.796458  0.322943  0.141022  1
  H  H12  1  0.723521  0.288520  0.481661  1
  H  H13  1  0.088052  0.078660  0.114560  1
  H  H14  1  0.030341  0.485861  0.041473  1
  H  H15  1  0.786947  0.858483  0.058088  1
  H  H16  1  0.188769  0.498560  0.124260  1
  H  H17  1  0.587176  0.940335  0.626248  1
  H  H18  1  0.224033  0.186574  0.509256  1
  H  H19  1  0.552124  0.881024  0.003409  1
  H  H20  1  0.727783  0.448239  0.826784  1
  H  H21  1  0.804922  0.605394  0.391884  1
  H  H22  1  0.906141  0.749536  0.639255  1
  H  H23  1  0.713998  0.652473  0.462170  1
  H  H24  1  0.638269  0.830843  0.931706  1
  H  H25  1  0.961882  0.894632  0.458367  1
  H  H26  1  0.937547  0.463148  0.799365  1
  H  H27  1  0.105532  0.793282  0.836622  1
  O  O28  1  0.233835  0.027624  0.069934  1
  O  O29  1  0.097777  0.274251  0.574074  1
  O  O30  1  0.155947  0.358975  0.666681  1
  O  O31  1  0.455117  0.132876  0.258216  1
  O  O32  1  0.391183  0.576215  0.142311  1
  O  O33  1  0.237498  0.712476  0.774491  1
  O  O34  1  0.279299  0.625101  0.493526  1
  O  O35  1  0.605856  0.323960  0.588549  1
  O  O36  1  0.808072  0.198815  0.225704  1
  O  O37  1  0.795222  0.505949  0.875047  1
  O  O38  1  0.438670  0.985741  0.655848  1
  O  O39  1  0.080236  0.439045  0.155993  1
  O  O40  1  0.859758  0.881294  0.580635  1
  O  O41  1  0.912440  0.889754  0.022388  1
