# generated using pymatgen
data_CePaO4
_symmetry_space_group_name_H-M   'P 1'
_cell_length_a   7.78107305
_cell_length_b   10.26764329
_cell_length_c   6.69777648
_cell_angle_alpha   29.24694467
_cell_angle_beta   54.48949886
_cell_angle_gamma   40.72153650
_symmetry_Int_Tables_number   1
_chemical_formula_structural   CePaO4
_chemical_formula_sum   'Ce2 Pa2 O8'
_cell_volume   165.04056497
_cell_formula_units_Z   2
loop_
 _symmetry_equiv_pos_site_id
 _symmetry_equiv_pos_as_xyz
  1  'x, y, z'
loop_
 _atom_site_type_symbol
 _atom_site_label
 _atom_site_symmetry_multiplicity
 _atom_site_fract_x
 _atom_site_fract_y
 _atom_site_fract_z
 _atom_site_occupancy
  Ce  Ce0  1  0.500116  0.999976  -0.000232  1
  Ce  Ce1  1  0.250004  0.499989  0.000071  1
  Pa  Pa2  1  -0.000087  0.000017  0.000133  1
  Pa  Pa3  1  0.749946  0.500068  -0.000017  1
  O  O4  1  0.111439  0.013669  0.236544  1
  O  O5  1  0.638260  0.986439  0.263822  1
  O  O6  1  0.111480  0.513195  0.737049  1
  O  O7  1  0.375039  0.513855  0.235855  1
  O  O8  1  0.638345  0.486679  0.763595  1
  O  O9  1  0.875111  0.486311  0.263472  1
  O  O10  1  0.375116  0.986248  0.763515  1
  O  O11  1  0.875232  0.013554  0.736193  1
