# generated using pymatgen
data_Pr2SbO2
_symmetry_space_group_name_H-M   'P 1'
_cell_length_a   4.02713859
_cell_length_b   8.13900209
_cell_length_c   7.18963875
_cell_angle_alpha   104.92152183
_cell_angle_beta   104.95942863
_cell_angle_gamma   90.01133124
_symmetry_Int_Tables_number   1
_chemical_formula_structural   Pr2SbO2
_chemical_formula_sum   'Pr4 Sb2 O4'
_cell_volume   219.42865900
_cell_formula_units_Z   2
loop_
 _symmetry_equiv_pos_site_id
 _symmetry_equiv_pos_as_xyz
  1  'x, y, z'
loop_
 _atom_site_type_symbol
 _atom_site_label
 _atom_site_symmetry_multiplicity
 _atom_site_fract_x
 _atom_site_fract_y
 _atom_site_fract_z
 _atom_site_occupancy
  Pr  Pr0  1  0.330749  0.164445  0.677346  1
  Pr  Pr1  1  0.330004  0.663925  0.676748  1
  Pr  Pr2  1  0.669251  0.335555  0.322654  1
  Pr  Pr3  1  0.669996  0.836075  0.323252  1
  Sb  Sb4  1  0.000934  0.000417  0.000438  1
  Sb  Sb5  1  0.999066  0.499583  0.999562  1
  O  O6  1  0.248779  0.374651  0.498717  1
  O  O7  1  0.249578  0.874899  0.499427  1
  O  O8  1  0.751221  0.125349  0.501283  1
  O  O9  1  0.750422  0.625101  0.500573  1
