# generated using pymatgen
data_Ba6Ga2Co11O26
_symmetry_space_group_name_H-M   'P 1'
_cell_length_a   5.81190611
_cell_length_b   5.81190651
_cell_length_c   19.26002427
_cell_angle_alpha   90.00000000
_cell_angle_beta   90.00000000
_cell_angle_gamma   119.99999780
_symmetry_Int_Tables_number   1
_chemical_formula_structural   Ba6Ga2Co11O26
_chemical_formula_sum   'Ba6 Ga2 Co11 O26'
_cell_volume   563.41016790
_cell_formula_units_Z   1
loop_
 _symmetry_equiv_pos_site_id
 _symmetry_equiv_pos_as_xyz
  1  'x, y, z'
loop_
 _atom_site_type_symbol
 _atom_site_label
 _atom_site_symmetry_multiplicity
 _atom_site_fract_x
 _atom_site_fract_y
 _atom_site_fract_z
 _atom_site_occupancy
  Ba  Ba0  1  0.000000  0.000000  0.194029  1
  Ba  Ba1  1  0.333333  0.666667  0.331750  1
  Ba  Ba2  1  0.333333  0.666667  0.553348  1
  Ba  Ba3  1  0.000000  0.000000  0.805971  1
  Ba  Ba4  1  0.666667  0.333333  0.668250  1
  Ba  Ba5  1  0.666667  0.333333  0.446652  1
  Ga  Ga6  1  0.333333  0.666667  0.153086  1
  Ga  Ga7  1  0.666667  0.333333  0.846914  1
  Co  Co8  1  0.666667  0.333333  0.126994  1
  Co  Co9  1  0.000000  0.000000  0.000000  1
  Co  Co10  1  0.000000  0.000000  0.373247  1
  Co  Co11  1  0.666667  0.333333  0.275150  1
  Co  Co12  1  0.000000  0.000000  0.626753  1
  Co  Co13  1  0.333333  0.666667  0.873006  1
  Co  Co14  1  0.500000  0.000000  0.000000  1
  Co  Co15  1  0.333333  0.666667  0.724850  1
  Co  Co16  1  0.000000  0.500000  0.000000  1
  Co  Co17  1  0.000000  0.000000  0.500000  1
  Co  Co18  1  0.500000  0.500000  0.000000  1
  O  O19  1  0.706872  0.853436  0.435770  1
  O  O20  1  0.013904  0.506952  0.811669  1
  O  O21  1  0.986096  0.493048  0.188331  1
  O  O22  1  0.666667  0.333333  0.942606  1
  O  O23  1  0.826697  0.173303  0.059228  1
  O  O24  1  0.173303  0.346607  0.940772  1
  O  O25  1  0.146564  0.293128  0.435770  1
  O  O26  1  0.653393  0.826697  0.940772  1
  O  O27  1  0.853436  0.706872  0.564230  1
  O  O28  1  0.293128  0.146564  0.564230  1
  O  O29  1  0.146564  0.853436  0.435770  1
  O  O30  1  0.162349  0.837651  0.684447  1
  O  O31  1  0.853436  0.146564  0.564230  1
  O  O32  1  0.173303  0.826697  0.940772  1
  O  O33  1  0.493048  0.506952  0.811669  1
  O  O34  1  0.675301  0.837651  0.684447  1
  O  O35  1  0.506952  0.013904  0.188331  1
  O  O36  1  0.837651  0.675301  0.315553  1
  O  O37  1  0.162349  0.324699  0.684447  1
  O  O38  1  0.506952  0.493048  0.188331  1
  O  O39  1  0.826697  0.653393  0.059228  1
  O  O40  1  0.837651  0.162349  0.315553  1
  O  O41  1  0.493048  0.986096  0.811669  1
  O  O42  1  0.346607  0.173303  0.059228  1
  O  O43  1  0.324699  0.162349  0.315553  1
  O  O44  1  0.333333  0.666667  0.057394  1
