# generated using pymatgen
data_P3H11N4O9
_symmetry_space_group_name_H-M   'P 1'
_cell_length_a   8.26015183
_cell_length_b   8.03413234
_cell_length_c   8.52604198
_cell_angle_alpha   104.66487806
_cell_angle_beta   101.82557411
_cell_angle_gamma   86.16244268
_symmetry_Int_Tables_number   1
_chemical_formula_structural   P3H11N4O9
_chemical_formula_sum   'P6 H22 N8 O18'
_cell_volume   535.69725953
_cell_formula_units_Z   2
loop_
 _symmetry_equiv_pos_site_id
 _symmetry_equiv_pos_as_xyz
  1  'x, y, z'
loop_
 _atom_site_type_symbol
 _atom_site_label
 _atom_site_symmetry_multiplicity
 _atom_site_fract_x
 _atom_site_fract_y
 _atom_site_fract_z
 _atom_site_occupancy
  P  P0  1  0.711743  0.159594  0.462934  1
  P  P1  1  0.288257  0.840406  0.537066  1
  P  P2  1  0.995825  0.692922  0.305962  1
  P  P3  1  0.004175  0.307078  0.694038  1
  P  P4  1  0.811607  0.961373  0.151983  1
  P  P5  1  0.188393  0.038627  0.848017  1
  H  H6  1  0.742913  0.923040  0.659059  1
  H  H7  1  0.257087  0.076960  0.340941  1
  H  H8  1  0.252917  0.166609  0.170759  1
  H  H9  1  0.747083  0.833391  0.829241  1
  H  H10  1  0.084934  0.188428  0.260920  1
  H  H11  1  0.915066  0.811572  0.739080  1
  H  H12  1  0.235369  0.444358  0.344630  1
  H  H13  1  0.764631  0.555642  0.655370  1
  H  H14  1  0.417116  0.332496  0.411118  1
  H  H15  1  0.582884  0.667504  0.588882  1
  H  H16  1  0.753261  0.641542  0.486325  1
  H  H17  1  0.246739  0.358458  0.513675  1
  H  H18  1  0.782453  0.432183  0.951734  1
  H  H19  1  0.217547  0.567817  0.048266  1
  H  H20  1  0.766175  0.285628  0.059442  1
  H  H21  1  0.233825  0.714372  0.940558  1
  H  H22  1  0.674416  0.484997  0.106672  1
  H  H23  1  0.325584  0.515003  0.893328  1
  H  H24  1  0.413210  0.746572  0.211740  1
  H  H25  1  0.586790  0.253428  0.788260  1
  H  H26  1  0.512200  0.739446  0.058699  1
  H  H27  1  0.487800  0.260554  0.941301  1
  N  N28  1  0.214946  0.184223  0.287427  1
  N  N29  1  0.785054  0.815777  0.712573  1
  N  N30  1  0.715959  0.658091  0.602039  1
  N  N31  1  0.284041  0.341909  0.397961  1
  N  N32  1  0.703277  0.385970  0.011178  1
  N  N33  1  0.296723  0.614030  0.988822  1
  N  N34  1  0.447329  0.666883  0.108145  1
  N  N35  1  0.552671  0.333117  0.891855  1
  O  O36  1  0.907278  0.212525  0.509402  1
  O  O37  1  0.092722  0.787475  0.490598  1
  O  O38  1  0.712204  0.000343  0.302596  1
  O  O39  1  0.287796  0.999657  0.697404  1
  O  O40  1  0.971820  0.850886  0.216330  1
  O  O41  1  0.028180  0.149114  0.783670  1
  O  O42  1  0.390187  0.693135  0.585584  1
  O  O43  1  0.609813  0.306865  0.414416  1
  O  O44  1  0.670603  0.087255  0.595721  1
  O  O45  1  0.329397  0.912745  0.404279  1
  O  O46  1  0.833024  0.636964  0.324005  1
  O  O47  1  0.166976  0.363036  0.675995  1
  O  O48  1  0.110516  0.562717  0.221347  1
  O  O49  1  0.889484  0.437283  0.778653  1
  O  O50  1  0.120474  0.875731  0.863263  1
  O  O51  1  0.879526  0.124269  0.136737  1
  O  O52  1  0.702575  0.849140  0.005591  1
  O  O53  1  0.297425  0.150860  0.994409  1
