# generated using pymatgen
data_Mo12PH24C6N3O40
_symmetry_space_group_name_H-M   'P 1'
_cell_length_a   12.90058424
_cell_length_b   12.90058465
_cell_length_c   12.90058449
_cell_angle_alpha   81.14179287
_cell_angle_beta   81.14179257
_cell_angle_gamma   81.14179416
_symmetry_Int_Tables_number   1
_chemical_formula_structural   Mo12PH24C6N3O40
_chemical_formula_sum   'Mo24 P2 H48 C12 N6 O80'
_cell_volume   2077.32411180
_cell_formula_units_Z   2
loop_
 _symmetry_equiv_pos_site_id
 _symmetry_equiv_pos_as_xyz
  1  'x, y, z'
loop_
 _atom_site_type_symbol
 _atom_site_label
 _atom_site_symmetry_multiplicity
 _atom_site_fract_x
 _atom_site_fract_y
 _atom_site_fract_z
 _atom_site_occupancy
  Mo  Mo0  1  0.981239  0.549822  0.757496  1
  Mo  Mo1  1  0.450178  0.242504  0.018761  1
  Mo  Mo2  1  0.198120  0.421484  0.421376  1
  Mo  Mo3  1  0.952085  0.745274  0.952044  1
  Mo  Mo4  1  0.242504  0.018761  0.450178  1
  Mo  Mo5  1  0.549822  0.757496  0.981239  1
  Mo  Mo6  1  0.578516  0.578624  0.801880  1
  Mo  Mo7  1  0.745274  0.952044  0.952085  1
  Mo  Mo8  1  0.757496  0.981239  0.549822  1
  Mo  Mo9  1  0.254725  0.047956  0.047915  1
  Mo  Mo10  1  0.801880  0.578516  0.578624  1
  Mo  Mo11  1  0.047915  0.254725  0.047956  1
  Mo  Mo12  1  0.018770  0.242488  0.450054  1
  Mo  Mo13  1  0.047956  0.047915  0.254725  1
  Mo  Mo14  1  0.450054  0.018770  0.242488  1
  Mo  Mo15  1  0.578624  0.801880  0.578516  1
  Mo  Mo16  1  0.549946  0.981230  0.757512  1
  Mo  Mo17  1  0.421484  0.421376  0.198120  1
  Mo  Mo18  1  0.981230  0.757512  0.549946  1
  Mo  Mo19  1  0.242488  0.450054  0.018770  1
  Mo  Mo20  1  0.421376  0.198120  0.421484  1
  Mo  Mo21  1  0.018761  0.450178  0.242504  1
  Mo  Mo22  1  0.952044  0.952085  0.745274  1
  Mo  Mo23  1  0.757512  0.549946  0.981230  1
  P  P24  1  0.765457  0.765457  0.765457  1
  P  P25  1  0.234543  0.234543  0.234543  1
  H  H26  1  0.631084  0.624322  0.240588  1
  H  H27  1  0.739718  0.848378  0.322629  1
  H  H28  1  0.258668  0.676471  0.152967  1
  H  H29  1  0.388364  0.658451  0.283775  1
  H  H30  1  0.845754  0.846387  0.214277  1
  H  H31  1  0.677371  0.260282  0.151622  1
  H  H32  1  0.368916  0.375678  0.759412  1
  H  H33  1  0.831561  0.307884  0.209451  1
  H  H34  1  0.611636  0.341549  0.716225  1
  H  H35  1  0.214277  0.845754  0.846387  1
  H  H36  1  0.692187  0.168858  0.791323  1
  H  H37  1  0.322629  0.739718  0.848378  1
  H  H38  1  0.375678  0.759412  0.368916  1
  H  H39  1  0.209451  0.831561  0.307884  1
  H  H40  1  0.790549  0.168439  0.692116  1
  H  H41  1  0.624322  0.240588  0.631084  1
  H  H42  1  0.335940  0.606822  0.716548  1
  H  H43  1  0.323529  0.847033  0.741332  1
  H  H44  1  0.785723  0.154246  0.153613  1
  H  H45  1  0.154246  0.153613  0.785723  1
  H  H46  1  0.831141  0.208677  0.307813  1
  H  H47  1  0.168858  0.791323  0.692187  1
  H  H48  1  0.791323  0.692187  0.168858  1
  H  H49  1  0.848378  0.322629  0.739718  1
  H  H50  1  0.847033  0.741332  0.323529  1
  H  H51  1  0.208677  0.307813  0.831141  1
  H  H52  1  0.664060  0.393178  0.283452  1
  H  H53  1  0.741332  0.323529  0.847033  1
  H  H54  1  0.260282  0.151622  0.677371  1
  H  H55  1  0.658451  0.283775  0.388364  1
  H  H56  1  0.240588  0.631084  0.624322  1
  H  H57  1  0.393178  0.283452  0.664060  1
  H  H58  1  0.151622  0.677371  0.260282  1
  H  H59  1  0.846387  0.214277  0.845754  1
  H  H60  1  0.283452  0.664060  0.393178  1
  H  H61  1  0.341549  0.716225  0.611636  1
  H  H62  1  0.676471  0.152967  0.258668  1
  H  H63  1  0.307884  0.209451  0.831561  1
  H  H64  1  0.168439  0.692116  0.790549  1
  H  H65  1  0.152967  0.258668  0.676471  1
  H  H66  1  0.716225  0.611636  0.341549  1
  H  H67  1  0.307813  0.831141  0.208677  1
  H  H68  1  0.153613  0.785723  0.154246  1
  H  H69  1  0.759412  0.368916  0.375678  1
  H  H70  1  0.283775  0.388364  0.658451  1
  H  H71  1  0.716548  0.335940  0.606822  1
  H  H72  1  0.692116  0.790549  0.168439  1
  H  H73  1  0.606822  0.716548  0.335940  1
  C  C74  1  0.332877  0.710585  0.332350  1
  C  C75  1  0.289415  0.667650  0.667123  1
  C  C76  1  0.273741  0.796963  0.797961  1
  C  C77  1  0.667123  0.289415  0.667650  1
  C  C78  1  0.797961  0.273741  0.796963  1
  C  C79  1  0.203037  0.202039  0.726259  1
  C  C80  1  0.726259  0.203037  0.202039  1
  C  C81  1  0.667650  0.667123  0.289415  1
  C  C82  1  0.202039  0.726259  0.203037  1
  C  C83  1  0.710585  0.332350  0.332877  1
  C  C84  1  0.796963  0.797961  0.273741  1
  C  C85  1  0.332350  0.332877  0.710585  1
  N  N86  1  0.737694  0.737604  0.217569  1
  N  N87  1  0.262306  0.262396  0.782431  1
  N  N88  1  0.217569  0.737694  0.737604  1
  N  N89  1  0.782431  0.262306  0.262396  1
  N  N90  1  0.262396  0.782431  0.262306  1
  N  N91  1  0.737604  0.217569  0.737694  1
  O  O92  1  0.911652  0.657141  0.497672  1
  O  O93  1  0.637794  0.048692  0.637644  1
  O  O94  1  0.349381  0.153031  0.995481  1
  O  O95  1  0.304847  0.305063  0.154162  1
  O  O96  1  0.845838  0.695153  0.694937  1
  O  O97  1  0.497672  0.911652  0.657141  1
  O  O98  1  0.502328  0.088348  0.342859  1
  O  O99  1  0.856971  0.856995  0.016968  1
  O  O100  1  0.506516  0.212876  0.506438  1
  O  O101  1  0.918388  0.551669  0.220787  1
  O  O102  1  0.493562  0.493484  0.787124  1
  O  O103  1  0.995246  0.153172  0.349244  1
  O  O104  1  0.867798  0.515668  0.867909  1
  O  O105  1  0.958813  0.289834  0.959266  1
  O  O106  1  0.349244  0.995246  0.153172  1
  O  O107  1  0.551669  0.220787  0.918388  1
  O  O108  1  0.637644  0.637794  0.048692  1
  O  O109  1  0.154162  0.304847  0.305063  1
  O  O110  1  0.220787  0.918388  0.551669  1
  O  O111  1  0.694937  0.845838  0.695153  1
  O  O112  1  0.212876  0.506438  0.506516  1
  O  O113  1  0.846828  0.650756  0.004754  1
  O  O114  1  0.448331  0.779213  0.081612  1
  O  O115  1  0.497550  0.657190  0.911708  1
  O  O116  1  0.302089  0.302097  0.458144  1
  O  O117  1  0.362206  0.951308  0.362356  1
  O  O118  1  0.650756  0.004754  0.846828  1
  O  O119  1  0.143029  0.143005  0.983032  1
  O  O120  1  0.289834  0.959266  0.958813  1
  O  O121  1  0.041187  0.710166  0.040734  1
  O  O122  1  0.132091  0.132202  0.484332  1
  O  O123  1  0.088348  0.342859  0.502328  1
  O  O124  1  0.305063  0.154162  0.304847  1
  O  O125  1  0.959266  0.958813  0.289834  1
  O  O126  1  0.541856  0.697911  0.697903  1
  O  O127  1  0.856995  0.016968  0.856971  1
  O  O128  1  0.153031  0.995481  0.349381  1
  O  O129  1  0.650619  0.846969  0.004519  1
  O  O130  1  0.778979  0.448690  0.081915  1
  O  O131  1  0.040734  0.041187  0.710166  1
  O  O132  1  0.657141  0.497672  0.911652  1
  O  O133  1  0.779213  0.081612  0.448331  1
  O  O134  1  0.493484  0.787124  0.493562  1
  O  O135  1  0.846969  0.004519  0.650619  1
  O  O136  1  0.342810  0.088292  0.502450  1
  O  O137  1  0.081612  0.448331  0.779213  1
  O  O138  1  0.502450  0.342810  0.088292  1
  O  O139  1  0.787124  0.493562  0.493484  1
  O  O140  1  0.657190  0.911708  0.497550  1
  O  O141  1  0.004519  0.650619  0.846969  1
  O  O142  1  0.458144  0.302089  0.302097  1
  O  O143  1  0.448690  0.081915  0.778979  1
  O  O144  1  0.697903  0.541856  0.697911  1
  O  O145  1  0.710166  0.040734  0.041187  1
  O  O146  1  0.506438  0.506516  0.212876  1
  O  O147  1  0.132202  0.484332  0.132091  1
  O  O148  1  0.362356  0.362206  0.951308  1
  O  O149  1  0.081915  0.778979  0.448690  1
  O  O150  1  0.983032  0.143029  0.143005  1
  O  O151  1  0.342859  0.502328  0.088348  1
  O  O152  1  0.918085  0.221021  0.551310  1
  O  O153  1  0.695153  0.694937  0.845838  1
  O  O154  1  0.826041  0.826041  0.826041  1
  O  O155  1  0.951308  0.362356  0.362206  1
  O  O156  1  0.995481  0.349381  0.153031  1
  O  O157  1  0.697911  0.697903  0.541856  1
  O  O158  1  0.221021  0.551310  0.918085  1
  O  O159  1  0.153172  0.349244  0.995246  1
  O  O160  1  0.484332  0.132091  0.132202  1
  O  O161  1  0.088292  0.502450  0.342810  1
  O  O162  1  0.016968  0.856971  0.856995  1
  O  O163  1  0.173959  0.173959  0.173959  1
  O  O164  1  0.302097  0.458144  0.302089  1
  O  O165  1  0.911708  0.497550  0.657190  1
  O  O166  1  0.515668  0.867909  0.867798  1
  O  O167  1  0.867909  0.867798  0.515668  1
  O  O168  1  0.004754  0.846828  0.650756  1
  O  O169  1  0.048692  0.637644  0.637794  1
  O  O170  1  0.551310  0.918085  0.221021  1
  O  O171  1  0.143005  0.983032  0.143029  1
