# generated using pymatgen
data_LiCS(OF)3
_symmetry_space_group_name_H-M   'P 1'
_cell_length_a   5.11919869
_cell_length_b   9.67563817
_cell_length_c   10.30851693
_cell_angle_alpha   90.94690776
_cell_angle_beta   90.00000000
_cell_angle_gamma   90.00000000
_symmetry_Int_Tables_number   1
_chemical_formula_structural   LiCS(OF)3
_chemical_formula_sum   'Li4 C4 S4 O12 F12'
_cell_volume   510.52672510
_cell_formula_units_Z   4
loop_
 _symmetry_equiv_pos_site_id
 _symmetry_equiv_pos_as_xyz
  1  'x, y, z'
loop_
 _atom_site_type_symbol
 _atom_site_label
 _atom_site_symmetry_multiplicity
 _atom_site_fract_x
 _atom_site_fract_y
 _atom_site_fract_z
 _atom_site_occupancy
  Li  Li0  1  0.111272  0.090059  0.100426  1
  Li  Li1  1  0.888728  0.909941  0.899574  1
  Li  Li2  1  0.388728  0.590059  0.100426  1
  Li  Li3  1  0.611272  0.409941  0.899574  1
  C  C4  1  0.737692  0.397975  0.339806  1
  C  C5  1  0.262308  0.602025  0.660194  1
  C  C6  1  0.762308  0.897975  0.339806  1
  C  C7  1  0.237692  0.102025  0.660194  1
  S  S8  1  0.107040  0.591660  0.824210  1
  S  S9  1  0.892960  0.408340  0.175790  1
  S  S10  1  0.607040  0.908340  0.175790  1
  S  S11  1  0.392960  0.091660  0.824210  1
  O  O12  1  0.826043  0.947123  0.090663  1
  O  O13  1  0.992423  0.270790  0.147768  1
  O  O14  1  0.173957  0.052877  0.909337  1
  O  O15  1  0.410646  0.015963  0.190953  1
  O  O16  1  0.673957  0.447123  0.090663  1
  O  O17  1  0.326043  0.552877  0.909337  1
  O  O18  1  0.910646  0.484037  0.809047  1
  O  O19  1  0.507577  0.770790  0.147768  1
  O  O20  1  0.089354  0.515963  0.190953  1
  O  O21  1  0.007577  0.729210  0.852232  1
  O  O22  1  0.589354  0.984037  0.809047  1
  O  O23  1  0.492423  0.229210  0.852232  1
  F  F24  1  0.455481  0.696769  0.662278  1
  F  F25  1  0.416775  0.137550  0.570837  1
  F  F26  1  0.544519  0.303231  0.337722  1
  F  F27  1  0.916775  0.362450  0.429163  1
  F  F28  1  0.083225  0.637550  0.570837  1
  F  F29  1  0.955481  0.803231  0.337722  1
  F  F30  1  0.135589  0.977025  0.627595  1
  F  F31  1  0.583225  0.862450  0.429163  1
  F  F32  1  0.635589  0.522975  0.372405  1
  F  F33  1  0.864411  0.022975  0.372405  1
  F  F34  1  0.044519  0.196769  0.662278  1
  F  F35  1  0.364411  0.477025  0.627595  1
