# generated using pymatgen
data_Na2UI6
_symmetry_space_group_name_H-M   'P 1'
_cell_length_a   8.76058837
_cell_length_b   8.76771529
_cell_length_c   26.29366820
_cell_angle_alpha   53.95572826
_cell_angle_beta   53.89564848
_cell_angle_gamma   54.02081975
_symmetry_Int_Tables_number   1
_chemical_formula_structural   Na2UI6
_chemical_formula_sum   'Na6 U3 I18'
_cell_volume   1226.49480020
_cell_formula_units_Z   3
loop_
 _symmetry_equiv_pos_site_id
 _symmetry_equiv_pos_as_xyz
  1  'x, y, z'
loop_
 _atom_site_type_symbol
 _atom_site_label
 _atom_site_symmetry_multiplicity
 _atom_site_fract_x
 _atom_site_fract_y
 _atom_site_fract_z
 _atom_site_occupancy
  Na  Na0  1  0.498710  0.502752  0.164067  1
  Na  Na1  1  0.314009  0.317134  0.439348  1
  Na  Na2  1  0.686127  0.688733  0.227173  1
  Na  Na3  1  0.314617  0.314599  0.772963  1
  Na  Na4  1  0.684266  0.684371  0.561087  1
  Na  Na5  1  0.683086  0.679667  0.895983  1
  U  U6  1  0.994343  0.002370  0.000314  1
  U  U7  1  0.006531  0.995579  0.332598  1
  U  U8  1  -0.000235  -0.000081  0.666752  1
  I  I9  1  0.099346  0.381305  0.253909  1
  I  I10  1  0.376400  0.764745  0.032727  1
  I  I11  1  0.762060  0.100085  0.127489  1
  I  I12  1  0.247279  0.899863  0.205421  1
  I  I13  1  0.616535  0.246762  0.298812  1
  I  I14  1  0.102168  0.377548  0.586037  1
  I  I15  1  0.898851  0.619663  0.082804  1
  I  I16  1  0.383709  0.753776  0.367860  1
  I  I17  1  0.755430  0.101817  0.459288  1
  I  I18  1  0.242083  0.898019  0.540670  1
  I  I19  1  0.622483  0.241987  0.632594  1
  I  I20  1  0.102459  0.378231  0.919004  1
  I  I21  1  0.896640  0.619121  0.415074  1
  I  I22  1  0.377449  0.758427  0.700614  1
  I  I23  1  0.758540  0.102013  0.792437  1
  I  I24  1  0.245054  0.896811  0.873932  1
  I  I25  1  0.623972  0.241735  0.967526  1
  I  I26  1  0.898088  0.622969  0.746852  1
