# generated using pymatgen
data_Gd10S19
_symmetry_space_group_name_H-M   'P 1'
_cell_length_a   8.74634801
_cell_length_b   8.74634801
_cell_length_c   15.87897922
_cell_angle_alpha   90.00000000
_cell_angle_beta   90.00000000
_cell_angle_gamma   90.00000000
_symmetry_Int_Tables_number   1
_chemical_formula_structural   Gd10S19
_chemical_formula_sum   'Gd20 S38'
_cell_volume   1214.71973553
_cell_formula_units_Z   2
loop_
 _symmetry_equiv_pos_site_id
 _symmetry_equiv_pos_as_xyz
  1  'x, y, z'
loop_
 _atom_site_type_symbol
 _atom_site_label
 _atom_site_symmetry_multiplicity
 _atom_site_fract_x
 _atom_site_fract_y
 _atom_site_fract_z
 _atom_site_occupancy
  Gd  Gd0  1  0.554436  0.854444  0.397050  1
  Gd  Gd1  1  0.250000  0.750000  0.114209  1
  Gd  Gd2  1  0.151295  0.041002  0.378118  1
  Gd  Gd3  1  0.054436  0.354444  0.602950  1
  Gd  Gd4  1  0.958998  0.651295  0.878118  1
  Gd  Gd5  1  0.348705  0.458998  0.378118  1
  Gd  Gd6  1  0.848705  0.958998  0.621882  1
  Gd  Gd7  1  0.750000  0.250000  0.385791  1
  Gd  Gd8  1  0.651295  0.541002  0.621882  1
  Gd  Gd9  1  0.445564  0.145556  0.602950  1
  Gd  Gd10  1  0.458998  0.151295  0.121882  1
  Gd  Gd11  1  0.250000  0.750000  0.614209  1
  Gd  Gd12  1  0.750000  0.250000  0.885791  1
  Gd  Gd13  1  0.541002  0.848705  0.878118  1
  Gd  Gd14  1  0.041002  0.348705  0.121882  1
  Gd  Gd15  1  0.854444  0.945564  0.102950  1
  Gd  Gd16  1  0.645556  0.554436  0.102950  1
  Gd  Gd17  1  0.945564  0.645556  0.397050  1
  Gd  Gd18  1  0.145556  0.054436  0.897050  1
  Gd  Gd19  1  0.354444  0.445564  0.897050  1
  S  S20  1  0.548556  0.848435  0.573102  1
  S  S21  1  0.946206  0.648757  0.062155  1
  S  S22  1  0.848435  0.951444  0.926898  1
  S  S23  1  0.048556  0.348435  0.426898  1
  S  S24  1  0.115147  0.574299  0.249896  1
  S  S25  1  0.851243  0.946206  0.437845  1
  S  S26  1  0.384853  0.925701  0.249896  1
  S  S27  1  0.250000  0.750000  0.934286  1
  S  S28  1  0.148757  0.053794  0.562155  1
  S  S29  1  0.574299  0.384853  0.250104  1
  S  S30  1  0.925701  0.115147  0.250104  1
  S  S31  1  0.648757  0.553794  0.437845  1
  S  S32  1  0.695235  0.028407  0.250291  1
  S  S33  1  0.348435  0.451444  0.073102  1
  S  S34  1  0.528407  0.304765  0.750291  1
  S  S35  1  0.195235  0.528407  0.749709  1
  S  S36  1  0.804765  0.471593  0.250291  1
  S  S37  1  0.053794  0.351243  0.937845  1
  S  S38  1  0.028407  0.804765  0.249709  1
  S  S39  1  0.351243  0.446206  0.562155  1
  S  S40  1  0.553794  0.851243  0.062155  1
  S  S41  1  0.446206  0.148757  0.937845  1
  S  S42  1  0.151565  0.048556  0.073102  1
  S  S43  1  0.651565  0.548556  0.926898  1
  S  S44  1  0.304765  0.971593  0.749709  1
  S  S45  1  0.750000  0.750000  0.750000  1
  S  S46  1  0.750000  0.250000  0.565714  1
  S  S47  1  0.750000  0.250000  0.065714  1
  S  S48  1  0.615147  0.074299  0.750104  1
  S  S49  1  0.951444  0.651565  0.573102  1
  S  S50  1  0.884853  0.425701  0.750104  1
  S  S51  1  0.425701  0.615147  0.749896  1
  S  S52  1  0.074299  0.884853  0.749896  1
  S  S53  1  0.471593  0.695235  0.249709  1
  S  S54  1  0.971593  0.195235  0.750291  1
  S  S55  1  0.250000  0.750000  0.434286  1
  S  S56  1  0.451444  0.151565  0.426898  1
  S  S57  1  0.250000  0.250000  0.250000  1
