# generated using pymatgen
data_Ba2NdSbO6
_symmetry_space_group_name_H-M   'P 1'
_cell_length_a   6.11910394
_cell_length_b   6.11910352
_cell_length_c   6.11910373
_cell_angle_alpha   60.18322612
_cell_angle_beta   60.18322838
_cell_angle_gamma   60.18322391
_symmetry_Int_Tables_number   1
_chemical_formula_structural   Ba2NdSbO6
_chemical_formula_sum   'Ba2 Nd1 Sb1 O6'
_cell_volume   162.68472167
_cell_formula_units_Z   1
loop_
 _symmetry_equiv_pos_site_id
 _symmetry_equiv_pos_as_xyz
  1  'x, y, z'
loop_
 _atom_site_type_symbol
 _atom_site_label
 _atom_site_symmetry_multiplicity
 _atom_site_fract_x
 _atom_site_fract_y
 _atom_site_fract_z
 _atom_site_occupancy
  Ba  Ba0  1  0.748761  0.748761  0.748761  1
  Ba  Ba1  1  0.251239  0.251239  0.251239  1
  Nd  Nd2  1  0.000000  0.000000  0.000000  1
  Sb  Sb3  1  0.500000  0.500000  0.500000  1
  O  O4  1  0.730878  0.241834  0.293804  1
  O  O5  1  0.758166  0.706196  0.269122  1
  O  O6  1  0.293804  0.730878  0.241834  1
  O  O7  1  0.241834  0.293804  0.730878  1
  O  O8  1  0.706196  0.269122  0.758166  1
  O  O9  1  0.269122  0.758166  0.706196  1
