# generated using pymatgen
data_LiNbZnO4
_symmetry_space_group_name_H-M   'P 1'
_cell_length_a   6.17330203
_cell_length_b   6.17330203
_cell_length_c   8.54111363
_cell_angle_alpha   90.00000000
_cell_angle_beta   90.00000000
_cell_angle_gamma   90.00000000
_symmetry_Int_Tables_number   1
_chemical_formula_structural   LiNbZnO4
_chemical_formula_sum   'Li4 Nb4 Zn4 O16'
_cell_volume   325.49891898
_cell_formula_units_Z   4
loop_
 _symmetry_equiv_pos_site_id
 _symmetry_equiv_pos_as_xyz
  1  'x, y, z'
loop_
 _atom_site_type_symbol
 _atom_site_label
 _atom_site_symmetry_multiplicity
 _atom_site_fract_x
 _atom_site_fract_y
 _atom_site_fract_z
 _atom_site_occupancy
  Li  Li0  1  0.000000  0.217799  0.500000  1
  Li  Li1  1  0.782202  0.000000  0.750000  1
  Li  Li2  1  0.217799  0.000000  0.250000  1
  Li  Li3  1  0.000000  0.782202  0.000000  1
  O  O4  1  0.737078  0.015765  0.497143  1
  O  O5  1  0.015765  0.262923  0.247143  1
  O  O6  1  0.984236  0.737078  0.747142  1
  O  O7  1  0.262923  0.015765  0.502857  1
  O  O8  1  0.737078  0.984236  0.002858  1
  O  O9  1  0.262923  0.984236  0.997142  1
  O  O10  1  0.984236  0.262923  0.752858  1
  O  O11  1  0.015765  0.737078  0.252857  1
  O  O12  1  0.265488  0.518351  0.015606  1
  O  O13  1  0.481648  0.265488  0.265607  1
  O  O14  1  0.481648  0.734511  0.234394  1
  O  O15  1  0.265488  0.481648  0.484393  1
  O  O16  1  0.734511  0.518351  0.984394  1
  O  O17  1  0.734511  0.481648  0.515606  1
  O  O18  1  0.518351  0.265488  0.734394  1
  O  O19  1  0.518351  0.734511  0.765606  1
  Zn  Zn20  1  0.258220  0.258220  0.875000  1
  Zn  Zn21  1  0.741779  0.258220  0.125000  1
  Zn  Zn22  1  0.258220  0.741779  0.625000  1
  Zn  Zn23  1  0.741779  0.741779  0.375000  1
  Nb  Nb24  1  0.499999  0.215006  0.500000  1
  Nb  Nb25  1  0.784995  0.499999  0.750000  1
  Nb  Nb26  1  0.215006  0.499999  0.250000  1
  Nb  Nb27  1  0.499999  0.784995  0.000000  1
