# generated using pymatgen
data_ZnAs4(HO2)8
_symmetry_space_group_name_H-M   'P 1'
_cell_length_a   5.52486229
_cell_length_b   7.58944805
_cell_length_c   8.43554489
_cell_angle_alpha   99.40774874
_cell_angle_beta   93.02884064
_cell_angle_gamma   93.53074640
_symmetry_Int_Tables_number   1
_chemical_formula_structural   ZnAs4(HO2)8
_chemical_formula_sum   'Zn1 As4 H8 O16'
_cell_volume   347.57679404
_cell_formula_units_Z   1
loop_
 _symmetry_equiv_pos_site_id
 _symmetry_equiv_pos_as_xyz
  1  'x, y, z'
loop_
 _atom_site_type_symbol
 _atom_site_label
 _atom_site_symmetry_multiplicity
 _atom_site_fract_x
 _atom_site_fract_y
 _atom_site_fract_z
 _atom_site_occupancy
  Zn  Zn0  1  0.000000  0.000000  0.000000  1
  As  As1  1  0.913642  0.685135  0.261378  1
  As  As2  1  0.086358  0.314865  0.738622  1
  As  As3  1  0.543894  0.157726  0.202200  1
  As  As4  1  0.456106  0.842274  0.797800  1
  H  H5  1  0.986547  0.385493  0.219113  1
  H  H6  1  0.013453  0.614507  0.780887  1
  H  H7  1  0.280938  0.277951  0.499697  1
  H  H8  1  0.719062  0.722049  0.500303  1
  H  H9  1  0.624971  0.580084  0.692707  1
  H  H10  1  0.375029  0.419916  0.307293  1
  H  H11  1  0.658339  0.084621  0.728461  1
  H  H12  1  0.341661  0.915379  0.271539  1
  O  O13  1  0.093343  0.499914  0.259083  1
  O  O14  1  0.906657  0.500086  0.740917  1
  O  O15  1  0.879063  0.763989  0.464812  1
  O  O16  1  0.120937  0.236011  0.535188  1
  O  O17  1  0.081198  0.848268  0.194552  1
  O  O18  1  0.918802  0.151732  0.805448  1
  O  O19  1  0.648074  0.602025  0.150005  1
  O  O20  1  0.351926  0.397975  0.849995  1
  O  O21  1  0.671513  0.854835  0.953475  1
  O  O22  1  0.328487  0.145165  0.046525  1
  O  O23  1  0.493012  0.343424  0.353202  1
  O  O24  1  0.506988  0.656576  0.646798  1
  O  O25  1  0.838526  0.190513  0.158559  1
  O  O26  1  0.161474  0.809487  0.841441  1
  O  O27  1  0.511422  0.977826  0.304678  1
  O  O28  1  0.488578  0.022174  0.695322  1
