# generated using pymatgen
data_CuS4(N2Cl)2
_symmetry_space_group_name_H-M   'P 1'
_cell_length_a   6.73238637
_cell_length_b   6.82820389
_cell_length_c   19.39860133
_cell_angle_alpha   90.00766627
_cell_angle_beta   89.99570120
_cell_angle_gamma   89.99828077
_symmetry_Int_Tables_number   1
_chemical_formula_structural   CuS4(N2Cl)2
_chemical_formula_sum   'Cu4 S16 N16 Cl8'
_cell_volume   891.75576278
_cell_formula_units_Z   4
loop_
 _symmetry_equiv_pos_site_id
 _symmetry_equiv_pos_as_xyz
  1  'x, y, z'
loop_
 _atom_site_type_symbol
 _atom_site_label
 _atom_site_symmetry_multiplicity
 _atom_site_fract_x
 _atom_site_fract_y
 _atom_site_fract_z
 _atom_site_occupancy
  Cu  Cu0  1  0.500000  0.500000  0.500000  1
  Cu  Cu1  1  0.500000  -0.000000  0.000000  1
  Cu  Cu2  1  0.000000  0.500000  0.500000  1
  Cu  Cu3  1  0.000000  0.000000  0.000000  1
  S  S4  1  0.048819  0.382645  0.870527  1
  S  S5  1  0.048839  0.117401  0.370553  1
  S  S6  1  0.548828  0.617359  0.129476  1
  S  S7  1  0.451153  0.117380  0.370546  1
  S  S8  1  0.249983  0.444747  0.329873  1
  S  S9  1  0.548846  0.882620  0.629454  1
  S  S10  1  0.250009  0.367979  0.748366  1
  S  S11  1  0.749991  0.632021  0.251634  1
  S  S12  1  0.749991  0.944765  0.170158  1
  S  S13  1  0.951163  0.882599  0.629447  1
  S  S14  1  0.951181  0.617354  0.129473  1
  S  S15  1  0.250009  0.055236  0.829842  1
  S  S16  1  0.749986  0.867949  0.751626  1
  S  S17  1  0.750016  0.555252  0.670127  1
  S  S18  1  0.250014  0.132052  0.248374  1
  S  S19  1  0.451173  0.382641  0.870524  1
  N  N20  1  0.056935  0.052354  0.290300  1
  N  N21  1  0.443059  0.447651  0.790279  1
  N  N22  1  0.556940  0.552348  0.209720  1
  N  N23  1  0.058032  0.145099  0.871009  1
  N  N24  1  0.558035  0.645121  0.628971  1
  N  N25  1  0.556936  0.947666  0.709705  1
  N  N26  1  0.056933  0.447652  0.790281  1
  N  N27  1  0.443064  0.052333  0.290294  1
  N  N28  1  0.941971  0.645104  0.628959  1
  N  N29  1  0.058029  0.354898  0.371041  1
  N  N30  1  0.941969  0.854900  0.128991  1
  N  N31  1  0.558029  0.854910  0.128992  1
  N  N32  1  0.943067  0.552348  0.209718  1
  N  N33  1  0.441972  0.145089  0.871008  1
  N  N34  1  0.943067  0.947646  0.709700  1
  N  N35  1  0.441964  0.354879  0.371029  1
  Cl  Cl36  1  0.249662  0.725148  0.481811  1
  Cl  Cl37  1  0.750337  0.274850  0.518189  1
  Cl  Cl38  1  0.749971  0.795950  0.960564  1
  Cl  Cl39  1  0.249665  0.295926  0.539419  1
  Cl  Cl40  1  0.250030  0.774869  0.981802  1
  Cl  Cl41  1  0.250028  0.204049  0.039435  1
  Cl  Cl42  1  0.749969  0.225130  0.018199  1
  Cl  Cl43  1  0.750336  0.704077  0.460581  1
