# generated using pymatgen
data_LuP2H4NO7
_symmetry_space_group_name_H-M   'P 1'
_cell_length_a   7.69829052
_cell_length_b   8.69124873
_cell_length_c   10.90890413
_cell_angle_alpha   90.00000000
_cell_angle_beta   90.00000000
_cell_angle_gamma   106.50006569
_symmetry_Int_Tables_number   1
_chemical_formula_structural   LuP2H4NO7
_chemical_formula_sum   'Lu4 P8 H16 N4 O28'
_cell_volume   699.83299940
_cell_formula_units_Z   4
loop_
 _symmetry_equiv_pos_site_id
 _symmetry_equiv_pos_as_xyz
  1  'x, y, z'
loop_
 _atom_site_type_symbol
 _atom_site_label
 _atom_site_symmetry_multiplicity
 _atom_site_fract_x
 _atom_site_fract_y
 _atom_site_fract_z
 _atom_site_occupancy
  Lu  Lu0  1  0.233892  0.253289  0.100817  1
  Lu  Lu1  1  0.233892  0.753289  0.399183  1
  Lu  Lu2  1  0.766108  0.746711  0.899183  1
  Lu  Lu3  1  0.766108  0.246711  0.600817  1
  P  P4  1  0.437625  0.188629  0.364928  1
  P  P5  1  0.869557  0.681417  0.598175  1
  P  P6  1  0.562375  0.311371  0.864928  1
  P  P7  1  0.437625  0.688629  0.135072  1
  P  P8  1  0.130443  0.318583  0.401825  1
  P  P9  1  0.562375  0.811371  0.635072  1
  P  P10  1  0.130443  0.818583  0.098175  1
  P  P11  1  0.869557  0.181417  0.901825  1
  H  H12  1  0.306894  0.652074  0.785077  1
  H  H13  1  0.802130  0.421189  0.084213  1
  H  H14  1  0.693106  0.847926  0.285077  1
  H  H15  1  0.197870  0.578811  0.915787  1
  H  H16  1  0.073217  0.081854  0.708806  1
  H  H17  1  0.306894  0.152074  0.714923  1
  H  H18  1  0.197469  0.452962  0.799429  1
  H  H19  1  0.693106  0.347926  0.214923  1
  H  H20  1  0.073217  0.581854  0.791194  1
  H  H21  1  0.197469  0.952962  0.700571  1
  H  H22  1  0.197870  0.078811  0.584213  1
  H  H23  1  0.926783  0.918146  0.291194  1
  H  H24  1  0.926783  0.418146  0.208806  1
  H  H25  1  0.802531  0.047038  0.299429  1
  H  H26  1  0.802531  0.547038  0.200571  1
  H  H27  1  0.802130  0.921189  0.415787  1
  N  N28  1  0.193873  0.566914  0.821641  1
  N  N29  1  0.193873  0.066914  0.678359  1
  N  N30  1  0.806127  0.433086  0.178359  1
  N  N31  1  0.806127  0.933086  0.321641  1
  O  O32  1  0.148771  0.996609  0.094907  1
  O  O33  1  0.622930  0.230794  0.426556  1
  O  O34  1  0.324876  0.015505  0.384837  1
  O  O35  1  0.851229  0.003391  0.905093  1
  O  O36  1  0.148771  0.496609  0.405093  1
  O  O37  1  0.543175  0.258995  0.729447  1
  O  O38  1  0.456825  0.741005  0.270553  1
  O  O39  1  0.622930  0.730794  0.073444  1
  O  O40  1  0.922560  0.754183  0.726416  1
  O  O41  1  0.077440  0.745817  0.226416  1
  O  O42  1  0.330613  0.800689  0.065110  1
  O  O43  1  0.543175  0.758995  0.770553  1
  O  O44  1  0.922560  0.254183  0.773584  1
  O  O45  1  0.377070  0.269206  0.926556  1
  O  O46  1  0.995099  0.276482  0.001552  1
  O  O47  1  0.330613  0.300689  0.434890  1
  O  O48  1  0.669387  0.199311  0.934890  1
  O  O49  1  0.675124  0.984495  0.615163  1
  O  O50  1  0.995099  0.776482  0.498448  1
  O  O51  1  0.675124  0.484495  0.884837  1
  O  O52  1  0.324876  0.515505  0.115163  1
  O  O53  1  0.377070  0.769206  0.573444  1
  O  O54  1  0.456825  0.241005  0.229447  1
  O  O55  1  0.004901  0.723518  0.998448  1
  O  O56  1  0.851229  0.503391  0.594907  1
  O  O57  1  0.077440  0.245817  0.273584  1
  O  O58  1  0.004901  0.223518  0.501552  1
  O  O59  1  0.669387  0.699311  0.565110  1
