# generated using pymatgen
data_Na6Mg2C4SO16
_symmetry_space_group_name_H-M   'P 1'
_cell_length_a   9.93960430
_cell_length_b   9.93960430
_cell_length_c   9.93960430
_cell_angle_alpha   60.00000001
_cell_angle_beta   60.00000001
_cell_angle_gamma   60.00000001
_symmetry_Int_Tables_number   1
_chemical_formula_structural   Na6Mg2C4SO16
_chemical_formula_sum   'Na12 Mg4 C8 S2 O32'
_cell_volume   694.37214134
_cell_formula_units_Z   2
loop_
 _symmetry_equiv_pos_site_id
 _symmetry_equiv_pos_as_xyz
  1  'x, y, z'
loop_
 _atom_site_type_symbol
 _atom_site_label
 _atom_site_symmetry_multiplicity
 _atom_site_fract_x
 _atom_site_fract_y
 _atom_site_fract_z
 _atom_site_occupancy
  C  C0  1  0.717729  0.346812  0.717729  1
  C  C1  1  0.282271  0.282271  0.282271  1
  C  C2  1  0.653188  0.282271  0.282271  1
  C  C3  1  0.282271  0.282271  0.653188  1
  C  C4  1  0.282271  0.653188  0.282271  1
  C  C5  1  0.717729  0.717729  0.717729  1
  C  C6  1  0.346812  0.717729  0.717729  1
  C  C7  1  0.717729  0.717729  0.346812  1
  O  O8  1  0.936545  0.936545  0.690366  1
  O  O9  1  0.063455  0.309634  0.063455  1
  O  O10  1  0.063455  0.063455  0.309634  1
  O  O11  1  0.936545  0.936545  0.936545  1
  O  O12  1  0.690366  0.936545  0.936545  1
  O  O13  1  0.936545  0.690366  0.936545  1
  O  O14  1  0.309634  0.063455  0.063455  1
  O  O15  1  0.063455  0.063455  0.063455  1
  O  O16  1  0.604756  0.688935  0.345153  1
  O  O17  1  0.345153  0.861156  0.604756  1
  O  O18  1  0.861156  0.345153  0.688935  1
  O  O19  1  0.688935  0.345153  0.604756  1
  O  O20  1  0.688935  0.861156  0.345153  1
  O  O21  1  0.861156  0.604756  0.345153  1
  O  O22  1  0.345153  0.604756  0.688935  1
  O  O23  1  0.604756  0.345153  0.861156  1
  O  O24  1  0.345153  0.688935  0.861156  1
  O  O25  1  0.604756  0.861156  0.688935  1
  O  O26  1  0.311065  0.395244  0.138844  1
  O  O27  1  0.138844  0.311065  0.395244  1
  O  O28  1  0.395244  0.138844  0.311065  1
  O  O29  1  0.654847  0.311065  0.138844  1
  O  O30  1  0.395244  0.654847  0.138844  1
  O  O31  1  0.654847  0.395244  0.311065  1
  O  O32  1  0.138844  0.395244  0.654847  1
  O  O33  1  0.311065  0.138844  0.654847  1
  O  O34  1  0.311065  0.654847  0.395244  1
  O  O35  1  0.138844  0.654847  0.311065  1
  O  O36  1  0.654847  0.138844  0.395244  1
  O  O37  1  0.395244  0.311065  0.654847  1
  O  O38  1  0.688935  0.604756  0.861156  1
  O  O39  1  0.861156  0.688935  0.604756  1
  Na  Na40  1  0.656946  0.093054  0.093054  1
  Na  Na41  1  0.093054  0.656946  0.093054  1
  Na  Na42  1  0.093054  0.093054  0.656946  1
  Na  Na43  1  0.656946  0.656946  0.093054  1
  Na  Na44  1  0.656946  0.093054  0.656946  1
  Na  Na45  1  0.093054  0.656946  0.656946  1
  Na  Na46  1  0.343054  0.906946  0.906946  1
  Na  Na47  1  0.906946  0.343054  0.906946  1
  Na  Na48  1  0.906946  0.906946  0.343054  1
  Na  Na49  1  0.343054  0.343054  0.906946  1
  Na  Na50  1  0.343054  0.906946  0.343054  1
  Na  Na51  1  0.906946  0.343054  0.343054  1
  Mg  Mg52  1  0.500000  0.500000  0.000000  1
  Mg  Mg53  1  0.500000  0.000000  0.500000  1
  Mg  Mg54  1  0.000000  0.500000  0.500000  1
  Mg  Mg55  1  0.500000  0.500000  0.500000  1
  S  S56  1  0.875000  0.875000  0.875000  1
  S  S57  1  0.125000  0.125000  0.125000  1
