# generated using pymatgen
data_HCl
_symmetry_space_group_name_H-M   'P 1'
_cell_length_a   4.24133421
_cell_length_b   5.45838832
_cell_length_c   4.24133421
_cell_angle_alpha   90.00000000
_cell_angle_beta   76.59617239
_cell_angle_gamma   90.00000000
_symmetry_Int_Tables_number   1
_chemical_formula_structural   HCl
_chemical_formula_sum   'H2 Cl2'
_cell_volume   95.51581817
_cell_formula_units_Z   2
loop_
 _symmetry_equiv_pos_site_id
 _symmetry_equiv_pos_as_xyz
  1  'x, y, z'
loop_
 _atom_site_type_symbol
 _atom_site_label
 _atom_site_symmetry_multiplicity
 _atom_site_fract_x
 _atom_site_fract_y
 _atom_site_fract_z
 _atom_site_occupancy
  H  H0  1  0.929941  0.677423  0.070059  1
  H  H1  1  0.070059  0.177423  0.929941  1
  Cl  Cl2  1  0.772355  0.492577  0.227645  1
  Cl  Cl3  1  0.227645  0.992577  0.772355  1
