# generated using pymatgen
data_GaCoPH18C9NCl2O3
_symmetry_space_group_name_H-M   'P 1'
_cell_length_a   7.62824802
_cell_length_b   10.79462277
_cell_length_c   11.66162926
_cell_angle_alpha   90.00000000
_cell_angle_beta   90.00000000
_cell_angle_gamma   101.63539855
_symmetry_Int_Tables_number   1
_chemical_formula_structural   GaCoPH18C9NCl2O3
_chemical_formula_sum   'Ga2 Co2 P2 H36 C18 N2 Cl4 O6'
_cell_volume   940.53323230
_cell_formula_units_Z   2
loop_
 _symmetry_equiv_pos_site_id
 _symmetry_equiv_pos_as_xyz
  1  'x, y, z'
loop_
 _atom_site_type_symbol
 _atom_site_label
 _atom_site_symmetry_multiplicity
 _atom_site_fract_x
 _atom_site_fract_y
 _atom_site_fract_z
 _atom_site_occupancy
  Ga  Ga0  1  0.786966  0.808859  0.750000  1
  Ga  Ga1  1  0.213034  0.191141  0.250000  1
  Co  Co2  1  0.286766  0.414612  0.250000  1
  Co  Co3  1  0.713234  0.585388  0.750000  1
  P  P4  1  0.676658  0.378755  0.750000  1
  P  P5  1  0.323342  0.621245  0.250000  1
  H  H6  1  0.909264  0.119882  0.430685  1
  H  H7  1  0.238543  0.072432  0.750000  1
  H  H8  1  0.909264  0.119882  0.069315  1
  H  H9  1  0.848016  0.213142  0.750000  1
  H  H10  1  0.297455  0.891831  0.854545  1
  H  H11  1  0.090736  0.880118  0.930685  1
  H  H12  1  0.961910  0.350217  0.673509  1
  H  H13  1  0.136734  0.746403  0.853240  1
  H  H14  1  0.863266  0.253597  0.146760  1
  H  H15  1  0.414991  0.318406  0.870866  1
  H  H16  1  0.038090  0.649783  0.173509  1
  H  H17  1  0.967826  0.938704  0.326922  1
  H  H18  1  0.967826  0.938704  0.173078  1
  H  H19  1  0.615039  0.340404  0.546980  1
  H  H20  1  0.615039  0.340404  0.953020  1
  H  H21  1  0.961910  0.350217  0.826491  1
  H  H22  1  0.585009  0.681594  0.370866  1
  H  H23  1  0.761457  0.927568  0.250000  1
  H  H24  1  0.032174  0.061296  0.826922  1
  H  H25  1  0.702545  0.108169  0.145455  1
  H  H26  1  0.032174  0.061296  0.673078  1
  H  H27  1  0.452219  0.800939  0.370952  1
  H  H28  1  0.384961  0.659596  0.046980  1
  H  H29  1  0.863266  0.253597  0.353240  1
  H  H30  1  0.547781  0.199061  0.870952  1
  H  H31  1  0.547781  0.199061  0.629048  1
  H  H32  1  0.702545  0.108169  0.354545  1
  H  H33  1  0.090736  0.880118  0.569315  1
  H  H34  1  0.297455  0.891831  0.645455  1
  H  H35  1  0.414991  0.318406  0.629134  1
  H  H36  1  0.151984  0.786858  0.250000  1
  H  H37  1  0.136734  0.746403  0.646760  1
  H  H38  1  0.038090  0.649783  0.326491  1
  H  H39  1  0.452219  0.800939  0.129048  1
  H  H40  1  0.384961  0.659596  0.453020  1
  H  H41  1  0.585009  0.681594  0.129134  1
  C  C42  1  0.513954  0.408393  0.250000  1
  C  C43  1  0.552104  0.301459  0.627354  1
  C  C44  1  0.846609  0.150417  0.353978  1
  C  C45  1  0.846609  0.150417  0.146022  1
  C  C46  1  0.447896  0.698541  0.127354  1
  C  C47  1  0.808480  0.597982  0.886830  1
  C  C48  1  0.153391  0.849583  0.646022  1
  C  C49  1  0.882265  0.317085  0.750000  1
  C  C50  1  0.094347  0.030828  0.750000  1
  C  C51  1  0.447896  0.698541  0.372646  1
  C  C52  1  0.486046  0.591607  0.750000  1
  C  C53  1  0.191520  0.402018  0.113170  1
  C  C54  1  0.117735  0.682915  0.250000  1
  C  C55  1  0.153391  0.849583  0.853978  1
  C  C56  1  0.191520  0.402018  0.386830  1
  C  C57  1  0.808480  0.597982  0.613170  1
  C  C58  1  0.552104  0.301459  0.872646  1
  C  C59  1  0.905653  0.969172  0.250000  1
  N  N60  1  0.931618  0.109076  0.250000  1
  N  N61  1  0.068382  0.890924  0.750000  1
  Cl  Cl62  1  0.703682  0.911933  0.598076  1
  Cl  Cl63  1  0.296318  0.088067  0.098076  1
  Cl  Cl64  1  0.296318  0.088067  0.401924  1
  Cl  Cl65  1  0.703682  0.911933  0.901924  1
  O  O66  1  0.667441  0.409617  0.250000  1
  O  O67  1  0.859891  0.601117  0.518419  1
  O  O68  1  0.140109  0.398883  0.018419  1
  O  O69  1  0.859891  0.601117  0.981581  1
  O  O70  1  0.140109  0.398883  0.481581  1
  O  O71  1  0.332559  0.590383  0.750000  1
