# generated using pymatgen
data_Ni13Sn8P3
_symmetry_space_group_name_H-M   'P 1'
_cell_length_a   6.46390679
_cell_length_b   11.42586041
_cell_length_c   20.24160786
_cell_angle_alpha   94.65811308
_cell_angle_beta   93.67947933
_cell_angle_gamma   91.02112210
_symmetry_Int_Tables_number   1
_chemical_formula_structural   Ni13Sn8P3
_chemical_formula_sum   'Ni52 Sn32 P12'
_cell_volume   1486.55008153
_cell_formula_units_Z   4
loop_
 _symmetry_equiv_pos_site_id
 _symmetry_equiv_pos_as_xyz
  1  'x, y, z'
loop_
 _atom_site_type_symbol
 _atom_site_label
 _atom_site_symmetry_multiplicity
 _atom_site_fract_x
 _atom_site_fract_y
 _atom_site_fract_z
 _atom_site_occupancy
  Ni  Ni0  1  0.952475  0.965319  0.092306  1
  Ni  Ni1  1  0.830546  0.895268  0.284411  1
  Ni  Ni2  1  0.885161  0.323555  0.791432  1
  Ni  Ni3  1  0.169454  0.104732  0.715589  1
  Ni  Ni4  1  0.570932  0.865677  0.052472  1
  Ni  Ni5  1  0.654791  0.221038  0.612327  1
  Ni  Ni6  1  0.463157  0.784872  0.252619  1
  Ni  Ni7  1  0.404482  0.715009  0.126143  1
  Ni  Ni8  1  0.478838  0.159494  0.360058  1
  Ni  Ni9  1  0.291774  0.072903  0.136587  1
  Ni  Ni10  1  0.976763  0.685197  0.338535  1
  Ni  Ni11  1  0.937256  0.336730  0.229247  1
  Ni  Ni12  1  0.584100  0.513744  0.899019  1
  Ni  Ni13  1  0.415900  0.486256  0.100981  1
  Ni  Ni14  1  0.345209  0.778962  0.387673  1
  Ni  Ni15  1  0.849241  0.098793  0.799211  1
  Ni  Ni16  1  0.536843  0.215128  0.747381  1
  Ni  Ni17  1  0.324124  0.122067  0.554807  1
  Ni  Ni18  1  0.611675  0.202121  0.183425  1
  Ni  Ni19  1  0.708226  0.927097  0.863413  1
  Ni  Ni20  1  0.738045  0.534322  0.738059  1
  Ni  Ni21  1  0.845391  0.974876  0.683514  1
  Ni  Ni22  1  0.254400  0.416389  0.839704  1
  Ni  Ni23  1  0.500000  0.500000  0.500000  1
  Ni  Ni24  1  0.047525  0.034681  0.907694  1
  Ni  Ni25  1  0.595518  0.284991  0.873857  1
  Ni  Ni26  1  0.059022  0.541573  0.653418  1
  Ni  Ni27  1  0.194615  0.715104  0.589739  1
  Ni  Ni28  1  0.388325  0.797879  0.816575  1
  Ni  Ni29  1  0.429068  0.134323  0.947528  1
  Ni  Ni30  1  0.745600  0.583611  0.160296  1
  Ni  Ni31  1  0.062744  0.663270  0.770753  1
  Ni  Ni32  1  0.880686  0.587628  0.534672  1
  Ni  Ni33  1  0.314129  0.354200  0.578582  1
  Ni  Ni34  1  0.769391  0.243039  0.990519  1
  Ni  Ni35  1  0.230609  0.756961  0.009481  1
  Ni  Ni36  1  0.628446  0.577526  0.294952  1
  Ni  Ni37  1  0.805385  0.284896  0.410261  1
  Ni  Ni38  1  0.371554  0.422474  0.705048  1
  Ni  Ni39  1  0.261955  0.465678  0.261941  1
  Ni  Ni40  1  0.114839  0.676445  0.208568  1
  Ni  Ni41  1  0.685871  0.645800  0.421418  1
  Ni  Ni42  1  0.119315  0.412372  0.465328  1
  Ni  Ni43  1  0.154609  0.025124  0.316486  1
  Ni  Ni44  1  0.521162  0.840506  0.639942  1
  Ni  Ni45  1  0.088533  0.366245  0.043265  1
  Ni  Ni46  1  0.000000  0.000000  0.500000  1
  Ni  Ni47  1  0.940978  0.458427  0.346582  1
  Ni  Ni48  1  0.675876  0.877933  0.445193  1
  Ni  Ni49  1  0.150759  0.901207  0.200789  1
  Ni  Ni50  1  0.023237  0.314803  0.661465  1
  Ni  Ni51  1  0.911467  0.633755  0.956735  1
  Sn  Sn52  1  0.776385  0.811180  0.161443  1
  Sn  Sn53  1  0.044023  0.897457  0.792140  1
  Sn  Sn54  1  0.615165  0.090633  0.065963  1
  Sn  Sn55  1  0.311426  0.551159  0.384948  1
  Sn  Sn56  1  0.890165  0.862277  0.974518  1
  Sn  Sn57  1  0.263571  0.307268  0.157585  1
  Sn  Sn58  1  0.522372  0.731320  0.525720  1
  Sn  Sn59  1  0.757068  0.361985  0.110312  1
  Sn  Sn60  1  0.736429  0.692732  0.842415  1
  Sn  Sn61  1  0.109835  0.137723  0.025482  1
  Sn  Sn62  1  0.667160  0.998633  0.564920  1
  Sn  Sn63  1  0.418587  0.367922  0.981033  1
  Sn  Sn64  1  0.223615  0.188820  0.838557  1
  Sn  Sn65  1  0.581413  0.632078  0.018967  1
  Sn  Sn66  1  0.403373  0.666226  0.705637  1
  Sn  Sn67  1  0.477628  0.268680  0.474280  1
  Sn  Sn68  1  0.864110  0.739361  0.660061  1
  Sn  Sn69  1  0.135890  0.260639  0.339939  1
  Sn  Sn70  1  0.969487  0.227479  0.528244  1
  Sn  Sn71  1  0.504299  0.972951  0.749841  1
  Sn  Sn72  1  0.955977  0.102543  0.207860  1
  Sn  Sn73  1  0.058909  0.590999  0.076288  1
  Sn  Sn74  1  0.173384  0.945609  0.613444  1
  Sn  Sn75  1  0.030513  0.772521  0.471756  1
  Sn  Sn76  1  0.384835  0.909367  0.934037  1
  Sn  Sn77  1  0.826616  0.054391  0.386556  1
  Sn  Sn78  1  0.332840  0.001367  0.435080  1
  Sn  Sn79  1  0.941091  0.409001  0.923712  1
  Sn  Sn80  1  0.242932  0.638015  0.889688  1
  Sn  Sn81  1  0.596627  0.333774  0.294363  1
  Sn  Sn82  1  0.495701  0.027049  0.250159  1
  Sn  Sn83  1  0.688574  0.448841  0.615052  1
  P  P84  1  0.734183  0.115863  0.900825  1
  P  P85  1  0.571377  0.411446  0.797111  1
  P  P86  1  0.204517  0.528738  0.555820  1
  P  P87  1  0.663056  0.774711  0.344413  1
  P  P88  1  0.265817  0.884137  0.099175  1
  P  P89  1  0.336944  0.225289  0.655587  1
  P  P90  1  0.936527  0.536415  0.249040  1
  P  P91  1  0.795483  0.471262  0.444180  1
  P  P92  1  0.063473  0.463585  0.750960  1
  P  P93  1  0.155371  0.825679  0.298171  1
  P  P94  1  0.844629  0.174321  0.701829  1
  P  P95  1  0.428623  0.588554  0.202889  1
