# generated using pymatgen
data_Ca5(PPd)6
_symmetry_space_group_name_H-M   'P 1'
_cell_length_a   4.12589131
_cell_length_b   8.26166880
_cell_length_c   19.22560034
_cell_angle_alpha   89.99999923
_cell_angle_beta   89.99997390
_cell_angle_gamma   90.00007370
_symmetry_Int_Tables_number   1
_chemical_formula_structural   Ca5(PPd)6
_chemical_formula_sum   'Ca10 P12 Pd12'
_cell_volume   655.33818448
_cell_formula_units_Z   2
loop_
 _symmetry_equiv_pos_site_id
 _symmetry_equiv_pos_as_xyz
  1  'x, y, z'
loop_
 _atom_site_type_symbol
 _atom_site_label
 _atom_site_symmetry_multiplicity
 _atom_site_fract_x
 _atom_site_fract_y
 _atom_site_fract_z
 _atom_site_occupancy
  Ca  Ca0  1  0.500000  0.992079  0.182278  1
  Ca  Ca1  1  0.999999  0.000669  0.629923  1
  Ca  Ca2  1  0.500000  0.492087  0.817723  1
  Ca  Ca3  1  0.500000  0.507920  0.182279  1
  Ca  Ca4  1  0.000000  0.999325  0.370075  1
  Ca  Ca5  1  0.500000  0.007913  0.817723  1
  Ca  Ca6  1  0.000001  -0.000003  0.000001  1
  Ca  Ca7  1  0.000000  0.499331  0.629923  1
  Ca  Ca8  1  1.000000  0.500675  0.370075  1
  Ca  Ca9  1  0.000000  0.500003  0.000001  1
  P  P10  1  0.499999  0.750000  0.058280  1
  P  P11  1  0.000001  0.750000  0.758223  1
  P  P12  1  0.000000  0.250000  0.241774  1
  P  P13  1  0.500001  0.750000  0.575172  1
  P  P14  1  1.000000  0.250000  0.753762  1
  P  P15  1  0.499999  0.250000  0.424822  1
  P  P16  1  0.500000  0.250000  0.572328  1
  P  P17  1  0.499999  0.750000  0.427670  1
  P  P18  1  0.000000  0.750000  0.246232  1
  P  P19  1  0.000000  0.750000  0.873076  1
  P  P20  1  0.000000  0.250000  0.126928  1
  P  P21  1  0.500001  0.250000  0.941726  1
  Pd  Pd22  1  0.999999  0.750001  0.121133  1
  Pd  Pd23  1  0.499999  0.250000  0.693768  1
  Pd  Pd24  1  0.500000  0.249999  0.066993  1
  Pd  Pd25  1  0.999999  0.250000  0.878862  1
  Pd  Pd26  1  0.500000  0.250000  0.301930  1
  Pd  Pd27  1  0.000001  0.250000  0.499280  1
  Pd  Pd28  1  0.500001  0.750000  0.306235  1
  Pd  Pd29  1  0.500000  0.750000  0.698072  1
  Pd  Pd30  1  0.000001  0.750000  0.500728  1
  Pd  Pd31  1  0.500000  0.000000  0.500003  1
  Pd  Pd32  1  0.500000  0.500000  0.500003  1
  Pd  Pd33  1  0.500000  0.750000  0.933000  1
