# generated using pymatgen
data_Ru3C10(NO6)2
_symmetry_space_group_name_H-M   'P 1'
_cell_length_a   7.70549067
_cell_length_b   9.33751284
_cell_length_c   26.54119751
_cell_angle_alpha   90.00000000
_cell_angle_beta   90.00000000
_cell_angle_gamma   108.51464724
_symmetry_Int_Tables_number   1
_chemical_formula_structural   Ru3C10(NO6)2
_chemical_formula_sum   'Ru12 C40 N8 O48'
_cell_volume   1810.80399763
_cell_formula_units_Z   4
loop_
 _symmetry_equiv_pos_site_id
 _symmetry_equiv_pos_as_xyz
  1  'x, y, z'
loop_
 _atom_site_type_symbol
 _atom_site_label
 _atom_site_symmetry_multiplicity
 _atom_site_fract_x
 _atom_site_fract_y
 _atom_site_fract_z
 _atom_site_occupancy
  Ru  Ru0  1  0.713482  0.104976  0.158400  1
  Ru  Ru1  1  0.286518  0.895024  0.841600  1
  Ru  Ru2  1  0.786518  0.395024  0.658400  1
  Ru  Ru3  1  0.109762  0.107112  0.880672  1
  Ru  Ru4  1  0.476547  0.251592  0.591785  1
  Ru  Ru5  1  0.523453  0.748408  0.408215  1
  Ru  Ru6  1  0.213482  0.604976  0.341600  1
  Ru  Ru7  1  0.609762  0.607112  0.619328  1
  Ru  Ru8  1  0.890238  0.892888  0.119328  1
  Ru  Ru9  1  0.023453  0.248408  0.091785  1
  Ru  Ru10  1  0.976547  0.751592  0.908215  1
  Ru  Ru11  1  0.390238  0.392888  0.380672  1
  C  C12  1  0.618527  0.143193  0.556754  1
  C  C13  1  0.232638  0.308024  0.047615  1
  C  C14  1  0.099433  0.198489  0.814861  1
  C  C15  1  0.965947  0.212845  0.913726  1
  C  C16  1  0.519223  0.966211  0.195591  1
  C  C17  1  0.480777  0.033789  0.804409  1
  C  C18  1  0.886605  0.122864  0.213823  1
  C  C19  1  0.732638  0.808024  0.452385  1
  C  C20  1  0.153399  0.245766  0.395497  1
  C  C21  1  0.563053  0.066848  0.097810  1
  C  C22  1  0.118527  0.643193  0.943246  1
  C  C23  1  0.465947  0.712845  0.586274  1
  C  C24  1  0.063053  0.566848  0.402190  1
  C  C25  1  0.980777  0.533789  0.695591  1
  C  C26  1  0.680269  0.298661  0.168823  1
  C  C27  1  0.436947  0.933152  0.902190  1
  C  C28  1  0.383902  0.088474  0.639893  1
  C  C29  1  0.113395  0.877136  0.786177  1
  C  C30  1  0.019223  0.466211  0.304409  1
  C  C31  1  0.534053  0.287155  0.413726  1
  C  C32  1  0.267362  0.191976  0.547615  1
  C  C33  1  0.936947  0.433152  0.597810  1
  C  C34  1  0.883902  0.588474  0.860107  1
  C  C35  1  0.034053  0.787155  0.086274  1
  C  C36  1  0.653399  0.745766  0.104503  1
  C  C37  1  0.381473  0.856807  0.443246  1
  C  C38  1  0.599433  0.698489  0.685139  1
  C  C39  1  0.616098  0.911526  0.360107  1
  C  C40  1  0.900567  0.801511  0.185139  1
  C  C41  1  0.319731  0.701339  0.831177  1
  C  C42  1  0.400567  0.301511  0.314861  1
  C  C43  1  0.846601  0.754234  0.604503  1
  C  C44  1  0.116098  0.411526  0.139893  1
  C  C45  1  0.386605  0.622864  0.286177  1
  C  C46  1  0.346601  0.254234  0.895497  1
  C  C47  1  0.819731  0.201339  0.668823  1
  C  C48  1  0.767362  0.691976  0.952385  1
  C  C49  1  0.881473  0.356807  0.056754  1
  C  C50  1  0.613395  0.377136  0.713823  1
  C  C51  1  0.180269  0.798661  0.331177  1
  N  N52  1  0.889578  0.038040  0.059940  1
  N  N53  1  0.102942  0.091625  0.133087  1
  N  N54  1  0.389578  0.538040  0.440060  1
  N  N55  1  0.602942  0.591625  0.366913  1
  N  N56  1  0.610422  0.461960  0.559940  1
  N  N57  1  0.110422  0.961960  0.940060  1
  N  N58  1  0.397058  0.408375  0.633087  1
  N  N59  1  0.897058  0.908375  0.866913  1
  O  O60  1  0.180126  0.992173  0.981347  1
  O  O61  1  0.653795  0.412876  0.175082  1
  O  O62  1  0.859300  0.843918  0.478523  1
  O  O63  1  0.086117  0.249801  0.776048  1
  O  O64  1  0.586117  0.749801  0.723952  1
  O  O65  1  0.512630  0.659571  0.094845  1
  O  O66  1  0.680126  0.492173  0.518653  1
  O  O67  1  0.395152  0.890165  0.218119  1
  O  O68  1  0.140700  0.156082  0.521477  1
  O  O69  1  0.667617  0.004900  0.329895  1
  O  O70  1  0.234154  0.112776  0.160836  1
  O  O71  1  0.319874  0.507827  0.481347  1
  O  O72  1  0.734154  0.612776  0.339164  1
  O  O73  1  0.819874  0.007827  0.018653  1
  O  O74  1  0.204756  0.579822  0.963863  1
  O  O75  1  0.121570  0.720494  0.068006  1
  O  O76  1  0.295244  0.920178  0.463863  1
  O  O77  1  0.846205  0.087124  0.675082  1
  O  O78  1  0.332383  0.995100  0.670105  1
  O  O79  1  0.795244  0.420178  0.036137  1
  O  O80  1  0.621570  0.220494  0.431994  1
  O  O81  1  0.413883  0.250199  0.276048  1
  O  O82  1  0.167617  0.504900  0.170105  1
  O  O83  1  0.640700  0.656082  0.978523  1
  O  O84  1  0.378430  0.779506  0.568006  1
  O  O85  1  0.346205  0.587124  0.824918  1
  O  O86  1  0.987370  0.840429  0.594845  1
  O  O87  1  0.487370  0.340429  0.905155  1
  O  O88  1  0.012630  0.159571  0.405155  1
  O  O89  1  0.359300  0.343918  0.021477  1
  O  O90  1  0.765846  0.887224  0.839164  1
  O  O91  1  0.471257  0.044495  0.062259  1
  O  O92  1  0.528744  0.955505  0.937741  1
  O  O93  1  0.704756  0.079822  0.536137  1
  O  O94  1  0.013786  0.869799  0.752957  1
  O  O95  1  0.153795  0.912876  0.324918  1
  O  O96  1  0.486214  0.630201  0.252957  1
  O  O97  1  0.513786  0.369799  0.747043  1
  O  O98  1  0.895152  0.390165  0.281881  1
  O  O99  1  0.913883  0.750199  0.223952  1
  O  O100  1  0.104848  0.609835  0.718119  1
  O  O101  1  0.986214  0.130201  0.247043  1
  O  O102  1  0.971256  0.544495  0.437741  1
  O  O103  1  0.028744  0.455505  0.562259  1
  O  O104  1  0.265846  0.387224  0.660836  1
  O  O105  1  0.878430  0.279506  0.931994  1
  O  O106  1  0.832383  0.495100  0.829895  1
  O  O107  1  0.604848  0.109835  0.781881  1
