# generated using pymatgen
data_BaCa2(PN2)6
_symmetry_space_group_name_H-M   'P 1'
_cell_length_a   10.01648646
_cell_length_b   10.01648646
_cell_length_c   10.01648646
_cell_angle_alpha   90.00000000
_cell_angle_beta   90.00000000
_cell_angle_gamma   90.00000000
_symmetry_Int_Tables_number   1
_chemical_formula_structural   BaCa2(PN2)6
_chemical_formula_sum   'Ba4 Ca8 P24 N48'
_cell_volume   1004.95409658
_cell_formula_units_Z   4
loop_
 _symmetry_equiv_pos_site_id
 _symmetry_equiv_pos_as_xyz
  1  'x, y, z'
loop_
 _atom_site_type_symbol
 _atom_site_label
 _atom_site_symmetry_multiplicity
 _atom_site_fract_x
 _atom_site_fract_y
 _atom_site_fract_z
 _atom_site_occupancy
  N  N0  1  0.715134  0.506969  0.411471  1
  N  N1  1  0.215134  0.993031  0.588529  1
  N  N2  1  0.284866  0.006969  0.088529  1
  N  N3  1  0.993031  0.588529  0.215134  1
  N  N4  1  0.088529  0.284866  0.006969  1
  N  N5  1  0.588529  0.215134  0.993031  1
  N  N6  1  0.506969  0.411471  0.715134  1
  N  N7  1  0.411471  0.715134  0.506969  1
  N  N8  1  0.006969  0.088529  0.284866  1
  N  N9  1  0.493031  0.911471  0.784866  1
  N  N10  1  0.911471  0.784866  0.493031  1
  N  N11  1  0.784866  0.493031  0.911471  1
  N  N12  1  0.284866  0.493031  0.588529  1
  N  N13  1  0.784866  0.006969  0.411471  1
  N  N14  1  0.715134  0.993031  0.911471  1
  N  N15  1  0.006969  0.411471  0.784866  1
  N  N16  1  0.911471  0.715134  0.993031  1
  N  N17  1  0.411471  0.784866  0.006969  1
  N  N18  1  0.493031  0.588529  0.284866  1
  N  N19  1  0.588529  0.284866  0.493031  1
  N  N20  1  0.165480  0.731056  0.621097  1
  N  N21  1  0.993031  0.911471  0.715134  1
  N  N22  1  0.088529  0.215134  0.506969  1
  N  N23  1  0.215134  0.506969  0.088529  1
  N  N24  1  0.834520  0.268944  0.378903  1
  N  N25  1  0.334520  0.231056  0.621097  1
  N  N26  1  0.165480  0.768944  0.121097  1
  N  N27  1  0.231056  0.621097  0.334520  1
  N  N28  1  0.121097  0.165480  0.768944  1
  N  N29  1  0.621097  0.334520  0.231056  1
  N  N30  1  0.268944  0.378903  0.834520  1
  N  N31  1  0.378903  0.834520  0.268944  1
  N  N32  1  0.768944  0.121097  0.165480  1
  N  N33  1  0.731056  0.878903  0.665480  1
  N  N34  1  0.878903  0.665480  0.731056  1
  N  N35  1  0.665480  0.731056  0.878903  1
  N  N36  1  0.334520  0.268944  0.121097  1
  N  N37  1  0.121097  0.334520  0.268944  1
  N  N38  1  0.268944  0.121097  0.334520  1
  N  N39  1  0.231056  0.878903  0.834520  1
  N  N40  1  0.621097  0.165480  0.731056  1
  N  N41  1  0.731056  0.621097  0.165480  1
  N  N42  1  0.378903  0.665480  0.768944  1
  N  N43  1  0.878903  0.834520  0.231056  1
  N  N44  1  0.768944  0.378903  0.665480  1
  N  N45  1  0.834520  0.231056  0.878903  1
  N  N46  1  0.665480  0.768944  0.378903  1
  N  N47  1  0.506969  0.088529  0.215134  1
  P  P48  1  0.689888  0.346718  0.380463  1
  P  P49  1  0.189888  0.153282  0.619537  1
  P  P50  1  0.310112  0.846718  0.119537  1
  P  P51  1  0.153282  0.619537  0.189888  1
  P  P52  1  0.119537  0.310112  0.846718  1
  P  P53  1  0.619537  0.189888  0.153282  1
  P  P54  1  0.346718  0.380463  0.689888  1
  P  P55  1  0.380463  0.689888  0.346718  1
  P  P56  1  0.846718  0.119537  0.310112  1
  P  P57  1  0.653282  0.880463  0.810112  1
  P  P58  1  0.880463  0.810112  0.653282  1
  P  P59  1  0.810112  0.653282  0.880463  1
  P  P60  1  0.310112  0.653282  0.619537  1
  P  P61  1  0.810112  0.846718  0.380463  1
  P  P62  1  0.689888  0.153282  0.880463  1
  P  P63  1  0.846718  0.380463  0.810112  1
  P  P64  1  0.880463  0.689888  0.153282  1
  P  P65  1  0.380463  0.810112  0.846718  1
  P  P66  1  0.653282  0.619537  0.310112  1
  P  P67  1  0.619537  0.310112  0.653282  1
  P  P68  1  0.153282  0.880463  0.689888  1
  P  P69  1  0.346718  0.119537  0.189888  1
  P  P70  1  0.119537  0.189888  0.346718  1
  P  P71  1  0.189888  0.346718  0.119537  1
  Ca  Ca72  1  0.375091  0.124909  0.875091  1
  Ca  Ca73  1  0.124909  0.875091  0.375091  1
  Ca  Ca74  1  0.875091  0.375091  0.124909  1
  Ca  Ca75  1  0.624909  0.624909  0.624909  1
  Ca  Ca76  1  0.624909  0.875091  0.124909  1
  Ca  Ca77  1  0.875091  0.124909  0.624909  1
  Ca  Ca78  1  0.124909  0.624909  0.875091  1
  Ca  Ca79  1  0.375091  0.375091  0.375091  1
  Ba  Ba80  1  0.000000  0.500000  0.500000  1
  Ba  Ba81  1  0.500000  0.500000  0.000000  1
  Ba  Ba82  1  0.500000  0.000000  0.500000  1
  Ba  Ba83  1  0.000000  0.000000  0.000000  1
