# generated using pymatgen
data_SiO2
_symmetry_space_group_name_H-M   'P 1'
_cell_length_a   13.77622064
_cell_length_b   12.70510792
_cell_length_c   18.63324019
_cell_angle_alpha   90.00000000
_cell_angle_beta   90.00000000
_cell_angle_gamma   90.00000000
_symmetry_Int_Tables_number   1
_chemical_formula_structural   SiO2
_chemical_formula_sum   'Si48 O96'
_cell_volume   3261.34565755
_cell_formula_units_Z   48
loop_
 _symmetry_equiv_pos_site_id
 _symmetry_equiv_pos_as_xyz
  1  'x, y, z'
loop_
 _atom_site_type_symbol
 _atom_site_label
 _atom_site_symmetry_multiplicity
 _atom_site_fract_x
 _atom_site_fract_y
 _atom_site_fract_z
 _atom_site_occupancy
  Si  Si0  1  0.112933  0.036682  0.166560  1
  Si  Si1  1  0.112933  0.963318  0.833440  1
  Si  Si2  1  0.887067  0.036682  0.333440  1
  Si  Si3  1  0.887067  0.963318  0.666560  1
  Si  Si4  1  0.887067  0.963318  0.833440  1
  Si  Si5  1  0.887067  0.036682  0.166560  1
  Si  Si6  1  0.112933  0.963318  0.666560  1
  Si  Si7  1  0.112933  0.036682  0.333440  1
  Si  Si8  1  0.612933  0.536682  0.166560  1
  Si  Si9  1  0.612933  0.463318  0.833440  1
  Si  Si10  1  0.387067  0.536682  0.333440  1
  Si  Si11  1  0.387067  0.463318  0.666560  1
  Si  Si12  1  0.387067  0.463318  0.833440  1
  Si  Si13  1  0.387067  0.536682  0.166560  1
  Si  Si14  1  0.612933  0.463318  0.666560  1
  Si  Si15  1  0.612933  0.536682  0.333440  1
  Si  Si16  1  0.112839  0.770790  0.939188  1
  Si  Si17  1  0.112839  0.229210  0.060812  1
  Si  Si18  1  0.887161  0.770790  0.560812  1
  Si  Si19  1  0.887161  0.229210  0.439188  1
  Si  Si20  1  0.887161  0.229210  0.060812  1
  Si  Si21  1  0.887161  0.770790  0.939188  1
  Si  Si22  1  0.112839  0.229210  0.439188  1
  Si  Si23  1  0.112839  0.770790  0.560812  1
  Si  Si24  1  0.612839  0.270790  0.939188  1
  Si  Si25  1  0.612839  0.729210  0.060812  1
  Si  Si26  1  0.387161  0.270790  0.560812  1
  Si  Si27  1  0.387161  0.729210  0.439188  1
  Si  Si28  1  0.387161  0.729210  0.060812  1
  Si  Si29  1  0.387161  0.270790  0.939188  1
  Si  Si30  1  0.612839  0.729210  0.439188  1
  Si  Si31  1  0.612839  0.270790  0.560812  1
  Si  Si32  1  0.773016  0.904162  0.052429  1
  Si  Si33  1  0.773016  0.095838  0.947571  1
  Si  Si34  1  0.226984  0.904162  0.447571  1
  Si  Si35  1  0.226984  0.095838  0.552429  1
  Si  Si36  1  0.226984  0.095838  0.947571  1
  Si  Si37  1  0.226984  0.904162  0.052429  1
  Si  Si38  1  0.773016  0.095838  0.552429  1
  Si  Si39  1  0.773016  0.904162  0.447571  1
  Si  Si40  1  0.273016  0.404162  0.052429  1
  Si  Si41  1  0.273016  0.595838  0.947571  1
  Si  Si42  1  0.726984  0.404162  0.447571  1
  Si  Si43  1  0.726984  0.595838  0.552429  1
  Si  Si44  1  0.726984  0.595838  0.947571  1
  Si  Si45  1  0.726984  0.404162  0.052429  1
  Si  Si46  1  0.273016  0.595838  0.552429  1
  Si  Si47  1  0.273016  0.404162  0.447571  1
  O  O48  1  0.000000  0.999314  0.161002  1
  O  O49  1  0.000000  0.000686  0.838998  1
  O  O50  1  0.000000  0.999314  0.338998  1
  O  O51  1  0.000000  0.000686  0.661002  1
  O  O52  1  0.500000  0.499314  0.161002  1
  O  O53  1  0.500000  0.500686  0.838998  1
  O  O54  1  0.500000  0.499314  0.338998  1
  O  O55  1  0.500000  0.500686  0.661002  1
  O  O56  1  0.145836  0.043909  0.250000  1
  O  O57  1  0.145836  0.956091  0.750000  1
  O  O58  1  0.854164  0.043909  0.250000  1
  O  O59  1  0.854164  0.956091  0.750000  1
  O  O60  1  0.645836  0.543909  0.250000  1
  O  O61  1  0.645836  0.456091  0.750000  1
  O  O62  1  0.354164  0.543909  0.250000  1
  O  O63  1  0.354164  0.456091  0.750000  1
  O  O64  1  0.125815  0.152261  0.129834  1
  O  O65  1  0.125815  0.847739  0.870166  1
  O  O66  1  0.874185  0.152261  0.370166  1
  O  O67  1  0.874185  0.847739  0.629834  1
  O  O68  1  0.874185  0.847739  0.870166  1
  O  O69  1  0.874185  0.152261  0.129834  1
  O  O70  1  0.125815  0.847739  0.629834  1
  O  O71  1  0.125815  0.152261  0.370166  1
  O  O72  1  0.625815  0.652261  0.129834  1
  O  O73  1  0.625815  0.347739  0.870166  1
  O  O74  1  0.374185  0.652261  0.370166  1
  O  O75  1  0.374185  0.347739  0.629834  1
  O  O76  1  0.374185  0.347739  0.870166  1
  O  O77  1  0.374185  0.652261  0.129834  1
  O  O78  1  0.625815  0.347739  0.629834  1
  O  O79  1  0.625815  0.652261  0.370166  1
  O  O80  1  0.180691  0.950924  0.125716  1
  O  O81  1  0.180691  0.049076  0.874284  1
  O  O82  1  0.819309  0.950924  0.374284  1
  O  O83  1  0.819309  0.049076  0.625716  1
  O  O84  1  0.819309  0.049076  0.874284  1
  O  O85  1  0.819309  0.950924  0.125716  1
  O  O86  1  0.180691  0.049076  0.625716  1
  O  O87  1  0.180691  0.950924  0.374284  1
  O  O88  1  0.680691  0.450924  0.125716  1
  O  O89  1  0.680691  0.549076  0.874284  1
  O  O90  1  0.319309  0.450924  0.374284  1
  O  O91  1  0.319309  0.549076  0.625716  1
  O  O92  1  0.319309  0.549076  0.874284  1
  O  O93  1  0.319309  0.450924  0.125716  1
  O  O94  1  0.680691  0.549076  0.625716  1
  O  O95  1  0.680691  0.450924  0.374284  1
  O  O96  1  0.145614  0.832066  0.012126  1
  O  O97  1  0.145614  0.167934  0.987874  1
  O  O98  1  0.854386  0.832066  0.487874  1
  O  O99  1  0.854386  0.167934  0.512126  1
  O  O100  1  0.854386  0.167934  0.987874  1
  O  O101  1  0.854386  0.832066  0.012126  1
  O  O102  1  0.145614  0.167934  0.512126  1
  O  O103  1  0.145614  0.832066  0.487874  1
  O  O104  1  0.645614  0.332066  0.012126  1
  O  O105  1  0.645614  0.667934  0.987874  1
  O  O106  1  0.354386  0.332066  0.487874  1
  O  O107  1  0.354386  0.667934  0.512126  1
  O  O108  1  0.354386  0.667934  0.987874  1
  O  O109  1  0.354386  0.332066  0.012126  1
  O  O110  1  0.645614  0.667934  0.512126  1
  O  O111  1  0.645614  0.332066  0.487874  1
  O  O112  1  0.000000  0.735496  0.947099  1
  O  O113  1  0.000000  0.264504  0.052901  1
  O  O114  1  0.000000  0.735496  0.552901  1
  O  O115  1  0.000000  0.264504  0.447099  1
  O  O116  1  0.500000  0.235496  0.947099  1
  O  O117  1  0.500000  0.764504  0.052901  1
  O  O118  1  0.500000  0.235496  0.552901  1
  O  O119  1  0.500000  0.764504  0.447099  1
  O  O120  1  0.178902  0.666514  0.927563  1
  O  O121  1  0.178902  0.333486  0.072437  1
  O  O122  1  0.821098  0.666514  0.572437  1
  O  O123  1  0.821098  0.333486  0.427563  1
  O  O124  1  0.821098  0.333486  0.072437  1
  O  O125  1  0.821098  0.666514  0.927563  1
  O  O126  1  0.178902  0.333486  0.427563  1
  O  O127  1  0.178902  0.666514  0.572437  1
  O  O128  1  0.678902  0.166514  0.927563  1
  O  O129  1  0.678902  0.833486  0.072437  1
  O  O130  1  0.321098  0.166514  0.572437  1
  O  O131  1  0.321098  0.833486  0.427563  1
  O  O132  1  0.321098  0.833486  0.072437  1
  O  O133  1  0.321098  0.166514  0.927563  1
  O  O134  1  0.678902  0.833486  0.427563  1
  O  O135  1  0.678902  0.166514  0.572437  1
  O  O136  1  0.739206  0.000000  0.000000  1
  O  O137  1  0.260794  0.000000  0.500000  1
  O  O138  1  0.260794  0.000000  0.000000  1
  O  O139  1  0.739206  0.000000  0.500000  1
  O  O140  1  0.239206  0.500000  0.000000  1
  O  O141  1  0.760794  0.500000  0.500000  1
  O  O142  1  0.760794  0.500000  0.000000  1
  O  O143  1  0.239206  0.500000  0.500000  1
