# generated using pymatgen
data_Na2TiSiO5
_symmetry_space_group_name_H-M   'P 1'
_cell_length_a   5.17473299
_cell_length_b   6.53525198
_cell_length_c   6.53525198
_cell_angle_alpha   90.00000000
_cell_angle_beta   90.00000000
_cell_angle_gamma   90.00000000
_symmetry_Int_Tables_number   1
_chemical_formula_structural   Na2TiSiO5
_chemical_formula_sum   'Na4 Ti2 Si2 O10'
_cell_volume   221.01035407
_cell_formula_units_Z   2
loop_
 _symmetry_equiv_pos_site_id
 _symmetry_equiv_pos_as_xyz
  1  'x, y, z'
loop_
 _atom_site_type_symbol
 _atom_site_label
 _atom_site_symmetry_multiplicity
 _atom_site_fract_x
 _atom_site_fract_y
 _atom_site_fract_z
 _atom_site_occupancy
  O  O0  1  0.731252  0.250000  0.250000  1
  O  O1  1  0.268748  0.750000  0.750000  1
  O  O2  1  0.182251  0.250000  0.542764  1
  O  O3  1  0.182251  0.250000  0.957236  1
  O  O4  1  0.182251  0.542764  0.250000  1
  O  O5  1  0.182251  0.957236  0.250000  1
  O  O6  1  0.817749  0.042764  0.750000  1
  O  O7  1  0.817749  0.750000  0.042764  1
  O  O8  1  0.817749  0.457236  0.750000  1
  O  O9  1  0.817749  0.750000  0.457236  1
  Na  Na10  1  0.500000  0.000000  0.500000  1
  Na  Na11  1  0.500000  0.000000  0.000000  1
  Na  Na12  1  0.500000  0.500000  0.500000  1
  Na  Na13  1  0.500000  0.500000  0.000000  1
  Si  Si14  1  0.000000  0.750000  0.250000  1
  Si  Si15  1  0.000000  0.250000  0.750000  1
  Ti  Ti16  1  0.063704  0.250000  0.250000  1
  Ti  Ti17  1  0.936296  0.750000  0.750000  1
