# generated using pymatgen
data_UVN2
_symmetry_space_group_name_H-M   'P 1'
_cell_length_a   3.15698853
_cell_length_b   5.44671367
_cell_length_c   10.68841738
_cell_angle_alpha   90.00224631
_cell_angle_beta   90.00013282
_cell_angle_gamma   90.00245099
_symmetry_Int_Tables_number   1
_chemical_formula_structural   UVN2
_chemical_formula_sum   'U4 V4 N8'
_cell_volume   183.78960886
_cell_formula_units_Z   4
loop_
 _symmetry_equiv_pos_site_id
 _symmetry_equiv_pos_as_xyz
  1  'x, y, z'
loop_
 _atom_site_type_symbol
 _atom_site_label
 _atom_site_symmetry_multiplicity
 _atom_site_fract_x
 _atom_site_fract_y
 _atom_site_fract_z
 _atom_site_occupancy
  U  U0  1  0.249983  0.578632  0.356672  1
  U  U1  1  0.249989  0.078594  0.143180  1
  U  U2  1  0.750014  0.421429  0.643360  1
  U  U3  1  0.749997  0.921487  0.856731  1
  V  V4  1  0.749999  0.575837  0.098106  1
  V  V5  1  0.249996  0.924052  0.598133  1
  V  V6  1  0.749997  0.075883  0.401943  1
  V  V7  1  0.250007  0.423991  0.901949  1
  N  N8  1  0.750000  0.836393  0.245570  1
  N  N9  1  0.250003  0.663722  0.745471  1
  N  N10  1  0.750010  0.759043  0.506913  1
  N  N11  1  0.250009  0.163589  0.754394  1
  N  N12  1  0.749992  0.336252  0.254436  1
  N  N13  1  0.250001  0.241022  0.493094  1
  N  N14  1  0.250010  0.741139  0.006933  1
  N  N15  1  0.749993  0.258936  0.993113  1
