# generated using pymatgen
data_Tb3(MnGe)4
_symmetry_space_group_name_H-M   'P 1'
_cell_length_a   4.19332913
_cell_length_b   7.35790887
_cell_length_c   8.20361608
_cell_angle_alpha   117.05004144
_cell_angle_beta   104.37201550
_cell_angle_gamma   89.55487447
_symmetry_Int_Tables_number   1
_chemical_formula_structural   Tb3(MnGe)4
_chemical_formula_sum   'Tb3 Mn4 Ge4'
_cell_volume   216.74541769
_cell_formula_units_Z   1
loop_
 _symmetry_equiv_pos_site_id
 _symmetry_equiv_pos_as_xyz
  1  'x, y, z'
loop_
 _atom_site_type_symbol
 _atom_site_label
 _atom_site_symmetry_multiplicity
 _atom_site_fract_x
 _atom_site_fract_y
 _atom_site_fract_z
 _atom_site_occupancy
  Tb  Tb0  1  0.117748  0.126017  0.244133  1
  Tb  Tb1  1  0.992535  0.502873  0.998754  1
  Tb  Tb2  1  0.873667  0.880010  0.757144  1
  Mn  Mn3  1  0.674548  0.482737  0.345195  1
  Mn  Mn4  1  0.320750  0.134284  0.652008  1
  Mn  Mn5  1  0.671412  0.866702  0.346345  1
  Mn  Mn6  1  0.323113  0.520074  0.657065  1
  Ge  Ge7  1  0.775453  0.283220  0.561028  1
  Ge  Ge8  1  0.495193  0.197501  -0.000363  1
  Ge  Ge9  1  0.498315  0.808581  -0.000140  1
  Ge  Ge10  1  0.217161  0.718310  0.438243  1
