# generated using pymatgen
data_Mn3(PO4)2
_symmetry_space_group_name_H-M   'P 1'
_cell_length_a   9.07919177
_cell_length_b   10.19757389
_cell_length_c   21.31811278
_cell_angle_alpha   90.00000000
_cell_angle_beta   99.11429118
_cell_angle_gamma   90.00000000
_symmetry_Int_Tables_number   1
_chemical_formula_structural   Mn3(PO4)2
_chemical_formula_sum   'Mn36 P24 O96'
_cell_volume   1948.83305065
_cell_formula_units_Z   12
loop_
 _symmetry_equiv_pos_site_id
 _symmetry_equiv_pos_as_xyz
  1  'x, y, z'
loop_
 _atom_site_type_symbol
 _atom_site_label
 _atom_site_symmetry_multiplicity
 _atom_site_fract_x
 _atom_site_fract_y
 _atom_site_fract_z
 _atom_site_occupancy
  Mn  Mn0  1  0.899353  0.295680  0.703554  1
  Mn  Mn1  1  0.207296  0.584146  0.783241  1
  Mn  Mn2  1  0.400168  0.894400  0.606797  1
  Mn  Mn3  1  0.399353  0.204320  0.203554  1
  Mn  Mn4  1  0.278102  0.885729  0.424394  1
  Mn  Mn5  1  0.262958  0.779849  0.140747  1
  Mn  Mn6  1  0.707296  0.915854  0.283241  1
  Mn  Mn7  1  0.221898  0.385729  0.075606  1
  Mn  Mn8  1  0.044608  0.216310  0.542959  1
  Mn  Mn9  1  0.894361  0.387407  0.416746  1
  Mn  Mn10  1  0.456798  0.610377  0.256854  1
  Mn  Mn11  1  0.099832  0.394400  0.893203  1
  Mn  Mn12  1  0.935156  0.094272  0.059581  1
  Mn  Mn13  1  0.599832  0.105600  0.393203  1
  Mn  Mn14  1  0.105639  0.612593  0.583254  1
  Mn  Mn15  1  0.043202  0.110377  0.243146  1
  Mn  Mn16  1  0.435156  0.405728  0.559581  1
  Mn  Mn17  1  0.455392  0.716310  0.957041  1
  Mn  Mn18  1  0.064844  0.905728  0.940419  1
  Mn  Mn19  1  0.956798  0.889623  0.756854  1
  Mn  Mn20  1  0.394361  0.112593  0.916746  1
  Mn  Mn21  1  0.721898  0.114271  0.575606  1
  Mn  Mn22  1  0.605639  0.887407  0.083254  1
  Mn  Mn23  1  0.100647  0.704320  0.296446  1
  Mn  Mn24  1  0.792704  0.415854  0.216759  1
  Mn  Mn25  1  0.762958  0.720151  0.640747  1
  Mn  Mn26  1  0.543202  0.389623  0.743146  1
  Mn  Mn27  1  0.900168  0.605600  0.106797  1
  Mn  Mn28  1  0.292704  0.084146  0.716759  1
  Mn  Mn29  1  0.564844  0.594272  0.440419  1
  Mn  Mn30  1  0.600647  0.795680  0.796446  1
  Mn  Mn31  1  0.237042  0.279849  0.359253  1
  Mn  Mn32  1  0.955392  0.783690  0.457041  1
  Mn  Mn33  1  0.544608  0.283690  0.042959  1
  Mn  Mn34  1  0.778102  0.614271  0.924394  1
  Mn  Mn35  1  0.737042  0.220151  0.859253  1
  P  P36  1  0.550393  0.369239  0.327870  1
  P  P37  1  0.700165  0.943247  0.939076  1
  P  P38  1  0.627835  0.854043  0.499087  1
  P  P39  1  0.650549  0.068384  0.718141  1
  P  P40  1  0.372165  0.145957  0.500913  1
  P  P41  1  0.849451  0.568384  0.781859  1
  P  P42  1  0.200165  0.556753  0.439076  1
  P  P43  1  0.533012  0.575381  0.105564  1
  P  P44  1  0.299835  0.056753  0.060924  1
  P  P45  1  0.799835  0.443247  0.560924  1
  P  P46  1  0.949607  0.869239  0.172130  1
  P  P47  1  0.033012  0.924619  0.605564  1
  P  P48  1  0.807962  0.643025  0.330832  1
  P  P49  1  0.050393  0.130761  0.827870  1
  P  P50  1  0.872165  0.354043  0.000913  1
  P  P51  1  0.127835  0.645957  0.999087  1
  P  P52  1  0.150549  0.431616  0.218141  1
  P  P53  1  0.966988  0.075381  0.394436  1
  P  P54  1  0.466988  0.424619  0.894436  1
  P  P55  1  0.449607  0.630761  0.672130  1
  P  P56  1  0.307962  0.856975  0.830832  1
  P  P57  1  0.192038  0.356975  0.669168  1
  P  P58  1  0.349451  0.931616  0.281859  1
  P  P59  1  0.692038  0.143025  0.169168  1
  O  O60  1  0.910401  0.391935  0.517362  1
  O  O61  1  0.222746  0.551527  0.256649  1
  O  O62  1  0.156999  0.501443  0.981800  1
  O  O63  1  0.568921  0.739985  0.691337  1
  O  O64  1  0.101548  0.078518  0.766322  1
  O  O65  1  0.277254  0.051527  0.243351  1
  O  O66  1  0.309187  0.469639  0.862508  1
  O  O67  1  0.822232  0.802255  0.125266  1
  O  O68  1  0.431079  0.260015  0.308663  1
  O  O69  1  0.943374  0.040500  0.570010  1
  O  O70  1  0.275212  0.934721  0.889718  1
  O  O71  1  0.410401  0.108065  0.017362  1
  O  O72  1  0.677768  0.302255  0.374734  1
  O  O73  1  0.722746  0.948473  0.756648  1
  O  O74  1  0.620147  0.181357  0.763187  1
  O  O75  1  0.417658  0.742841  0.853290  1
  O  O76  1  0.873813  0.566776  0.597089  1
  O  O77  1  0.388424  0.942206  0.786503  1
  O  O78  1  0.943092  0.866949  0.655513  1
  O  O79  1  0.524710  0.514714  0.642268  1
  O  O80  1  0.888424  0.557794  0.286503  1
  O  O81  1  0.056626  0.959500  0.429990  1
  O  O82  1  0.734990  0.616161  0.823969  1
  O  O83  1  0.601548  0.421482  0.266322  1
  O  O84  1  0.556908  0.366949  0.844487  1
  O  O85  1  0.177768  0.197745  0.874734  1
  O  O86  1  0.222232  0.669462  0.392920  1
  O  O87  1  0.053150  0.814971  0.557233  1
  O  O88  1  0.162103  0.792130  0.795377  1
  O  O89  1  0.475290  0.485286  0.357732  1
  O  O90  1  0.946850  0.185029  0.442767  1
  O  O91  1  0.898452  0.921482  0.233678  1
  O  O92  1  0.879853  0.681357  0.736813  1
  O  O93  1  0.120147  0.318643  0.263187  1
  O  O94  1  0.582342  0.257159  0.146710  1
  O  O95  1  0.852711  0.978824  0.978736  1
  O  O96  1  0.777768  0.330538  0.607080  1
  O  O97  1  0.499939  0.966242  0.324446  1
  O  O98  1  0.016636  0.295799  0.040933  1
  O  O99  1  0.000061  0.466242  0.175554  1
  O  O100  1  0.983364  0.704201  0.959067  1
  O  O101  1  0.750258  0.258561  0.015247  1
  O  O102  1  0.556626  0.540500  0.929990  1
  O  O103  1  0.589599  0.891935  0.982638  1
  O  O104  1  0.234990  0.883839  0.323969  1
  O  O105  1  0.690813  0.530361  0.137492  1
  O  O106  1  0.656999  0.998557  0.481800  1
  O  O107  1  0.724788  0.065279  0.110282  1
  O  O108  1  0.999939  0.533758  0.824446  1
  O  O109  1  0.611576  0.057794  0.213497  1
  O  O110  1  0.483364  0.795799  0.459067  1
  O  O111  1  0.647289  0.478824  0.521264  1
  O  O112  1  0.118374  0.649558  0.072148  1
  O  O113  1  0.343001  0.001443  0.518200  1
  O  O114  1  0.662103  0.707870  0.295377  1
  O  O115  1  0.618374  0.850442  0.572148  1
  O  O116  1  0.373813  0.933224  0.097089  1
  O  O117  1  0.722232  0.830538  0.892920  1
  O  O118  1  0.843001  0.498557  0.018200  1
  O  O119  1  0.111576  0.442206  0.713497  1
  O  O120  1  0.265010  0.383839  0.176031  1
  O  O121  1  0.068921  0.760015  0.191337  1
  O  O122  1  0.398452  0.578518  0.733678  1
  O  O123  1  0.379853  0.818643  0.236813  1
  O  O124  1  0.809187  0.030361  0.362508  1
  O  O125  1  0.277768  0.169462  0.107080  1
  O  O126  1  0.126187  0.433224  0.402911  1
  O  O127  1  0.056908  0.133051  0.344487  1
  O  O128  1  0.775212  0.565279  0.389718  1
  O  O129  1  0.381626  0.149558  0.427852  1
  O  O130  1  0.089599  0.608065  0.482638  1
  O  O131  1  0.749742  0.758561  0.484753  1
  O  O132  1  0.147289  0.021176  0.021264  1
  O  O133  1  0.500061  0.033758  0.675554  1
  O  O134  1  0.249742  0.741439  0.984753  1
  O  O135  1  0.443092  0.633051  0.155513  1
  O  O136  1  0.553150  0.685029  0.057233  1
  O  O137  1  0.516636  0.204201  0.540933  1
  O  O138  1  0.024710  0.985286  0.142268  1
  O  O139  1  0.443374  0.459500  0.070010  1
  O  O140  1  0.190813  0.969639  0.637492  1
  O  O141  1  0.917658  0.757159  0.353290  1
  O  O142  1  0.777254  0.448473  0.743352  1
  O  O143  1  0.765010  0.116161  0.676031  1
  O  O144  1  0.975290  0.014714  0.857732  1
  O  O145  1  0.446850  0.314971  0.942767  1
  O  O146  1  0.250258  0.241439  0.515247  1
  O  O147  1  0.626187  0.066776  0.902911  1
  O  O148  1  0.082342  0.242841  0.646710  1
  O  O149  1  0.224788  0.434721  0.610282  1
  O  O150  1  0.931079  0.239985  0.808663  1
  O  O151  1  0.352711  0.521176  0.478736  1
  O  O152  1  0.881626  0.350442  0.927852  1
  O  O153  1  0.837897  0.207870  0.204623  1
  O  O154  1  0.337897  0.292130  0.704623  1
  O  O155  1  0.322232  0.697745  0.625266  1
