# generated using pymatgen
data_Cr10Sb3Te7
_symmetry_space_group_name_H-M   'P 1'
_cell_length_a   20.73343564
_cell_length_b   7.17436801
_cell_length_c   7.18730297
_cell_angle_alpha   59.87291170
_cell_angle_beta   54.52204039
_cell_angle_gamma   29.94015065
_symmetry_Int_Tables_number   1
_chemical_formula_structural   Cr10Sb3Te7
_chemical_formula_sum   'Cr10 Sb3 Te7'
_cell_volume   434.51820835
_cell_formula_units_Z   1
loop_
 _symmetry_equiv_pos_site_id
 _symmetry_equiv_pos_as_xyz
  1  'x, y, z'
loop_
 _atom_site_type_symbol
 _atom_site_label
 _atom_site_symmetry_multiplicity
 _atom_site_fract_x
 _atom_site_fract_y
 _atom_site_fract_z
 _atom_site_occupancy
  Cr  Cr0  1  -0.001409  0.002627  0.996556  1
  Cr  Cr1  1  0.196963  0.013271  0.995384  1
  Cr  Cr2  1  0.397976  0.004559  0.007319  1
  Cr  Cr3  1  0.102283  -0.002558  0.497277  1
  Cr  Cr4  1  0.602720  0.003743  0.977077  1
  Cr  Cr5  1  0.298050  0.001243  0.501009  1
  Cr  Cr6  1  0.799768  0.000175  0.994614  1
  Cr  Cr7  1  0.498371  0.004557  0.498623  1
  Cr  Cr8  1  0.692395  0.015656  0.509903  1
  Cr  Cr9  1  0.896377  0.009670  0.500180  1
  Sb  Sb10  1  0.049364  0.336703  0.745368  1
  Sb  Sb11  1  0.444033  0.342063  0.755407  1
  Sb  Sb12  1  0.646658  0.342273  0.754705  1
  Te  Te13  1  0.147213  0.674385  0.249287  1
  Te  Te14  1  0.250223  0.334730  0.749449  1
  Te  Te15  1  0.352695  0.667068  0.234928  1
  Te  Te16  1  0.550529  0.667219  0.244597  1
  Te  Te17  1  0.746564  0.678736  0.250736  1
  Te  Te18  1  0.847995  0.330954  0.758495  1
  Te  Te19  1  0.945998  0.671800  0.255961  1
