# generated using pymatgen
data_K2SbF5
_symmetry_space_group_name_H-M   'P 1'
_cell_length_a   7.30810312
_cell_length_b   7.36429623
_cell_length_c   11.80199619
_cell_angle_alpha   98.11244129
_cell_angle_beta   90.00000000
_cell_angle_gamma   90.00000000
_symmetry_Int_Tables_number   1
_chemical_formula_structural   K2SbF5
_chemical_formula_sum   'K8 Sb4 F20'
_cell_volume   628.81591839
_cell_formula_units_Z   4
loop_
 _symmetry_equiv_pos_site_id
 _symmetry_equiv_pos_as_xyz
  1  'x, y, z'
loop_
 _atom_site_type_symbol
 _atom_site_label
 _atom_site_symmetry_multiplicity
 _atom_site_fract_x
 _atom_site_fract_y
 _atom_site_fract_z
 _atom_site_occupancy
  K  K0  1  0.244590  0.500420  0.561164  1
  K  K1  1  0.246678  0.409369  0.907445  1
  K  K2  1  0.744590  0.999580  0.938836  1
  K  K3  1  0.255410  0.000420  0.061164  1
  K  K4  1  0.753322  0.590631  0.092555  1
  K  K5  1  0.746678  0.090631  0.592555  1
  K  K6  1  0.253322  0.909369  0.407445  1
  K  K7  1  0.755410  0.499580  0.438836  1
  Sb  Sb8  1  0.245032  0.932132  0.745980  1
  Sb  Sb9  1  0.754968  0.067868  0.254020  1
  Sb  Sb10  1  0.254968  0.432132  0.245980  1
  Sb  Sb11  1  0.745032  0.567868  0.754020  1
  F  F12  1  0.071108  0.575283  0.366205  1
  F  F13  1  0.038979  0.868115  0.616771  1
  F  F14  1  0.059330  0.069106  0.867157  1
  F  F15  1  0.961021  0.131885  0.383229  1
  F  F16  1  0.559330  0.430894  0.632843  1
  F  F17  1  0.461021  0.368115  0.116771  1
  F  F18  1  0.760616  0.829032  0.311659  1
  F  F19  1  0.571108  0.924717  0.133795  1
  F  F20  1  0.538979  0.631885  0.883229  1
  F  F21  1  0.928892  0.424717  0.633795  1
  F  F22  1  0.940670  0.930894  0.132843  1
  F  F23  1  0.440670  0.569106  0.367157  1
  F  F24  1  0.428892  0.075283  0.866205  1
  F  F25  1  0.739384  0.329032  0.811659  1
  F  F26  1  0.260616  0.670968  0.188341  1
  F  F27  1  0.549678  0.123049  0.384083  1
  F  F28  1  0.049678  0.376951  0.115917  1
  F  F29  1  0.239384  0.170968  0.688341  1
  F  F30  1  0.950322  0.623049  0.884083  1
  F  F31  1  0.450322  0.876951  0.615917  1
