# generated using pymatgen
data_Li(YbGe)4
_symmetry_space_group_name_H-M   'P 1'
_cell_length_a   7.26589552
_cell_length_b   7.84973605
_cell_length_c   15.26172922
_cell_angle_alpha   90.00000816
_cell_angle_beta   90.00230208
_cell_angle_gamma   90.00002027
_symmetry_Int_Tables_number   1
_chemical_formula_structural   Li(YbGe)4
_chemical_formula_sum   'Li4 Yb16 Ge16'
_cell_volume   870.45825044
_cell_formula_units_Z   4
loop_
 _symmetry_equiv_pos_site_id
 _symmetry_equiv_pos_as_xyz
  1  'x, y, z'
loop_
 _atom_site_type_symbol
 _atom_site_label
 _atom_site_symmetry_multiplicity
 _atom_site_fract_x
 _atom_site_fract_y
 _atom_site_fract_z
 _atom_site_occupancy
  Yb  Yb0  1  0.828108  0.321344  0.371740  1
  Yb  Yb1  1  0.985926  0.816849  0.401890  1
  Yb  Yb2  1  0.014079  0.183153  0.598110  1
  Yb  Yb3  1  0.671885  0.821333  0.871711  1
  Yb  Yb4  1  0.485926  0.683151  0.401890  1
  Yb  Yb5  1  0.514065  0.316864  0.901866  1
  Yb  Yb6  1  0.328105  0.178656  0.128289  1
  Yb  Yb7  1  0.171882  0.678666  0.628261  1
  Yb  Yb8  1  0.514078  0.316847  0.598110  1
  Yb  Yb9  1  0.485940  0.683134  0.098133  1
  Yb  Yb10  1  0.828105  0.321344  0.128289  1
  Yb  Yb11  1  0.328108  0.178656  0.371740  1
  Yb  Yb12  1  0.171885  0.678667  0.871711  1
  Yb  Yb13  1  0.671882  0.821334  0.628261  1
  Yb  Yb14  1  0.014065  0.183136  0.901866  1
  Yb  Yb15  1  0.985940  0.816866  0.098133  1
  Li  Li16  1  0.158091  0.521256  0.250013  1
  Li  Li17  1  0.841904  0.478747  0.749987  1
  Li  Li18  1  0.341905  0.021253  0.749987  1
  Li  Li19  1  0.658092  0.978744  0.250013  1
  Ge  Ge20  1  0.728598  0.132858  0.749989  1
  Ge  Ge21  1  0.343447  0.969074  0.533886  1
  Ge  Ge22  1  0.843446  0.530926  0.533886  1
  Ge  Ge23  1  0.156535  0.469094  0.033865  1
  Ge  Ge24  1  0.771387  0.632839  0.250011  1
  Ge  Ge25  1  0.021577  0.083529  0.250016  1
  Ge  Ge26  1  0.656535  0.030905  0.033865  1
  Ge  Ge27  1  0.271388  0.867161  0.250011  1
  Ge  Ge28  1  0.656554  0.030929  0.466117  1
  Ge  Ge29  1  0.978447  0.916448  0.749985  1
  Ge  Ge30  1  0.478447  0.583552  0.749985  1
  Ge  Ge31  1  0.228598  0.367142  0.749989  1
  Ge  Ge32  1  0.521577  0.416471  0.250016  1
  Ge  Ge33  1  0.843468  0.530901  0.966131  1
  Ge  Ge34  1  0.343468  0.969099  0.966131  1
  Ge  Ge35  1  0.156555  0.469071  0.466117  1
