# generated using pymatgen
data_CeAl5Pt3
_symmetry_space_group_name_H-M   'P 1'
_cell_length_a   4.15626253
_cell_length_b   7.32978310
_cell_length_c   20.76501885
_cell_angle_alpha   90.03444555
_cell_angle_beta   90.00002525
_cell_angle_gamma   90.00026986
_symmetry_Int_Tables_number   1
_chemical_formula_structural   CeAl5Pt3
_chemical_formula_sum   'Ce4 Al20 Pt12'
_cell_volume   632.59586169
_cell_formula_units_Z   4
loop_
 _symmetry_equiv_pos_site_id
 _symmetry_equiv_pos_as_xyz
  1  'x, y, z'
loop_
 _atom_site_type_symbol
 _atom_site_label
 _atom_site_symmetry_multiplicity
 _atom_site_fract_x
 _atom_site_fract_y
 _atom_site_fract_z
 _atom_site_occupancy
  Ce  Ce0  1  0.749997  0.118128  0.640509  1
  Ce  Ce1  1  0.250000  0.881920  0.359454  1
  Ce  Ce2  1  0.750001  0.381939  0.140506  1
  Ce  Ce3  1  0.250001  0.618128  0.859497  1
  Al  Al4  1  0.250000  0.356047  0.382804  1
  Al  Al5  1  0.250000  0.886350  0.982725  1
  Al  Al6  1  0.250000  0.687866  0.200642  1
  Al  Al7  1  0.750000  0.868663  0.492502  1
  Al  Al8  1  0.750001  0.631296  0.992439  1
  Al  Al9  1  0.750001  0.311942  0.799286  1
  Al  Al10  1  0.250000  0.074804  0.208113  1
  Al  Al11  1  0.750000  0.643985  0.617223  1
  Al  Al12  1  0.750000  0.574324  0.291689  1
  Al  Al13  1  0.750000  0.188421  0.299175  1
  Al  Al14  1  0.250000  0.144026  0.882793  1
  Al  Al15  1  0.750000  0.925384  0.791829  1
  Al  Al16  1  0.250000  0.368684  0.007636  1
  Al  Al17  1  0.250000  0.613433  0.482821  1
  Al  Al18  1  0.249999  0.131378  0.507594  1
  Al  Al19  1  0.750000  0.113727  0.017311  1
  Al  Al20  1  0.749999  0.855897  0.117183  1
  Al  Al21  1  0.750000  0.386457  0.517266  1
  Al  Al22  1  0.249999  0.425525  0.708227  1
  Al  Al23  1  0.250001  0.811763  0.700764  1
  Pt  Pt24  1  0.249999  0.382956  0.261733  1
  Pt  Pt25  1  0.750001  0.882973  0.238162  1
  Pt  Pt26  1  0.750000  0.617029  0.738266  1
  Pt  Pt27  1  0.250000  0.117052  0.761779  1
  Pt  Pt28  1  0.749999  0.160898  0.426868  1
  Pt  Pt29  1  0.250001  0.419866  0.584579  1
  Pt  Pt30  1  0.250000  0.080195  0.084599  1
  Pt  Pt31  1  0.749999  0.919787  0.915433  1
  Pt  Pt32  1  0.250000  0.839169  0.573138  1
  Pt  Pt33  1  0.750000  0.339209  0.926874  1
  Pt  Pt34  1  0.250000  0.660775  0.073158  1
  Pt  Pt35  1  0.750000  0.580003  0.415425  1
