# generated using pymatgen
data_Ba2Er(CuO2)4
_symmetry_space_group_name_H-M   'P 1'
_cell_length_a   3.87346388
_cell_length_b   3.89120436
_cell_length_c   13.86912799
_cell_angle_alpha   98.06421966
_cell_angle_beta   90.00000000
_cell_angle_gamma   90.00000000
_symmetry_Int_Tables_number   1
_chemical_formula_structural   Ba2Er(CuO2)4
_chemical_formula_sum   'Ba2 Er1 Cu4 O8'
_cell_volume   206.97447596
_cell_formula_units_Z   1
loop_
 _symmetry_equiv_pos_site_id
 _symmetry_equiv_pos_as_xyz
  1  'x, y, z'
loop_
 _atom_site_type_symbol
 _atom_site_label
 _atom_site_symmetry_multiplicity
 _atom_site_fract_x
 _atom_site_fract_y
 _atom_site_fract_z
 _atom_site_occupancy
  O  O0  1  0.000000  0.281538  0.563077  1
  O  O1  1  0.000000  0.718462  0.436923  1
  O  O2  1  0.000000  0.448888  0.897776  1
  O  O3  1  0.000000  0.551112  0.102224  1
  O  O4  1  0.500000  0.948793  0.897586  1
  O  O5  1  0.500000  0.051207  0.102414  1
  O  O6  1  0.000000  0.854821  0.709642  1
  O  O7  1  0.000000  0.145179  0.290358  1
  Cu  Cu8  1  0.000000  0.939425  0.878849  1
  Cu  Cu9  1  0.000000  0.060575  0.121151  1
  Cu  Cu10  1  0.000000  0.787438  0.574876  1
  Cu  Cu11  1  0.000000  0.212562  0.425124  1
  Ba  Ba12  1  0.500000  0.364594  0.729189  1
  Ba  Ba13  1  0.500000  0.635405  0.270811  1
  Er  Er14  1  0.500000  0.500000  0.000000  1
