# generated using pymatgen
data_U6Fe16Si7
_symmetry_space_group_name_H-M   'P 1'
_cell_length_a   8.23728971
_cell_length_b   8.23831069
_cell_length_c   8.23706910
_cell_angle_alpha   60.00921101
_cell_angle_beta   60.00594544
_cell_angle_gamma   59.99819703
_symmetry_Int_Tables_number   1
_chemical_formula_structural   U6Fe16Si7
_chemical_formula_sum   'U6 Fe16 Si7'
_cell_volume   395.29747053
_cell_formula_units_Z   1
loop_
 _symmetry_equiv_pos_site_id
 _symmetry_equiv_pos_as_xyz
  1  'x, y, z'
loop_
 _atom_site_type_symbol
 _atom_site_label
 _atom_site_symmetry_multiplicity
 _atom_site_fract_x
 _atom_site_fract_y
 _atom_site_fract_z
 _atom_site_occupancy
  U  U0  1  0.718267  0.281671  0.281744  1
  U  U1  1  0.281767  0.718276  0.718194  1
  U  U2  1  0.718225  0.281700  0.718307  1
  U  U3  1  0.281745  0.718315  0.281746  1
  U  U4  1  0.281745  0.281672  0.718311  1
  U  U5  1  0.718224  0.718392  0.281696  1
  Fe  Fe6  1  0.671530  0.671587  0.671524  1
  Fe  Fe7  1  0.671501  0.985405  0.671548  1
  Fe  Fe8  1  0.328626  0.014166  0.328619  1
  Fe  Fe9  1  0.014459  0.328521  0.328523  1
  Fe  Fe10  1  0.634387  0.121782  0.121927  1
  Fe  Fe11  1  0.328525  0.328509  0.328563  1
  Fe  Fe12  1  0.878067  0.878076  0.878182  1
  Fe  Fe13  1  0.121901  0.121878  0.121834  1
  Fe  Fe14  1  0.671537  0.671599  0.985329  1
  Fe  Fe15  1  0.328608  0.328597  0.014174  1
  Fe  Fe16  1  0.985476  0.671518  0.671504  1
  Fe  Fe17  1  0.121784  0.634437  0.121893  1
  Fe  Fe18  1  0.878154  0.365660  0.878101  1
  Fe  Fe19  1  0.878071  0.878093  0.365649  1
  Fe  Fe20  1  0.365682  0.878156  0.878080  1
  Fe  Fe21  1  0.121902  0.121865  0.634420  1
  Si  Si22  1  0.000058  0.500006  0.999968  1
  Si  Si23  1  0.999963  0.000031  0.000021  1
  Si  Si24  1  0.499910  0.000106  0.000086  1
  Si  Si25  1  0.499953  0.000024  0.499967  1
  Si  Si26  1  0.000027  0.999959  0.500020  1
  Si  Si27  1  0.999979  0.500047  0.500035  1
  Si  Si28  1  0.499926  0.499952  0.000035  1
