# generated using pymatgen
data_CaSiSnO5
_symmetry_space_group_name_H-M   'P 1'
_cell_length_a   7.25869862
_cell_length_b   5.63789924
_cell_length_c   5.62448073
_cell_angle_alpha   106.09956664
_cell_angle_beta   103.70907657
_cell_angle_gamma   103.90871501
_symmetry_Int_Tables_number   1
_chemical_formula_structural   CaSiSnO5
_chemical_formula_sum   'Ca2 Si2 Sn2 O10'
_cell_volume   202.96702733
_cell_formula_units_Z   2
loop_
 _symmetry_equiv_pos_site_id
 _symmetry_equiv_pos_as_xyz
  1  'x, y, z'
loop_
 _atom_site_type_symbol
 _atom_site_label
 _atom_site_symmetry_multiplicity
 _atom_site_fract_x
 _atom_site_fract_y
 _atom_site_fract_z
 _atom_site_occupancy
  Ca  Ca0  1  0.754205  0.837998  0.160093  1
  Ca  Ca1  1  0.245795  0.162002  0.839907  1
  Si  Si2  1  0.250727  0.817924  0.183247  1
  Si  Si3  1  0.749273  0.182076  0.816753  1
  Sn  Sn4  1  0.500000  0.500000  0.500000  1
  Sn  Sn5  1  0.000000  0.500000  0.500000  1
  O  O6  1  0.249487  0.409428  0.588983  1
  O  O7  1  0.750513  0.590572  0.411017  1
  O  O8  1  0.086802  0.758249  0.895239  1
  O  O9  1  0.913198  0.241751  0.104761  1
  O  O10  1  0.412267  0.106496  0.240345  1
  O  O11  1  0.587733  0.893504  0.759655  1
  O  O12  1  0.629870  0.398979  0.823232  1
  O  O13  1  0.370130  0.601021  0.176768  1
  O  O14  1  0.869326  0.175585  0.599265  1
  O  O15  1  0.130674  0.824415  0.400735  1
