# generated using pymatgen
data_U2SnRh2
_symmetry_space_group_name_H-M   'P 1'
_cell_length_a   3.58849141
_cell_length_b   7.64588846
_cell_length_c   7.64582012
_cell_angle_alpha   90.00551179
_cell_angle_beta   89.99826264
_cell_angle_gamma   90.00197657
_symmetry_Int_Tables_number   1
_chemical_formula_structural   U2SnRh2
_chemical_formula_sum   'U4 Sn2 Rh4'
_cell_volume   209.77993334
_cell_formula_units_Z   2
loop_
 _symmetry_equiv_pos_site_id
 _symmetry_equiv_pos_as_xyz
  1  'x, y, z'
loop_
 _atom_site_type_symbol
 _atom_site_label
 _atom_site_symmetry_multiplicity
 _atom_site_fract_x
 _atom_site_fract_y
 _atom_site_fract_z
 _atom_site_occupancy
  U  U0  1  0.499989  0.668686  0.831314  1
  U  U1  1  0.499983  0.331313  0.168695  1
  U  U2  1  0.500009  0.831287  0.331286  1
  U  U3  1  0.500005  0.168738  0.668745  1
  Sn  Sn4  1  -0.000001  0.999997  -0.000001  1
  Sn  Sn5  1  0.000001  0.499997  0.499992  1
  Rh  Rh6  1  0.000012  0.364418  0.864383  1
  Rh  Rh7  1  0.000005  0.135554  0.364384  1
  Rh  Rh8  1  0.000022  0.635650  0.135613  1
  Rh  Rh9  1  0.999975  0.864362  0.635589  1
