# generated using pymatgen
data_KLaCO4
_symmetry_space_group_name_H-M   'P 1'
_cell_length_a   5.95792942
_cell_length_b   5.92530882
_cell_length_c   16.61528961
_cell_angle_alpha   89.74406658
_cell_angle_beta   90.05775152
_cell_angle_gamma   89.80000191
_symmetry_Int_Tables_number   1
_chemical_formula_structural   KLaCO4
_chemical_formula_sum   'K4 La4 C4 O16'
_cell_volume   586.55272109
_cell_formula_units_Z   4
loop_
 _symmetry_equiv_pos_site_id
 _symmetry_equiv_pos_as_xyz
  1  'x, y, z'
loop_
 _atom_site_type_symbol
 _atom_site_label
 _atom_site_symmetry_multiplicity
 _atom_site_fract_x
 _atom_site_fract_y
 _atom_site_fract_z
 _atom_site_occupancy
  K  K0  1  -0.000613  0.250042  0.424157  1
  K  K1  1  0.999608  0.749526  0.577029  1
  K  K2  1  0.499863  0.249517  0.576946  1
  K  K3  1  0.498996  0.749164  0.423241  1
  La  La4  1  -0.000918  0.749311  0.927902  1
  La  La5  1  0.998821  0.248138  0.071669  1
  La  La6  1  0.498490  0.249991  0.928072  1
  La  La7  1  0.499499  0.748688  0.071536  1
  C  C8  1  0.000602  0.250087  0.237770  1
  C  C9  1  0.000784  0.751081  0.761859  1
  C  C10  1  0.501272  0.754864  0.237572  1
  C  C11  1  0.501443  0.247969  0.762056  1
  O  O12  1  0.499913  0.749954  0.577398  1
  O  O13  1  0.499654  0.249521  0.423272  1
  O  O14  1  0.374943  0.610030  0.205025  1
  O  O15  1  0.875110  0.395107  0.203853  1
  O  O16  1  0.120378  0.600922  0.795496  1
  O  O17  1  0.626236  0.897828  0.203140  1
  O  O18  1  0.248807  0.489802  0.000897  1
  O  O19  1  0.249068  0.989966  -0.000730  1
  O  O20  1  0.620156  0.397582  0.795528  1
  O  O21  1  0.382516  0.098187  0.795776  1
  O  O22  1  0.999370  0.749690  0.423510  1
  O  O23  1  0.748935  0.008163  -0.000130  1
  O  O24  1  0.000040  0.250127  0.578163  1
  O  O25  1  0.881589  0.901175  0.795394  1
  O  O26  1  0.749006  0.508127  -0.000764  1
  O  O27  1  0.126434  0.105441  0.204364  1
