# generated using pymatgen
data_LiMgSO4F
_symmetry_space_group_name_H-M   'P 1'
_cell_length_a   5.30910558
_cell_length_b   6.40285181
_cell_length_c   6.98828223
_cell_angle_alpha   108.42917527
_cell_angle_beta   106.68849229
_cell_angle_gamma   101.62983563
_symmetry_Int_Tables_number   1
_chemical_formula_structural   LiMgSO4F
_chemical_formula_sum   'Li2 Mg2 S2 O8 F2'
_cell_volume   204.40214200
_cell_formula_units_Z   2
loop_
 _symmetry_equiv_pos_site_id
 _symmetry_equiv_pos_as_xyz
  1  'x, y, z'
loop_
 _atom_site_type_symbol
 _atom_site_label
 _atom_site_symmetry_multiplicity
 _atom_site_fract_x
 _atom_site_fract_y
 _atom_site_fract_z
 _atom_site_occupancy
  Li  Li0  1  0.252739  0.685385  0.837583  1
  Li  Li1  1  0.747261  0.314615  0.162417  1
  Mg  Mg2  1  0.000000  0.000000  0.000000  1
  Mg  Mg3  1  0.000000  0.000000  0.500000  1
  S  S4  1  0.416881  0.545920  0.361285  1
  S  S5  1  0.583119  0.454080  0.638715  1
  O  O6  1  0.165381  0.595926  0.377011  1
  O  O7  1  0.226895  0.823896  0.114339  1
  O  O8  1  0.351294  0.262974  0.607351  1
  O  O9  1  0.365457  0.334637  0.169064  1
  O  O10  1  0.634543  0.665363  0.830936  1
  O  O11  1  0.648706  0.737026  0.392649  1
  O  O12  1  0.773105  0.176104  0.885661  1
  O  O13  1  0.834619  0.404074  0.622989  1
  F  F14  1  0.136521  0.926817  0.751850  1
  F  F15  1  0.863479  0.073183  0.248150  1
