# generated using pymatgen
data_PtXeF11
_symmetry_space_group_name_H-M   'P 1'
_cell_length_a   5.80144305
_cell_length_b   8.37051941
_cell_length_c   17.11380235
_cell_angle_alpha   90.00000000
_cell_angle_beta   90.00000000
_cell_angle_gamma   90.00000000
_symmetry_Int_Tables_number   1
_chemical_formula_structural   PtXeF11
_chemical_formula_sum   'Pt4 Xe4 F44'
_cell_volume   831.06492450
_cell_formula_units_Z   4
loop_
 _symmetry_equiv_pos_site_id
 _symmetry_equiv_pos_as_xyz
  1  'x, y, z'
loop_
 _atom_site_type_symbol
 _atom_site_label
 _atom_site_symmetry_multiplicity
 _atom_site_fract_x
 _atom_site_fract_y
 _atom_site_fract_z
 _atom_site_occupancy
  Pt  Pt0  1  0.281537  0.250000  0.959928  1
  Pt  Pt1  1  0.718463  0.750000  0.040072  1
  Pt  Pt2  1  0.781537  0.750000  0.540072  1
  Pt  Pt3  1  0.218463  0.250000  0.459928  1
  Xe  Xe4  1  0.695117  0.250000  0.650772  1
  Xe  Xe5  1  0.304883  0.750000  0.349228  1
  Xe  Xe6  1  0.195117  0.750000  0.849228  1
  Xe  Xe7  1  0.804883  0.250000  0.150772  1
  F  F8  1  0.388840  0.750000  0.236738  1
  F  F9  1  0.888840  0.250000  0.263262  1
  F  F10  1  0.111160  0.750000  0.736738  1
  F  F11  1  0.022591  0.750000  0.989599  1
  F  F12  1  0.547152  0.917388  0.351441  1
  F  F13  1  0.414651  0.585108  0.811421  1
  F  F14  1  0.930871  0.750000  0.437023  1
  F  F15  1  0.452848  0.082612  0.648559  1
  F  F16  1  0.477409  0.750000  0.489599  1
  F  F17  1  0.952848  0.582612  0.851441  1
  F  F18  1  0.633888  0.750000  0.639645  1
  F  F19  1  0.914651  0.085108  0.688579  1
  F  F20  1  0.133888  0.250000  0.860355  1
  F  F21  1  0.927872  0.250000  0.408475  1
  F  F22  1  0.219436  0.479365  0.461875  1
  F  F23  1  0.280564  0.020635  0.961875  1
  F  F24  1  0.719436  0.979365  0.038125  1
  F  F25  1  0.547152  0.582612  0.351441  1
  F  F26  1  0.585349  0.085108  0.188579  1
  F  F27  1  0.085349  0.914892  0.311421  1
  F  F28  1  0.522591  0.250000  0.510401  1
  F  F29  1  0.047152  0.082612  0.148559  1
  F  F30  1  0.780564  0.520635  0.538125  1
  F  F31  1  0.047152  0.417388  0.148559  1
  F  F32  1  0.430871  0.250000  0.062977  1
  F  F33  1  0.572128  0.250000  0.908475  1
  F  F34  1  0.585349  0.414892  0.188579  1
  F  F35  1  0.452848  0.417388  0.648559  1
  F  F36  1  0.952848  0.917388  0.851441  1
  F  F37  1  0.414651  0.914892  0.811421  1
  F  F38  1  0.611160  0.250000  0.763262  1
  F  F39  1  0.719436  0.520635  0.038125  1
  F  F40  1  0.427872  0.750000  0.091525  1
  F  F41  1  0.569129  0.750000  0.937023  1
  F  F42  1  0.069129  0.250000  0.562977  1
  F  F43  1  0.085349  0.585108  0.311421  1
  F  F44  1  0.780564  0.979365  0.538125  1
  F  F45  1  0.366112  0.250000  0.360355  1
  F  F46  1  0.977409  0.250000  0.010401  1
  F  F47  1  0.219436  0.020635  0.461875  1
  F  F48  1  0.072128  0.750000  0.591525  1
  F  F49  1  0.280564  0.479365  0.961875  1
  F  F50  1  0.866112  0.750000  0.139645  1
  F  F51  1  0.914651  0.414892  0.688579  1
