# generated using pymatgen
data_GdAs2Pd3
_symmetry_space_group_name_H-M   'P 1'
_cell_length_a   4.00476631
_cell_length_b   8.40691535
_cell_length_c   9.74983785
_cell_angle_alpha   107.36684320
_cell_angle_beta   90.00000000
_cell_angle_gamma   103.77931613
_symmetry_Int_Tables_number   1
_chemical_formula_structural   GdAs2Pd3
_chemical_formula_sum   'Gd3 As6 Pd9'
_cell_volume   303.37815031
_cell_formula_units_Z   3
loop_
 _symmetry_equiv_pos_site_id
 _symmetry_equiv_pos_as_xyz
  1  'x, y, z'
loop_
 _atom_site_type_symbol
 _atom_site_label
 _atom_site_symmetry_multiplicity
 _atom_site_fract_x
 _atom_site_fract_y
 _atom_site_fract_z
 _atom_site_occupancy
  Gd  Gd0  1  0.844900  0.689799  0.298471  1
  Gd  Gd1  1  0.000000  0.000000  0.000000  1
  Gd  Gd2  1  0.155100  0.310201  0.701529  1
  As  As3  1  0.636155  0.272309  0.454537  1
  As  As4  1  0.460364  0.920729  0.213382  1
  As  As5  1  0.199076  0.398152  0.132117  1
  As  As6  1  0.363845  0.727691  0.545463  1
  As  As7  1  0.800924  0.601848  0.867883  1
  As  As8  1  0.539636  0.079271  0.786618  1
  Pd  Pd9  1  0.319749  0.639498  0.032791  1
  Pd  Pd10  1  0.042980  0.085961  0.331085  1
  Pd  Pd11  1  0.778636  0.557272  0.609115  1
  Pd  Pd12  1  0.680251  0.360502  0.967209  1
  Pd  Pd13  1  0.621687  0.243374  0.198239  1
  Pd  Pd14  1  0.378313  0.756626  0.801761  1
  Pd  Pd15  1  0.957020  0.914039  0.668915  1
  Pd  Pd16  1  0.500000  0.000000  0.500000  1
  Pd  Pd17  1  0.221364  0.442728  0.390885  1
