# generated using pymatgen
data_CuH12C5S4N
_symmetry_space_group_name_H-M   'P 1'
_cell_length_a   11.05647725
_cell_length_b   11.56196914
_cell_length_c   16.90858312
_cell_angle_alpha   90.00000000
_cell_angle_beta   90.00000000
_cell_angle_gamma   90.00000000
_symmetry_Int_Tables_number   1
_chemical_formula_structural   CuH12C5S4N
_chemical_formula_sum   'Cu8 H96 C40 S32 N8'
_cell_volume   2161.50278420
_cell_formula_units_Z   8
loop_
 _symmetry_equiv_pos_site_id
 _symmetry_equiv_pos_as_xyz
  1  'x, y, z'
loop_
 _atom_site_type_symbol
 _atom_site_label
 _atom_site_symmetry_multiplicity
 _atom_site_fract_x
 _atom_site_fract_y
 _atom_site_fract_z
 _atom_site_occupancy
  Cu  Cu0  1  0.436431  0.107271  0.492839  1
  Cu  Cu1  1  0.436431  0.392729  0.992839  1
  Cu  Cu2  1  0.936431  0.107271  0.007161  1
  Cu  Cu3  1  0.563569  0.892729  0.507161  1
  Cu  Cu4  1  0.936431  0.392729  0.507161  1
  Cu  Cu5  1  0.063569  0.607271  0.492839  1
  Cu  Cu6  1  0.563569  0.607271  0.007161  1
  Cu  Cu7  1  0.063569  0.892729  0.992839  1
  H  H8  1  0.082258  0.891726  0.221983  1
  H  H9  1  0.426764  0.744282  0.176629  1
  H  H10  1  0.180449  0.955523  0.695087  1
  H  H11  1  0.874774  0.326931  0.184573  1
  H  H12  1  0.319551  0.044477  0.195087  1
  H  H13  1  0.703434  0.164487  0.825703  1
  H  H14  1  0.018620  0.635473  0.930870  1
  H  H15  1  0.426764  0.755718  0.676629  1
  H  H16  1  0.623237  0.440875  0.429382  1
  H  H17  1  0.016539  0.480243  0.919146  1
  H  H18  1  0.983460  0.519757  0.080854  1
  H  H19  1  0.296566  0.835513  0.174297  1
  H  H20  1  0.407569  0.480411  0.783570  1
  H  H21  1  0.926764  0.744282  0.323371  1
  H  H22  1  0.417742  0.391726  0.221983  1
  H  H23  1  0.518620  0.864527  0.069130  1
  H  H24  1  0.968292  0.105101  0.296395  1
  H  H25  1  0.296566  0.664487  0.674297  1
  H  H26  1  0.983460  0.980243  0.580854  1
  H  H27  1  0.643747  0.980158  0.199477  1
  H  H28  1  0.073236  0.244282  0.176629  1
  H  H29  1  0.468292  0.394899  0.703605  1
  H  H30  1  0.680449  0.955523  0.804913  1
  H  H31  1  0.125226  0.673069  0.815427  1
  H  H32  1  0.483461  0.519757  0.419146  1
  H  H33  1  0.376763  0.940875  0.070618  1
  H  H34  1  0.876763  0.940875  0.429382  1
  H  H35  1  0.703434  0.335513  0.325703  1
  H  H36  1  0.968292  0.394899  0.796395  1
  H  H37  1  0.374774  0.173069  0.815427  1
  H  H38  1  0.031708  0.894899  0.703605  1
  H  H39  1  0.031708  0.605101  0.203605  1
  H  H40  1  0.625226  0.673069  0.684573  1
  H  H41  1  0.143747  0.980158  0.300523  1
  H  H42  1  0.180449  0.544477  0.195087  1
  H  H43  1  0.468292  0.105101  0.203605  1
  H  H44  1  0.481380  0.135473  0.930870  1
  H  H45  1  0.592431  0.519589  0.216430  1
  H  H46  1  0.016539  0.019757  0.419146  1
  H  H47  1  0.796566  0.835513  0.325703  1
  H  H48  1  0.625226  0.826931  0.184573  1
  H  H49  1  0.874774  0.173069  0.684573  1
  H  H50  1  0.407569  0.019589  0.283570  1
  H  H51  1  0.877968  0.814742  0.233538  1
  H  H52  1  0.926764  0.755718  0.823371  1
  H  H53  1  0.531708  0.605101  0.296395  1
  H  H54  1  0.907569  0.019589  0.216430  1
  H  H55  1  0.143747  0.519842  0.800524  1
  H  H56  1  0.122032  0.185258  0.766462  1
  H  H57  1  0.819551  0.044477  0.304913  1
  H  H58  1  0.092431  0.980411  0.783570  1
  H  H59  1  0.877968  0.685258  0.733538  1
  H  H60  1  0.374774  0.326931  0.315427  1
  H  H61  1  0.123237  0.059125  0.570618  1
  H  H62  1  0.122032  0.314742  0.266462  1
  H  H63  1  0.623237  0.059125  0.929382  1
  H  H64  1  0.622032  0.314742  0.233538  1
  H  H65  1  0.123237  0.440875  0.070618  1
  H  H66  1  0.796566  0.664487  0.825703  1
  H  H67  1  0.518620  0.635473  0.569130  1
  H  H68  1  0.876763  0.559125  0.929382  1
  H  H69  1  0.917742  0.391726  0.278017  1
  H  H70  1  0.377968  0.685258  0.766462  1
  H  H71  1  0.483461  0.980243  0.919146  1
  H  H72  1  0.376763  0.559125  0.570618  1
  H  H73  1  0.356253  0.480158  0.300523  1
  H  H74  1  0.819551  0.455523  0.804913  1
  H  H75  1  0.073236  0.255718  0.676629  1
  H  H76  1  0.203434  0.164487  0.674297  1
  H  H77  1  0.573236  0.244282  0.323371  1
  H  H78  1  0.917742  0.108274  0.778017  1
  H  H79  1  0.981380  0.135473  0.569130  1
  H  H80  1  0.680449  0.544477  0.304913  1
  H  H81  1  0.203434  0.335513  0.174297  1
  H  H82  1  0.531708  0.894899  0.796395  1
  H  H83  1  0.125226  0.826931  0.315427  1
  H  H84  1  0.319551  0.455523  0.695087  1
  H  H85  1  0.582258  0.608274  0.778017  1
  H  H86  1  0.643747  0.519842  0.699476  1
  H  H87  1  0.516540  0.480243  0.580854  1
  H  H88  1  0.018620  0.864527  0.430870  1
  H  H89  1  0.622032  0.185258  0.733538  1
  H  H90  1  0.082258  0.608274  0.721983  1
  H  H91  1  0.356253  0.019842  0.800524  1
  H  H92  1  0.417742  0.108274  0.721983  1
  H  H93  1  0.907569  0.480411  0.716430  1
  H  H94  1  0.856253  0.019842  0.699476  1
  H  H95  1  0.592431  0.980411  0.716430  1
  H  H96  1  0.981380  0.364527  0.069130  1
  H  H97  1  0.582258  0.891726  0.278017  1
  H  H98  1  0.092431  0.519589  0.283570  1
  H  H99  1  0.377968  0.814742  0.266462  1
  H  H100  1  0.573236  0.255718  0.823371  1
  H  H101  1  0.516540  0.019757  0.080854  1
  H  H102  1  0.856253  0.480158  0.199477  1
  H  H103  1  0.481380  0.364527  0.430870  1
  C  C104  1  0.410753  0.031241  0.219245  1
  C  C105  1  0.322256  0.753430  0.450693  1
  C  C106  1  0.177744  0.246570  0.950693  1
  C  C107  1  0.469307  0.561479  0.593876  1
  C  C108  1  0.822256  0.753430  0.049307  1
  C  C109  1  0.885227  0.677706  0.798149  1
  C  C110  1  0.411854  0.404253  0.286263  1
  C  C111  1  0.530693  0.061479  0.906124  1
  C  C112  1  0.588146  0.904254  0.213737  1
  C  C113  1  0.885227  0.822294  0.298149  1
  C  C114  1  0.088146  0.904254  0.286263  1
  C  C115  1  0.114773  0.177706  0.701851  1
  C  C116  1  0.910753  0.468759  0.780755  1
  C  C117  1  0.969307  0.561479  0.906124  1
  C  C118  1  0.385227  0.677706  0.701851  1
  C  C119  1  0.410753  0.468759  0.719245  1
  C  C120  1  0.677744  0.246570  0.549307  1
  C  C121  1  0.614773  0.322294  0.298149  1
  C  C122  1  0.411854  0.095746  0.786263  1
  C  C123  1  0.089247  0.968759  0.719245  1
  C  C124  1  0.177744  0.253430  0.450693  1
  C  C125  1  0.969307  0.938521  0.406124  1
  C  C126  1  0.530693  0.438521  0.406124  1
  C  C127  1  0.089247  0.531241  0.219245  1
  C  C128  1  0.677744  0.253430  0.049307  1
  C  C129  1  0.910753  0.031241  0.280755  1
  C  C130  1  0.911854  0.095746  0.713737  1
  C  C131  1  0.030693  0.438521  0.093876  1
  C  C132  1  0.822256  0.746570  0.549307  1
  C  C133  1  0.030693  0.061479  0.593876  1
  C  C134  1  0.469307  0.938521  0.093876  1
  C  C135  1  0.322256  0.746570  0.950693  1
  C  C136  1  0.088146  0.595746  0.786263  1
  C  C137  1  0.614773  0.177706  0.798149  1
  C  C138  1  0.588146  0.595746  0.713737  1
  C  C139  1  0.114773  0.322294  0.201851  1
  C  C140  1  0.385227  0.822294  0.201851  1
  C  C141  1  0.911854  0.404253  0.213737  1
  C  C142  1  0.589247  0.968759  0.780755  1
  C  C143  1  0.589247  0.531241  0.280755  1
  S  S144  1  0.533431  0.273265  0.080728  1
  S  S145  1  0.615852  0.055169  0.425734  1
  S  S146  1  0.275015  0.346521  0.910172  1
  S  S147  1  0.384148  0.555169  0.074266  1
  S  S148  1  0.275015  0.153479  0.410172  1
  S  S149  1  0.966569  0.726735  0.580728  1
  S  S150  1  0.240876  0.170143  0.028960  1
  S  S151  1  0.759124  0.670143  0.471040  1
  S  S152  1  0.224985  0.846521  0.910172  1
  S  S153  1  0.259124  0.829857  0.528960  1
  S  S154  1  0.775015  0.153479  0.089828  1
  S  S155  1  0.466569  0.726735  0.919272  1
  S  S156  1  0.884148  0.555169  0.425734  1
  S  S157  1  0.240876  0.329857  0.528960  1
  S  S158  1  0.384148  0.944831  0.574266  1
  S  S159  1  0.115852  0.055169  0.074266  1
  S  S160  1  0.259124  0.670143  0.028960  1
  S  S161  1  0.224985  0.653479  0.410172  1
  S  S162  1  0.740876  0.170143  0.471040  1
  S  S163  1  0.775015  0.346521  0.589828  1
  S  S164  1  0.033431  0.273265  0.419272  1
  S  S165  1  0.740876  0.329857  0.971040  1
  S  S166  1  0.759124  0.829857  0.971040  1
  S  S167  1  0.966569  0.773265  0.080728  1
  S  S168  1  0.533431  0.226735  0.580728  1
  S  S169  1  0.615852  0.444831  0.925734  1
  S  S170  1  0.033431  0.226735  0.919272  1
  S  S171  1  0.724985  0.846521  0.589828  1
  S  S172  1  0.884148  0.944831  0.925734  1
  S  S173  1  0.115852  0.444831  0.574266  1
  S  S174  1  0.466569  0.773265  0.419272  1
  S  S175  1  0.724985  0.653479  0.089828  1
  N  N176  1  0.463270  0.575632  0.682321  1
  N  N177  1  0.963270  0.924368  0.317679  1
  N  N178  1  0.463270  0.924368  0.182321  1
  N  N179  1  0.536730  0.075632  0.817679  1
  N  N180  1  0.036730  0.075632  0.682321  1
  N  N181  1  0.536730  0.424368  0.317679  1
  N  N182  1  0.036730  0.424368  0.182321  1
  N  N183  1  0.963270  0.575632  0.817679  1
