# generated using pymatgen
data_H8PtO6
_symmetry_space_group_name_H-M   'P 1'
_cell_length_a   5.67878182
_cell_length_b   5.56104076
_cell_length_c   7.34468567
_cell_angle_alpha   85.14284696
_cell_angle_beta   90.77982336
_cell_angle_gamma   98.62049862
_symmetry_Int_Tables_number   1
_chemical_formula_structural   H8PtO6
_chemical_formula_sum   'H16 Pt2 O12'
_cell_volume   228.50076315
_cell_formula_units_Z   2
loop_
 _symmetry_equiv_pos_site_id
 _symmetry_equiv_pos_as_xyz
  1  'x, y, z'
loop_
 _atom_site_type_symbol
 _atom_site_label
 _atom_site_symmetry_multiplicity
 _atom_site_fract_x
 _atom_site_fract_y
 _atom_site_fract_z
 _atom_site_occupancy
  H  H0  1  0.113200  0.611063  0.845028  1
  H  H1  1  0.833485  0.474292  0.841029  1
  H  H2  1  0.619349  0.135745  0.643214  1
  H  H3  1  0.741175  0.891985  0.743644  1
  H  H4  1  0.089131  0.246543  0.250770  1
  H  H5  1  0.171021  0.530104  0.150669  1
  H  H6  1  0.522469  0.150040  0.333849  1
  H  H7  1  0.377899  0.867823  0.350661  1
  H  H8  1  0.439643  0.537868  0.001507  1
  H  H9  1  0.544811  0.436658  0.512634  1
  H  H10  1  0.769244  0.378209  0.085617  1
  H  H11  1  0.394250  0.754103  0.592273  1
  H  H12  1  0.054455  0.028934  0.983523  1
  H  H13  1  0.151958  0.164266  0.712960  1
  H  H14  1  0.824517  0.853679  0.211863  1
  H  H15  1  0.973044  0.946716  0.484872  1
  Pt  Pt16  1  0.002297  0.498530  0.505345  1
  Pt  Pt17  1  0.499327  -0.000024  0.004929  1
  O  O18  1  0.964798  0.593923  0.764286  1
  O  O19  1  0.590135  0.961609  0.741426  1
  O  O20  1  0.035412  0.408929  0.242141  1
  O  O21  1  0.404098  0.037652  0.265189  1
  O  O22  1  0.317384  0.649059  0.016421  1
  O  O23  1  0.659457  0.314892  0.512413  1
  O  O24  1  0.658564  0.353370  0.981354  1
  O  O25  1  0.344814  0.664710  0.483904  1
  O  O26  1  0.198102  0.134169  0.923908  1
  O  O27  1  0.124024  0.180597  0.575440  1
  O  O28  1  0.808763  0.877265  0.074020  1
  O  O29  1  0.870409  0.810101  0.426108  1
