# generated using pymatgen
data_NiSeO3
_symmetry_space_group_name_H-M   'P 1'
_cell_length_a   9.30712526
_cell_length_b   9.30712547
_cell_length_c   14.92818357
_cell_angle_alpha   72.67401900
_cell_angle_beta   72.67401863
_cell_angle_gamma   64.59910053
_symmetry_Int_Tables_number   1
_chemical_formula_structural   NiSeO3
_chemical_formula_sum   'Ni16 Se16 O48'
_cell_volume   1093.20864549
_cell_formula_units_Z   16
loop_
 _symmetry_equiv_pos_site_id
 _symmetry_equiv_pos_as_xyz
  1  'x, y, z'
loop_
 _atom_site_type_symbol
 _atom_site_label
 _atom_site_symmetry_multiplicity
 _atom_site_fract_x
 _atom_site_fract_y
 _atom_site_fract_z
 _atom_site_occupancy
  Ni  Ni0  1  0.953227  0.185285  0.466074  1
  Ni  Ni1  1  0.410009  0.122335  0.417046  1
  Ni  Ni2  1  0.317133  0.131570  0.758180  1
  Ni  Ni3  1  0.375894  0.104003  0.089662  1
  Ni  Ni4  1  0.682867  0.868430  0.241820  1
  Ni  Ni5  1  0.104003  0.375894  0.589662  1
  Ni  Ni6  1  0.131570  0.317133  0.258180  1
  Ni  Ni7  1  0.877665  0.589991  0.082954  1
  Ni  Ni8  1  0.814715  0.046773  0.033926  1
  Ni  Ni9  1  0.589991  0.877665  0.582954  1
  Ni  Ni10  1  0.895997  0.624106  0.410338  1
  Ni  Ni11  1  0.046773  0.814715  0.533926  1
  Ni  Ni12  1  0.624106  0.895997  0.910338  1
  Ni  Ni13  1  0.868430  0.682867  0.741820  1
  Ni  Ni14  1  0.122335  0.410009  0.917046  1
  Ni  Ni15  1  0.185285  0.953227  0.966074  1
  Se  Se16  1  0.200875  0.969112  0.635963  1
  Se  Se17  1  0.705271  0.066626  0.649452  1
  Se  Se18  1  0.294729  0.933374  0.350548  1
  Se  Se19  1  0.755876  0.491082  0.603463  1
  Se  Se20  1  0.799125  0.030888  0.364037  1
  Se  Se21  1  0.030888  0.799125  0.864037  1
  Se  Se22  1  0.933374  0.294729  0.850548  1
  Se  Se23  1  0.522041  0.287462  0.181466  1
  Se  Se24  1  0.244124  0.508918  0.396537  1
  Se  Se25  1  0.712538  0.477959  0.318534  1
  Se  Se26  1  0.969112  0.200875  0.135963  1
  Se  Se27  1  0.066626  0.705271  0.149452  1
  Se  Se28  1  0.287462  0.522041  0.681466  1
  Se  Se29  1  0.491082  0.755876  0.103463  1
  Se  Se30  1  0.508918  0.244124  0.896537  1
  Se  Se31  1  0.477959  0.712538  0.818534  1
  O  O32  1  0.063593  0.517313  0.153531  1
  O  O33  1  0.715736  0.512949  0.198940  1
  O  O34  1  0.808395  0.864540  0.619049  1
  O  O35  1  0.325135  0.295053  0.976359  1
  O  O36  1  0.295053  0.325135  0.476359  1
  O  O37  1  0.122506  0.497595  0.331997  1
  O  O38  1  0.365770  0.971085  0.545090  1
  O  O39  1  0.608797  0.076205  0.981741  1
  O  O40  1  0.864540  0.808395  0.119049  1
  O  O41  1  0.391203  0.923795  0.018259  1
  O  O42  1  0.674865  0.704947  0.023641  1
  O  O43  1  0.502405  0.877494  0.168003  1
  O  O44  1  0.852408  0.854088  0.824800  1
  O  O45  1  0.028915  0.634230  0.954910  1
  O  O46  1  0.638961  0.753997  0.823732  1
  O  O47  1  0.956283  0.983881  0.421165  1
  O  O48  1  0.076205  0.608797  0.481741  1
  O  O49  1  0.099712  0.676172  0.666329  1
  O  O50  1  0.971085  0.365770  0.045090  1
  O  O51  1  0.487051  0.284264  0.301060  1
  O  O52  1  0.512949  0.715736  0.698940  1
  O  O53  1  0.877494  0.502405  0.668003  1
  O  O54  1  0.634230  0.028915  0.454910  1
  O  O55  1  0.900288  0.323828  0.333671  1
  O  O56  1  0.043717  0.016119  0.578835  1
  O  O57  1  0.284264  0.487051  0.801060  1
  O  O58  1  0.361039  0.246003  0.176268  1
  O  O59  1  0.482687  0.936407  0.346469  1
  O  O60  1  0.273861  0.794553  0.452705  1
  O  O61  1  0.676172  0.099712  0.166329  1
  O  O62  1  0.923795  0.391203  0.518259  1
  O  O63  1  0.205447  0.726139  0.047295  1
  O  O64  1  0.323828  0.900288  0.833671  1
  O  O65  1  0.145912  0.147592  0.675200  1
  O  O66  1  0.246003  0.361039  0.676268  1
  O  O67  1  0.854088  0.852408  0.324800  1
  O  O68  1  0.147592  0.145912  0.175200  1
  O  O69  1  0.753997  0.638961  0.323732  1
  O  O70  1  0.517313  0.063593  0.653531  1
  O  O71  1  0.191605  0.135460  0.380951  1
  O  O72  1  0.016119  0.043717  0.078835  1
  O  O73  1  0.497595  0.122506  0.831997  1
  O  O74  1  0.135460  0.191605  0.880951  1
  O  O75  1  0.794553  0.273861  0.952705  1
  O  O76  1  0.704947  0.674865  0.523641  1
  O  O77  1  0.983881  0.956283  0.921165  1
  O  O78  1  0.936407  0.482687  0.846469  1
  O  O79  1  0.726139  0.205447  0.547295  1
