# generated using pymatgen
data_Fe2Os(CO)12
_symmetry_space_group_name_H-M   'P 1'
_cell_length_a   8.25202594
_cell_length_b   8.89755369
_cell_length_c   22.36156640
_cell_angle_alpha   90.00000000
_cell_angle_beta   90.00000000
_cell_angle_gamma   96.14808337
_symmetry_Int_Tables_number   1
_chemical_formula_structural   Fe2Os(CO)12
_chemical_formula_sum   'Fe8 Os4 C48 O48'
_cell_volume   1632.40656188
_cell_formula_units_Z   4
loop_
 _symmetry_equiv_pos_site_id
 _symmetry_equiv_pos_as_xyz
  1  'x, y, z'
loop_
 _atom_site_type_symbol
 _atom_site_label
 _atom_site_symmetry_multiplicity
 _atom_site_fract_x
 _atom_site_fract_y
 _atom_site_fract_z
 _atom_site_occupancy
  Fe  Fe0  1  0.269869  0.250205  0.864840  1
  Fe  Fe1  1  0.369983  0.441731  0.358397  1
  Fe  Fe2  1  0.059538  0.713695  0.097324  1
  Fe  Fe3  1  0.769869  0.750205  0.135160  1
  Fe  Fe4  1  0.666320  0.381883  0.374505  1
  Fe  Fe5  1  0.559538  0.213695  0.902676  1
  Fe  Fe6  1  0.166320  0.881883  0.625495  1
  Fe  Fe7  1  0.869983  0.941731  0.641603  1
  Os  Os8  1  0.417585  0.145384  0.388049  1
  Os  Os9  1  0.001483  0.001567  0.134653  1
  Os  Os10  1  0.917585  0.645384  0.611951  1
  Os  Os11  1  0.501483  0.501567  0.865347  1
  C  C12  1  0.649000  0.877336  0.097125  1
  C  C13  1  0.265121  0.743894  0.666203  1
  C  C14  1  0.213793  0.429649  0.413947  1
  C  C15  1  0.541316  0.982091  0.405769  1
  C  C16  1  0.765121  0.243894  0.333797  1
  C  C17  1  0.211351  0.115262  0.129993  1
  C  C18  1  0.713793  0.929649  0.586053  1
  C  C19  1  0.905339  0.706560  0.528217  1
  C  C20  1  0.935420  0.607752  0.697787  1
  C  C21  1  0.227741  0.745161  0.148326  1
  C  C22  1  0.041316  0.482091  0.594231  1
  C  C23  1  0.435420  0.107752  0.302213  1
  C  C24  1  0.931240  0.641843  0.173638  1
  C  C25  1  0.453566  0.536034  0.949559  1
  C  C26  1  0.703346  0.540269  0.607304  1
  C  C27  1  0.377248  0.659912  0.841709  1
  C  C28  1  0.405339  0.206560  0.471783  1
  C  C29  1  0.816396  0.538829  0.361371  1
  C  C30  1  0.953566  0.036034  0.050441  1
  C  C31  1  0.431240  0.141843  0.826362  1
  C  C32  1  0.149000  0.377336  0.902875  1
  C  C33  1  0.244631  0.358422  0.298656  1
  C  C34  1  0.736269  0.329124  0.446911  1
  C  C35  1  0.081313  0.522109  0.079715  1
  C  C36  1  0.708879  0.796486  0.209189  1
  C  C37  1  0.040682  0.945146  0.217371  1
  C  C38  1  0.164405  0.794573  0.032713  1
  C  C39  1  0.581313  0.022109  0.920285  1
  C  C40  1  0.349018  0.631617  0.338015  1
  C  C41  1  0.208879  0.296486  0.790811  1
  C  C42  1  0.556015  0.428866  0.300560  1
  C  C43  1  0.540682  0.445146  0.782629  1
  C  C44  1  0.727741  0.245161  0.851674  1
  C  C45  1  0.522227  0.504629  0.423811  1
  C  C46  1  0.849018  0.131617  0.661985  1
  C  C47  1  0.628482  0.584690  0.126087  1
  C  C48  1  0.022227  0.004629  0.576189  1
  C  C49  1  0.877248  0.159912  0.158291  1
  C  C50  1  0.128482  0.084690  0.873912  1
  C  C51  1  0.664405  0.294573  0.967287  1
  C  C52  1  0.861038  0.710102  0.051302  1
  C  C53  1  0.316395  0.038829  0.638629  1
  C  C54  1  0.203346  0.040269  0.392696  1
  C  C55  1  0.711351  0.615262  0.870007  1
  C  C56  1  0.361038  0.210102  0.948698  1
  C  C57  1  0.236269  0.829124  0.553089  1
  C  C58  1  0.056015  0.928866  0.699440  1
  C  C59  1  0.744631  0.858422  0.701344  1
  O  O60  1  0.783070  0.300140  0.494059  1
  O  O61  1  0.283070  0.800140  0.505941  1
  O  O62  1  0.595853  0.897185  0.931409  1
  O  O63  1  0.960428  0.570182  0.216047  1
  O  O64  1  0.567043  0.417463  0.733154  1
  O  O65  1  0.839201  0.683304  0.870059  1
  O  O66  1  0.339201  0.183304  0.129941  1
  O  O67  1  0.562285  0.953821  0.073712  1
  O  O68  1  0.336516  0.657272  0.691204  1
  O  O69  1  0.446143  0.080143  0.251808  1
  O  O70  1  0.167347  0.320633  0.742510  1
  O  O71  1  0.827766  0.253732  0.675347  1
  O  O72  1  0.916621  0.636934  0.351784  1
  O  O73  1  0.078190  0.946276  0.751279  1
  O  O74  1  0.836516  0.157272  0.308796  1
  O  O75  1  0.946143  0.580143  0.748192  1
  O  O76  1  0.610041  0.931526  0.551006  1
  O  O77  1  0.299681  0.756843  0.829114  1
  O  O78  1  0.340056  0.758313  0.180096  1
  O  O79  1  0.062285  0.453821  0.926288  1
  O  O80  1  0.416621  0.136934  0.648216  1
  O  O81  1  0.231585  0.838968  0.989583  1
  O  O82  1  0.327766  0.753732  0.324653  1
  O  O83  1  0.118841  0.383160  0.584841  1
  O  O84  1  0.840056  0.258313  0.819904  1
  O  O85  1  0.161395  0.311249  0.259570  1
  O  O86  1  0.304250  0.192011  0.996995  1
  O  O87  1  0.034088  0.980702  0.880914  1
  O  O88  1  0.424574  0.563243  0.998893  1
  O  O89  1  0.095853  0.397185  0.068591  1
  O  O90  1  0.661395  0.811249  0.740430  1
  O  O91  1  0.618841  0.883160  0.415159  1
  O  O92  1  0.067043  0.917463  0.266846  1
  O  O93  1  0.396348  0.237696  0.521889  1
  O  O94  1  0.667347  0.820633  0.257490  1
  O  O95  1  0.804250  0.692011  0.003005  1
  O  O96  1  0.896348  0.737696  0.478111  1
  O  O97  1  0.578190  0.446276  0.248721  1
  O  O98  1  0.110041  0.431526  0.448994  1
  O  O99  1  0.073500  0.976574  0.396479  1
  O  O100  1  0.799681  0.256843  0.170886  1
  O  O101  1  0.031574  0.075306  0.531292  1
  O  O102  1  0.924574  0.063243  0.001107  1
  O  O103  1  0.460428  0.070182  0.783953  1
  O  O104  1  0.531574  0.575306  0.468708  1
  O  O105  1  0.731585  0.338968  0.010417  1
  O  O106  1  0.534088  0.480702  0.119086  1
  O  O107  1  0.573500  0.476574  0.603521  1
