# generated using pymatgen
data_Pu5Rh3
_symmetry_space_group_name_H-M   'P 1'
_cell_length_a   4.58791125
_cell_length_b   11.18192129
_cell_length_c   11.18192129
_cell_angle_alpha   90.00000000
_cell_angle_beta   90.00000000
_cell_angle_gamma   90.00000000
_symmetry_Int_Tables_number   1
_chemical_formula_structural   Pu5Rh3
_chemical_formula_sum   'Pu20 Rh12'
_cell_volume   573.65115193
_cell_formula_units_Z   4
loop_
 _symmetry_equiv_pos_site_id
 _symmetry_equiv_pos_as_xyz
  1  'x, y, z'
loop_
 _atom_site_type_symbol
 _atom_site_label
 _atom_site_symmetry_multiplicity
 _atom_site_fract_x
 _atom_site_fract_y
 _atom_site_fract_z
 _atom_site_occupancy
  Pu  Pu0  1  0.260697  -0.008410  0.794628  1
  Pu  Pu1  1  0.760697  0.794628  -0.008410  1
  Pu  Pu2  1  0.239303  0.294628  0.491590  1
  Pu  Pu3  1  0.760697  0.508410  0.794628  1
  Pu  Pu4  1  0.239303  0.008410  0.294628  1
  Pu  Pu5  1  0.739303  0.491590  0.294628  1
  Pu  Pu6  1  0.239303  0.205372  0.008410  1
  Pu  Pu7  1  0.760697  0.705372  0.508410  1
  Pu  Pu8  1  0.239303  0.491590  0.205372  1
  Pu  Pu9  1  0.260697  0.705372  -0.008410  1
  Pu  Pu10  1  0.739303  0.205372  0.491590  1
  Pu  Pu11  1  0.260697  0.508410  0.705372  1
  Pu  Pu12  1  0.260697  0.794628  0.508410  1
  Pu  Pu13  1  0.739303  0.294628  0.008410  1
  Pu  Pu14  1  0.760697  -0.008410  0.705372  1
  Pu  Pu15  1  0.000000  0.750000  0.250000  1
  Pu  Pu16  1  0.000000  0.250000  0.750000  1
  Pu  Pu17  1  0.739303  0.008410  0.205372  1
  Pu  Pu18  1  0.500000  0.250000  0.750000  1
  Pu  Pu19  1  0.500000  0.750000  0.250000  1
  Rh  Rh20  1  0.750000  0.448776  0.551224  1
  Rh  Rh21  1  0.963847  0.250000  0.250000  1
  Rh  Rh22  1  0.750000  0.948776  0.448776  1
  Rh  Rh23  1  0.036153  0.750000  0.750000  1
  Rh  Rh24  1  0.536153  0.750000  0.750000  1
  Rh  Rh25  1  0.463847  0.250000  0.250000  1
  Rh  Rh26  1  0.250000  0.948776  0.051224  1
  Rh  Rh27  1  0.250000  0.448776  0.948776  1
  Rh  Rh28  1  0.250000  0.051224  0.551224  1
  Rh  Rh29  1  0.750000  0.051224  0.948776  1
  Rh  Rh30  1  0.750000  0.551224  0.051224  1
  Rh  Rh31  1  0.250000  0.551224  0.448776  1
