# generated using pymatgen
data_SbHCSO3F8
_symmetry_space_group_name_H-M   'P 1'
_cell_length_a   8.84389681
_cell_length_b   9.70855036
_cell_length_c   10.82824559
_cell_angle_alpha   90.00000000
_cell_angle_beta   109.20826312
_cell_angle_gamma   90.00000000
_symmetry_Int_Tables_number   1
_chemical_formula_structural   SbHCSO3F8
_chemical_formula_sum   'Sb4 H4 C4 S4 O12 F32'
_cell_volume   877.96953619
_cell_formula_units_Z   4
loop_
 _symmetry_equiv_pos_site_id
 _symmetry_equiv_pos_as_xyz
  1  'x, y, z'
loop_
 _atom_site_type_symbol
 _atom_site_label
 _atom_site_symmetry_multiplicity
 _atom_site_fract_x
 _atom_site_fract_y
 _atom_site_fract_z
 _atom_site_occupancy
  Sb  Sb0  1  0.258679  0.328271  0.919772  1
  Sb  Sb1  1  0.741321  0.828271  0.580228  1
  Sb  Sb2  1  0.741321  0.671729  0.080228  1
  Sb  Sb3  1  0.258679  0.171729  0.419772  1
  H  H4  1  0.565871  0.996678  0.786017  1
  H  H5  1  0.434129  0.496678  0.713983  1
  H  H6  1  0.434129  0.003322  0.213983  1
  H  H7  1  0.565871  0.503322  0.286017  1
  C  C8  1  0.798097  0.162939  0.014329  1
  C  C9  1  0.201903  0.662939  0.485671  1
  C  C10  1  0.201903  0.837061  0.985671  1
  C  C11  1  0.798097  0.337061  0.514329  1
  S  S12  1  0.591978  0.189928  0.888533  1
  S  S13  1  0.408022  0.689928  0.611467  1
  S  S14  1  0.408022  0.810072  0.111467  1
  S  S15  1  0.591978  0.310072  0.388533  1
  O  O16  1  0.528834  0.041013  0.855227  1
  O  O17  1  0.471166  0.541013  0.644773  1
  O  O18  1  0.471166  0.958987  0.144773  1
  O  O19  1  0.528834  0.458987  0.355227  1
  O  O20  1  0.500230  0.246936  0.969332  1
  O  O21  1  0.499770  0.746936  0.530668  1
  O  O22  1  0.499770  0.753064  0.030668  1
  O  O23  1  0.500230  0.253064  0.469332  1
  O  O24  1  0.603415  0.267367  0.779779  1
  O  O25  1  0.396585  0.767367  0.720221  1
  O  O26  1  0.396585  0.732633  0.220221  1
  O  O27  1  0.603415  0.232633  0.279779  1
  F  F28  1  0.202685  0.198449  0.780975  1
  F  F29  1  0.797315  0.698449  0.719025  1
  F  F30  1  0.797315  0.801551  0.219025  1
  F  F31  1  0.202685  0.301551  0.280975  1
  F  F32  1  0.235949  0.192114  0.038350  1
  F  F33  1  0.764051  0.692114  0.461650  1
  F  F34  1  0.764051  0.807886  0.961650  1
  F  F35  1  0.235949  0.307886  0.538350  1
  F  F36  1  0.049489  0.400357  0.878276  1
  F  F37  1  0.950511  0.900357  0.621724  1
  F  F38  1  0.950511  0.599643  0.121724  1
  F  F39  1  0.049489  0.099643  0.378276  1
  F  F40  1  0.351276  0.452352  0.060027  1
  F  F41  1  0.648724  0.952352  0.439973  1
  F  F42  1  0.648724  0.547648  0.939973  1
  F  F43  1  0.351276  0.047648  0.560027  1
  F  F44  1  0.316332  0.457390  0.805611  1
  F  F45  1  0.683668  0.957390  0.694389  1
  F  F46  1  0.683668  0.542610  0.194389  1
  F  F47  1  0.316332  0.042610  0.305611  1
  F  F48  1  0.851544  0.282341  0.073947  1
  F  F49  1  0.148456  0.782341  0.426053  1
  F  F50  1  0.148456  0.717659  0.926053  1
  F  F51  1  0.851544  0.217659  0.573947  1
  F  F52  1  0.891373  0.118873  0.946387  1
  F  F53  1  0.108627  0.618873  0.553613  1
  F  F54  1  0.108627  0.881127  0.053613  1
  F  F55  1  0.891373  0.381127  0.446387  1
  F  F56  1  0.790457  0.068349  0.101519  1
  F  F57  1  0.209543  0.568349  0.398481  1
  F  F58  1  0.209543  0.931651  0.898481  1
  F  F59  1  0.790457  0.431651  0.601519  1
