# generated using pymatgen
data_MnC5ClO5
_symmetry_space_group_name_H-M   'P 1'
_cell_length_a   6.03125360
_cell_length_b   11.62908469
_cell_length_c   11.67973078
_cell_angle_alpha   90.00000000
_cell_angle_beta   90.00000000
_cell_angle_gamma   90.00000000
_symmetry_Int_Tables_number   1
_chemical_formula_structural   MnC5ClO5
_chemical_formula_sum   'Mn4 C20 Cl4 O20'
_cell_volume   819.19247743
_cell_formula_units_Z   4
loop_
 _symmetry_equiv_pos_site_id
 _symmetry_equiv_pos_as_xyz
  1  'x, y, z'
loop_
 _atom_site_type_symbol
 _atom_site_label
 _atom_site_symmetry_multiplicity
 _atom_site_fract_x
 _atom_site_fract_y
 _atom_site_fract_z
 _atom_site_occupancy
  Mn  Mn0  1  0.949751  0.750000  0.122293  1
  Mn  Mn1  1  0.449751  0.250000  0.377707  1
  Mn  Mn2  1  0.050249  0.250000  0.877707  1
  Mn  Mn3  1  0.550249  0.750000  0.622293  1
  C  C4  1  0.426455  0.634811  0.718086  1
  C  C5  1  0.312058  0.366783  0.465320  1
  C  C6  1  0.187942  0.133217  0.965320  1
  C  C7  1  0.692886  0.250000  0.471656  1
  C  C8  1  0.687942  0.866783  0.534680  1
  C  C9  1  0.426455  0.865189  0.718086  1
  C  C10  1  0.926455  0.365189  0.781914  1
  C  C11  1  0.926455  0.134811  0.781914  1
  C  C12  1  0.192886  0.750000  0.028344  1
  C  C13  1  0.073545  0.865189  0.218086  1
  C  C14  1  0.573545  0.134811  0.281914  1
  C  C15  1  0.807114  0.250000  0.971656  1
  C  C16  1  0.187942  0.366783  0.965320  1
  C  C17  1  0.073545  0.634811  0.218086  1
  C  C18  1  0.812058  0.866783  0.034680  1
  C  C19  1  0.687942  0.633217  0.534680  1
  C  C20  1  0.307114  0.750000  0.528344  1
  C  C21  1  0.812058  0.633217  0.034680  1
  C  C22  1  0.312058  0.133217  0.465320  1
  C  C23  1  0.573545  0.365189  0.281914  1
  Cl  Cl24  1  0.870583  0.750000  0.745087  1
  Cl  Cl25  1  0.129417  0.250000  0.254913  1
  Cl  Cl26  1  0.629417  0.750000  0.245087  1
  Cl  Cl27  1  0.370583  0.250000  0.754913  1
  O  O28  1  0.146124  0.563445  0.275286  1
  O  O29  1  0.734950  0.559106  0.982524  1
  O  O30  1  0.265050  0.440894  0.017476  1
  O  O31  1  0.345709  0.750000  0.968257  1
  O  O32  1  0.853876  0.063445  0.724714  1
  O  O33  1  0.654291  0.250000  0.031743  1
  O  O34  1  0.234950  0.059106  0.517476  1
  O  O35  1  0.765050  0.940894  0.482524  1
  O  O36  1  0.146124  0.936555  0.275286  1
  O  O37  1  0.265050  0.059106  0.017476  1
  O  O38  1  0.234950  0.440894  0.517476  1
  O  O39  1  0.765050  0.559106  0.482524  1
  O  O40  1  0.353876  0.563445  0.775286  1
  O  O41  1  0.646124  0.063445  0.224714  1
  O  O42  1  0.853876  0.436555  0.724714  1
  O  O43  1  0.845709  0.250000  0.531743  1
  O  O44  1  0.154291  0.750000  0.468257  1
  O  O45  1  0.646124  0.436555  0.224714  1
  O  O46  1  0.734950  0.940894  0.982524  1
  O  O47  1  0.353876  0.936555  0.775286  1
