# generated using pymatgen
data_Ce4Si4N7ClO3
_symmetry_space_group_name_H-M   'P 1'
_cell_length_a   10.58963236
_cell_length_b   10.39311091
_cell_length_c   10.45817749
_cell_angle_alpha   90.00000000
_cell_angle_beta   90.00000000
_cell_angle_gamma   90.00000000
_symmetry_Int_Tables_number   1
_chemical_formula_structural   Ce4Si4N7ClO3
_chemical_formula_sum   'Ce16 Si16 N28 Cl4 O12'
_cell_volume   1151.01889496
_cell_formula_units_Z   4
loop_
 _symmetry_equiv_pos_site_id
 _symmetry_equiv_pos_as_xyz
  1  'x, y, z'
loop_
 _atom_site_type_symbol
 _atom_site_label
 _atom_site_symmetry_multiplicity
 _atom_site_fract_x
 _atom_site_fract_y
 _atom_site_fract_z
 _atom_site_occupancy
  Ce  Ce0  1  0.041632  0.813608  0.690239  1
  Ce  Ce1  1  0.101821  0.107418  0.109556  1
  Ce  Ce2  1  0.180118  0.195305  0.449794  1
  Ce  Ce3  1  0.188301  0.455533  0.187933  1
  Ce  Ce4  1  0.311699  0.544467  0.687933  1
  Ce  Ce5  1  0.319882  0.804695  0.949794  1
  Ce  Ce6  1  0.398179  0.892582  0.609556  1
  Ce  Ce7  1  0.458368  0.186392  0.190239  1
  Ce  Ce8  1  0.541632  0.686392  0.309761  1
  Ce  Ce9  1  0.601821  0.392582  0.890444  1
  Ce  Ce10  1  0.680118  0.304695  0.550206  1
  Ce  Ce11  1  0.688301  0.044467  0.812067  1
  Ce  Ce12  1  0.811699  0.955533  0.312067  1
  Ce  Ce13  1  0.819882  0.695305  0.050206  1
  Ce  Ce14  1  0.898179  0.607418  0.390444  1
  Ce  Ce15  1  0.958368  0.313608  0.809761  1
  Si  Si16  1  0.071150  0.571969  0.928778  1
  Si  Si17  1  0.076969  0.748090  0.196863  1
  Si  Si18  1  0.194741  0.080697  0.743600  1
  Si  Si19  1  0.245673  0.304311  0.919441  1
  Si  Si20  1  0.254327  0.695689  0.419441  1
  Si  Si21  1  0.305259  0.919303  0.243600  1
  Si  Si22  1  0.423031  0.251910  0.696863  1
  Si  Si23  1  0.428850  0.428031  0.428778  1
  Si  Si24  1  0.571150  0.928031  0.071222  1
  Si  Si25  1  0.576969  0.751910  0.803137  1
  Si  Si26  1  0.694741  0.419303  0.256400  1
  Si  Si27  1  0.745673  0.195689  0.080559  1
  Si  Si28  1  0.754327  0.804311  0.580559  1
  Si  Si29  1  0.805259  0.580697  0.756400  1
  Si  Si30  1  0.923031  0.248090  0.303137  1
  Si  Si31  1  0.928850  0.071969  0.571222  1
  N  N32  1  0.056067  0.634632  0.078000  1
  N  N33  1  0.076578  0.288125  0.261623  1
  N  N34  1  0.076057  0.054597  0.635894  1
  N  N35  1  0.129201  0.652457  0.325116  1
  N  N36  1  0.135557  0.421929  0.943400  1
  N  N37  1  0.153322  0.174385  0.872357  1
  N  N38  1  0.176933  0.871633  0.152826  1
  N  N39  1  0.323067  0.128367  0.652826  1
  N  N40  1  0.346678  0.825615  0.372357  1
  N  N41  1  0.364443  0.578071  0.443400  1
  N  N42  1  0.370799  0.347543  0.825116  1
  N  N43  1  0.423943  0.945403  0.135894  1
  N  N44  1  0.423422  0.711875  0.761623  1
  N  N45  1  0.443933  0.365368  0.578000  1
  N  N46  1  0.556067  0.865368  0.922000  1
  N  N47  1  0.576578  0.211875  0.738377  1
  N  N48  1  0.576057  0.445403  0.364106  1
  N  N49  1  0.629201  0.847543  0.674884  1
  N  N50  1  0.635557  0.078071  0.056600  1
  N  N51  1  0.653322  0.325615  0.127643  1
  N  N52  1  0.676933  0.628367  0.847174  1
  N  N53  1  0.823067  0.371633  0.347174  1
  N  N54  1  0.846678  0.674385  0.627643  1
  N  N55  1  0.864443  0.921929  0.556600  1
  N  N56  1  0.870799  0.152457  0.174884  1
  N  N57  1  0.923943  0.554597  0.864106  1
  N  N58  1  0.923422  0.788125  0.238377  1
  N  N59  1  0.943933  0.134632  0.422000  1
  Cl  Cl60  1  0.071408  0.428828  0.575208  1
  Cl  Cl61  1  0.428592  0.571172  0.075208  1
  Cl  Cl62  1  0.571408  0.071172  0.424792  1
  Cl  Cl63  1  0.928592  0.928828  0.924792  1
  O  O64  1  0.160412  0.665586  0.835238  1
  O  O65  1  0.208575  0.736404  0.568486  1
  O  O66  1  0.233245  0.929627  0.788589  1
  O  O67  1  0.266755  0.070373  0.288589  1
  O  O68  1  0.291425  0.263596  0.068486  1
  O  O69  1  0.339588  0.334414  0.335238  1
  O  O70  1  0.660412  0.834414  0.164762  1
  O  O71  1  0.708575  0.763596  0.431514  1
  O  O72  1  0.733245  0.570373  0.211411  1
  O  O73  1  0.766755  0.429627  0.711411  1
  O  O74  1  0.791425  0.236404  0.931514  1
  O  O75  1  0.839588  0.165586  0.664762  1
