# generated using pymatgen
data_NdPb4F11
_symmetry_space_group_name_H-M   'P 1'
_cell_length_a   4.13800519
_cell_length_b   4.22473839
_cell_length_c   21.26290922
_cell_angle_alpha   60.21635119
_cell_angle_beta   60.60934557
_cell_angle_gamma   59.30418505
_symmetry_Int_Tables_number   1
_chemical_formula_structural   NdPb4F11
_chemical_formula_sum   'Nd1 Pb4 F11'
_cell_volume   263.03079329
_cell_formula_units_Z   1
loop_
 _symmetry_equiv_pos_site_id
 _symmetry_equiv_pos_as_xyz
  1  'x, y, z'
loop_
 _atom_site_type_symbol
 _atom_site_label
 _atom_site_symmetry_multiplicity
 _atom_site_fract_x
 _atom_site_fract_y
 _atom_site_fract_z
 _atom_site_occupancy
  Nd  Nd0  1  0.978874  0.985664  0.809959  1
  Pb  Pb1  1  0.907638  0.045072  0.000444  1
  Pb  Pb2  1  0.921955  0.037413  0.200644  1
  Pb  Pb3  1  0.960824  0.013803  0.402314  1
  Pb  Pb4  1  0.977218  0.996124  0.606107  1
  F  F5  1  0.160236  0.281802  0.055232  1
  F  F6  1  0.680005  0.795086  0.145965  1
  F  F7  1  0.209979  0.264900  0.452044  1
  F  F8  1  0.170601  0.285882  0.251527  1
  F  F9  1  0.710068  0.769041  0.350370  1
  F  F10  1  0.206864  0.227413  0.667662  1
  F  F11  1  0.732074  0.745092  0.555548  1
  F  F12  1  0.290497  0.321812  0.813176  1
  F  F13  1  0.749585  0.768463  0.742698  1
  F  F14  1  0.472003  0.559876  0.881649  1
  F  F15  1  0.683580  0.786558  0.948661  1
