# generated using pymatgen
data_Rb5Re3S7
_symmetry_space_group_name_H-M   'P 1'
_cell_length_a   10.88183898
_cell_length_b   10.82816324
_cell_length_c   10.74227198
_cell_angle_alpha   59.74001840
_cell_angle_beta   59.86047627
_cell_angle_gamma   59.93829933
_symmetry_Int_Tables_number   1
_chemical_formula_structural   Rb5Re3S7
_chemical_formula_sum   'Rb10 Re6 S14'
_cell_volume   891.90318640
_cell_formula_units_Z   2
loop_
 _symmetry_equiv_pos_site_id
 _symmetry_equiv_pos_as_xyz
  1  'x, y, z'
loop_
 _atom_site_type_symbol
 _atom_site_label
 _atom_site_symmetry_multiplicity
 _atom_site_fract_x
 _atom_site_fract_y
 _atom_site_fract_z
 _atom_site_occupancy
  Rb  Rb0  1  0.995342  0.991679  0.001475  1
  Rb  Rb1  1  0.003967  0.580130  0.001433  1
  Rb  Rb2  1  -0.000023  0.999675  0.577332  1
  Rb  Rb3  1  0.140945  0.139626  0.148513  1
  Rb  Rb4  1  0.008344  0.572240  0.416264  1
  Rb  Rb5  1  0.579245  0.000611  0.999295  1
  Rb  Rb6  1  0.521784  0.424368  0.027420  1
  Rb  Rb7  1  0.570939  0.004750  0.423393  1
  Rb  Rb8  1  0.423905  0.858776  0.855093  1
  Rb  Rb9  1  0.892710  0.427757  0.835461  1
  Re  Re10  1  0.378307  0.375514  0.624449  1
  Re  Re11  1  0.378332  0.624065  0.374727  1
  Re  Re12  1  0.623349  0.377921  0.374989  1
  Re  Re13  1  0.377390  0.623131  0.624253  1
  Re  Re14  1  0.622380  0.377000  0.624934  1
  Re  Re15  1  0.622544  0.624036  0.376142  1
  S  S16  1  0.223464  0.211166  0.787696  1
  S  S17  1  0.222034  0.784555  0.213173  1
  S  S18  1  0.162769  0.612362  0.612950  1
  S  S19  1  0.386968  0.386535  0.388927  1
  S  S20  1  0.613070  0.160430  0.613594  1
  S  S21  1  0.784208  0.224817  0.207566  1
  S  S22  1  0.385198  0.384838  0.842746  1
  S  S23  1  0.613922  0.614957  0.156354  1
  S  S24  1  0.221384  0.780190  0.784072  1
  S  S25  1  0.388002  0.839731  0.385482  1
  S  S26  1  0.611959  0.613178  0.614993  1
  S  S27  1  0.837328  0.387211  0.386860  1
  S  S28  1  0.779556  0.223614  0.786878  1
  S  S29  1  0.781979  0.784435  0.216437  1
