# generated using pymatgen
data_SrAl7Tl5Si5O24
_symmetry_space_group_name_H-M   'P 1'
_cell_length_a   12.56478397
_cell_length_b   12.56027221
_cell_length_c   12.48342017
_cell_angle_alpha   89.69163147
_cell_angle_beta   90.17054770
_cell_angle_gamma   88.91162701
_symmetry_Int_Tables_number   1
_chemical_formula_structural   SrAl7Tl5Si5O24
_chemical_formula_sum   'Sr2 Al14 Tl10 Si10 O48'
_cell_volume   1969.70395827
_cell_formula_units_Z   2
loop_
 _symmetry_equiv_pos_site_id
 _symmetry_equiv_pos_as_xyz
  1  'x, y, z'
loop_
 _atom_site_type_symbol
 _atom_site_label
 _atom_site_symmetry_multiplicity
 _atom_site_fract_x
 _atom_site_fract_y
 _atom_site_fract_z
 _atom_site_occupancy
  Sr  Sr0  1  0.350756  0.309777  0.825404  1
  Sr  Sr1  1  0.457048  0.482762  0.281537  1
  Al  Al2  1  0.006036  0.629134  0.184234  1
  Al  Al3  1  0.000009  0.831716  0.368223  1
  Al  Al4  1  0.010754  0.631706  0.808140  1
  Al  Al5  1  0.376028  0.181303  0.007832  1
  Al  Al6  1  0.374546  0.007041  0.809912  1
  Al  Al7  1  0.363854  0.822633  0.003689  1
  Al  Al8  1  0.616938  0.003496  0.183874  1
  Al  Al9  1  0.616735  0.199943  0.990280  1
  Al  Al10  1  0.633382  0.994728  0.814608  1
  Al  Al11  1  0.632911  0.820531  0.000822  1
  Al  Al12  1  0.821140  0.022783  0.364882  1
  Al  Al13  1  0.831032  0.015288  0.625850  1
  Al  Al14  1  0.832874  0.366733  0.998262  1
  Al  Al15  1  0.820615  0.626420  0.992598  1
  Tl  Tl16  1  0.260865  0.246574  0.252371  1
  Tl  Tl17  1  0.544626  0.591087  0.014085  1
  Tl  Tl18  1  0.596119  0.176227  0.684330  1
  Tl  Tl19  1  0.624536  0.224454  0.273147  1
  Tl  Tl20  1  0.147215  0.001496  0.888699  1
  Tl  Tl21  1  0.122035  0.847430  0.134134  1
  Tl  Tl22  1  0.862745  0.129532  0.123167  1
  Tl  Tl23  1  0.855316  0.131795  0.860512  1
  Tl  Tl24  1  0.856219  0.849931  0.141096  1
  Tl  Tl25  1  0.878683  0.858878  0.872592  1
  Si  Si26  1  0.011373  0.198415  0.374762  1
  Si  Si27  1  0.003698  0.376371  0.187685  1
  Si  Si28  1  0.012407  0.197328  0.622504  1
  Si  Si29  1  0.018572  0.373911  0.812097  1
  Si  Si30  1  0.007489  0.829479  0.630485  1
  Si  Si31  1  0.185990  0.006797  0.620568  1
  Si  Si32  1  0.192697  0.625884  0.996239  1
  Si  Si33  1  0.186670  0.009221  0.375142  1
  Si  Si34  1  0.184022  0.378507  0.003487  1
  Si  Si35  1  0.369409  0.993677  0.193274  1
  O  O36  1  0.032679  0.296823  0.290698  1
  O  O37  1  0.032268  0.294613  0.707352  1
  O  O38  1  0.997122  0.807873  0.504156  1
  O  O39  1  0.009360  0.495121  0.773202  1
  O  O40  1  0.020500  0.723667  0.702819  1
  O  O41  1  0.118616  0.120614  0.628154  1
  O  O42  1  0.123196  0.643381  0.105548  1
  O  O43  1  0.123521  0.126855  0.361665  1
  O  O44  1  0.107800  0.357588  0.106147  1
  O  O45  1  0.124212  0.646001  0.889504  1
  O  O46  1  0.112956  0.906201  0.653764  1
  O  O47  1  0.134974  0.353820  0.882251  1
  O  O48  1  0.111989  0.913815  0.338338  1
  O  O49  1  0.230120  0.996727  0.497238  1
  O  O50  1  0.236394  0.496848  0.001523  1
  O  O51  1  0.296576  0.700728  0.002921  1
  O  O52  1  0.283093  0.014807  0.703856  1
  O  O53  1  0.289773  0.021801  0.296164  1
  O  O54  1  0.282379  0.292768  0.014459  1
  O  O55  1  0.353850  0.104878  0.121311  1
  O  O56  1  0.342011  0.130694  0.879541  1
  O  O57  1  0.329494  0.888467  0.129133  1
  O  O58  1  0.326242  0.910805  0.899831  1
  O  O59  1  0.489998  0.981221  0.236568  1
  O  O60  1  0.487270  0.259194  0.972140  1
  O  O61  1  0.498626  0.787038  0.002467  1
  O  O62  1  0.503925  0.004442  0.762898  1
  O  O63  1  0.605365  0.124976  0.110637  1
  O  O64  1  0.646468  0.120103  0.879658  1
  O  O65  1  0.669593  0.892364  0.117938  1
  O  O66  1  0.680734  0.885602  0.886461  1
  O  O67  1  0.696376  0.694673  0.005375  1
  O  O68  1  0.719468  0.030055  0.708375  1
  O  O69  1  0.708536  0.053306  0.281504  1
  O  O70  1  0.731322  0.274666  0.006070  1
  O  O71  1  0.788493  0.494939  0.991543  1
  O  O72  1  0.791745  0.018836  0.496155  1
  O  O73  1  0.906735  0.133071  0.655280  1
  O  O74  1  0.891297  0.666397  0.109544  1
  O  O75  1  0.908019  0.133422  0.337113  1
  O  O76  1  0.901652  0.333200  0.122580  1
  O  O77  1  0.923890  0.332453  0.890578  1
  O  O78  1  0.893765  0.669997  0.879662  1
  O  O79  1  0.885265  0.904312  0.319268  1
  O  O80  1  0.903983  0.901477  0.673015  1
  O  O81  1  0.004762  0.243094  0.497642  1
  O  O82  1  0.998308  0.496555  0.227049  1
  O  O83  1  0.021233  0.728425  0.278982  1
