# generated using pymatgen
data_SrLa9MgGa9O29
_symmetry_space_group_name_H-M   'P 1'
_cell_length_a   5.55738522
_cell_length_b   5.58375876
_cell_length_c   27.84977571
_cell_angle_alpha   60.40292545
_cell_angle_beta   60.24173885
_cell_angle_gamma   60.16659503
_symmetry_Int_Tables_number   1
_chemical_formula_structural   SrLa9MgGa9O29
_chemical_formula_sum   'Sr1 La9 Mg1 Ga9 O29'
_cell_volume   614.82291363
_cell_formula_units_Z   1
loop_
 _symmetry_equiv_pos_site_id
 _symmetry_equiv_pos_as_xyz
  1  'x, y, z'
loop_
 _atom_site_type_symbol
 _atom_site_label
 _atom_site_symmetry_multiplicity
 _atom_site_fract_x
 _atom_site_fract_y
 _atom_site_fract_z
 _atom_site_occupancy
  Sr  Sr0  1  0.236049  0.751603  0.154084  1
  La  La1  1  0.753604  0.256711  0.045484  1
  La  La2  1  0.250027  0.750950  0.348562  1
  La  La3  1  0.707682  0.263225  0.256007  1
  La  La4  1  0.250369  0.740111  0.551570  1
  La  La5  1  0.751216  0.261960  0.446953  1
  La  La6  1  0.252542  0.741262  0.750798  1
  La  La7  1  0.751579  0.259913  0.647435  1
  La  La8  1  0.264078  0.740462  0.948976  1
  La  La9  1  0.752150  0.257920  0.847826  1
  Mg  Mg10  1  0.530073  0.975124  0.202825  1
  Ga  Ga11  1  0.970518  0.526979  0.094853  1
  Ga  Ga12  1  0.999321  0.503228  0.298580  1
  Ga  Ga13  1  0.000047  0.501300  0.499522  1
  Ga  Ga14  1  0.498386  0.996818  0.401854  1
  Ga  Ga15  1  0.000637  0.499897  0.699687  1
  Ga  Ga16  1  0.501365  0.000652  0.599377  1
  Ga  Ga17  1  0.001091  0.501471  0.899086  1
  Ga  Ga18  1  0.502096  0.000962  0.799160  1
  Ga  Ga19  1  0.495369  0.002344  0.000984  1
  O  O20  1  0.268981  0.186025  0.066217  1
  O  O21  1  0.302073  0.692063  0.046246  1
  O  O22  1  0.243032  0.183511  0.262863  1
  O  O23  1  0.271020  0.727344  0.241738  1
  O  O24  1  0.810910  0.713825  0.034031  1
  O  O25  1  0.219801  0.296105  0.355609  1
  O  O26  1  0.737478  0.288445  0.159070  1
  O  O27  1  0.245572  0.164693  0.467343  1
  O  O28  1  0.761785  0.833012  0.131090  1
  O  O29  1  0.291904  0.705364  0.441231  1
  O  O30  1  0.771355  0.674405  0.249755  1
  O  O31  1  0.202278  0.296351  0.559471  1
  O  O32  1  0.706020  0.284517  0.362174  1
  O  O33  1  0.249283  0.166275  0.666935  1
  O  O34  1  0.741808  0.827785  0.336413  1
  O  O35  1  0.295525  0.703332  0.641528  1
  O  O36  1  0.795882  0.697142  0.441721  1
  O  O37  1  0.202019  0.294707  0.759799  1
  O  O38  1  0.702753  0.295742  0.560032  1
  O  O39  1  0.252554  0.168135  0.866122  1
  O  O40  1  0.747896  0.834584  0.533470  1
  O  O41  1  0.296445  0.702283  0.842265  1
  O  O42  1  0.795354  0.702845  0.641134  1
  O  O43  1  0.202208  0.287448  0.960248  1
  O  O44  1  0.703127  0.296706  0.759358  1
  O  O45  1  0.748282  0.832571  0.733627  1
  O  O46  1  0.797464  0.704448  0.840188  1
  O  O47  1  0.704911  0.298978  0.956966  1
  O  O48  1  0.740679  0.831867  0.933210  1
