# generated using pymatgen
data_SrTeO3
_symmetry_space_group_name_H-M   'P 1'
_cell_length_a   5.99365136
_cell_length_b   14.59121106
_cell_length_c   26.71613525
_cell_angle_alpha   83.56626995
_cell_angle_beta   83.43121560
_cell_angle_gamma   78.16214544
_symmetry_Int_Tables_number   1
_chemical_formula_structural   SrTeO3
_chemical_formula_sum   'Sr24 Te24 O72'
_cell_volume   2262.29781776
_cell_formula_units_Z   24
loop_
 _symmetry_equiv_pos_site_id
 _symmetry_equiv_pos_as_xyz
  1  'x, y, z'
loop_
 _atom_site_type_symbol
 _atom_site_label
 _atom_site_symmetry_multiplicity
 _atom_site_fract_x
 _atom_site_fract_y
 _atom_site_fract_z
 _atom_site_occupancy
  Sr  Sr0  1  0.725053  0.564130  0.555018  1
  Sr  Sr1  1  0.842791  0.936370  0.945005  1
  Sr  Sr2  1  0.047615  0.327627  0.076401  1
  Sr  Sr3  1  0.868067  0.346083  0.362844  1
  Sr  Sr4  1  0.086930  0.538645  0.789164  1
  Sr  Sr5  1  0.580633  0.152919  0.138700  1
  Sr  Sr6  1  0.422715  0.846440  0.861087  1
  Sr  Sr7  1  0.666673  0.443447  0.697493  1
  Sr  Sr8  1  0.416013  0.962719  0.709994  1
  Sr  Sr9  1  0.950508  0.672616  0.922943  1
  Sr  Sr10  1  0.133094  0.654055  0.637642  1
  Sr  Sr11  1  0.782881  0.750532  0.250188  1
  Sr  Sr12  1  0.498675  0.500001  0.000069  1
  Sr  Sr13  1  0.331736  0.557111  0.302317  1
  Sr  Sr14  1  0.454240  0.171005  0.423221  1
  Sr  Sr15  1  0.192496  0.944285  0.197026  1
  Sr  Sr16  1  0.545185  0.827964  0.576020  1
  Sr  Sr17  1  0.274068  0.435598  0.444865  1
  Sr  Sr18  1  0.001840  0.000418  0.500319  1
  Sr  Sr19  1  0.911299  0.461606  0.210620  1
  Sr  Sr20  1  0.216086  0.249028  0.750297  1
  Sr  Sr21  1  0.586157  0.039910  0.289669  1
  Sr  Sr22  1  0.806962  0.057150  0.802793  1
  Sr  Sr23  1  0.157760  0.064276  0.055220  1
  Te  Te24  1  0.254911  0.405361  0.615721  1
  Te  Te25  1  0.570332  0.686040  0.707214  1
  Te  Te26  1  0.860774  0.297058  0.500380  1
  Te  Te27  1  0.276181  0.094312  0.884820  1
  Te  Te28  1  0.657866  0.203539  0.999610  1
  Te  Te29  1  0.137560  0.843000  0.326960  1
  Te  Te30  1  0.138986  0.703640  0.499527  1
  Te  Te31  1  0.594995  0.884410  0.426402  1
  Te  Te32  1  0.964578  0.815150  0.791660  1
  Te  Te33  1  0.406756  0.115938  0.573950  1
  Te  Te34  1  0.726166  0.905729  0.115043  1
  Te  Te35  1  0.463733  0.413005  0.139293  1
  Te  Te36  1  0.038120  0.185966  0.207626  1
  Te  Te37  1  0.339608  0.796907  0.000222  1
  Te  Te38  1  0.904255  0.614419  0.073239  1
  Te  Te39  1  0.746023  0.594340  0.384149  1
  Te  Te40  1  0.021393  0.085314  0.359655  1
  Te  Te41  1  0.428900  0.313925  0.292186  1
  Te  Te42  1  0.537002  0.586771  0.860546  1
  Te  Te43  1  0.092733  0.384028  0.926350  1
  Te  Te44  1  0.687537  0.341703  0.826688  1
  Te  Te45  1  0.313550  0.658503  0.172713  1
  Te  Te46  1  0.981195  0.913437  0.640404  1
  Te  Te47  1  0.862534  0.158492  0.673097  1
  O  O48  1  0.175276  0.898130  0.785616  1
  O  O49  1  0.917887  0.702066  0.556333  1
  O  O50  1  0.254204  0.664414  0.844487  1
  O  O51  1  0.281542  0.897166  0.445498  1
  O  O52  1  0.561922  0.675661  0.637319  1
  O  O53  1  0.264405  0.336649  0.173363  1
  O  O54  1  0.860036  0.604672  0.712907  1
  O  O55  1  0.397936  0.696831  0.534974  1
  O  O56  1  0.600129  0.001480  0.387772  1
  O  O57  1  0.769622  0.074937  0.991270  1
  O  O58  1  0.083170  0.295874  0.443774  1
  O  O59  1  0.763700  0.833912  0.655564  1
  O  O60  1  0.537674  0.997872  0.889418  1
  O  O61  1  0.314223  0.366659  0.682634  1
  O  O62  1  0.991735  0.498225  0.112443  1
  O  O63  1  0.840916  0.219068  0.814192  1
  O  O64  1  0.393606  0.999833  0.612991  1
  O  O65  1  0.872634  0.280987  0.687260  1
  O  O66  1  0.966328  0.485430  0.623879  1
  O  O67  1  0.084797  0.882405  0.574144  1
  O  O68  1  0.442073  0.322970  0.362098  1
  O  O69  1  0.461354  0.000980  0.111348  1
  O  O70  1  0.780879  0.162248  0.325912  1
  O  O71  1  0.075633  0.015027  0.876004  1
  O  O72  1  0.705619  0.900785  0.487731  1
  O  O73  1  0.825970  0.103708  0.213195  1
  O  O74  1  0.005597  0.500947  0.887707  1
  O  O75  1  0.088065  0.597130  0.011230  1
  O  O76  1  0.820270  0.200593  0.057062  1
  O  O77  1  0.382797  0.593510  0.725668  1
  O  O78  1  0.916989  0.117311  0.425828  1
  O  O79  1  0.367321  0.132801  0.817834  1
  O  O80  1  0.733009  0.664496  0.826279  1
  O  O81  1  0.722342  0.100935  0.557009  1
  O  O82  1  0.619433  0.600680  0.056549  1
  O  O83  1  0.374602  0.397727  0.944689  1
  O  O84  1  0.876571  0.824988  0.861640  1
  O  O85  1  0.224748  0.925584  0.007851  1
  O  O86  1  0.034255  0.513287  0.375814  1
  O  O87  1  0.135441  0.392780  0.287192  1
  O  O88  1  0.572770  0.498806  0.390071  1
  O  O89  1  0.429113  0.500263  0.610871  1
  O  O90  1  0.639779  0.863846  0.181555  1
  O  O91  1  0.114405  0.595260  0.218406  1
  O  O92  1  0.298231  0.093917  0.226957  1
  O  O93  1  0.459458  0.380394  0.073300  1
  O  O94  1  0.568272  0.627336  0.211808  1
  O  O95  1  0.176689  0.797585  0.943271  1
  O  O96  1  0.906703  0.400883  0.987921  1
  O  O97  1  0.365114  0.198427  0.032933  1
  O  O98  1  0.077615  0.096759  0.719188  1
  O  O99  1  0.433682  0.370486  0.787357  1
  O  O100  1  0.404557  0.871843  0.288508  1
  O  O101  1  0.603427  0.301627  0.464909  1
  O  O102  1  0.610928  0.408054  0.272996  1
  O  O103  1  0.743892  0.333097  0.155476  1
  O  O104  1  0.838865  0.426156  0.506745  1
  O  O105  1  0.684211  0.631525  0.317266  1
  O  O106  1  0.925445  0.904884  0.280191  1
  O  O107  1  0.160813  0.575382  0.490853  1
  O  O108  1  0.541501  0.620084  0.926484  1
  O  O109  1  0.221603  0.834922  0.673604  1
  O  O110  1  0.122461  0.720179  0.314448  1
  O  O111  1  0.884766  0.405237  0.780659  1
  O  O112  1  0.164958  0.780458  0.186886  1
  O  O113  1  0.923965  0.986675  0.123726  1
  O  O114  1  0.598955  0.127044  0.711817  1
  O  O115  1  0.130756  0.174308  0.137912  1
  O  O116  1  0.700563  0.905913  0.773403  1
  O  O117  1  0.238642  0.164799  0.344154  1
  O  O118  1  0.300982  0.099515  0.512099  1
  O  O119  1  0.629632  0.802403  0.965584  1
