# generated using pymatgen
data_Pr4In21Pd10
_symmetry_space_group_name_H-M   'P 1'
_cell_length_a   4.55695565
_cell_length_b   11.98274710
_cell_length_c   14.74103295
_cell_angle_alpha   81.27058269
_cell_angle_beta   81.18041651
_cell_angle_gamma   78.97932527
_symmetry_Int_Tables_number   1
_chemical_formula_structural   Pr4In21Pd10
_chemical_formula_sum   'Pr4 In21 Pd10'
_cell_volume   774.49816957
_cell_formula_units_Z   1
loop_
 _symmetry_equiv_pos_site_id
 _symmetry_equiv_pos_as_xyz
  1  'x, y, z'
loop_
 _atom_site_type_symbol
 _atom_site_label
 _atom_site_symmetry_multiplicity
 _atom_site_fract_x
 _atom_site_fract_y
 _atom_site_fract_z
 _atom_site_occupancy
  Pr  Pr0  1  0.231998  0.866540  0.675137  1
  Pr  Pr1  1  0.121158  0.588571  0.166829  1
  Pr  Pr2  1  0.879344  0.412590  0.833392  1
  Pr  Pr3  1  0.774012  0.132575  0.324468  1
  In  In4  1  0.992410  0.426459  0.592257  1
  In  In5  1  0.386823  0.027062  0.203717  1
  In  In6  1  0.203547  0.102346  0.496256  1
  In  In7  1  0.462500  0.216632  0.868238  1
  In  In8  1  0.392989  0.705980  0.496488  1
  In  In9  1  0.699897  0.599501  0.999312  1
  In  In10  1  0.071134  0.168821  0.702322  1
  In  In11  1  0.748430  0.708925  0.796061  1
  In  In12  1  0.801970  0.896840  0.503459  1
  In  In13  1  0.115068  0.820803  0.950875  1
  In  In14  1  0.937363  0.831891  0.296582  1
  In  In15  1  0.888584  0.178096  0.051087  1
  In  In16  1  0.367921  0.562089  0.699091  1
  In  In17  1  0.632028  0.438279  0.302075  1
  In  In18  1  0.498461  0.000677  -0.000316  1
  In  In19  1  0.252665  0.291837  0.205198  1
  In  In20  1  0.618632  0.973991  0.795311  1
  In  In21  1  0.004549  0.574937  0.405849  1
  In  In22  1  0.299655  0.400368  0.001655  1
  In  In23  1  0.537840  0.784799  0.131311  1
  In  In24  1  0.603644  0.293045  0.503908  1
  Pd  Pd25  1  0.749772  0.384775  0.114610  1
  Pd  Pd26  1  0.350732  0.920859  0.386518  1
  Pd  Pd27  1  0.857644  0.666795  0.607395  1
  Pd  Pd28  1  0.249076  0.614739  0.886738  1
  Pd  Pd29  1  0.659109  0.078755  0.612853  1
  Pd  Pd30  1  0.139907  0.332609  0.393624  1
  Pd  Pd31  1  0.501756  0.677599  0.311372  1
  Pd  Pd32  1  0.027700  0.061121  0.887269  1
  Pd  Pd33  1  0.500239  0.322956  0.688048  1
  Pd  Pd34  1  0.970373  0.938418  0.112120  1
