# generated using pymatgen
data_TlBiF4
_symmetry_space_group_name_H-M   'P 1'
_cell_length_a   4.08302978
_cell_length_b   6.80721669
_cell_length_c   6.20318036
_cell_angle_alpha   98.26449599
_cell_angle_beta   90.00000000
_cell_angle_gamma   90.00000000
_symmetry_Int_Tables_number   1
_chemical_formula_structural   TlBiF4
_chemical_formula_sum   'Tl2 Bi2 F8'
_cell_volume   170.62113357
_cell_formula_units_Z   2
loop_
 _symmetry_equiv_pos_site_id
 _symmetry_equiv_pos_as_xyz
  1  'x, y, z'
loop_
 _atom_site_type_symbol
 _atom_site_label
 _atom_site_symmetry_multiplicity
 _atom_site_fract_x
 _atom_site_fract_y
 _atom_site_fract_z
 _atom_site_occupancy
  Tl  Tl0  1  0.250000  0.087078  0.710346  1
  Tl  Tl1  1  0.750000  0.912922  0.289654  1
  Bi  Bi2  1  0.250000  0.607656  0.757175  1
  Bi  Bi3  1  0.750000  0.392344  0.242825  1
  F  F4  1  0.250000  0.238241  0.334295  1
  F  F5  1  0.250000  0.859273  0.016459  1
  F  F6  1  0.250000  0.391406  0.003330  1
  F  F7  1  0.250000  0.635387  0.378762  1
  F  F8  1  0.750000  0.761759  0.665705  1
  F  F9  1  0.750000  0.364613  0.621238  1
  F  F10  1  0.750000  0.608594  -0.003330  1
  F  F11  1  0.750000  0.140727  0.983541  1
