# generated using pymatgen
data_Ba3Nb6(Si2O13)2
_symmetry_space_group_name_H-M   'P 1'
_cell_length_a   9.19363087
_cell_length_b   9.19363086
_cell_length_c   7.87567108
_cell_angle_alpha   90.00000000
_cell_angle_beta   90.00000000
_cell_angle_gamma   119.99999999
_symmetry_Int_Tables_number   1
_chemical_formula_structural   Ba3Nb6(Si2O13)2
_chemical_formula_sum   'Ba3 Nb6 Si4 O26'
_cell_volume   576.49072764
_cell_formula_units_Z   1
loop_
 _symmetry_equiv_pos_site_id
 _symmetry_equiv_pos_as_xyz
  1  'x, y, z'
loop_
 _atom_site_type_symbol
 _atom_site_label
 _atom_site_symmetry_multiplicity
 _atom_site_fract_x
 _atom_site_fract_y
 _atom_site_fract_z
 _atom_site_occupancy
  O  O0  1  1.000000  0.230379  0.500000  1
  O  O1  1  0.769622  0.769622  0.500000  1
  O  O2  1  0.230378  0.000000  0.500000  1
  O  O3  1  0.510527  0.694468  0.283852  1
  O  O4  1  0.305531  0.816058  0.283852  1
  O  O5  1  0.183941  0.489473  0.283852  1
  O  O6  1  0.489474  0.183942  0.716147  1
  O  O7  1  0.183941  0.489473  0.716147  1
  O  O8  1  0.510527  0.694468  0.716147  1
  O  O9  1  0.305531  0.816058  0.716147  1
  O  O10  1  0.694468  0.510526  0.283852  1
  O  O11  1  0.816058  0.305531  0.283852  1
  O  O12  1  0.816058  0.305531  0.716147  1
  O  O13  1  0.333333  0.666667  0.000000  1
  O  O14  1  0.666667  0.333334  0.000000  1
  O  O15  1  0.279031  0.000000  0.000000  1
  O  O16  1  0.720969  0.720969  0.000000  1
  O  O17  1  1.000000  0.279031  0.000000  1
  O  O18  1  0.822137  0.000000  0.234684  1
  O  O19  1  0.694468  0.510526  0.716147  1
  O  O20  1  0.000000  0.822137  0.765315  1
  O  O21  1  0.000000  0.822137  0.234684  1
  O  O22  1  0.177864  0.177864  0.234684  1
  O  O23  1  0.822137  0.000000  0.765315  1
  O  O24  1  0.489474  0.183942  0.283852  1
  O  O25  1  0.177864  0.177864  0.765315  1
  Si  Si26  1  0.666667  0.333334  0.205348  1
  Si  Si27  1  0.666667  0.333334  0.794651  1
  Si  Si28  1  0.333333  0.666667  0.794651  1
  Si  Si29  1  0.333333  0.666667  0.205348  1
  Nb  Nb30  1  0.239157  0.000000  0.755604  1
  Nb  Nb31  1  0.760843  0.760843  0.244397  1
  Nb  Nb32  1  0.239157  0.000000  0.244397  1
  Nb  Nb33  1  0.000001  0.239157  0.755604  1
  Nb  Nb34  1  0.760843  0.760843  0.755604  1
  Nb  Nb35  1  0.000001  0.239157  0.244397  1
  Ba  Ba36  1  1.000000  0.600424  0.500000  1
  Ba  Ba37  1  0.399576  0.399576  0.500000  1
  Ba  Ba38  1  0.600424  0.000000  0.500000  1
