# generated using pymatgen
data_NO2
_symmetry_space_group_name_H-M   'P 1'
_cell_length_a   7.86568672
_cell_length_b   7.86568758
_cell_length_c   7.86568665
_cell_angle_alpha   109.47122220
_cell_angle_beta   109.47122436
_cell_angle_gamma   109.47121464
_symmetry_Int_Tables_number   1
_chemical_formula_structural   NO2
_chemical_formula_sum   'N6 O12'
_cell_volume   374.61752617
_cell_formula_units_Z   6
loop_
 _symmetry_equiv_pos_site_id
 _symmetry_equiv_pos_as_xyz
  1  'x, y, z'
loop_
 _atom_site_type_symbol
 _atom_site_label
 _atom_site_symmetry_multiplicity
 _atom_site_fract_x
 _atom_site_fract_y
 _atom_site_fract_z
 _atom_site_occupancy
  N  N0  1  0.250000  0.610100  0.360100  1
  N  N1  1  0.139900  0.750000  0.889900  1
  N  N2  1  0.360100  0.250000  0.610100  1
  N  N3  1  0.750000  0.889900  0.139900  1
  N  N4  1  0.610100  0.360100  0.250000  1
  N  N5  1  0.889900  0.139900  0.750000  1
  O  O6  1  0.534476  0.358318  0.648903  1
  O  O7  1  0.885573  0.851097  0.209415  1
  O  O8  1  0.141682  0.676158  0.290585  1
  O  O9  1  0.965524  0.614427  0.823842  1
  O  O10  1  0.676158  0.290585  0.141682  1
  O  O11  1  0.614427  0.823842  0.965524  1
  O  O12  1  0.851097  0.209415  0.885573  1
  O  O13  1  0.358318  0.648903  0.534476  1
  O  O14  1  0.209415  0.885573  0.851097  1
  O  O15  1  0.648903  0.534476  0.358318  1
  O  O16  1  0.823842  0.965524  0.614427  1
  O  O17  1  0.290585  0.141682  0.676158  1
