# generated using pymatgen
data_KAl(H2N)4
_symmetry_space_group_name_H-M   'P 1'
_cell_length_a   6.04351292
_cell_length_b   6.04351292
_cell_length_c   11.42165250
_cell_angle_alpha   90.00000000
_cell_angle_beta   90.00000000
_cell_angle_gamma   115.10333821
_symmetry_Int_Tables_number   1
_chemical_formula_structural   KAl(H2N)4
_chemical_formula_sum   'K2 Al2 H16 N8'
_cell_volume   377.76128742
_cell_formula_units_Z   2
loop_
 _symmetry_equiv_pos_site_id
 _symmetry_equiv_pos_as_xyz
  1  'x, y, z'
loop_
 _atom_site_type_symbol
 _atom_site_label
 _atom_site_symmetry_multiplicity
 _atom_site_fract_x
 _atom_site_fract_y
 _atom_site_fract_z
 _atom_site_occupancy
  K  K0  1  0.785011  0.214989  0.500000  1
  K  K1  1  0.214989  0.785011  0.000000  1
  Al  Al2  1  0.651490  0.651490  0.250000  1
  Al  Al3  1  0.348510  0.348510  0.750000  1
  H  H4  1  0.725219  0.298943  0.032335  1
  H  H5  1  0.701057  0.274781  0.967665  1
  H  H6  1  0.274781  0.701057  0.532335  1
  H  H7  1  0.298943  0.725219  0.467665  1
  H  H8  1  0.619448  0.890001  0.290294  1
  H  H9  1  0.109999  0.380552  0.709706  1
  H  H10  1  0.380552  0.109999  0.790294  1
  H  H11  1  0.890001  0.619448  0.209706  1
  H  H12  1  0.149951  0.051121  0.605178  1
  H  H13  1  0.948879  0.850049  0.394822  1
  H  H14  1  0.850049  0.948879  0.105178  1
  H  H15  1  0.051121  0.149951  0.894822  1
  H  H16  1  0.881616  0.777004  0.448023  1
  H  H17  1  0.222996  0.118384  0.551977  1
  H  H18  1  0.118384  0.222996  0.948023  1
  H  H19  1  0.777004  0.881616  0.051977  1
  N  N20  1  0.482452  0.374236  0.357354  1
  N  N21  1  0.625764  0.517548  0.642646  1
  N  N22  1  0.517548  0.625764  0.857354  1
  N  N23  1  0.374236  0.482452  0.142646  1
  N  N24  1  0.198453  0.296855  0.157557  1
  N  N25  1  0.703145  0.801547  0.842443  1
  N  N26  1  0.801547  0.703145  0.657557  1
  N  N27  1  0.296855  0.198453  0.342443  1
