# generated using pymatgen
data_Ca(La2Se3)4
_symmetry_space_group_name_H-M   'P 1'
_cell_length_a   23.65033883
_cell_length_b   9.10173240
_cell_length_c   9.10531876
_cell_angle_alpha   89.98747166
_cell_angle_beta   54.63829002
_cell_angle_gamma   54.72168155
_symmetry_Int_Tables_number   1
_chemical_formula_structural   Ca(La2Se3)4
_chemical_formula_sum   'Ca2 La16 Se24'
_cell_volume   1128.74330321
_cell_formula_units_Z   2
loop_
 _symmetry_equiv_pos_site_id
 _symmetry_equiv_pos_as_xyz
  1  'x, y, z'
loop_
 _atom_site_type_symbol
 _atom_site_label
 _atom_site_symmetry_multiplicity
 _atom_site_fract_x
 _atom_site_fract_y
 _atom_site_fract_z
 _atom_site_occupancy
  Ca  Ca0  1  0.166367  0.247220  0.623449  1
  Ca  Ca1  1  0.666878  0.121895  0.751661  1
  La  La2  1  0.001397  0.374802  0.247308  1
  La  La3  1  0.083263  0.623443  0.378210  1
  La  La4  1  0.334271  0.375834  0.250137  1
  La  La5  1  0.251169  0.875074  0.122315  1
  La  La6  1  0.166106  0.751597  0.877376  1
  La  La7  1  0.333662  0.125782  0.748491  1
  La  La8  1  0.415466  0.629570  0.375823  1
  La  La9  1  0.500070  0.250971  0.628010  1
  La  La10  1  0.666395  0.373514  0.252912  1
  La  La11  1  0.583251  0.878035  0.121988  1
  La  La12  1  0.500509  0.749057  0.877660  1
  La  La13  1  0.748366  0.630000  0.378177  1
  La  La14  1  0.834861  0.245552  0.625124  1
  La  La15  1  0.918878  0.870599  0.121579  1
  La  La16  1  0.001584  0.119899  0.749890  1
  La  La17  1  0.834762  0.747293  0.875938  1
  Se  Se18  1  0.051217  0.997873  0.351675  1
  Se  Se19  1  0.118485  0.497930  0.001083  1
  Se  Se20  1  0.050609  0.347573  0.496213  1
  Se  Se21  1  0.284727  0.149218  0.146413  1
  Se  Se22  1  0.282412  0.502132  0.002883  1
  Se  Se23  1  0.118473  0.643617  0.649901  1
  Se  Se24  1  0.216766  0.998986  0.848481  1
  Se  Se25  1  0.381521  0.003488  0.350461  1
  Se  Se26  1  0.217443  0.849738  0.497558  1
  Se  Se27  1  0.452562  0.495205  0.996401  1
  Se  Se28  1  0.383834  0.351856  0.500026  1
  Se  Se29  1  0.619198  0.146767  0.144198  1
  Se  Se30  1  0.618246  0.500151  0.001178  1
  Se  Se31  1  0.449365  0.651750  0.650070  1
  Se  Se32  1  0.550986  0.996974  0.847014  1
  Se  Se33  1  0.716211  0.999419  0.352263  1
  Se  Se34  1  0.549798  0.851796  0.497375  1
  Se  Se35  1  0.784277  0.498381  0.003027  1
  Se  Se36  1  0.716291  0.350542  0.499866  1
  Se  Se37  1  0.950691  0.149008  0.151575  1
  Se  Se38  1  0.952849  0.496289  0.994392  1
  Se  Se39  1  0.785673  0.642154  0.648393  1
  Se  Se40  1  0.884049  0.998276  0.848285  1
  Se  Se41  1  0.882921  0.848322  0.498396  1
