# generated using pymatgen
data_Ti3H2O7
_symmetry_space_group_name_H-M   'P 1'
_cell_length_a   16.94106694
_cell_length_b   16.97364085
_cell_length_c   9.47234579
_cell_angle_alpha   81.71760293
_cell_angle_beta   98.25636049
_cell_angle_gamma   167.21521334
_symmetry_Int_Tables_number   1
_chemical_formula_structural   Ti3H2O7
_chemical_formula_sum   'Ti6 H4 O14'
_cell_volume   596.39868483
_cell_formula_units_Z   2
loop_
 _symmetry_equiv_pos_site_id
 _symmetry_equiv_pos_as_xyz
  1  'x, y, z'
loop_
 _atom_site_type_symbol
 _atom_site_label
 _atom_site_symmetry_multiplicity
 _atom_site_fract_x
 _atom_site_fract_y
 _atom_site_fract_z
 _atom_site_occupancy
  Ti  Ti0  1  0.770721  0.230085  0.790483  1
  Ti  Ti1  1  0.229279  0.769915  0.209517  1
  Ti  Ti2  1  0.787491  0.214533  0.479820  1
  Ti  Ti3  1  0.212509  0.785467  0.520180  1
  Ti  Ti4  1  0.809585  0.210084  0.172208  1
  Ti  Ti5  1  0.190415  0.789916  0.827792  1
  H  H6  1  0.775379  0.012756  0.195153  1
  H  H7  1  0.822865  0.097755  0.034198  1
  H  H8  1  0.224621  0.987244  0.804847  1
  H  H9  1  0.177135  0.902245  0.965802  1
  O  O10  1  0.797025  0.200372  0.961361  1
  O  O11  1  0.202975  0.799628  0.038639  1
  O  O12  1  0.810081  0.192580  0.664726  1
  O  O13  1  0.189919  0.807420  0.335274  1
  O  O14  1  0.824198  0.173524  0.358698  1
  O  O15  1  0.175801  0.826476  0.641302  1
  O  O16  1  0.919341  0.189751  0.130979  1
  O  O17  1  0.080659  0.810249  0.869021  1
  O  O18  1  0.708543  0.283978  0.840558  1
  O  O19  1  0.291457  0.716022  0.159442  1
  O  O20  1  0.729224  0.268960  0.547041  1
  O  O21  1  0.270776  0.731040  0.452959  1
  O  O22  1  0.747754  0.253704  0.240003  1
  O  O23  1  0.252246  0.746296  0.759997  1
