# generated using pymatgen
data_Ca3InP3
_symmetry_space_group_name_H-M   'P 1'
_cell_length_a   4.15886839
_cell_length_b   12.12151715
_cell_length_c   13.59512350
_cell_angle_alpha   89.99898672
_cell_angle_beta   90.00670945
_cell_angle_gamma   90.01043457
_symmetry_Int_Tables_number   1
_chemical_formula_structural   Ca3InP3
_chemical_formula_sum   'Ca12 In4 P12'
_cell_volume   685.35455542
_cell_formula_units_Z   4
loop_
 _symmetry_equiv_pos_site_id
 _symmetry_equiv_pos_as_xyz
  1  'x, y, z'
loop_
 _atom_site_type_symbol
 _atom_site_label
 _atom_site_symmetry_multiplicity
 _atom_site_fract_x
 _atom_site_fract_y
 _atom_site_fract_z
 _atom_site_occupancy
  Ca  Ca0  1  0.250203  0.347086  0.004435  1
  Ca  Ca1  1  0.250358  0.268088  0.288831  1
  Ca  Ca2  1  0.250098  0.847221  0.495545  1
  Ca  Ca3  1  0.750427  0.152713  0.504392  1
  Ca  Ca4  1  0.750372  0.652709  0.995767  1
  Ca  Ca5  1  0.749565  0.934506  0.897319  1
  Ca  Ca6  1  0.749922  0.434620  0.602676  1
  Ca  Ca7  1  0.250070  0.065445  0.102487  1
  Ca  Ca8  1  0.750143  0.731866  0.711033  1
  Ca  Ca9  1  0.750033  0.231661  0.788798  1
  Ca  Ca10  1  0.250136  0.565351  0.397258  1
  Ca  Ca11  1  0.250282  0.768236  0.211299  1
  In  In12  1  0.749517  0.948190  0.300322  1
  In  In13  1  0.250104  0.552011  0.800377  1
  In  In14  1  0.249367  0.051847  0.699587  1
  In  In15  1  0.749864  0.448238  0.199734  1
  P  P16  1  0.750072  0.448989  0.867377  1
  P  P17  1  0.249405  0.051042  0.367531  1
  P  P18  1  0.749630  0.746137  0.371938  1
  P  P19  1  0.250171  0.753951  0.871790  1
  P  P20  1  0.750313  0.895382  0.113495  1
  P  P21  1  0.750331  0.395204  0.386402  1
  P  P22  1  0.749711  0.246251  0.128228  1
  P  P23  1  0.250391  0.104643  0.886477  1
  P  P24  1  0.250435  0.253930  0.628145  1
  P  P25  1  0.749170  0.948875  0.632565  1
  P  P26  1  0.250198  0.604657  0.613470  1
  P  P27  1  0.249710  0.551152  0.132722  1
