# generated using pymatgen
data_CuBi5PbS9
_symmetry_space_group_name_H-M   'P 1'
_cell_length_a   4.03917761
_cell_length_b   11.68887754
_cell_length_c   33.57033501
_cell_angle_alpha   89.99949403
_cell_angle_beta   90.00031088
_cell_angle_gamma   90.00034402
_symmetry_Int_Tables_number   1
_chemical_formula_structural   CuBi5PbS9
_chemical_formula_sum   'Cu4 Bi20 Pb4 S36'
_cell_volume   1584.97141552
_cell_formula_units_Z   4
loop_
 _symmetry_equiv_pos_site_id
 _symmetry_equiv_pos_as_xyz
  1  'x, y, z'
loop_
 _atom_site_type_symbol
 _atom_site_label
 _atom_site_symmetry_multiplicity
 _atom_site_fract_x
 _atom_site_fract_y
 _atom_site_fract_z
 _atom_site_occupancy
  Cu  Cu0  1  0.750019  0.778822  0.737987  1
  Cu  Cu1  1  0.749989  0.278846  0.762039  1
  Cu  Cu2  1  0.249996  0.221144  0.262014  1
  Cu  Cu3  1  0.250017  0.721134  0.237985  1
  Bi  Bi4  1  0.749908  0.149564  0.345334  1
  Bi  Bi5  1  0.249944  0.842453  0.987247  1
  Bi  Bi6  1  0.750073  0.649583  0.154664  1
  Bi  Bi7  1  0.249823  0.342450  0.512757  1
  Bi  Bi8  1  0.250005  0.504742  0.392122  1
  Bi  Bi9  1  0.250013  0.519792  0.056286  1
  Bi  Bi10  1  0.250061  0.004726  0.107886  1
  Bi  Bi11  1  0.750034  0.980203  0.556296  1
  Bi  Bi12  1  0.249990  0.350463  0.845333  1
  Bi  Bi13  1  0.250016  0.523341  0.729066  1
  Bi  Bi14  1  0.750072  0.480179  0.943707  1
  Bi  Bi15  1  0.749920  0.976663  0.229068  1
  Bi  Bi16  1  0.250048  0.019790  0.443707  1
  Bi  Bi17  1  0.249961  0.023327  0.770934  1
  Bi  Bi18  1  0.749991  0.476645  0.270930  1
  Bi  Bi19  1  0.750040  0.657543  0.487240  1
  Bi  Bi20  1  0.750022  0.495273  0.607874  1
  Bi  Bi21  1  0.750059  0.157544  0.012762  1
  Bi  Bi22  1  0.250009  0.850459  0.654667  1
  Bi  Bi23  1  0.749986  0.995239  0.892130  1
  Pb  Pb24  1  0.750020  0.683208  0.834606  1
  Pb  Pb25  1  0.749823  0.183174  0.665417  1
  Pb  Pb26  1  0.250156  0.316886  0.165397  1
  Pb  Pb27  1  0.250009  0.816829  0.334587  1
  S  S28  1  0.250004  0.550402  0.882033  1
  S  S29  1  0.750015  0.460206  0.791219  1
  S  S30  1  0.249978  0.212749  0.397044  1
  S  S31  1  0.749999  0.273747  0.231683  1
  S  S32  1  0.750004  0.627046  0.016874  1
  S  S33  1  0.249933  0.551779  0.542358  1
  S  S34  1  0.750002  0.948219  0.042360  1
  S  S35  1  0.750038  0.449634  0.117967  1
  S  S36  1  0.250044  0.372943  0.983125  1
  S  S37  1  0.749949  0.448220  0.457638  1
  S  S38  1  0.750039  0.787257  0.602962  1
  S  S39  1  0.249979  0.870903  0.187348  1
  S  S40  1  0.750047  0.127044  0.483120  1
  S  S41  1  0.749974  0.793420  0.933685  1
  S  S42  1  0.249981  0.893840  0.851156  1
  S  S43  1  0.250022  0.726251  0.768307  1
  S  S44  1  0.750036  0.106151  0.148841  1
  S  S45  1  0.250014  0.712757  0.102956  1
  S  S46  1  0.750056  0.960209  0.708782  1
  S  S47  1  0.749995  0.606136  0.351156  1
  S  S48  1  0.250028  0.039800  0.291210  1
  S  S49  1  0.750001  0.773730  0.268298  1
  S  S50  1  0.250033  0.206569  0.066317  1
  S  S51  1  0.249926  0.539800  0.208783  1
  S  S52  1  0.249992  0.050410  0.617971  1
  S  S53  1  0.250047  0.872949  0.516879  1
  S  S54  1  0.249997  0.393871  0.648843  1
  S  S55  1  0.249999  0.226256  0.731696  1
  S  S56  1  0.750007  0.949598  0.382029  1
  S  S57  1  0.749902  0.293435  0.566318  1
  S  S58  1  0.749991  0.129075  0.812651  1
  S  S59  1  0.250003  0.706572  0.433680  1
  S  S60  1  0.249950  0.370893  0.312649  1
  S  S61  1  0.750010  0.629095  0.687351  1
  S  S62  1  0.750006  0.287244  0.897036  1
  S  S63  1  0.249994  0.051766  0.957633  1
