# generated using pymatgen
data_As8S9
_symmetry_space_group_name_H-M   'P 1'
_cell_length_a   8.60399456
_cell_length_b   9.90713925
_cell_length_c   23.48958352
_cell_angle_alpha   70.42289812
_cell_angle_beta   80.90754487
_cell_angle_gamma   80.20177605
_symmetry_Int_Tables_number   1
_chemical_formula_structural   As8S9
_chemical_formula_sum   'As24 S27'
_cell_volume   1847.97432109
_cell_formula_units_Z   3
loop_
 _symmetry_equiv_pos_site_id
 _symmetry_equiv_pos_as_xyz
  1  'x, y, z'
loop_
 _atom_site_type_symbol
 _atom_site_label
 _atom_site_symmetry_multiplicity
 _atom_site_fract_x
 _atom_site_fract_y
 _atom_site_fract_z
 _atom_site_occupancy
  As  As0  1  0.124086  0.659697  0.962237  1
  As  As1  1  -0.011389  0.846754  0.646905  1
  As  As2  1  0.389928  0.480101  0.314219  1
  As  As3  1  0.926200  0.584366  0.152231  1
  As  As4  1  0.088175  0.300292  0.830636  1
  As  As5  1  0.394458  0.175325  0.656904  1
  As  As6  1  0.639551  0.638689  0.371480  1
  As  As7  1  0.401684  0.338254  0.011940  1
  As  As8  1  0.332119  0.838156  0.434566  1
  As  As9  1  0.688694  0.932591  0.227935  1
  As  As10  1  0.354198  0.876017  0.967114  1
  As  As11  1  0.913599  0.489404  0.757197  1
  As  As12  1  0.598285  0.636968  0.613481  1
  As  As13  1  0.273885  0.016638  0.747567  1
  As  As14  1  0.661496  0.894777  0.580818  1
  As  As15  1  0.952279  0.790419  0.083056  1
  As  As16  1  0.232228  0.915738  0.285138  1
  As  As17  1  0.551868  0.675105  0.944735  1
  As  As18  1  0.190555  0.947617  0.129068  1
  As  As19  1  0.577675  -0.025166  0.994712  1
  As  As20  1  0.101884  0.794971  0.390932  1
  As  As21  1  0.381237  0.975353  0.621461  1
  As  As22  1  0.476481  0.738934  0.283249  1
  As  As23  1  0.018927  0.903557  0.740897  1
  S  S24  1  0.102910  0.155286  0.137469  1
  S  S25  1  0.155379  0.439178  0.048814  1
  S  S26  1  0.103521  -0.010714  0.424626  1
  S  S27  1  0.160383  0.475102  0.380560  1
  S  S28  1  0.082460  0.085850  0.814197  1
  S  S29  1  0.185840  0.457548  0.744650  1
  S  S30  1  0.525826  0.096516  0.151778  1
  S  S31  1  0.491581  0.943866  0.116191  1
  S  S32  1  0.544030  0.478292  0.033967  1
  S  S33  1  0.332168  0.118250  0.523237  1
  S  S34  1  0.303864  0.664257  0.530144  1
  S  S35  1  0.499902  0.032263  0.472276  1
  S  S36  1  0.527007  0.427856  0.396158  1
  S  S37  1  0.341906  0.596440  0.906106  1
  S  S38  1  0.441281  0.036699  0.872063  1
  S  S39  1  0.745155  0.785619  0.992873  1
  S  S40  1  0.540422  0.582655  0.531097  1
  S  S41  1  0.495280  0.938790  0.807973  1
  S  S42  1  0.842533  0.368295  0.698661  1
  S  S43  1  0.845309  0.596113  0.298279  1
  S  S44  1  0.988037  0.416384  0.344533  1
  S  S45  1  0.153217  0.795395  0.229094  1
  S  S46  1  0.732633  0.798710  0.681012  1
  S  S47  1  0.852065  0.515376  0.612230  1
  S  S48  1  -0.048660  0.074234  0.656966  1
  S  S49  1  0.000930  0.452101  0.987747  1
  S  S50  1  0.631316  0.002482  0.305486  1
