# generated using pymatgen
data_SiO2
_symmetry_space_group_name_H-M   'P 1'
_cell_length_a   13.61820608
_cell_length_b   15.73154714
_cell_length_c   15.73154740
_cell_angle_alpha   79.20224939
_cell_angle_beta   64.35263410
_cell_angle_gamma   64.35263662
_symmetry_Int_Tables_number   1
_chemical_formula_structural   SiO2
_chemical_formula_sum   'Si48 O96'
_cell_volume   2738.86219090
_cell_formula_units_Z   48
loop_
 _symmetry_equiv_pos_site_id
 _symmetry_equiv_pos_as_xyz
  1  'x, y, z'
loop_
 _atom_site_type_symbol
 _atom_site_label
 _atom_site_symmetry_multiplicity
 _atom_site_fract_x
 _atom_site_fract_y
 _atom_site_fract_z
 _atom_site_occupancy
  Si  Si0  1  0.021406  0.317100  0.929175  1
  Si  Si1  1  0.680690  0.616950  0.993386  1
  Si  Si2  1  0.070520  0.844936  0.009535  1
  Si  Si3  1  0.433449  0.699165  0.152328  1
  Si  Si4  1  0.043030  0.688971  0.933307  1
  Si  Si5  1  0.035136  0.676311  0.553751  1
  Si  Si6  1  0.284943  0.300835  0.847672  1
  Si  Si7  1  0.089346  0.243742  0.613729  1
  Si  Si8  1  0.416111  0.323564  0.555850  1
  Si  Si9  1  0.869674  0.696960  0.849682  1
  Si  Si10  1  0.665308  0.311029  0.066693  1
  Si  Si11  1  0.673298  0.236175  0.401919  1
  Si  Si12  1  0.057014  0.095645  0.532521  1
  Si  Si13  1  0.035198  0.528994  0.093656  1
  Si  Si14  1  0.291027  0.383050  0.006614  1
  Si  Si15  1  0.260325  0.444150  0.323564  1
  Si  Si16  1  0.295525  0.676436  0.444150  1
  Si  Si17  1  0.288553  0.446249  0.676311  1
  Si  Si18  1  0.924783  0.401919  0.763825  1
  Si  Si19  1  0.084544  0.990465  0.844936  1
  Si  Si20  1  0.661494  0.070825  0.317100  1
  Si  Si21  1  0.414223  0.152328  0.300835  1
  Si  Si22  1  0.657848  0.471006  0.906344  1
  Si  Si23  1  0.924991  0.155064  0.990465  1
  Si  Si24  1  0.416316  0.303040  0.150318  1
  Si  Si25  1  0.433366  0.150318  0.696960  1
  Si  Si26  1  0.435808  0.906344  0.528994  1
  Si  Si27  1  0.410465  0.532521  0.904355  1
  Si  Si28  1  0.280644  0.849682  0.303040  1
  Si  Si29  1  0.919945  0.009535  0.155064  1
  Si  Si30  1  0.023663  0.933307  0.311029  1
  Si  Si31  1  0.267999  0.066693  0.688971  1
  Si  Si32  1  0.265198  0.323689  0.446249  1
  Si  Si33  1  0.325924  0.993386  0.383050  1
  Si  Si34  1  0.871147  0.093656  0.471006  1
  Si  Si35  1  0.267681  0.682900  0.070825  1
  Si  Si36  1  0.028038  0.555850  0.676436  1
  Si  Si37  1  0.847341  0.467479  0.095645  1
  Si  Si38  1  0.666912  0.386271  0.243742  1
  Si  Si39  1  0.296925  0.613729  0.756258  1
  Si  Si40  1  0.685179  0.904355  0.467479  1
  Si  Si41  1  0.702360  0.006614  0.616950  1
  Si  Si42  1  0.090527  0.598081  0.236175  1
  Si  Si43  1  0.311392  0.763825  0.598081  1
  Si  Si44  1  0.867385  0.847672  0.699165  1
  Si  Si45  1  0.411113  0.553751  0.323689  1
  Si  Si46  1  0.946817  0.756258  0.386271  1
  Si  Si47  1  0.049419  0.929175  0.682900  1
  O  O48  1  0.342911  0.462854  0.957286  1
  O  O49  1  0.176817  0.655885  0.512899  1
  O  O50  1  0.030298  0.567706  0.184412  1
  O  O51  1  0.637308  0.572195  0.937641  1
  O  O52  1  0.955048  0.778283  0.608039  1
  O  O53  1  0.570385  0.876840  0.519005  1
  O  O54  1  0.964891  0.916078  0.095616  1
  O  O55  1  0.785844  0.221378  0.013451  1
  O  O56  1  0.955668  0.488084  0.696714  1
  O  O57  1  0.162075  0.285655  0.896039  1
  O  O58  1  0.787837  0.609233  0.608172  1
  O  O59  1  0.020674  0.778622  0.986549  1
  O  O60  1  0.119032  0.904384  0.916078  1
  O  O61  1  0.005242  0.390767  0.391828  1
  O  O62  1  0.152082  0.309924  0.535965  1
  O  O63  1  0.162383  0.660461  0.836228  1
  O  O64  1  0.353801  0.090409  0.717867  1
  O  O65  1  0.175287  0.843305  0.626787  1
  O  O66  1  0.147145  0.427805  0.062359  1
  O  O67  1  0.763051  0.537146  0.042714  1
  O  O68  1  0.552270  0.103961  0.285655  1
  O  O69  1  0.167298  0.487101  0.655885  1
  O  O70  1  0.324745  0.313002  0.926301  1
  O  O71  1  0.355704  0.617290  0.977491  1
  O  O72  1  0.162077  0.909591  0.282133  1
  O  O73  1  0.556249  0.303286  0.488084  1
  O  O74  1  0.659073  0.339539  0.163772  1
  O  O75  1  0.349684  0.326038  0.080285  1
  O  O76  1  0.712061  0.302313  0.312403  1
  O  O77  1  0.341369  0.221717  0.391961  1
  O  O78  1  0.041438  0.192891  0.568307  1
  O  O79  1  0.362253  0.073699  0.313002  1
  O  O80  1  0.966230  0.123160  0.480995  1
  O  O81  1  0.345602  0.344115  0.487101  1
  O  O82  1  0.251535  0.775915  0.388417  1
  O  O83  1  0.324278  0.919715  0.326038  1
  O  O84  1  0.343769  0.714345  0.103961  1
  O  O85  1  0.666806  0.977491  0.382710  1
  O  O86  1  0.001389  0.836228  0.339539  1
  O  O87  1  0.140465  0.511916  0.303286  1
  O  O88  1  0.310283  0.512899  0.344115  1
  O  O89  1  0.389718  0.792284  0.210224  1
  O  O90  1  0.570031  0.080285  0.673962  1
  O  O91  1  0.765670  0.431693  0.192891  1
  O  O92  1  0.910610  0.519005  0.123160  1
  O  O93  1  0.645380  0.156695  0.373213  1
  O  O94  1  0.537993  0.464035  0.309924  1
  O  O95  1  0.392227  0.207716  0.789776  1
  O  O96  1  0.756007  0.673962  0.919715  1
  O  O97  1  0.266669  0.391961  0.778283  1
  O  O98  1  0.941886  0.896039  0.714345  1
  O  O99  1  0.780161  0.041554  0.220915  1
  O  O100  1  0.436913  0.608039  0.221717  1
  O  O101  1  0.950484  0.382710  0.022509  1
  O  O102  1  0.197925  0.626787  0.156695  1
  O  O103  1  0.603991  0.608172  0.390767  1
  O  O104  1  0.939493  0.095616  0.083922  1
  O  O105  1  0.802637  0.807109  0.431693  1
  O  O106  1  0.055772  0.599025  0.003647  1
  O  O107  1  0.564049  0.686998  0.073699  1
  O  O108  1  0.748953  0.926301  0.686998  1
  O  O109  1  0.992778  0.986549  0.221378  1
  O  O110  1  0.178285  0.779085  0.041554  1
  O  O111  1  0.975536  0.312403  0.697687  1
  O  O112  1  0.311952  0.535965  0.690076  1
  O  O113  1  0.552776  0.480995  0.876840  1
  O  O114  1  0.347619  0.696714  0.511916  1
  O  O115  1  0.194235  0.042714  0.462854  1
  O  O116  1  0.997972  0.690076  0.464035  1
  O  O117  1  0.555790  0.282133  0.090409  1
  O  O118  1  0.027007  0.022509  0.617290  1
  O  O119  1  0.658445  0.400975  0.996353  1
  O  O120  1  0.415867  0.224085  0.611583  1
  O  O121  1  0.998924  0.220915  0.958446  1
  O  O122  1  0.940580  0.003647  0.400975  1
  O  O123  1  0.782415  0.432294  0.815588  1
  O  O124  1  0.790496  0.062359  0.572195  1
  O  O125  1  0.981407  0.373213  0.843305  1
  O  O126  1  0.817997  0.789776  0.792284  1
  O  O127  1  0.200705  0.013451  0.778622  1
  O  O128  1  0.976585  0.083922  0.904384  1
  O  O129  1  0.042629  0.958446  0.779085  1
  O  O130  1  0.326776  0.697687  0.687597  1
  O  O131  1  0.928332  0.717867  0.909591  1
  O  O132  1  0.360048  0.388417  0.224085  1
  O  O133  1  0.985627  0.687597  0.302313  1
  O  O134  1  0.602930  0.391828  0.609233  1
  O  O135  1  0.699803  0.957286  0.537146  1
  O  O136  1  0.400058  0.210224  0.207716  1
  O  O137  1  0.425051  0.937641  0.427805  1
  O  O138  1  0.177156  0.163772  0.660461  1
  O  O139  1  0.972551  0.611583  0.775915  1
  O  O140  1  0.401997  0.815588  0.567706  1
  O  O141  1  0.785291  0.184412  0.432294  1
  O  O142  1  0.390254  0.568307  0.807109  1
  O  O143  1  0.345202  0.996353  0.599025  1
