# generated using pymatgen
data_Re2Te4Cl22O
_symmetry_space_group_name_H-M   'P 1'
_cell_length_a   9.42937744
_cell_length_b   12.09046636
_cell_length_c   17.77595655
_cell_angle_alpha   90.00000000
_cell_angle_beta   86.84790467
_cell_angle_gamma   90.00000000
_symmetry_Int_Tables_number   1
_chemical_formula_structural   Re2Te4Cl22O
_chemical_formula_sum   'Re4 Te8 Cl44 O2'
_cell_volume   2023.49206711
_cell_formula_units_Z   2
loop_
 _symmetry_equiv_pos_site_id
 _symmetry_equiv_pos_as_xyz
  1  'x, y, z'
loop_
 _atom_site_type_symbol
 _atom_site_label
 _atom_site_symmetry_multiplicity
 _atom_site_fract_x
 _atom_site_fract_y
 _atom_site_fract_z
 _atom_site_occupancy
  Re  Re0  1  0.357332  0.068092  0.059490  1
  Re  Re1  1  0.857332  0.431908  0.559490  1
  Re  Re2  1  0.642668  0.931908  0.940510  1
  Re  Re3  1  0.142668  0.568092  0.440510  1
  Te  Te4  1  0.185403  0.219215  0.509525  1
  Te  Te5  1  0.814597  0.780785  0.490475  1
  Te  Te6  1  0.162695  0.555480  0.677841  1
  Te  Te7  1  0.314597  0.719215  0.990475  1
  Te  Te8  1  0.685403  0.280785  0.009525  1
  Te  Te9  1  0.337305  0.055480  0.822159  1
  Te  Te10  1  0.662695  0.944520  0.177841  1
  Te  Te11  1  0.837305  0.444520  0.322159  1
  Cl  Cl12  1  0.808263  0.986036  0.030736  1
  Cl  Cl13  1  0.150761  0.090752  0.414541  1
  Cl  Cl14  1  0.212189  0.223833  0.809344  1
  Cl  Cl15  1  0.176200  0.143241  0.137099  1
  Cl  Cl16  1  0.850586  0.048440  0.221737  1
  Cl  Cl17  1  0.388814  0.246394  0.000851  1
  Cl  Cl18  1  0.436130  0.195705  0.505073  1
  Cl  Cl19  1  0.691737  0.486036  0.469264  1
  Cl  Cl20  1  0.712189  0.276167  0.309344  1
  Cl  Cl21  1  0.787811  0.776167  0.190656  1
  Cl  Cl22  1  0.063870  0.695705  0.994927  1
  Cl  Cl23  1  0.350586  0.451560  0.721737  1
  Cl  Cl24  1  0.150615  0.087456  0.607052  1
  Cl  Cl25  1  0.676200  0.356759  0.637099  1
  Cl  Cl26  1  0.349239  0.590752  0.085459  1
  Cl  Cl27  1  0.531210  0.935304  0.295467  1
  Cl  Cl28  1  0.849385  0.912544  0.392948  1
  Cl  Cl29  1  0.308263  0.513964  0.530736  1
  Cl  Cl30  1  0.981247  0.640058  0.348679  1
  Cl  Cl31  1  0.031210  0.564696  0.795467  1
  Cl  Cl32  1  0.518753  0.140058  0.151321  1
  Cl  Cl33  1  0.468790  0.064696  0.704533  1
  Cl  Cl34  1  0.849239  0.909248  0.585459  1
  Cl  Cl35  1  0.823800  0.856759  0.862901  1
  Cl  Cl36  1  0.888814  0.253606  0.500851  1
  Cl  Cl37  1  0.191737  0.013964  0.969264  1
  Cl  Cl38  1  0.672279  0.107425  0.878109  1
  Cl  Cl39  1  0.611186  0.753606  0.999149  1
  Cl  Cl40  1  0.650615  0.412544  0.107052  1
  Cl  Cl41  1  0.149414  0.951560  0.778263  1
  Cl  Cl42  1  0.481247  0.859942  0.848679  1
  Cl  Cl43  1  0.650761  0.409248  0.914541  1
  Cl  Cl44  1  0.936130  0.304295  0.005073  1
  Cl  Cl45  1  0.018753  0.359942  0.651321  1
  Cl  Cl46  1  0.649414  0.548440  0.278263  1
  Cl  Cl47  1  0.172279  0.392575  0.378109  1
  Cl  Cl48  1  0.323800  0.643241  0.362901  1
  Cl  Cl49  1  0.563870  0.804295  0.494927  1
  Cl  Cl50  1  0.349385  0.587456  0.892948  1
  Cl  Cl51  1  0.968790  0.435304  0.204533  1
  Cl  Cl52  1  0.111186  0.746394  0.499149  1
  Cl  Cl53  1  0.827721  0.607425  0.621891  1
  Cl  Cl54  1  0.327721  0.892575  0.121891  1
  Cl  Cl55  1  0.287811  0.723833  0.690656  1
  O  O56  1  0.500000  0.000000  0.000000  1
  O  O57  1  0.000000  0.500000  0.500000  1
