# generated using pymatgen
data_NaFe2O3
_symmetry_space_group_name_H-M   'P 1'
_cell_length_a   10.26570938
_cell_length_b   31.20798166
_cell_length_c   20.56393586
_cell_angle_alpha   8.73628696
_cell_angle_beta   15.17264477
_cell_angle_gamma   17.45670838
_symmetry_Int_Tables_number   1
_chemical_formula_structural   NaFe2O3
_chemical_formula_sum   'Na4 Fe8 O12'
_cell_volume   261.89781571
_cell_formula_units_Z   4
loop_
 _symmetry_equiv_pos_site_id
 _symmetry_equiv_pos_as_xyz
  1  'x, y, z'
loop_
 _atom_site_type_symbol
 _atom_site_label
 _atom_site_symmetry_multiplicity
 _atom_site_fract_x
 _atom_site_fract_y
 _atom_site_fract_z
 _atom_site_occupancy
  Na  Na0  1  0.117625  0.318447  0.149069  1
  Na  Na1  1  0.117625  0.014886  0.104409  1
  Na  Na2  1  0.882369  0.318417  0.895635  1
  Na  Na3  1  0.882369  0.014916  0.850888  1
  Fe  Fe4  1  0.620786  0.997416  0.629925  1
  Fe  Fe5  1  0.379087  0.335644  0.370502  1
  Fe  Fe6  1  0.065331  0.666667  0.165148  1
  Fe  Fe7  1  0.620786  0.335917  0.622174  1
  Fe  Fe8  1  0.386637  0.666667  0.370120  1
  Fe  Fe9  1  0.613066  0.666667  0.630089  1
  Fe  Fe10  1  0.379087  0.997689  0.377436  1
  Fe  Fe11  1  0.934771  0.666667  0.834798  1
  O  O12  1  0.000530  0.991528  0.012443  1
  O  O13  1  0.000530  0.341805  0.987026  1
  O  O14  1  0.232067  0.376241  0.199119  1
  O  O15  1  0.000468  0.666667  0.999725  1
  O  O16  1  0.767754  0.956977  0.801174  1
  O  O17  1  0.500078  0.390549  0.414146  1
  O  O18  1  0.221124  0.666667  0.279599  1
  O  O19  1  0.767754  0.376356  0.672105  1
  O  O20  1  0.499987  0.666667  0.500021  1
  O  O21  1  0.232067  0.957092  0.327844  1
  O  O22  1  0.778022  0.666667  0.720811  1
  O  O23  1  0.500078  0.942784  0.585794  1
