# generated using pymatgen
data_Ba4Pr(RuO4)3
_symmetry_space_group_name_H-M   'P 1'
_cell_length_a   5.99099944
_cell_length_b   5.99099922
_cell_length_c   30.02434591
_cell_angle_alpha   89.06964620
_cell_angle_beta   89.06964623
_cell_angle_gamma   60.07009285
_symmetry_Int_Tables_number   1
_chemical_formula_structural   Ba4Pr(RuO4)3
_chemical_formula_sum   'Ba12 Pr3 Ru9 O36'
_cell_volume   933.75435309
_cell_formula_units_Z   3
loop_
 _symmetry_equiv_pos_site_id
 _symmetry_equiv_pos_as_xyz
  1  'x, y, z'
loop_
 _atom_site_type_symbol
 _atom_site_label
 _atom_site_symmetry_multiplicity
 _atom_site_fract_x
 _atom_site_fract_y
 _atom_site_fract_z
 _atom_site_occupancy
  Ba  Ba0  1  0.997548  0.997548  0.718101  1
  Ba  Ba1  1  0.002452  0.002452  0.281899  1
  Ba  Ba2  1  0.002551  0.002551  0.132215  1
  Ba  Ba3  1  0.997449  0.997449  0.867785  1
  Ba  Ba4  1  0.336637  0.336637  0.614620  1
  Ba  Ba5  1  0.663363  0.663363  0.385380  1
  Ba  Ba6  1  0.335050  0.335050  0.203541  1
  Ba  Ba7  1  0.666110  0.666110  0.535664  1
  Ba  Ba8  1  0.331633  0.331633  0.051685  1
  Ba  Ba9  1  0.333890  0.333890  0.464336  1
  Ba  Ba10  1  0.668367  0.668367  0.948315  1
  Ba  Ba11  1  0.664950  0.664950  0.796459  1
  Pr  Pr12  1  0.332987  0.332987  0.333447  1
  Pr  Pr13  1  0.667013  0.667013  0.666553  1
  Pr  Pr14  1  0.000000  0.000000  0.000000  1
  Ru  Ru15  1  0.663146  0.663146  0.081626  1
  Ru  Ru16  1  0.332686  0.332686  0.833404  1
  Ru  Ru17  1  0.993529  0.993529  0.415061  1
  Ru  Ru18  1  0.667314  0.667314  0.166596  1
  Ru  Ru19  1  0.006471  0.006471  0.584939  1
  Ru  Ru20  1  0.000000  0.000000  0.500000  1
  Ru  Ru21  1  0.336854  0.336854  0.918374  1
  Ru  Ru22  1  0.671099  0.671099  0.251529  1
  Ru  Ru23  1  0.328901  0.328901  0.748471  1
  O  O24  1  0.158323  0.158323  0.538498  1
  O  O25  1  0.509745  0.976058  0.123968  1
  O  O26  1  0.859419  0.859419  0.625507  1
  O  O27  1  0.490255  0.023942  0.876032  1
  O  O28  1  0.177042  0.177042  0.794057  1
  O  O29  1  0.013997  0.480356  0.714565  1
  O  O30  1  0.519644  0.986003  0.285435  1
  O  O31  1  0.650338  0.186444  0.952577  1
  O  O32  1  0.642113  0.175182  0.790641  1
  O  O33  1  0.479334  0.479334  0.709556  1
  O  O34  1  0.175182  0.642113  0.790641  1
  O  O35  1  0.812816  0.812816  0.042695  1
  O  O36  1  0.321983  0.857900  0.618397  1
  O  O37  1  0.824818  0.357887  0.209359  1
  O  O38  1  0.520666  0.520666  0.290444  1
  O  O39  1  0.692053  0.158133  0.542940  1
  O  O40  1  0.841867  0.307947  0.457060  1
  O  O41  1  0.986003  0.519644  0.285435  1
  O  O42  1  0.142100  0.678017  0.381603  1
  O  O43  1  0.187184  0.187184  0.957305  1
  O  O44  1  0.023942  0.490255  0.876032  1
  O  O45  1  0.976058  0.509745  0.123968  1
  O  O46  1  0.511289  0.511289  0.127602  1
  O  O47  1  0.349662  0.813556  0.047423  1
  O  O48  1  0.357887  0.824818  0.209359  1
  O  O49  1  0.158133  0.692053  0.542940  1
  O  O50  1  0.857900  0.321983  0.618397  1
  O  O51  1  0.140581  0.140581  0.374493  1
  O  O52  1  0.480356  0.013997  0.714565  1
  O  O53  1  0.186444  0.650338  0.952577  1
  O  O54  1  0.822958  0.822958  0.205943  1
  O  O55  1  0.813556  0.349662  0.047423  1
  O  O56  1  0.488711  0.488711  0.872398  1
  O  O57  1  0.678017  0.142100  0.381603  1
  O  O58  1  0.841677  0.841677  0.461502  1
  O  O59  1  0.307947  0.841867  0.457060  1
