# generated using pymatgen
data_Be(HO)2
_symmetry_space_group_name_H-M   'P 1'
_cell_length_a   5.78702787
_cell_length_b   4.86286525
_cell_length_c   4.85139975
_cell_angle_alpha   90.00000000
_cell_angle_beta   90.00000000
_cell_angle_gamma   90.00000000
_symmetry_Int_Tables_number   1
_chemical_formula_structural   Be(HO)2
_chemical_formula_sum   'Be4 H8 O8'
_cell_volume   136.52584426
_cell_formula_units_Z   4
loop_
 _symmetry_equiv_pos_site_id
 _symmetry_equiv_pos_as_xyz
  1  'x, y, z'
loop_
 _atom_site_type_symbol
 _atom_site_label
 _atom_site_symmetry_multiplicity
 _atom_site_fract_x
 _atom_site_fract_y
 _atom_site_fract_z
 _atom_site_occupancy
  Be  Be0  1  0.875262  0.578138  0.174794  1
  Be  Be1  1  0.624738  0.421862  0.674794  1
  Be  Be2  1  0.375262  0.921862  0.825206  1
  Be  Be3  1  0.124738  0.078138  0.325206  1
  H  H4  1  0.547487  0.338791  0.253995  1
  H  H5  1  0.952513  0.661209  0.753995  1
  H  H6  1  0.047487  0.161209  0.746005  1
  H  H7  1  0.452513  0.838791  0.246005  1
  H  H8  1  0.810039  0.993731  0.056882  1
  H  H9  1  0.689961  0.006269  0.556882  1
  H  H10  1  0.310039  0.506269  0.943118  1
  H  H11  1  0.189961  0.493731  0.443118  1
  O  O12  1  0.639952  0.482985  0.340164  1
  O  O13  1  0.860048  0.517015  0.840164  1
  O  O14  1  0.139952  0.017015  0.659836  1
  O  O15  1  0.360048  0.982985  0.159836  1
  O  O16  1  0.894065  0.914375  0.214882  1
  O  O17  1  0.605935  0.085625  0.714882  1
  O  O18  1  0.394065  0.585625  0.785118  1
  O  O19  1  0.105935  0.414375  0.285118  1
