# generated using pymatgen
data_Ho2Si4CN6
_symmetry_space_group_name_H-M   'P 1'
_cell_length_a   5.93784917
_cell_length_b   9.98531374
_cell_length_c   10.35626559
_cell_angle_alpha   90.00000000
_cell_angle_beta   90.26342429
_cell_angle_gamma   90.00000000
_symmetry_Int_Tables_number   1
_chemical_formula_structural   Ho2Si4CN6
_chemical_formula_sum   'Ho8 Si16 C4 N24'
_cell_volume   614.02982467
_cell_formula_units_Z   4
loop_
 _symmetry_equiv_pos_site_id
 _symmetry_equiv_pos_as_xyz
  1  'x, y, z'
loop_
 _atom_site_type_symbol
 _atom_site_label
 _atom_site_symmetry_multiplicity
 _atom_site_fract_x
 _atom_site_fract_y
 _atom_site_fract_z
 _atom_site_occupancy
  C  C0  1  0.270991  0.791327  0.246997  1
  C  C1  1  0.229009  0.291327  0.253003  1
  C  C2  1  0.729009  0.208673  0.753003  1
  C  C3  1  0.770991  0.708673  0.746997  1
  N  N4  1  0.066441  0.553038  0.364085  1
  N  N5  1  0.433559  0.053038  0.135915  1
  N  N6  1  0.933559  0.446962  0.635915  1
  N  N7  1  0.566441  0.946962  0.864085  1
  N  N8  1  0.773884  0.761652  0.253785  1
  N  N9  1  0.726116  0.261652  0.246215  1
  N  N10  1  0.226116  0.238348  0.746215  1
  N  N11  1  0.273884  0.738348  0.753785  1
  N  N12  1  0.004255  0.788883  0.499173  1
  N  N13  1  0.495745  0.288883  0.000827  1
  N  N14  1  0.995745  0.211117  0.500827  1
  N  N15  1  0.504255  0.711117  0.999173  1
  N  N16  1  0.521860  0.535332  0.277270  1
  N  N17  1  0.978140  0.035332  0.222730  1
  N  N18  1  0.478140  0.464668  0.722730  1
  N  N19  1  0.021860  0.964668  0.777270  1
  N  N20  1  0.160632  0.544206  0.100623  1
  N  N21  1  0.339368  0.044206  0.399377  1
  N  N22  1  0.839368  0.455794  0.899377  1
  N  N23  1  0.660632  0.955794  0.600623  1
  N  N24  1  0.027224  0.785595  0.990818  1
  N  N25  1  0.472776  0.285595  0.509182  1
  N  N26  1  0.972776  0.214405  0.009182  1
  N  N27  1  0.527224  0.714405  0.490818  1
  Si  Si28  1  0.019420  0.726442  0.341219  1
  Si  Si29  1  0.480580  0.226442  0.158781  1
  Si  Si30  1  0.980580  0.273558  0.658781  1
  Si  Si31  1  0.519420  0.773558  0.841219  1
  Si  Si32  1  0.524836  0.705166  0.323760  1
  Si  Si33  1  0.975164  0.205166  0.176240  1
  Si  Si34  1  0.475164  0.294834  0.676240  1
  Si  Si35  1  0.024836  0.794834  0.823760  1
  Si  Si36  1  0.243309  0.712173  0.079390  1
  Si  Si37  1  0.256691  0.212173  0.420610  1
  Si  Si38  1  0.756691  0.287827  0.920610  1
  Si  Si39  1  0.743309  0.787827  0.579390  1
  Si  Si40  1  0.253629  0.979210  0.250095  1
  Si  Si41  1  0.246371  0.479210  0.249905  1
  Si  Si42  1  0.746371  0.020790  0.749905  1
  Si  Si43  1  0.753629  0.520790  0.750095  1
  Ho  Ho44  1  0.737070  0.911988  0.083174  1
  Ho  Ho45  1  0.762930  0.411988  0.416826  1
  Ho  Ho46  1  0.262930  0.088012  0.916826  1
  Ho  Ho47  1  0.237070  0.588012  0.583174  1
  Ho  Ho48  1  0.734383  0.068808  0.406319  1
  Ho  Ho49  1  0.765617  0.568808  0.093681  1
  Ho  Ho50  1  0.265617  0.931192  0.593681  1
  Ho  Ho51  1  0.234383  0.431192  0.906319  1
