# generated using pymatgen
data_RbVSO6
_symmetry_space_group_name_H-M   'P 1'
_cell_length_a   5.63677875
_cell_length_b   9.04028745
_cell_length_c   10.96917260
_cell_angle_alpha   90.00000000
_cell_angle_beta   90.00000000
_cell_angle_gamma   90.00000000
_symmetry_Int_Tables_number   1
_chemical_formula_structural   RbVSO6
_chemical_formula_sum   'Rb4 V4 S4 O24'
_cell_volume   558.96819637
_cell_formula_units_Z   4
loop_
 _symmetry_equiv_pos_site_id
 _symmetry_equiv_pos_as_xyz
  1  'x, y, z'
loop_
 _atom_site_type_symbol
 _atom_site_label
 _atom_site_symmetry_multiplicity
 _atom_site_fract_x
 _atom_site_fract_y
 _atom_site_fract_z
 _atom_site_occupancy
  Rb  Rb0  1  0.253282  0.938029  0.093765  1
  Rb  Rb1  1  0.746718  0.561971  0.593765  1
  Rb  Rb2  1  0.753282  0.061971  0.406235  1
  Rb  Rb3  1  0.246718  0.438029  0.906235  1
  V  V4  1  0.790598  0.096884  0.809533  1
  V  V5  1  0.290598  0.903116  0.690467  1
  V  V6  1  0.709402  0.596884  0.190467  1
  V  V7  1  0.209402  0.403116  0.309533  1
  S  S8  1  0.768466  0.707785  0.961641  1
  S  S9  1  0.231534  0.792215  0.461641  1
  S  S10  1  0.268466  0.292215  0.538359  1
  S  S11  1  0.731534  0.207785  0.038359  1
  O  O12  1  0.449704  0.344903  0.441196  1
  O  O13  1  0.050296  0.844903  0.558804  1
  O  O14  1  0.959490  0.166105  0.969294  1
  O  O15  1  0.802166  0.251328  0.734235  1
  O  O16  1  0.215100  0.632405  0.448287  1
  O  O17  1  0.197834  0.248672  0.234235  1
  O  O18  1  0.925521  0.491426  0.270710  1
  O  O19  1  0.795076  0.623280  0.849862  1
  O  O20  1  0.540510  0.666105  0.030706  1
  O  O21  1  0.074479  0.008574  0.770710  1
  O  O22  1  0.574479  0.991426  0.729290  1
  O  O23  1  0.425521  0.508574  0.229290  1
  O  O24  1  0.459490  0.833895  0.530706  1
  O  O25  1  0.295076  0.376720  0.650138  1
  O  O26  1  0.040510  0.333895  0.469294  1
  O  O27  1  0.204924  0.876720  0.349862  1
  O  O28  1  0.284900  0.132405  0.551713  1
  O  O29  1  0.704924  0.123280  0.150138  1
  O  O30  1  0.550296  0.155097  0.941196  1
  O  O31  1  0.949704  0.655097  0.058804  1
  O  O32  1  0.697834  0.751328  0.265765  1
  O  O33  1  0.784900  0.867595  0.948287  1
  O  O34  1  0.302166  0.748672  0.765765  1
  O  O35  1  0.715100  0.367595  0.051713  1
