# generated using pymatgen
data_TlAg(CN)2
_symmetry_space_group_name_H-M   'P 1'
_cell_length_a   7.87199894
_cell_length_b   8.68249488
_cell_length_c   14.85990850
_cell_angle_alpha   90.00000000
_cell_angle_beta   90.00000000
_cell_angle_gamma   92.10183889
_symmetry_Int_Tables_number   1
_chemical_formula_structural   TlAg(CN)2
_chemical_formula_sum   'Tl8 Ag8 C16 N16'
_cell_volume   1014.97048611
_cell_formula_units_Z   8
loop_
 _symmetry_equiv_pos_site_id
 _symmetry_equiv_pos_as_xyz
  1  'x, y, z'
loop_
 _atom_site_type_symbol
 _atom_site_label
 _atom_site_symmetry_multiplicity
 _atom_site_fract_x
 _atom_site_fract_y
 _atom_site_fract_z
 _atom_site_occupancy
  Tl  Tl0  1  0.773083  0.531041  0.952257  1
  Tl  Tl1  1  0.697393  0.973151  0.261807  1
  Tl  Tl2  1  0.226917  0.468959  0.047743  1
  Tl  Tl3  1  0.302607  0.026849  0.738193  1
  Tl  Tl4  1  0.773083  0.031041  0.547743  1
  Tl  Tl5  1  0.226917  0.968959  0.452257  1
  Tl  Tl6  1  0.697393  0.473151  0.238193  1
  Tl  Tl7  1  0.302607  0.526849  0.761807  1
  Ag  Ag8  1  0.500000  0.000000  0.000000  1
  Ag  Ag9  1  0.202601  0.953740  0.179335  1
  Ag  Ag10  1  0.797399  0.046260  0.820665  1
  Ag  Ag11  1  0.797399  0.546260  0.679335  1
  Ag  Ag12  1  0.202601  0.453740  0.320665  1
  Ag  Ag13  1  0.500000  0.500000  0.500000  1
  Ag  Ag14  1  0.000000  0.500000  0.500000  1
  Ag  Ag15  1  0.000000  0.000000  0.000000  1
  C  C16  1  0.474813  0.211994  0.936196  1
  C  C17  1  0.649718  0.342800  0.683078  1
  C  C18  1  0.034886  0.765381  0.163873  1
  C  C19  1  0.474813  0.711994  0.563804  1
  C  C20  1  0.888411  0.179810  0.068186  1
  C  C21  1  0.649718  0.842800  0.816922  1
  C  C22  1  0.965114  0.734619  0.663873  1
  C  C23  1  0.525187  0.288006  0.436196  1
  C  C24  1  0.350282  0.657200  0.316922  1
  C  C25  1  0.111589  0.320190  0.568186  1
  C  C26  1  0.034886  0.265381  0.336127  1
  C  C27  1  0.111589  0.820190  0.931814  1
  C  C28  1  0.888411  0.679810  0.431814  1
  C  C29  1  0.350282  0.157200  0.183078  1
  C  C30  1  0.525187  0.788006  0.063804  1
  C  C31  1  0.965114  0.234619  0.836127  1
  N  N32  1  0.471312  0.841120  0.588358  1
  N  N33  1  0.413832  0.282078  0.179083  1
  N  N34  1  0.833227  0.790646  0.399170  1
  N  N35  1  0.528688  0.658880  0.088358  1
  N  N36  1  0.586168  0.717922  0.820917  1
  N  N37  1  0.586168  0.217922  0.679083  1
  N  N38  1  0.166773  0.709354  0.899170  1
  N  N39  1  0.833227  0.290646  0.100830  1
  N  N40  1  0.528688  0.158880  0.411642  1
  N  N41  1  0.946378  0.157108  0.353745  1
  N  N42  1  0.413832  0.782078  0.320917  1
  N  N43  1  0.166773  0.209354  0.600830  1
  N  N44  1  0.946378  0.657108  0.146255  1
  N  N45  1  0.053622  0.342892  0.853745  1
  N  N46  1  0.471312  0.341120  0.911642  1
  N  N47  1  0.053622  0.842892  0.646255  1
