# generated using pymatgen
data_Zn2SiH2O5
_symmetry_space_group_name_H-M   'P 1'
_cell_length_a   7.37645963
_cell_length_b   7.37645963
_cell_length_c   7.37645963
_cell_angle_alpha   109.38473705
_cell_angle_beta   85.00074372
_cell_angle_gamma   139.04572908
_symmetry_Int_Tables_number   1
_chemical_formula_structural   Zn2SiH2O5
_chemical_formula_sum   'Zn4 Si2 H4 O10'
_cell_volume   239.32948805
_cell_formula_units_Z   2
loop_
 _symmetry_equiv_pos_site_id
 _symmetry_equiv_pos_as_xyz
  1  'x, y, z'
loop_
 _atom_site_type_symbol
 _atom_site_label
 _atom_site_symmetry_multiplicity
 _atom_site_fract_x
 _atom_site_fract_y
 _atom_site_fract_z
 _atom_site_occupancy
  Zn  Zn0  1  0.839576  0.205123  0.042128  1
  Zn  Zn1  1  0.162995  0.797448  0.957872  1
  Zn  Zn2  1  0.839576  0.797448  0.634453  1
  Zn  Zn3  1  0.162995  0.205123  0.365547  1
  Si  Si4  1  0.361418  0.507487  0.853930  1
  Si  Si5  1  0.653557  0.507487  0.146070  1
  H  H6  1  0.188936  0.563784  0.374848  1
  H  H7  1  0.188936  0.814089  0.625152  1
  H  H8  1  0.643653  0.054730  0.411077  1
  H  H9  1  0.643653  0.232576  0.588923  1
  O  O10  1  0.430779  0.795702  0.954952  1
  O  O11  1  0.840749  0.475827  0.045048  1
  O  O12  1  0.430779  0.475827  0.635078  1
  O  O13  1  0.840749  0.795702  0.364922  1
  O  O14  1  0.027262  0.194129  0.833133  1
  O  O15  1  0.360996  0.194129  0.166867  1
  O  O16  1  0.037735  0.343143  0.305408  1
  O  O17  1  0.037735  0.732327  0.694592  1
  O  O18  1  0.590882  0.590882  0.000000  1
  O  O19  1  0.523337  0.023337  0.500000  1
