# generated using pymatgen
data_Li5Ti7In(PO4)12
_symmetry_space_group_name_H-M   'P 1'
_cell_length_a   8.65012804
_cell_length_b   8.63524311
_cell_length_c   17.29185262
_cell_angle_alpha   60.22385569
_cell_angle_beta   60.15344114
_cell_angle_gamma   60.26721363
_symmetry_Int_Tables_number   1
_chemical_formula_structural   Li5Ti7In(PO4)12
_chemical_formula_sum   'Li5 Ti7 In1 P12 O48'
_cell_volume   917.76218850
_cell_formula_units_Z   1
loop_
 _symmetry_equiv_pos_site_id
 _symmetry_equiv_pos_as_xyz
  1  'x, y, z'
loop_
 _atom_site_type_symbol
 _atom_site_label
 _atom_site_symmetry_multiplicity
 _atom_site_fract_x
 _atom_site_fract_y
 _atom_site_fract_z
 _atom_site_occupancy
  Li  Li0  1  0.009225  0.995543  0.000351  1
  Li  Li1  1  0.001071  0.998422  0.500683  1
  Li  Li2  1  0.501100  0.499636  0.250117  1
  Li  Li3  1  0.498312  0.507026  0.745342  1
  Li  Li4  1  0.639652  0.248973  0.930569  1
  Ti  Ti5  1  0.137299  0.142092  0.072116  1
  Ti  Ti6  1  0.355345  0.354947  0.183738  1
  Ti  Ti7  1  0.140767  0.142335  0.570434  1
  Ti  Ti8  1  0.359573  0.360614  0.675526  1
  Ti  Ti9  1  0.641940  0.641037  0.321186  1
  Ti  Ti10  1  0.858474  0.858510  0.428623  1
  Ti  Ti11  1  0.644989  0.651082  0.818266  1
  In  In12  1  0.862773  0.849391  0.929221  1
  P  P13  1  0.040008  0.748948  0.230776  1
  P  P14  1  0.460430  0.039256  0.375864  1
  P  P15  1  0.749107  0.445992  0.023184  1
  P  P16  1  0.250345  0.540800  0.478280  1
  P  P17  1  0.533332  0.962528  0.128468  1
  P  P18  1  0.047746  0.752881  0.723352  1
  P  P19  1  0.956867  0.250906  0.270720  1
  P  P20  1  0.450864  0.051214  0.875847  1
  P  P21  1  0.751439  0.459909  0.519618  1
  P  P22  1  0.255051  0.535478  0.982283  1
  P  P23  1  0.539574  0.959323  0.624511  1
  P  P24  1  0.959707  0.256212  0.768230  1
  O  O25  1  0.999414  0.195254  0.188000  1
  O  O26  1  0.189039  0.377220  0.002521  1
  O  O27  1  0.372110  0.003305  0.098038  1
  O  O28  1  0.117681  0.309159  0.251304  1
  O  O29  1  0.318353  0.481536  0.063909  1
  O  O30  1  0.058578  0.913773  0.136388  1
  O  O31  1  0.479683  0.118490  0.165187  1
  O  O32  1  0.228665  0.583655  0.223077  1
  O  O33  1  0.271315  0.056757  0.458434  1
  O  O34  1  0.000473  0.191517  0.689163  1
  O  O35  1  0.443027  0.229877  0.294532  1
  O  O36  1  0.194202  0.374431  0.500859  1
  O  O37  1  0.582696  0.424779  0.117837  1
  O  O38  1  0.084056  0.729024  0.470922  1
  O  O39  1  0.374218  0.000050  0.597571  1
  O  O40  1  0.121921  0.319054  0.742301  1
  O  O41  1  0.913148  0.254406  0.031973  1
  O  O42  1  0.416101  0.556941  0.383774  1
  O  O43  1  0.310030  0.498724  0.558904  1
  O  O44  1  0.560047  0.768119  0.206755  1
  O  O45  1  0.057619  0.915667  0.627317  1
  O  O46  1  0.499407  0.123387  0.652019  1
  O  O47  1  0.715553  0.975870  0.042180  1
  O  O48  1  0.235472  0.586726  0.711350  1
  O  O49  1  0.767152  0.415762  0.279224  1
  O  O50  1  0.259899  0.059100  0.957440  1
  O  O51  1  0.502603  0.874142  0.347889  1
  O  O52  1  0.941063  0.083802  0.364875  1
  O  O53  1  0.426526  0.234961  0.790733  1
  O  O54  1  0.695284  0.501176  0.437477  1
  O  O55  1  0.587298  0.442002  0.614615  1
  O  O56  1  0.102361  0.730688  0.974142  1
  O  O57  1  0.874643  0.693967  0.251675  1
  O  O58  1  0.625695  0.995887  0.403516  1
  O  O59  1  0.917409  0.270985  0.527948  1
  O  O60  1  0.428766  0.534051  0.889248  1
  O  O61  1  0.807434  0.624346  0.498556  1
  O  O62  1  0.553882  0.770667  0.709391  1
  O  O63  1  0.996751  0.805967  0.312947  1
  O  O64  1  0.729410  0.940449  0.542476  1
  O  O65  1  0.765510  0.418820  0.778277  1
  O  O66  1  0.511374  0.874143  0.850129  1
  O  O67  1  0.935860  0.105398  0.867569  1
  O  O68  1  0.696684  0.486421  0.939073  1
  O  O69  1  0.876529  0.695787  0.750573  1
  O  O70  1  0.601130  0.039703  0.902665  1
  O  O71  1  0.801273  0.602326  0.010178  1
  O  O72  1  0.024668  0.808674  0.799267  1
