# generated using pymatgen
data_CaZr4O9
_symmetry_space_group_name_H-M   'P 1'
_cell_length_a   3.50705073
_cell_length_b   7.38798955
_cell_length_c   18.78325384
_cell_angle_alpha   61.19370220
_cell_angle_beta   62.17458391
_cell_angle_gamma   61.66042402
_symmetry_Int_Tables_number   1
_chemical_formula_structural   CaZr4O9
_chemical_formula_sum   'Ca2 Zr8 O18'
_cell_volume   357.01405852
_cell_formula_units_Z   2
loop_
 _symmetry_equiv_pos_site_id
 _symmetry_equiv_pos_as_xyz
  1  'x, y, z'
loop_
 _atom_site_type_symbol
 _atom_site_label
 _atom_site_symmetry_multiplicity
 _atom_site_fract_x
 _atom_site_fract_y
 _atom_site_fract_z
 _atom_site_occupancy
  Ca  Ca0  1  0.000000  0.000000  0.200000  1
  Ca  Ca1  1  0.000000  0.500000  0.200000  1
  Zr  Zr2  1  0.958525  0.007189  0.013714  1
  Zr  Zr3  1  0.019289  0.507592  0.989248  1
  Zr  Zr4  1  0.041475  0.992811  0.386286  1
  Zr  Zr5  1  0.007029  0.006268  0.794681  1
  Zr  Zr6  1  0.980711  0.492408  0.410752  1
  Zr  Zr7  1  0.992971  0.993732  0.605319  1
  Zr  Zr8  1  0.998433  0.499647  0.800768  1
  Zr  Zr9  1  0.001567  0.500353  0.599232  1
  O  O10  1  0.188901  0.173639  0.054984  1
  O  O11  1  0.210773  0.147300  0.256771  1
  O  O12  1  0.320901  0.536403  0.057078  1
  O  O13  1  0.313687  0.125485  0.424331  1
  O  O14  1  0.679099  0.463597  0.342922  1
  O  O15  1  0.789227  0.852700  0.143229  1
  O  O16  1  0.188481  0.645918  0.466240  1
  O  O17  1  0.188868  0.155150  0.662393  1
  O  O18  1  0.804065  0.338262  0.543070  1
  O  O19  1  0.308857  0.095772  0.838148  1
  O  O20  1  0.811099  0.826361  0.345016  1
  O  O21  1  0.300939  0.599535  0.639810  1
  O  O22  1  0.699061  0.400465  0.760190  1
  O  O23  1  0.691143  0.904228  0.561852  1
  O  O24  1  0.195935  0.661738  0.856930  1
  O  O25  1  0.811519  0.354082  0.933760  1
  O  O26  1  0.811132  0.844850  0.737607  1
  O  O27  1  0.686313  0.874515  0.975669  1
