# generated using pymatgen
data_Ca4Al3O10
_symmetry_space_group_name_H-M   'P 1'
_cell_length_a   13.37074292
_cell_length_b   7.59322020
_cell_length_c   8.53042100
_cell_angle_alpha   76.00129215
_cell_angle_beta   49.94533474
_cell_angle_gamma   49.10113322
_symmetry_Int_Tables_number   1
_chemical_formula_structural   Ca4Al3O10
_chemical_formula_sum   'Ca8 Al6 O20'
_cell_volume   476.36989340
_cell_formula_units_Z   2
loop_
 _symmetry_equiv_pos_site_id
 _symmetry_equiv_pos_as_xyz
  1  'x, y, z'
loop_
 _atom_site_type_symbol
 _atom_site_label
 _atom_site_symmetry_multiplicity
 _atom_site_fract_x
 _atom_site_fract_y
 _atom_site_fract_z
 _atom_site_occupancy
  Ca  Ca0  1  0.184379  0.202957  0.302709  1
  Ca  Ca1  1  0.188367  0.358320  0.718917  1
  Ca  Ca2  1  0.257623  0.550454  0.284621  1
  Ca  Ca3  1  0.197988  0.829333  0.701246  1
  Ca  Ca4  1  0.802012  0.170667  0.298754  1
  Ca  Ca5  1  0.742377  0.449546  0.715379  1
  Ca  Ca6  1  0.811633  0.641680  0.281083  1
  Ca  Ca7  1  0.815621  0.797043  0.697291  1
  Al  Al8  1  0.160967  0.589848  0.042207  1
  Al  Al9  1  0.125263  0.085684  0.057936  1
  Al  Al10  1  0.456006  0.142951  0.777797  1
  Al  Al11  1  0.839033  0.410152  0.957793  1
  Al  Al12  1  0.543994  0.857049  0.222203  1
  Al  Al13  1  0.874737  0.914316  0.942064  1
  O  O14  1  0.949261  0.252033  0.339534  1
  O  O15  1  0.027822  0.245928  0.939355  1
  O  O16  1  0.031547  0.630505  0.332721  1
  O  O17  1  0.364987  0.177555  0.371704  1
  O  O18  1  0.175261  0.815330  0.015213  1
  O  O19  1  0.273374  0.124304  0.940101  1
  O  O20  1  0.550719  0.376842  0.973616  1
  O  O21  1  0.321069  0.429732  0.738228  1
  O  O22  1  0.346556  0.889359  0.387654  1
  O  O23  1  0.652966  0.690315  -0.030759  1
  O  O24  1  0.347034  0.309685  0.030759  1
  O  O25  1  0.653444  0.110641  0.612346  1
  O  O26  1  0.678931  0.570268  0.261772  1
  O  O27  1  0.449281  0.623158  0.026384  1
  O  O28  1  0.726626  0.875696  0.059899  1
  O  O29  1  0.824739  0.184670  -0.015213  1
  O  O30  1  0.635013  0.822445  0.628296  1
  O  O31  1  0.968453  0.369495  0.667279  1
  O  O32  1  0.972178  0.754072  0.060645  1
  O  O33  1  0.050739  0.747967  0.660466  1
