# generated using pymatgen
data_H2WO5
_symmetry_space_group_name_H-M   'P 1'
_cell_length_a   11.86055878
_cell_length_b   3.95383225
_cell_length_c   11.97228140
_cell_angle_alpha   90.00000000
_cell_angle_beta   143.25868630
_cell_angle_gamma   90.00000000
_symmetry_Int_Tables_number   1
_chemical_formula_structural   H2WO5
_chemical_formula_sum   'H8 W4 O20'
_cell_volume   335.85280483
_cell_formula_units_Z   4
loop_
 _symmetry_equiv_pos_site_id
 _symmetry_equiv_pos_as_xyz
  1  'x, y, z'
loop_
 _atom_site_type_symbol
 _atom_site_label
 _atom_site_symmetry_multiplicity
 _atom_site_fract_x
 _atom_site_fract_y
 _atom_site_fract_z
 _atom_site_occupancy
  H  H0  1  0.164454  0.281080  0.637032  1
  H  H1  1  0.835546  0.781080  0.862968  1
  H  H2  1  0.835546  0.718920  0.362968  1
  H  H3  1  0.164454  0.218920  0.137032  1
  H  H4  1  0.316169  0.557768  0.176570  1
  H  H5  1  0.683831  0.057768  0.323430  1
  H  H6  1  0.683831  0.442232  0.823430  1
  H  H7  1  0.316169  0.942232  0.676570  1
  W  W8  1  0.189281  0.428578  0.883467  1
  W  W9  1  0.810719  0.928578  0.616533  1
  W  W10  1  0.810719  0.571422  0.116533  1
  W  W11  1  0.189281  0.071422  0.383467  1
  O  O12  1  0.156213  0.415120  0.704107  1
  O  O13  1  0.843787  0.915120  0.795893  1
  O  O14  1  0.843787  0.584880  0.295893  1
  O  O15  1  0.156213  0.084880  0.204107  1
  O  O16  1  0.105856  0.928608  0.826392  1
  O  O17  1  0.894144  0.428608  0.673608  1
  O  O18  1  0.894144  0.071392  0.173608  1
  O  O19  1  0.105856  0.571392  0.326392  1
  O  O20  1  0.204356  0.429277  0.062662  1
  O  O21  1  0.795644  0.929277  0.437338  1
  O  O22  1  0.795644  0.570723  0.937338  1
  O  O23  1  0.204356  0.070723  0.562662  1
  O  O24  1  0.449649  0.253545  0.083951  1
  O  O25  1  0.550351  0.753545  0.416049  1
  O  O26  1  0.550351  0.746455  0.916049  1
  O  O27  1  0.449649  0.246455  0.583951  1
  O  O28  1  0.440321  0.623518  0.080092  1
  O  O29  1  0.559679  0.123518  0.419908  1
  O  O30  1  0.559679  0.376482  0.919908  1
  O  O31  1  0.440321  0.876482  0.580092  1
