# generated using pymatgen
data_InRe2C10BrO10
_symmetry_space_group_name_H-M   'P 1'
_cell_length_a   10.75726614
_cell_length_b   13.25672719
_cell_length_c   25.76882996
_cell_angle_alpha   90.00000000
_cell_angle_beta   97.42581643
_cell_angle_gamma   90.00000000
_symmetry_Int_Tables_number   1
_chemical_formula_structural   InRe2C10BrO10
_chemical_formula_sum   'In8 Re16 C80 Br8 O80'
_cell_volume   3643.97304970
_cell_formula_units_Z   8
loop_
 _symmetry_equiv_pos_site_id
 _symmetry_equiv_pos_as_xyz
  1  'x, y, z'
loop_
 _atom_site_type_symbol
 _atom_site_label
 _atom_site_symmetry_multiplicity
 _atom_site_fract_x
 _atom_site_fract_y
 _atom_site_fract_z
 _atom_site_occupancy
  In  In0  1  0.509544  0.293636  0.268385  1
  In  In1  1  0.070087  0.780053  0.390545  1
  In  In2  1  0.570087  0.719947  0.890545  1
  In  In3  1  0.490456  0.706364  0.731615  1
  In  In4  1  0.990456  0.793636  0.231615  1
  In  In5  1  0.009544  0.206364  0.768385  1
  In  In6  1  0.929913  0.219947  0.609455  1
  In  In7  1  0.429913  0.280053  0.109455  1
  Re  Re8  1  0.678671  0.166943  0.567635  1
  Re  Re9  1  0.188567  0.859236  0.175126  1
  Re  Re10  1  0.631455  0.209837  0.057483  1
  Re  Re11  1  0.311433  0.359236  0.324874  1
  Re  Re12  1  0.368545  0.790163  0.942517  1
  Re  Re13  1  0.321329  0.833057  0.432365  1
  Re  Re14  1  0.178671  0.333057  0.067635  1
  Re  Re15  1  0.755617  0.236048  0.315609  1
  Re  Re16  1  0.131455  0.290163  0.557483  1
  Re  Re17  1  0.744383  0.736048  0.184391  1
  Re  Re18  1  0.821329  0.666943  0.932365  1
  Re  Re19  1  0.255617  0.263952  0.815609  1
  Re  Re20  1  0.811433  0.140764  0.824874  1
  Re  Re21  1  0.688567  0.640764  0.675126  1
  Re  Re22  1  0.244383  0.763952  0.684391  1
  Re  Re23  1  0.868545  0.709837  0.442517  1
  C  C24  1  0.284843  0.342331  0.751993  1
  C  C25  1  0.265486  0.339994  0.519706  1
  C  C26  1  0.085105  0.800929  0.643568  1
  C  C27  1  0.250037  0.359194  0.001087  1
  C  C28  1  0.792412  0.818076  0.125106  1
  C  C29  1  0.868753  0.588333  0.396298  1
  C  C30  1  0.133570  0.294894  0.138197  1
  C  C31  1  0.215157  0.842331  0.748007  1
  C  C32  1  0.730677  0.029007  0.594237  1
  C  C33  1  0.885609  0.838957  0.482786  1
  C  C34  1  0.754647  0.780888  0.386327  1
  C  C35  1  0.734514  0.660006  0.480294  1
  C  C36  1  0.254647  0.719112  0.886327  1
  C  C37  1  0.292412  0.681924  0.625106  1
  C  C38  1  0.599096  0.724867  0.617945  1
  C  C39  1  0.749963  0.640806  0.998913  1
  C  C40  1  0.007082  0.650050  0.491958  1
  C  C41  1  0.385609  0.661043  0.982786  1
  C  C42  1  0.010161  0.375268  0.038068  1
  C  C43  1  0.338865  0.882102  0.660568  1
  C  C44  1  0.675842  0.857100  0.217913  1
  C  C45  1  0.269323  0.970993  0.405763  1
  C  C46  1  0.633570  0.205106  0.638197  1
  C  C47  1  0.661135  0.117898  0.339432  1
  C  C48  1  0.926744  0.024410  0.845052  1
  C  C49  1  0.188089  0.403676  0.369436  1
  C  C50  1  0.489839  0.875268  0.461932  1
  C  C51  1  0.585105  0.699071  0.143568  1
  C  C52  1  0.769323  0.529007  0.905763  1
  C  C53  1  0.847108  0.811444  0.954027  1
  C  C54  1  0.311911  0.903676  0.130564  1
  C  C55  1  0.757270  0.567048  0.740662  1
  C  C56  1  0.750037  0.140806  0.501087  1
  C  C57  1  0.368753  0.911667  0.896298  1
  C  C58  1  0.114391  0.161043  0.517214  1
  C  C59  1  0.245353  0.219112  0.613673  1
  C  C60  1  0.249963  0.859194  0.498913  1
  C  C61  1  0.866430  0.705106  0.861803  1
  C  C62  1  0.745353  0.280888  0.113673  1
  C  C63  1  0.290346  0.738484  0.202212  1
  C  C64  1  0.175842  0.642900  0.717913  1
  C  C65  1  0.073256  0.975590  0.154948  1
  C  C66  1  0.207588  0.181924  0.874894  1
  C  C67  1  0.765486  0.160006  0.019706  1
  C  C68  1  0.811911  0.596324  0.630564  1
  C  C69  1  0.989839  0.624732  0.961932  1
  C  C70  1  0.131247  0.411667  0.603702  1
  C  C71  1  0.688089  0.096324  0.869436  1
  C  C72  1  0.715157  0.657669  0.248007  1
  C  C73  1  0.324158  0.142900  0.782087  1
  C  C74  1  0.242730  0.432952  0.259338  1
  C  C75  1  0.790346  0.761516  0.702212  1
  C  C76  1  0.152892  0.188556  0.045973  1
  C  C77  1  0.742730  0.067048  0.759338  1
  C  C78  1  0.510161  0.124732  0.538068  1
  C  C79  1  0.426744  0.475590  0.345052  1
  C  C80  1  0.366430  0.794894  0.361803  1
  C  C81  1  0.914895  0.199071  0.356432  1
  C  C82  1  0.709654  0.261516  0.797788  1
  C  C83  1  0.838865  0.617898  0.160568  1
  C  C84  1  0.230677  0.470993  0.094237  1
  C  C85  1  0.099096  0.775133  0.117945  1
  C  C86  1  0.492918  0.150050  0.008042  1
  C  C87  1  0.784843  0.157669  0.251993  1
  C  C88  1  0.234514  0.839994  0.980294  1
  C  C89  1  0.347108  0.688556  0.454027  1
  C  C90  1  0.257270  0.932952  0.240662  1
  C  C91  1  0.414895  0.300929  0.856432  1
  C  C92  1  0.209654  0.238484  0.297788  1
  C  C93  1  0.507082  0.849950  0.991958  1
  C  C94  1  0.707588  0.318076  0.374894  1
  C  C95  1  0.900904  0.224867  0.882055  1
  C  C96  1  0.400904  0.275133  0.382055  1
  C  C97  1  0.992918  0.349950  0.508042  1
  C  C98  1  0.631247  0.088333  0.103702  1
  C  C99  1  0.161135  0.382102  0.839432  1
  C  C100  1  0.573256  0.524410  0.654948  1
  C  C101  1  0.652892  0.311444  0.545973  1
  C  C102  1  0.824158  0.357100  0.282087  1
  C  C103  1  0.614391  0.338957  0.017214  1
  Br  Br104  1  0.915052  0.347587  0.694075  1
  Br  Br105  1  0.415052  0.152413  0.194075  1
  Br  Br106  1  0.022444  0.076682  0.684051  1
  Br  Br107  1  0.084948  0.652413  0.305925  1
  Br  Br108  1  0.977556  0.923318  0.315949  1
  Br  Br109  1  0.584948  0.847587  0.805925  1
  Br  Br110  1  0.477556  0.576682  0.815949  1
  Br  Br111  1  0.522444  0.423318  0.184051  1
  O  O112  1  0.604614  0.049503  0.352290  1
  O  O113  1  0.410973  0.116465  0.979492  1
  O  O114  1  0.152914  0.866758  0.002692  1
  O  O115  1  0.634795  0.018880  0.130864  1
  O  O116  1  0.347086  0.366758  0.497308  1
  O  O117  1  0.599896  0.413971  0.993803  1
  O  O118  1  0.365205  0.981120  0.869136  1
  O  O119  1  0.400104  0.586029  0.006197  1
  O  O120  1  0.007839  0.043252  0.141868  1
  O  O121  1  0.603976  0.229486  0.678028  1
  O  O122  1  0.209470  0.872869  0.537847  1
  O  O123  1  0.790530  0.127131  0.462153  1
  O  O124  1  0.324286  0.637475  0.590366  1
  O  O125  1  0.297421  0.973724  0.279057  1
  O  O126  1  0.810862  0.322580  0.146181  1
  O  O127  1  0.045937  0.725834  0.084839  1
  O  O128  1  0.134795  0.481120  0.630864  1
  O  O129  1  0.257222  0.551290  0.109158  1
  O  O130  1  0.383722  0.927952  0.102819  1
  O  O131  1  0.545937  0.774166  0.584839  1
  O  O132  1  0.507018  0.321577  0.883247  1
  O  O133  1  0.689138  0.822580  0.353819  1
  O  O134  1  0.866748  0.424418  0.261649  1
  O  O135  1  0.354304  0.603561  0.465103  1
  O  O136  1  0.116278  0.427952  0.397181  1
  O  O137  1  0.850330  0.829442  0.719184  1
  O  O138  1  0.133252  0.575582  0.738351  1
  O  O139  1  0.089928  0.600293  0.980290  1
  O  O140  1  0.007018  0.178423  0.383247  1
  O  O141  1  0.847086  0.133242  0.997308  1
  O  O142  1  0.396024  0.770514  0.321972  1
  O  O143  1  0.910973  0.383535  0.479492  1
  O  O144  1  0.189138  0.677420  0.853819  1
  O  O145  1  0.992982  0.821577  0.616753  1
  O  O146  1  0.649670  0.329442  0.780816  1
  O  O147  1  0.895386  0.549503  0.147710  1
  O  O148  1  0.492982  0.678423  0.116753  1
  O  O149  1  0.589027  0.883535  0.020508  1
  O  O150  1  0.305834  0.386676  0.715209  1
  O  O151  1  0.492161  0.543252  0.358132  1
  O  O152  1  0.865205  0.518880  0.369136  1
  O  O153  1  0.896024  0.729486  0.821972  1
  O  O154  1  0.742778  0.448710  0.890842  1
  O  O155  1  0.242778  0.051290  0.390842  1
  O  O156  1  0.366748  0.075582  0.761649  1
  O  O157  1  0.410072  0.100293  0.519710  1
  O  O158  1  0.099896  0.086029  0.493803  1
  O  O159  1  0.854304  0.896439  0.965103  1
  O  O160  1  0.194166  0.886676  0.784791  1
  O  O161  1  0.103976  0.270514  0.178028  1
  O  O162  1  0.202579  0.473724  0.220943  1
  O  O163  1  0.589928  0.899707  0.480290  1
  O  O164  1  0.910072  0.399707  0.019710  1
  O  O165  1  0.900104  0.913971  0.506197  1
  O  O166  1  0.652914  0.633242  0.502692  1
  O  O167  1  0.633252  0.924418  0.238351  1
  O  O168  1  0.395386  0.950497  0.647710  1
  O  O169  1  0.175714  0.137475  0.909634  1
  O  O170  1  0.992161  0.956748  0.858132  1
  O  O171  1  0.645696  0.396439  0.534897  1
  O  O172  1  0.290530  0.372869  0.962153  1
  O  O173  1  0.507839  0.456748  0.641868  1
  O  O174  1  0.145696  0.103561  0.034897  1
  O  O175  1  0.089027  0.616465  0.520508  1
  O  O176  1  0.149670  0.170558  0.280816  1
  O  O177  1  0.454063  0.225834  0.415161  1
  O  O178  1  0.954063  0.274166  0.915161  1
  O  O179  1  0.824286  0.862525  0.090366  1
  O  O180  1  0.883722  0.572048  0.602819  1
  O  O181  1  0.702579  0.026276  0.720943  1
  O  O182  1  0.757222  0.948710  0.609158  1
  O  O183  1  0.310862  0.177420  0.646181  1
  O  O184  1  0.797421  0.526276  0.779057  1
  O  O185  1  0.104613  0.450497  0.852290  1
  O  O186  1  0.350330  0.670558  0.219184  1
  O  O187  1  0.694166  0.613324  0.284791  1
  O  O188  1  0.805834  0.113324  0.215209  1
  O  O189  1  0.616278  0.072048  0.897181  1
  O  O190  1  0.675714  0.362525  0.409634  1
  O  O191  1  0.709470  0.627131  0.037847  1
