# generated using pymatgen
data_RhSCl5
_symmetry_space_group_name_H-M   'P 1'
_cell_length_a   6.97717456
_cell_length_b   13.90870306
_cell_length_c   24.29278488
_cell_angle_alpha   87.67656124
_cell_angle_beta   81.59873610
_cell_angle_gamma   75.44033079
_symmetry_Int_Tables_number   1
_chemical_formula_structural   RhSCl5
_chemical_formula_sum   'Rh12 S12 Cl60'
_cell_volume   2257.24607780
_cell_formula_units_Z   12
loop_
 _symmetry_equiv_pos_site_id
 _symmetry_equiv_pos_as_xyz
  1  'x, y, z'
loop_
 _atom_site_type_symbol
 _atom_site_label
 _atom_site_symmetry_multiplicity
 _atom_site_fract_x
 _atom_site_fract_y
 _atom_site_fract_z
 _atom_site_occupancy
  Rh  Rh0  1  0.156547  0.718124  0.062224  1
  Rh  Rh1  1  0.935903  0.793156  0.583833  1
  Rh  Rh2  1  0.684259  0.293550  0.084204  1
  Rh  Rh3  1  0.358243  0.511718  0.147819  1
  Rh  Rh4  1  0.060077  0.205383  0.415125  1
  Rh  Rh5  1  0.933768  0.781836  0.437535  1
  Rh  Rh6  1  0.845054  0.282333  0.937969  1
  Rh  Rh7  1  0.315989  0.705650  0.915170  1
  Rh  Rh8  1  0.014691  0.988946  0.351875  1
  Rh  Rh9  1  0.982824  0.009599  0.647499  1
  Rh  Rh10  1  0.065091  0.218101  0.561964  1
  Rh  Rh11  1  0.639357  0.488382  0.852560  1
  S  S12  1  0.703146  0.129709  0.086744  1
  S  S13  1  0.081201  0.629385  0.585575  1
  S  S14  1  0.455533  0.514245  0.781646  1
  S  S15  1  0.919180  0.369771  0.412977  1
  S  S16  1  0.297263  0.869575  0.912545  1
  S  S17  1  0.862701  0.744436  0.118390  1
  S  S18  1  0.547608  0.485448  0.217548  1
  S  S19  1  0.137991  0.256869  0.880955  1
  S  S20  1  0.248180  0.012593  0.281286  1
  S  S21  1  0.749873  0.987117  0.718213  1
  S  S22  1  0.277397  0.242996  0.618287  1
  S  S23  1  0.721944  0.757393  0.381328  1
  Cl  Cl24  1  0.781665  0.957595  0.432253  1
  Cl  Cl25  1  0.557856  0.893020  0.931527  1
  Cl  Cl26  1  0.680596  0.084530  0.167508  1
  Cl  Cl27  1  0.383910  0.607968  0.566351  1
  Cl  Cl28  1  0.849359  0.182902  0.498372  1
  Cl  Cl29  1  0.613721  0.391507  0.431075  1
  Cl  Cl30  1  0.139308  0.711844  0.840006  1
  Cl  Cl31  1  0.939027  0.415441  0.331978  1
  Cl  Cl32  1  0.472337  0.681874  0.998073  1
  Cl  Cl33  1  0.651832  0.845259  0.082422  1
  Cl  Cl34  1  0.576630  0.655369  0.417495  1
  Cl  Cl35  1  0.853398  0.159690  0.357939  1
  Cl  Cl36  1  0.627587  0.659567  0.857984  1
  Cl  Cl37  1  0.161990  0.815267  0.360793  1
  Cl  Cl38  1  0.824924  0.457805  0.932313  1
  Cl  Cl39  1  0.451915  0.612225  0.265204  1
  Cl  Cl40  1  0.116326  0.320269  0.686666  1
  Cl  Cl41  1  0.850327  0.112894  0.943021  1
  Cl  Cl42  1  0.990325  0.265280  0.021285  1
  Cl  Cl43  1  0.688937  0.785232  0.659726  1
  Cl  Cl44  1  0.216358  0.041830  0.567000  1
  Cl  Cl45  1  0.677430  0.112292  0.766155  1
  Cl  Cl46  1  0.438972  0.109226  0.067224  1
  Cl  Cl47  1  0.064633  0.583914  0.666259  1
  Cl  Cl48  1  0.110556  0.111137  0.225904  1
  Cl  Cl49  1  0.838672  0.183708  0.638510  1
  Cl  Cl50  1  0.658388  0.315539  0.861535  1
  Cl  Cl51  1  0.421604  0.344994  0.582371  1
  Cl  Cl52  1  0.864763  0.284950  0.160205  1
  Cl  Cl53  1  0.142177  0.838435  0.642346  1
  Cl  Cl54  1  0.329921  0.885827  0.234357  1
  Cl  Cl55  1  0.331161  0.527408  0.915909  1
  Cl  Cl56  1  0.905875  0.387002  0.557783  1
  Cl  Cl57  1  0.797602  0.956338  0.294491  1
  Cl  Cl58  1  0.723250  0.764242  0.521275  1
  Cl  Cl59  1  0.155309  0.888057  0.057180  1
  Cl  Cl60  1  0.341698  0.683923  0.138215  1
  Cl  Cl61  1  0.125984  0.179591  0.813088  1
  Cl  Cl62  1  0.458038  0.385953  0.272466  1
  Cl  Cl63  1  0.222064  0.027214  0.415396  1
  Cl  Cl64  1  0.318150  0.912491  0.831284  1
  Cl  Cl65  1  0.530055  0.318609  0.002144  1
  Cl  Cl66  1  0.544317  0.614283  0.727345  1
  Cl  Cl67  1  0.306534  0.211616  0.338253  1
  Cl  Cl68  1  0.172643  0.543545  0.067772  1
  Cl  Cl69  1  0.668985  0.471782  0.084020  1
  Cl  Cl70  1  0.053680  0.542511  0.206188  1
  Cl  Cl71  1  0.276453  0.235224  0.477617  1
  Cl  Cl72  1  0.149613  0.818115  0.501208  1
  Cl  Cl73  1  0.095353  0.612794  0.441355  1
  Cl  Cl74  1  0.874828  0.819963  0.186828  1
  Cl  Cl75  1  0.347664  0.155223  0.917762  1
  Cl  Cl76  1  0.774244  0.971874  0.584631  1
  Cl  Cl77  1  0.552292  0.388284  0.733633  1
  Cl  Cl78  1  0.881299  0.680204  0.313047  1
  Cl  Cl79  1  0.203629  0.040189  0.704746  1
  Cl  Cl80  1  0.882525  0.884907  0.773008  1
  Cl  Cl81  1  0.374322  0.339192  0.142561  1
  Cl  Cl82  1  0.949894  0.456598  0.794813  1
  Cl  Cl83  1  0.010214  0.737493  0.978511  1
