# generated using pymatgen
data_CsRe3(S2Br)2
_symmetry_space_group_name_H-M   'P 1'
_cell_length_a   6.47086826
_cell_length_b   9.53525430
_cell_length_c   18.92505062
_cell_angle_alpha   90.00067114
_cell_angle_beta   89.99989400
_cell_angle_gamma   103.97796579
_symmetry_Int_Tables_number   1
_chemical_formula_structural   CsRe3(S2Br)2
_chemical_formula_sum   'Cs4 Re12 S16 Br8'
_cell_volume   1133.12445933
_cell_formula_units_Z   4
loop_
 _symmetry_equiv_pos_site_id
 _symmetry_equiv_pos_as_xyz
  1  'x, y, z'
loop_
 _atom_site_type_symbol
 _atom_site_label
 _atom_site_symmetry_multiplicity
 _atom_site_fract_x
 _atom_site_fract_y
 _atom_site_fract_z
 _atom_site_occupancy
  Cs  Cs0  1  0.008264  0.558560  0.309926  1
  Cs  Cs1  1  0.491735  0.941443  0.809927  1
  Cs  Cs2  1  0.508261  0.058556  0.190073  1
  Cs  Cs3  1  0.991737  0.441442  0.690074  1
  Re  Re4  1  0.791457  0.071933  0.505829  1
  Re  Re5  1  0.019394  0.344923  0.942224  1
  Re  Re6  1  0.208566  0.928072  0.494171  1
  Re  Re7  1  0.535488  0.895412  0.419616  1
  Re  Re8  1  0.035478  0.395414  0.080386  1
  Re  Re9  1  0.291521  0.571951  0.994168  1
  Re  Re10  1  0.964519  0.604586  0.919612  1
  Re  Re11  1  0.519407  0.844934  0.557774  1
  Re  Re12  1  0.464509  0.104591  0.580389  1
  Re  Re13  1  0.708486  0.428048  0.005828  1
  Re  Re14  1  0.480602  0.155075  0.442226  1
  Re  Re15  1  0.980607  0.655070  0.057774  1
  S  S16  1  0.755136  0.022333  0.630887  1
  S  S17  1  0.715889  0.386460  0.880178  1
  S  S18  1  0.244861  0.977669  0.369112  1
  S  S19  1  0.219827  0.804937  0.974304  1
  S  S20  1  0.812535  0.815921  0.483731  1
  S  S21  1  0.744864  0.477668  0.130887  1
  S  S22  1  0.280172  0.695065  0.474304  1
  S  S23  1  0.255132  0.522331  0.869113  1
  S  S24  1  0.719827  0.304936  0.525694  1
  S  S25  1  0.784113  0.113537  0.380177  1
  S  S26  1  0.780170  0.195063  0.025696  1
  S  S27  1  0.187460  0.184076  0.516268  1
  S  S28  1  0.284115  0.613537  0.119823  1
  S  S29  1  0.312540  0.315918  0.016270  1
  S  S30  1  0.687460  0.684081  0.983732  1
  S  S31  1  0.215881  0.886462  0.619824  1
  Br  Br32  1  0.539670  0.632239  0.638912  1
  Br  Br33  1  0.460328  0.367759  0.361088  1
  Br  Br34  1  0.960329  0.867757  0.138912  1
  Br  Br35  1  0.577608  0.758139  0.304116  1
  Br  Br36  1  0.077608  0.258140  0.195884  1
  Br  Br37  1  0.922388  0.741860  0.804116  1
  Br  Br38  1  0.422389  0.241860  0.695885  1
  Br  Br39  1  0.039667  0.132239  0.861088  1
