# generated using pymatgen
data_Rh9Se20
_symmetry_space_group_name_H-M   'P 1'
_cell_length_a   6.08660803
_cell_length_b   6.08818109
_cell_length_c   61.00010123
_cell_angle_alpha   90.00961627
_cell_angle_beta   90.37312587
_cell_angle_gamma   90.03439780
_symmetry_Int_Tables_number   1
_chemical_formula_structural   Rh9Se20
_chemical_formula_sum   'Rh36 Se80'
_cell_volume   2260.39406588
_cell_formula_units_Z   4
loop_
 _symmetry_equiv_pos_site_id
 _symmetry_equiv_pos_as_xyz
  1  'x, y, z'
loop_
 _atom_site_type_symbol
 _atom_site_label
 _atom_site_symmetry_multiplicity
 _atom_site_fract_x
 _atom_site_fract_y
 _atom_site_fract_z
 _atom_site_occupancy
  Rh  Rh0  1  0.998872  0.004597  0.000105  1
  Rh  Rh1  1  0.000000  0.000000  0.100000  1
  Rh  Rh2  1  0.001128  0.995403  0.199895  1
  Rh  Rh3  1  0.997484  0.000502  0.399943  1
  Rh  Rh4  1  0.999909  0.000155  0.499937  1
  Rh  Rh5  1  0.000000  0.000000  0.600000  1
  Rh  Rh6  1  0.000091  0.999845  0.700063  1
  Rh  Rh7  1  0.000251  0.499983  0.749985  1
  Rh  Rh8  1  0.002516  0.999498  0.800057  1
  Rh  Rh9  1  0.000586  0.496097  0.850059  1
  Rh  Rh10  1  0.000949  0.504287  0.950078  1
  Rh  Rh11  1  0.507644  0.497090  0.999933  1
  Rh  Rh12  1  0.500922  0.000231  0.149905  1
  Rh  Rh13  1  0.500000  0.500000  0.100000  1
  Rh  Rh14  1  0.499078  0.999769  0.050095  1
  Rh  Rh15  1  0.499710  0.500024  0.300015  1
  Rh  Rh16  1  0.492356  0.502910  0.200067  1
  Rh  Rh17  1  0.500995  0.499537  0.399888  1
  Rh  Rh18  1  0.499926  0.499941  0.499990  1
  Rh  Rh19  1  0.493253  0.996717  0.350060  1
  Rh  Rh20  1  0.500000  0.500000  0.600000  1
  Rh  Rh21  1  0.507235  0.003625  0.249762  1
  Rh  Rh22  1  0.500233  0.000435  0.450034  1
  Rh  Rh23  1  0.499942  0.000086  0.650019  1
  Rh  Rh24  1  0.500058  0.999914  0.549981  1
  Rh  Rh25  1  0.499767  0.999565  0.749966  1
  Rh  Rh26  1  0.500074  0.500059  0.700010  1
  Rh  Rh27  1  0.506747  0.003283  0.849940  1
  Rh  Rh28  1  0.499005  0.500463  0.800112  1
  Rh  Rh29  1  0.500290  0.499976  0.899985  1
  Rh  Rh30  1  0.492765  0.996375  0.950238  1
  Rh  Rh31  1  0.999051  0.495713  0.249922  1
  Rh  Rh32  1  0.999414  0.503903  0.349941  1
  Rh  Rh33  1  0.999749  0.500017  0.450015  1
  Rh  Rh34  1  0.999859  0.499972  0.550001  1
  Rh  Rh35  1  0.000141  0.500028  0.649999  1
  Se  Se36  1  0.114888  0.617526  0.088631  1
  Se  Se37  1  0.116339  0.621903  0.187906  1
  Se  Se38  1  0.118813  0.615290  0.288428  1
  Se  Se39  1  0.121410  0.621252  0.387907  1
  Se  Se40  1  0.122741  0.623033  0.487809  1
  Se  Se41  1  0.117368  0.885063  0.038559  1
  Se  Se42  1  0.122485  0.622776  0.587827  1
  Se  Se43  1  0.117584  0.877403  0.337847  1
  Se  Se44  1  0.118471  0.886636  0.138429  1
  Se  Se45  1  0.122408  0.622712  0.687779  1
  Se  Se46  1  0.116400  0.885202  0.238700  1
  Se  Se47  1  0.120872  0.621642  0.787914  1
  Se  Se48  1  0.119017  0.614753  0.888428  1
  Se  Se49  1  0.116572  0.615247  0.988807  1
  Se  Se50  1  0.122548  0.877120  0.537805  1
  Se  Se51  1  0.122869  0.876759  0.437769  1
  Se  Se52  1  0.122360  0.877429  0.637820  1
  Se  Se53  1  0.117729  0.884323  0.838705  1
  Se  Se54  1  0.122078  0.877420  0.737840  1
  Se  Se55  1  0.116995  0.877550  0.937911  1
  Se  Se56  1  0.378867  0.120997  0.087969  1
  Se  Se57  1  0.387677  0.116342  0.288037  1
  Se  Se58  1  0.378355  0.120957  0.187623  1
  Se  Se59  1  0.377402  0.121246  0.387831  1
  Se  Se60  1  0.387708  0.383671  0.038172  1
  Se  Se61  1  0.377066  0.122444  0.487773  1
  Se  Se62  1  0.386821  0.384509  0.138167  1
  Se  Se63  1  0.377245  0.122264  0.587758  1
  Se  Se64  1  0.377255  0.122287  0.687741  1
  Se  Se65  1  0.378700  0.379635  0.237938  1
  Se  Se66  1  0.387344  0.116248  0.888091  1
  Se  Se67  1  0.377327  0.377718  0.337718  1
  Se  Se68  1  0.378225  0.121760  0.787741  1
  Se  Se69  1  0.378326  0.120815  0.988054  1
  Se  Se70  1  0.377678  0.377790  0.437785  1
  Se  Se71  1  0.377021  0.377571  0.537805  1
  Se  Se72  1  0.377293  0.377774  0.637755  1
  Se  Se73  1  0.377171  0.377669  0.737700  1
  Se  Se74  1  0.378166  0.379094  0.837961  1
  Se  Se75  1  0.376966  0.377735  0.937703  1
  Se  Se76  1  0.612292  0.616329  0.161828  1
  Se  Se77  1  0.613179  0.615491  0.061833  1
  Se  Se78  1  0.623034  0.622265  0.262297  1
  Se  Se79  1  0.621834  0.620906  0.362039  1
  Se  Se80  1  0.621645  0.879043  0.012377  1
  Se  Se81  1  0.622829  0.622331  0.462300  1
  Se  Se82  1  0.621133  0.879003  0.112031  1
  Se  Se83  1  0.622707  0.622226  0.562245  1
  Se  Se84  1  0.622979  0.622429  0.662195  1
  Se  Se85  1  0.621674  0.879185  0.211946  1
  Se  Se86  1  0.622322  0.622210  0.762215  1
  Se  Se87  1  0.622673  0.622282  0.862282  1
  Se  Se88  1  0.621775  0.878240  0.412259  1
  Se  Se89  1  0.622745  0.877713  0.512259  1
  Se  Se90  1  0.621300  0.620365  0.962062  1
  Se  Se91  1  0.612656  0.883752  0.311909  1
  Se  Se92  1  0.622755  0.877736  0.612242  1
  Se  Se93  1  0.622934  0.877556  0.712227  1
  Se  Se94  1  0.622598  0.878754  0.812169  1
  Se  Se95  1  0.612323  0.883658  0.911963  1
  Se  Se96  1  0.881529  0.113364  0.061571  1
  Se  Se97  1  0.882632  0.114937  0.161441  1
  Se  Se98  1  0.883005  0.122450  0.262089  1
  Se  Se99  1  0.882271  0.115677  0.361295  1
  Se  Se100  1  0.877922  0.122580  0.462160  1
  Se  Se101  1  0.877640  0.122571  0.562180  1
  Se  Se102  1  0.883661  0.378097  0.012094  1
  Se  Se103  1  0.885112  0.382474  0.111369  1
  Se  Se104  1  0.877452  0.122880  0.662195  1
  Se  Se105  1  0.877131  0.123241  0.762231  1
  Se  Se106  1  0.883428  0.384753  0.211193  1
  Se  Se107  1  0.880983  0.385247  0.311572  1
  Se  Se108  1  0.882416  0.122597  0.862153  1
  Se  Se109  1  0.883600  0.114798  0.961300  1
  Se  Se110  1  0.879128  0.378358  0.412086  1
  Se  Se111  1  0.877592  0.377288  0.512221  1
  Se  Se112  1  0.877515  0.377224  0.612173  1
  Se  Se113  1  0.877259  0.376967  0.712191  1
  Se  Se114  1  0.878590  0.378748  0.812093  1
  Se  Se115  1  0.881187  0.384710  0.911572  1
