# generated using pymatgen
data_BeH4NF3
_symmetry_space_group_name_H-M   'P 1'
_cell_length_a   5.83048570
_cell_length_b   4.48699263
_cell_length_c   13.01990606
_cell_angle_alpha   90.00000000
_cell_angle_beta   90.42142389
_cell_angle_gamma   90.00000000
_symmetry_Int_Tables_number   1
_chemical_formula_structural   BeH4NF3
_chemical_formula_sum   'Be4 H16 N4 F12'
_cell_volume   340.60905866
_cell_formula_units_Z   4
loop_
 _symmetry_equiv_pos_site_id
 _symmetry_equiv_pos_as_xyz
  1  'x, y, z'
loop_
 _atom_site_type_symbol
 _atom_site_label
 _atom_site_symmetry_multiplicity
 _atom_site_fract_x
 _atom_site_fract_y
 _atom_site_fract_z
 _atom_site_occupancy
  Be  Be0  1  0.730265  0.819697  0.677562  1
  Be  Be1  1  0.230265  0.180303  0.177562  1
  Be  Be2  1  0.782696  0.318297  0.817530  1
  Be  Be3  1  0.282696  0.681703  0.317530  1
  H  H4  1  0.071202  0.268373  0.637815  1
  H  H5  1  0.571202  0.731627  0.137815  1
  H  H6  1  0.313464  0.470164  0.619081  1
  H  H7  1  0.813464  0.529836  0.119081  1
  H  H8  1  0.321796  0.082017  0.619892  1
  H  H9  1  0.821796  0.917983  0.119892  1
  H  H10  1  0.195189  0.272003  0.523382  1
  H  H11  1  0.695189  0.727997  0.023382  1
  H  H12  1  0.428656  0.765915  0.860384  1
  H  H13  1  0.928656  0.234085  0.360384  1
  H  H14  1  0.183228  0.570690  0.881481  1
  H  H15  1  0.683228  0.429310  0.381481  1
  H  H16  1  0.184130  0.959464  0.880167  1
  H  H17  1  0.684130  0.040536  0.380167  1
  H  H18  1  0.311793  0.770660  0.976088  1
  H  H19  1  0.811793  0.229340  0.476088  1
  N  N20  1  0.226483  0.272772  0.600946  1
  N  N21  1  0.726483  0.727228  0.100946  1
  N  N22  1  0.275786  0.765914  0.899127  1
  N  N23  1  0.775786  0.234086  0.399127  1
  F  F24  1  0.752391  0.168292  0.705872  1
  F  F25  1  0.252391  0.831708  0.205872  1
  F  F26  1  0.918314  0.743599  0.604900  1
  F  F27  1  0.418314  0.256401  0.104900  1
  F  F28  1  0.478336  0.772902  0.639918  1
  F  F29  1  0.978336  0.227098  0.139918  1
  F  F30  1  0.756182  0.666036  0.788997  1
  F  F31  1  0.256182  0.333964  0.288997  1
  F  F32  1  0.602965  0.239103  0.893684  1
  F  F33  1  0.102965  0.760897  0.393684  1
  F  F34  1  0.036923  0.268496  0.851973  1
  F  F35  1  0.536923  0.731504  0.351973  1
