# generated using pymatgen
data_Eu(LuSe2)2
_symmetry_space_group_name_H-M   'P 1'
_cell_length_a   4.06195314
_cell_length_b   12.41270974
_cell_length_c   14.70193932
_cell_angle_alpha   90.00000000
_cell_angle_beta   90.00000000
_cell_angle_gamma   90.00000000
_symmetry_Int_Tables_number   1
_chemical_formula_structural   Eu(LuSe2)2
_chemical_formula_sum   'Eu4 Lu8 Se16'
_cell_volume   741.26950619
_cell_formula_units_Z   4
loop_
 _symmetry_equiv_pos_site_id
 _symmetry_equiv_pos_as_xyz
  1  'x, y, z'
loop_
 _atom_site_type_symbol
 _atom_site_label
 _atom_site_symmetry_multiplicity
 _atom_site_fract_x
 _atom_site_fract_y
 _atom_site_fract_z
 _atom_site_occupancy
  Eu  Eu0  1  0.750000  0.239740  0.333739  1
  Eu  Eu1  1  0.750000  0.739740  0.166261  1
  Eu  Eu2  1  0.250000  0.760260  0.666261  1
  Eu  Eu3  1  0.250000  0.260260  0.833739  1
  Lu  Lu4  1  0.750000  0.561003  0.389051  1
  Lu  Lu5  1  0.250000  0.916622  0.402735  1
  Lu  Lu6  1  0.750000  0.083378  0.597265  1
  Lu  Lu7  1  0.750000  0.061003  0.110949  1
  Lu  Lu8  1  0.750000  0.583378  0.902735  1
  Lu  Lu9  1  0.250000  0.416622  0.097265  1
  Lu  Lu10  1  0.250000  0.438997  0.610949  1
  Lu  Lu11  1  0.250000  0.938997  0.889051  1
  Se  Se12  1  0.750000  0.472057  0.215696  1
  Se  Se13  1  0.250000  0.027943  0.715696  1
  Se  Se14  1  0.750000  0.972057  0.284304  1
  Se  Se15  1  0.250000  0.527943  0.784304  1
  Se  Se16  1  0.750000  0.795020  0.829797  1
  Se  Se17  1  0.250000  0.129569  0.468574  1
  Se  Se18  1  0.250000  0.907429  0.077228  1
  Se  Se19  1  0.750000  0.092571  0.922772  1
  Se  Se20  1  0.750000  0.870431  0.531426  1
  Se  Se21  1  0.250000  0.407429  0.422772  1
  Se  Se22  1  0.250000  0.704980  0.329797  1
  Se  Se23  1  0.250000  0.629569  0.031426  1
  Se  Se24  1  0.750000  0.592571  0.577228  1
  Se  Se25  1  0.250000  0.204980  0.170203  1
  Se  Se26  1  0.750000  0.295020  0.670203  1
  Se  Se27  1  0.750000  0.370431  0.968574  1
