# generated using pymatgen
data_Ce5C2Br9
_symmetry_space_group_name_H-M   'P 1'
_cell_length_a   9.91549125
_cell_length_b   11.28439448
_cell_length_c   16.58025662
_cell_angle_alpha   90.00000000
_cell_angle_beta   90.00000000
_cell_angle_gamma   90.00000000
_symmetry_Int_Tables_number   1
_chemical_formula_structural   Ce5C2Br9
_chemical_formula_sum   'Ce20 C8 Br36'
_cell_volume   1855.17013148
_cell_formula_units_Z   4
loop_
 _symmetry_equiv_pos_site_id
 _symmetry_equiv_pos_as_xyz
  1  'x, y, z'
loop_
 _atom_site_type_symbol
 _atom_site_label
 _atom_site_symmetry_multiplicity
 _atom_site_fract_x
 _atom_site_fract_y
 _atom_site_fract_z
 _atom_site_occupancy
  Ce  Ce0  1  0.452426  0.190596  0.950478  1
  Ce  Ce1  1  0.250000  0.928476  0.659181  1
  Ce  Ce2  1  0.250000  0.963167  0.435868  1
  Ce  Ce3  1  0.750000  0.863730  0.850605  1
  Ce  Ce4  1  0.750000  0.071524  0.340819  1
  Ce  Ce5  1  0.952426  0.309404  0.450478  1
  Ce  Ce6  1  0.750000  0.363730  0.649395  1
  Ce  Ce7  1  0.452426  0.690596  0.549522  1
  Ce  Ce8  1  0.250000  0.636270  0.350605  1
  Ce  Ce9  1  0.047574  0.190596  0.950478  1
  Ce  Ce10  1  0.750000  0.036833  0.564132  1
  Ce  Ce11  1  0.750000  0.536833  0.935868  1
  Ce  Ce12  1  0.250000  0.136270  0.149395  1
  Ce  Ce13  1  0.250000  0.428476  0.840819  1
  Ce  Ce14  1  0.750000  0.571524  0.159181  1
  Ce  Ce15  1  0.547574  0.809404  0.049522  1
  Ce  Ce16  1  0.952426  0.809404  0.049522  1
  Ce  Ce17  1  0.047574  0.690596  0.549522  1
  Ce  Ce18  1  0.547574  0.309404  0.450478  1
  Ce  Ce19  1  0.250000  0.463167  0.064132  1
  C  C20  1  0.250000  0.745257  0.470814  1
  C  C21  1  0.750000  0.754743  0.970814  1
  C  C22  1  0.750000  0.181220  0.457115  1
  C  C23  1  0.750000  0.681220  0.042885  1
  C  C24  1  0.250000  0.318780  0.957115  1
  C  C25  1  0.250000  0.818780  0.542885  1
  C  C26  1  0.250000  0.245257  0.029186  1
  C  C27  1  0.750000  0.254743  0.529186  1
  Br  Br28  1  0.965720  0.568476  0.388251  1
  Br  Br29  1  0.750000  0.339220  0.288780  1
  Br  Br30  1  0.072281  0.113884  0.561085  1
  Br  Br31  1  0.750000  0.613413  0.559103  1
  Br  Br32  1  0.534280  0.068476  0.111749  1
  Br  Br33  1  0.965720  0.068476  0.111749  1
  Br  Br34  1  0.927719  0.386116  0.061085  1
  Br  Br35  1  0.250000  0.160780  0.788780  1
  Br  Br36  1  0.448646  0.635178  0.175293  1
  Br  Br37  1  0.250000  0.386587  0.440897  1
  Br  Br38  1  0.572281  0.886116  0.438915  1
  Br  Br39  1  0.534280  0.568476  0.388251  1
  Br  Br40  1  0.072281  0.613884  0.938915  1
  Br  Br41  1  0.250000  0.872045  0.271752  1
  Br  Br42  1  0.448646  0.135178  0.324707  1
  Br  Br43  1  0.551354  0.364822  0.824707  1
  Br  Br44  1  0.927719  0.886116  0.438915  1
  Br  Br45  1  0.750000  0.839220  0.211220  1
  Br  Br46  1  0.427719  0.613884  0.938915  1
  Br  Br47  1  0.551354  0.864822  0.675293  1
  Br  Br48  1  0.572281  0.386116  0.061085  1
  Br  Br49  1  0.948646  0.364822  0.824707  1
  Br  Br50  1  0.427719  0.113884  0.561085  1
  Br  Br51  1  0.250000  0.886587  0.059103  1
  Br  Br52  1  0.948646  0.864822  0.675293  1
  Br  Br53  1  0.250000  0.372045  0.228248  1
  Br  Br54  1  0.034280  0.931524  0.888251  1
  Br  Br55  1  0.750000  0.113413  0.940897  1
  Br  Br56  1  0.750000  0.627955  0.771752  1
  Br  Br57  1  0.051354  0.135178  0.324707  1
  Br  Br58  1  0.465720  0.931524  0.888251  1
  Br  Br59  1  0.034280  0.431524  0.611749  1
  Br  Br60  1  0.051354  0.635178  0.175293  1
  Br  Br61  1  0.750000  0.127955  0.728248  1
  Br  Br62  1  0.250000  0.660780  0.711220  1
  Br  Br63  1  0.465720  0.431524  0.611749  1
