# generated using pymatgen
data_H7ClO3
_symmetry_space_group_name_H-M   'P 1'
_cell_length_a   6.59483778
_cell_length_b   6.59483778
_cell_length_c   6.52447694
_cell_angle_alpha   70.55711740
_cell_angle_beta   109.44288260
_cell_angle_gamma   72.18728205
_symmetry_Int_Tables_number   1
_chemical_formula_structural   H7ClO3
_chemical_formula_sum   'H14 Cl2 O6'
_cell_volume   222.89866023
_cell_formula_units_Z   2
loop_
 _symmetry_equiv_pos_site_id
 _symmetry_equiv_pos_as_xyz
  1  'x, y, z'
loop_
 _atom_site_type_symbol
 _atom_site_label
 _atom_site_symmetry_multiplicity
 _atom_site_fract_x
 _atom_site_fract_y
 _atom_site_fract_z
 _atom_site_occupancy
  H  H0  1  0.214258  0.949692  0.409998  1
  H  H1  1  0.457586  0.704689  0.579003  1
  H  H2  1  0.050308  0.785742  0.909998  1
  H  H3  1  0.295311  0.542414  0.079003  1
  H  H4  1  0.796775  0.322148  0.728911  1
  H  H5  1  0.565186  0.438697  0.460379  1
  H  H6  1  0.677852  0.203225  0.228911  1
  H  H7  1  0.561303  0.434814  0.960379  1
  H  H8  1  0.549727  0.167291  0.736146  1
  H  H9  1  0.386763  0.085627  0.867183  1
  H  H10  1  0.448852  0.957893  0.694537  1
  H  H11  1  0.832709  0.450273  0.236146  1
  H  H12  1  0.914373  0.613237  0.367183  1
  H  H13  1  0.042107  0.551148  0.194537  1
  Cl  Cl14  1  0.816680  0.859038  0.458752  1
  Cl  Cl15  1  0.140962  0.183320  0.958752  1
  O  O16  1  0.348513  0.843097  0.581352  1
  O  O17  1  0.156903  0.651487  0.081352  1
  O  O18  1  0.612756  0.385078  0.635854  1
  O  O19  1  0.614922  0.387244  0.135854  1
  O  O20  1  0.516292  0.028331  0.815493  1
  O  O21  1  0.971669  0.483708  0.315493  1
