# generated using pymatgen
data_Cu9S16
_symmetry_space_group_name_H-M   'P 1'
_cell_length_a   3.61751680
_cell_length_b   3.61751676
_cell_length_c   57.16522482
_cell_angle_alpha   59.58535890
_cell_angle_beta   59.58535925
_cell_angle_gamma   59.99999623
_symmetry_Int_Tables_number   1
_chemical_formula_structural   Cu9S16
_chemical_formula_sum   'Cu9 S16'
_cell_volume   525.63895002
_cell_formula_units_Z   1
loop_
 _symmetry_equiv_pos_site_id
 _symmetry_equiv_pos_as_xyz
  1  'x, y, z'
loop_
 _atom_site_type_symbol
 _atom_site_label
 _atom_site_symmetry_multiplicity
 _atom_site_fract_x
 _atom_site_fract_y
 _atom_site_fract_z
 _atom_site_occupancy
  Cu  Cu0  1  0.499426  0.499426  0.093858  1
  Cu  Cu1  1  0.247617  0.247617  0.516072  1
  Cu  Cu2  1  0.756758  0.756758  0.608108  1
  Cu  Cu3  1  0.748659  0.748659  0.672126  1
  Cu  Cu4  1  0.748394  0.748394  0.734676  1
  Cu  Cu5  1  0.748392  0.748392  0.797176  1
  Cu  Cu6  1  0.748643  0.748643  0.859629  1
  Cu  Cu7  1  0.748787  0.748787  0.922102  1
  Cu  Cu8  1  0.743317  0.743317  0.985628  1
  S  S9  1  0.995941  0.995941  0.000761  1
  S  S10  1  0.970341  0.970341  0.068061  1
  S  S11  1  0.026033  0.026033  0.120119  1
  S  S12  1  0.993249  0.993249  0.188766  1
  S  S13  1  0.999083  0.999083  0.250172  1
  S  S14  1  0.998453  0.998453  0.375290  1
  S  S15  1  0.009093  0.009093  0.435795  1
  S  S16  1  0.001785  0.001785  0.312165  1
  S  S17  1  0.004299  0.004299  0.499194  1
  S  S18  1  0.002187  0.002187  0.562090  1
  S  S19  1  0.002021  0.002021  0.687121  1
  S  S20  1  0.001554  0.001554  0.749709  1
  S  S21  1  0.003706  0.003706  0.624305  1
  S  S22  1  0.001983  0.001983  0.812128  1
  S  S23  1  0.001053  0.001053  0.874803  1
  S  S24  1  0.999224  0.999224  0.937645  1
