# generated using pymatgen
data_Na3Sr4Al5F26
_symmetry_space_group_name_H-M   'P 1'
_cell_length_a   10.39771222
_cell_length_b   10.39771222
_cell_length_c   18.60185603
_cell_angle_alpha   90.00000000
_cell_angle_beta   90.00000000
_cell_angle_gamma   90.00000000
_symmetry_Int_Tables_number   1
_chemical_formula_structural   Na3Sr4Al5F26
_chemical_formula_sum   'Na12 Sr16 Al20 F104'
_cell_volume   2011.09166092
_cell_formula_units_Z   4
loop_
 _symmetry_equiv_pos_site_id
 _symmetry_equiv_pos_as_xyz
  1  'x, y, z'
loop_
 _atom_site_type_symbol
 _atom_site_label
 _atom_site_symmetry_multiplicity
 _atom_site_fract_x
 _atom_site_fract_y
 _atom_site_fract_z
 _atom_site_occupancy
  Na  Na0  1  0.750000  0.250000  0.495979  1
  Na  Na1  1  0.750000  0.250000  0.995979  1
  Na  Na2  1  0.500000  0.500000  0.500000  1
  Na  Na3  1  0.000000  0.500000  0.000000  1
  Na  Na4  1  0.250000  0.250000  0.502201  1
  Na  Na5  1  0.250000  0.750000  0.504021  1
  Na  Na6  1  0.750000  0.750000  0.497799  1
  Na  Na7  1  0.500000  0.000000  0.000000  1
  Na  Na8  1  0.000000  0.000000  0.500000  1
  Na  Na9  1  0.250000  0.250000  0.997799  1
  Na  Na10  1  0.250000  0.750000  0.004021  1
  Na  Na11  1  0.750000  0.750000  0.002201  1
  Sr  Sr12  1  0.287437  0.997144  0.194503  1
  Sr  Sr13  1  0.502856  0.287437  0.305497  1
  Sr  Sr14  1  0.787437  0.497144  0.805497  1
  Sr  Sr15  1  0.782047  0.497328  0.174458  1
  Sr  Sr16  1  0.282047  0.997328  0.825542  1
  Sr  Sr17  1  0.497144  0.712563  0.694503  1
  Sr  Sr18  1  0.497328  0.717953  0.325542  1
  Sr  Sr19  1  0.712563  0.002856  0.805497  1
  Sr  Sr20  1  0.717953  0.002672  0.174458  1
  Sr  Sr21  1  0.997144  0.212563  0.305497  1
  Sr  Sr22  1  0.002672  0.782047  0.325542  1
  Sr  Sr23  1  0.002856  0.787437  0.694503  1
  Sr  Sr24  1  0.502672  0.282047  0.674458  1
  Sr  Sr25  1  0.212563  0.502856  0.194503  1
  Sr  Sr26  1  0.997328  0.217953  0.674458  1
  Sr  Sr27  1  0.217953  0.502672  0.825542  1
  Al  Al28  1  0.014989  0.255918  0.127630  1
  Al  Al29  1  0.010303  0.747194  0.134205  1
  Al  Al30  1  0.989697  0.252806  0.865795  1
  Al  Al31  1  0.489697  0.752806  0.134205  1
  Al  Al32  1  0.252806  0.510303  0.634205  1
  Al  Al33  1  0.500000  0.500000  0.000000  1
  Al  Al34  1  0.485011  0.244082  0.127630  1
  Al  Al35  1  0.247194  0.989697  0.634205  1
  Al  Al36  1  0.244082  0.014989  0.372370  1
  Al  Al37  1  0.000000  0.000000  0.000000  1
  Al  Al38  1  0.755918  0.985011  0.627630  1
  Al  Al39  1  0.510303  0.247194  0.865795  1
  Al  Al40  1  0.985011  0.744082  0.872370  1
  Al  Al41  1  0.000000  0.500000  0.500000  1
  Al  Al42  1  0.500000  0.000000  0.500000  1
  Al  Al43  1  0.744082  0.514989  0.627630  1
  Al  Al44  1  0.514989  0.755918  0.872370  1
  Al  Al45  1  0.752806  0.010303  0.365795  1
  Al  Al46  1  0.747194  0.489697  0.365795  1
  Al  Al47  1  0.255918  0.485011  0.372370  1
  F  F48  1  0.343795  0.396171  0.578215  1
  F  F49  1  0.047214  0.873715  0.066123  1
  F  F50  1  0.340701  0.504259  0.963258  1
  F  F51  1  0.122750  0.997177  0.302425  1
  F  F52  1  0.450381  0.368582  0.060362  1
  F  F53  1  0.840916  0.105261  0.574030  1
  F  F54  1  0.603829  0.843795  0.078215  1
  F  F55  1  0.386509  0.666869  0.827796  1
  F  F56  1  0.626285  0.047214  0.433877  1
  F  F57  1  0.504259  0.159299  0.536742  1
  F  F58  1  0.666869  0.113491  0.672204  1
  F  F59  1  0.886509  0.166869  0.172204  1
  F  F60  1  0.502823  0.122750  0.197575  1
  F  F61  1  0.360508  0.143094  0.087594  1
  F  F62  1  0.324981  0.127840  0.312409  1
  F  F63  1  0.872802  0.990424  0.294433  1
  F  F64  1  0.659084  0.394739  0.574030  1
  F  F65  1  0.176492  0.624189  0.695011  1
  F  F66  1  0.105261  0.659084  0.925970  1
  F  F67  1  0.868582  0.549619  0.560362  1
  F  F68  1  0.637489  0.147834  0.906042  1
  F  F69  1  0.131418  0.450381  0.439638  1
  F  F70  1  0.147834  0.862511  0.593958  1
  F  F71  1  0.675019  0.872160  0.687591  1
  F  F72  1  0.127198  0.009576  0.705567  1
  F  F73  1  0.373715  0.952786  0.566123  1
  F  F74  1  0.840701  0.004259  0.036742  1
  F  F75  1  0.852166  0.137489  0.406042  1
  F  F76  1  0.009576  0.372802  0.794433  1
  F  F77  1  0.627198  0.509576  0.294433  1
  F  F78  1  0.622750  0.497177  0.697575  1
  F  F79  1  0.873715  0.452786  0.433877  1
  F  F80  1  0.340916  0.605261  0.425970  1
  F  F81  1  0.950381  0.868582  0.939638  1
  F  F82  1  0.877250  0.002823  0.697575  1
  F  F83  1  0.862511  0.352166  0.906042  1
  F  F84  1  0.143094  0.139492  0.412406  1
  F  F85  1  0.896171  0.656205  0.078215  1
  F  F86  1  0.372160  0.324981  0.187591  1
  F  F87  1  0.656205  0.603829  0.421785  1
  F  F88  1  0.336685  0.120448  0.671418  1
  F  F89  1  0.356906  0.360508  0.412406  1
  F  F90  1  0.113491  0.833131  0.827796  1
  F  F91  1  0.490424  0.127198  0.794433  1
  F  F92  1  0.639492  0.856906  0.912406  1
  F  F93  1  0.663315  0.879552  0.328582  1
  F  F94  1  0.103829  0.343795  0.921785  1
  F  F95  1  0.836685  0.620448  0.328582  1
  F  F96  1  0.377250  0.502823  0.302425  1
  F  F97  1  0.497177  0.877250  0.802425  1
  F  F98  1  0.875811  0.176492  0.804989  1
  F  F99  1  0.824981  0.627840  0.687591  1
  F  F100  1  0.894739  0.340916  0.074030  1
  F  F101  1  0.368582  0.049619  0.439638  1
  F  F102  1  0.175019  0.372160  0.312409  1
  F  F103  1  0.159299  0.995741  0.963258  1
  F  F104  1  0.547214  0.373715  0.933877  1
  F  F105  1  0.362511  0.852166  0.093958  1
  F  F106  1  0.372802  0.490424  0.705567  1
  F  F107  1  0.120448  0.163315  0.828582  1
  F  F108  1  0.509576  0.872802  0.205567  1
  F  F109  1  0.379552  0.336685  0.828582  1
  F  F110  1  0.856906  0.860508  0.587594  1
  F  F111  1  0.952786  0.126285  0.933877  1
  F  F112  1  0.872160  0.824981  0.812409  1
  F  F113  1  0.643094  0.639492  0.587594  1
  F  F114  1  0.126285  0.547214  0.566123  1
  F  F115  1  0.124189  0.823508  0.195011  1
  F  F116  1  0.990424  0.627198  0.205567  1
  F  F117  1  0.676492  0.124189  0.304989  1
  F  F118  1  0.139492  0.356906  0.087594  1
  F  F119  1  0.833131  0.386509  0.672204  1
  F  F120  1  0.396171  0.156205  0.921785  1
  F  F121  1  0.352166  0.637489  0.593958  1
  F  F122  1  0.631418  0.950381  0.560362  1
  F  F123  1  0.156205  0.103829  0.578215  1
  F  F124  1  0.627840  0.675019  0.812409  1
  F  F125  1  0.659299  0.495741  0.036742  1
  F  F126  1  0.995741  0.340701  0.536742  1
  F  F127  1  0.452786  0.626285  0.066123  1
  F  F128  1  0.394739  0.840916  0.925970  1
  F  F129  1  0.166869  0.613491  0.327796  1
  F  F130  1  0.620448  0.663315  0.171418  1
  F  F131  1  0.323508  0.875811  0.695011  1
  F  F132  1  0.823508  0.375811  0.304989  1
  F  F133  1  0.137489  0.647834  0.093958  1
  F  F134  1  0.004259  0.659299  0.463258  1
  F  F135  1  0.127840  0.175019  0.187591  1
  F  F136  1  0.159084  0.894739  0.425970  1
  F  F137  1  0.002823  0.622750  0.802425  1
  F  F138  1  0.997177  0.377250  0.197575  1
  F  F139  1  0.549619  0.631418  0.939638  1
  F  F140  1  0.613491  0.333131  0.172204  1
  F  F141  1  0.375811  0.676492  0.195011  1
  F  F142  1  0.333131  0.886509  0.327796  1
  F  F143  1  0.647834  0.362511  0.406042  1
  F  F144  1  0.860508  0.643094  0.912406  1
  F  F145  1  0.049619  0.131418  0.060362  1
  F  F146  1  0.879552  0.836685  0.171418  1
  F  F147  1  0.605261  0.159084  0.074030  1
  F  F148  1  0.163315  0.379552  0.671418  1
  F  F149  1  0.843795  0.896171  0.421785  1
  F  F150  1  0.495741  0.840701  0.463258  1
  F  F151  1  0.624189  0.323508  0.804989  1
