# generated using pymatgen
data_CsU2H3(C2O7)2
_symmetry_space_group_name_H-M   'P 1'
_cell_length_a   5.57192646
_cell_length_b   9.67392782
_cell_length_c   13.70993233
_cell_angle_alpha   90.00000000
_cell_angle_beta   90.00000000
_cell_angle_gamma   97.51284326
_symmetry_Int_Tables_number   1
_chemical_formula_structural   CsU2H3(C2O7)2
_chemical_formula_sum   'Cs2 U4 H6 C8 O28'
_cell_volume   732.65457869
_cell_formula_units_Z   2
loop_
 _symmetry_equiv_pos_site_id
 _symmetry_equiv_pos_as_xyz
  1  'x, y, z'
loop_
 _atom_site_type_symbol
 _atom_site_label
 _atom_site_symmetry_multiplicity
 _atom_site_fract_x
 _atom_site_fract_y
 _atom_site_fract_z
 _atom_site_occupancy
  Cs  Cs0  1  0.540492  0.639427  0.750000  1
  Cs  Cs1  1  0.459508  0.360573  0.250000  1
  U  U2  1  0.218500  0.238640  0.588699  1
  U  U3  1  0.218500  0.238640  0.911301  1
  U  U4  1  0.781500  0.761360  0.088699  1
  U  U5  1  0.781500  0.761360  0.411301  1
  H  H6  1  0.140847  0.866957  0.804813  1
  H  H7  1  0.937441  0.136737  0.750000  1
  H  H8  1  0.062559  0.863263  0.250000  1
  H  H9  1  0.859153  0.133043  0.195187  1
  H  H10  1  0.859153  0.133043  0.304813  1
  H  H11  1  0.140847  0.866957  0.695187  1
  C  C12  1  0.515925  0.039628  0.048642  1
  C  C13  1  0.484075  0.960372  0.951358  1
  C  C14  1  0.962919  0.520052  0.948443  1
  C  C15  1  0.515925  0.039628  0.451358  1
  C  C16  1  0.037081  0.479948  0.051557  1
  C  C17  1  0.037081  0.479948  0.448443  1
  C  C18  1  0.962919  0.520052  0.551557  1
  C  C19  1  0.484075  0.960372  0.548642  1
  O  O20  1  0.429538  0.153750  0.446137  1
  O  O21  1  0.501084  0.335939  0.627066  1
  O  O22  1  0.067711  0.857879  0.446514  1
  O  O23  1  0.166777  0.382237  0.056751  1
  O  O24  1  0.501084  0.335939  0.872934  1
  O  O25  1  0.093656  0.195159  0.750000  1
  O  O26  1  0.039428  0.452390  0.621382  1
  O  O27  1  0.373580  0.016287  0.883873  1
  O  O28  1  0.570462  0.846250  0.946137  1
  O  O29  1  0.055737  0.818150  0.750000  1
  O  O30  1  0.429538  0.153750  0.053863  1
  O  O31  1  0.932289  0.142121  0.946514  1
  O  O32  1  0.833223  0.617763  0.556751  1
  O  O33  1  0.960572  0.547610  0.378618  1
  O  O34  1  0.626420  0.983713  0.383873  1
  O  O35  1  0.626420  0.983713  0.116127  1
  O  O36  1  0.960572  0.547610  0.121382  1
  O  O37  1  0.067711  0.857879  0.053486  1
  O  O38  1  0.906344  0.804841  0.250000  1
  O  O39  1  0.833223  0.617763  0.943249  1
  O  O40  1  0.498916  0.664061  0.127066  1
  O  O41  1  0.570462  0.846250  0.553863  1
  O  O42  1  0.373580  0.016287  0.616127  1
  O  O43  1  0.944263  0.181850  0.250000  1
  O  O44  1  0.039428  0.452390  0.878618  1
  O  O45  1  0.932289  0.142121  0.553486  1
  O  O46  1  0.166777  0.382237  0.443249  1
  O  O47  1  0.498916  0.664061  0.372934  1
