# generated using pymatgen
data_RbBiC4(SN)4
_symmetry_space_group_name_H-M   'P 1'
_cell_length_a   6.54920874
_cell_length_b   7.73548975
_cell_length_c   11.29915622
_cell_angle_alpha   90.00000000
_cell_angle_beta   90.00000000
_cell_angle_gamma   90.00000000
_symmetry_Int_Tables_number   1
_chemical_formula_structural   RbBiC4(SN)4
_chemical_formula_sum   'Rb2 Bi2 C8 S8 N8'
_cell_volume   572.43036197
_cell_formula_units_Z   2
loop_
 _symmetry_equiv_pos_site_id
 _symmetry_equiv_pos_as_xyz
  1  'x, y, z'
loop_
 _atom_site_type_symbol
 _atom_site_label
 _atom_site_symmetry_multiplicity
 _atom_site_fract_x
 _atom_site_fract_y
 _atom_site_fract_z
 _atom_site_occupancy
  Rb  Rb0  1  0.684030  0.000000  0.500000  1
  Rb  Rb1  1  0.315970  0.500000  0.000000  1
  Bi  Bi2  1  0.925580  0.000000  0.000000  1
  Bi  Bi3  1  0.074420  0.500000  0.500000  1
  C  C4  1  0.562978  0.534668  0.631376  1
  C  C5  1  0.116461  0.794097  0.741902  1
  C  C6  1  0.562978  0.465332  0.368624  1
  C  C7  1  0.437022  0.034668  0.868624  1
  C  C8  1  0.116461  0.205903  0.258098  1
  C  C9  1  0.437022  0.965332  0.131376  1
  C  C10  1  0.883539  0.705903  0.241902  1
  C  C11  1  0.883539  0.294097  0.758098  1
  S  S12  1  0.378440  0.396339  0.661950  1
  S  S13  1  0.170932  0.163975  0.396511  1
  S  S14  1  0.170932  0.836025  0.603489  1
  S  S15  1  0.621560  0.896339  0.838050  1
  S  S16  1  0.829068  0.336025  0.896511  1
  S  S17  1  0.829068  0.663975  0.103489  1
  S  S18  1  0.378440  0.603661  0.338050  1
  S  S19  1  0.621560  0.103661  0.161950  1
  N  N20  1  0.922273  0.730628  0.342918  1
  N  N21  1  0.699415  0.370435  0.388873  1
  N  N22  1  0.699415  0.629565  0.611127  1
  N  N23  1  0.300585  0.129565  0.888873  1
  N  N24  1  0.922273  0.269372  0.657082  1
  N  N25  1  0.077727  0.230628  0.157082  1
  N  N26  1  0.077727  0.769372  0.842918  1
  N  N27  1  0.300585  0.870435  0.111127  1
