# generated using pymatgen
data_H4N2O3
_symmetry_space_group_name_H-M   'P 1'
_cell_length_a   6.94978709
_cell_length_b   8.16997084
_cell_length_c   5.79609692
_cell_angle_alpha   90.00000000
_cell_angle_beta   90.00000000
_cell_angle_gamma   90.00000000
_symmetry_Int_Tables_number   1
_chemical_formula_structural   H4N2O3
_chemical_formula_sum   'H16 N8 O12'
_cell_volume   329.09982049
_cell_formula_units_Z   4
loop_
 _symmetry_equiv_pos_site_id
 _symmetry_equiv_pos_as_xyz
  1  'x, y, z'
loop_
 _atom_site_type_symbol
 _atom_site_label
 _atom_site_symmetry_multiplicity
 _atom_site_fract_x
 _atom_site_fract_y
 _atom_site_fract_z
 _atom_site_occupancy
  H  H0  1  0.681978  0.514131  0.606809  1
  H  H1  1  0.681978  0.514131  0.893191  1
  H  H2  1  0.818022  0.014131  0.606809  1
  H  H3  1  0.818022  0.014131  0.893191  1
  H  H4  1  0.318022  0.485869  0.393191  1
  H  H5  1  0.318022  0.485869  0.106809  1
  H  H6  1  0.181978  0.985869  0.106809  1
  H  H7  1  0.181978  0.985869  0.393191  1
  H  H8  1  0.628641  0.213710  0.995063  1
  H  H9  1  0.871359  0.713710  0.504937  1
  H  H10  1  0.371359  0.786290  0.495063  1
  H  H11  1  0.128641  0.286290  0.004937  1
  H  H12  1  0.371359  0.786290  0.004937  1
  H  H13  1  0.128641  0.286290  0.495063  1
  H  H14  1  0.628641  0.213710  0.504937  1
  H  H15  1  0.871359  0.713710  0.995063  1
  N  N16  1  0.183734  0.910796  0.250000  1
  N  N17  1  0.316266  0.410796  0.250000  1
  N  N18  1  0.816266  0.089204  0.750000  1
  N  N19  1  0.683734  0.589204  0.750000  1
  N  N20  1  0.508440  0.333676  0.250000  1
  N  N21  1  0.991560  0.833676  0.250000  1
  N  N22  1  0.491560  0.666324  0.750000  1
  N  N23  1  0.008440  0.166324  0.750000  1
  O  O24  1  0.656715  0.423942  0.250000  1
  O  O25  1  0.843285  0.923942  0.250000  1
  O  O26  1  0.343285  0.576058  0.750000  1
  O  O27  1  0.156715  0.076058  0.750000  1
  O  O28  1  0.493429  0.226501  0.045875  1
  O  O29  1  0.006571  0.726501  0.454125  1
  O  O30  1  0.506571  0.773499  0.545875  1
  O  O31  1  0.993429  0.273499  0.954125  1
  O  O32  1  0.506571  0.773499  0.954125  1
  O  O33  1  0.993429  0.273499  0.545875  1
  O  O34  1  0.493429  0.226501  0.454125  1
  O  O35  1  0.006571  0.726501  0.045875  1
