# generated using pymatgen
data_Nb24I35Br9
_symmetry_space_group_name_H-M   'P 1'
_cell_length_a   11.51418427
_cell_length_b   13.63899065
_cell_length_c   15.37704469
_cell_angle_alpha   89.47044354
_cell_angle_beta   89.91374746
_cell_angle_gamma   90.44708545
_symmetry_Int_Tables_number   1
_chemical_formula_structural   Nb24I35Br9
_chemical_formula_sum   'Nb24 I35 Br9'
_cell_volume   2414.65990855
_cell_formula_units_Z   1
loop_
 _symmetry_equiv_pos_site_id
 _symmetry_equiv_pos_as_xyz
  1  'x, y, z'
loop_
 _atom_site_type_symbol
 _atom_site_label
 _atom_site_symmetry_multiplicity
 _atom_site_fract_x
 _atom_site_fract_y
 _atom_site_fract_z
 _atom_site_occupancy
  Nb  Nb0  1  0.076724  0.379313  0.551429  1
  Nb  Nb1  1  0.078237  0.881251  0.947123  1
  Nb  Nb2  1  0.107533  0.474994  0.396339  1
  Nb  Nb3  1  0.102088  0.980892  0.105836  1
  Nb  Nb4  1  0.130709  0.085779  0.946748  1
  Nb  Nb5  1  0.127575  0.584823  0.550571  1
  Nb  Nb6  1  0.369913  0.584729  0.947606  1
  Nb  Nb7  1  0.367559  0.092746  0.548721  1
  Nb  Nb8  1  0.399505  0.478080  0.105957  1
  Nb  Nb9  1  0.396229  0.982744  0.397829  1
  Nb  Nb10  1  0.421330  0.876884  0.549201  1
  Nb  Nb11  1  0.421922  0.380697  0.946495  1
  Nb  Nb12  1  0.569645  0.619896  0.051306  1
  Nb  Nb13  1  0.575329  0.127166  0.452992  1
  Nb  Nb14  1  0.604224  0.024094  0.604761  1
  Nb  Nb15  1  0.594721  0.520921  0.891270  1
  Nb  Nb16  1  0.626510  0.917619  0.453031  1
  Nb  Nb17  1  0.624105  0.416883  0.049456  1
  Nb  Nb18  1  0.873191  0.415131  0.450754  1
  Nb  Nb19  1  0.876917  0.916839  0.049442  1
  Nb  Nb20  1  0.905855  0.020136  0.890550  1
  Nb  Nb21  1  0.901948  0.517304  0.608269  1
  Nb  Nb22  1  0.931625  0.120488  0.049802  1
  Nb  Nb23  1  0.926271  0.618845  0.450927  1
  I  I24  1  0.034339  0.272867  0.390020  1
  I  I25  1  0.040027  0.774254  0.110020  1
  I  I26  1  0.096768  0.481402  0.718110  1
  I  I27  1  0.100601  0.983619  0.780992  1
  I  I28  1  0.147779  0.683482  0.383064  1
  I  I29  1  0.153389  0.187158  0.112784  1
  I  I30  1  0.193495  0.948887  0.503616  1
  I  I31  1  0.193604  0.445470  0.999076  1
  I  I32  1  0.306833  0.948334  0.999976  1
  I  I33  1  0.307274  0.449661  0.506094  1
  I  I34  1  0.347951  0.683882  0.114455  1
  I  I35  1  0.354533  0.190229  0.384204  1
  I  I36  1  0.399933  0.484177  0.781241  1
  I  I37  1  0.404937  0.985172  0.710758  1
  I  I38  1  0.461360  0.777520  0.388772  1
  I  I39  1  0.461433  0.271990  0.108256  1
  I  I40  1  0.535443  0.727837  0.888414  1
  I  I41  1  0.536087  0.229771  0.612766  1
  I  I42  1  0.596088  0.515987  0.216257  1
  I  I43  1  0.594249  0.023844  0.288485  1
  I  I44  1  0.644828  0.314822  0.884507  1
  I  I45  1  0.643581  0.815272  0.616381  1
  I  I46  1  0.678958  0.799739  0.123729  1
  I  I47  1  0.697559  0.552151  0.501226  1
  I  I48  1  0.702345  0.056216  0.996710  1
  I  I49  1  0.804209  0.057463  0.498200  1
  I  I50  1  0.798711  0.558351  -0.001700  1
  I  I51  1  0.822060  0.299235  0.122733  1
  I  I52  1  0.820109  0.797214  0.377187  1
  I  I53  1  0.854517  0.813464  0.884669  1
  I  I54  1  0.853784  0.310757  0.615992  1
  I  I55  1  0.906417  0.018650  0.215103  1
  I  I56  1  0.911901  0.518643  0.285116  1
  I  I57  1  0.965052  0.227306  0.886515  1
  I  I58  1  0.962153  0.724480  0.612572  1
  Br  Br59  1  0.188687  0.709998  0.884298  1
  Br  Br60  1  0.187707  0.209501  0.614027  1
  Br  Br61  1  0.252576  0.945828  0.250815  1
  Br  Br62  1  0.252253  0.437154  0.250758  1
  Br  Br63  1  0.310856  0.209185  0.881356  1
  Br  Br64  1  0.310938  0.707889  0.613817  1
  Br  Br65  1  0.689410  0.296269  0.385086  1
  Br  Br66  1  0.750775  0.054883  0.748303  1
  Br  Br67  1  0.746224  0.554035  0.749026  1
