# generated using pymatgen
data_Ge7H18O23
_symmetry_space_group_name_H-M   'P 1'
_cell_length_a   7.95282109
_cell_length_b   7.66870681
_cell_length_c   7.76648137
_cell_angle_alpha   90.25229982
_cell_angle_beta   90.07157688
_cell_angle_gamma   91.03678580
_symmetry_Int_Tables_number   1
_chemical_formula_structural   Ge7H18O23
_chemical_formula_sum   'Ge7 H18 O23'
_cell_volume   473.57847013
_cell_formula_units_Z   1
loop_
 _symmetry_equiv_pos_site_id
 _symmetry_equiv_pos_as_xyz
  1  'x, y, z'
loop_
 _atom_site_type_symbol
 _atom_site_label
 _atom_site_symmetry_multiplicity
 _atom_site_fract_x
 _atom_site_fract_y
 _atom_site_fract_z
 _atom_site_occupancy
  Ge  Ge0  1  0.877149  0.862711  0.150285  1
  Ge  Ge1  1  0.860600  0.132569  0.887621  1
  Ge  Ge2  1  0.130629  0.863118  0.867560  1
  Ge  Ge3  1  0.143494  0.143601  0.143658  1
  Ge  Ge4  1  0.008924  0.999427  0.498413  1
  Ge  Ge5  1  0.993572  0.499284  0.007832  1
  Ge  Ge6  1  0.484778  0.001142  0.997311  1
  H  H7  1  0.530692  0.042241  0.428627  1
  H  H8  1  0.568922  0.031230  0.634015  1
  H  H9  1  0.919873  0.274708  0.604439  1
  H  H10  1  0.032391  0.475562  0.429187  1
  H  H11  1  0.030987  0.548929  0.622173  1
  H  H12  1  0.390078  0.532380  0.004971  1
  H  H13  1  0.581963  0.565637  0.961886  1
  H  H14  1  0.314430  0.736891  0.442290  1
  H  H15  1  0.273181  0.622966  0.281549  1
  H  H16  1  0.553038  0.786651  0.216008  1
  H  H17  1  0.692492  0.670512  0.562249  1
  H  H18  1  0.722857  0.524235  0.692660  1
  H  H19  1  0.562463  0.403022  0.157385  1
  H  H20  1  0.736396  0.453414  0.269168  1
  H  H21  1  0.583464  0.363059  0.375929  1
  H  H22  1  0.360784  0.429160  0.613188  1
  H  H23  1  0.454140  0.347265  0.774523  1
  H  H24  1  0.423270  0.202277  0.598112  1
  O  O25  1  0.115862  0.879064  0.127879  1
  O  O26  1  0.879856  0.880892  0.892323  1
  O  O27  1  0.880289  0.114296  0.131188  1
  O  O28  1  0.112065  0.120397  0.895480  1
  O  O29  1  0.854572  0.874858  0.387122  1
  O  O30  1  0.858138  0.620096  0.147041  1
  O  O31  1  0.617495  0.865417  0.138779  1
  O  O32  1  0.881877  0.149072  0.631035  1
  O  O33  1  0.849265  0.372382  0.884757  1
  O  O34  1  0.626115  0.109216  0.858056  1
  O  O35  1  0.128201  0.865446  0.628950  1
  O  O36  1  0.117148  0.620882  0.863047  1
  O  O37  1  0.363766  0.853809  0.878118  1
  O  O38  1  0.139677  0.139123  0.380160  1
  O  O39  1  0.133925  0.387536  0.143235  1
  O  O40  1  0.378199  0.138793  0.138416  1
  O  O41  1  0.484739  0.058689  0.544094  1
  O  O42  1  0.974273  0.469044  0.539764  1
  O  O43  1  0.500753  0.476745  0.000586  1
  O  O44  1  0.364020  0.652711  0.362475  1
  O  O45  1  0.634084  0.575434  0.623622  1
  O  O46  1  0.641455  0.364900  0.264904  1
  O  O47  1  0.376533  0.320908  0.676944  1
