# generated using pymatgen
data_LiZr2(PO4)3
_symmetry_space_group_name_H-M   'P 1'
_cell_length_a   9.19461396
_cell_length_b   9.21232740
_cell_length_c   9.21232783
_cell_angle_alpha   58.71848219
_cell_angle_beta   58.39580194
_cell_angle_gamma   58.39580336
_symmetry_Int_Tables_number   1
_chemical_formula_structural   LiZr2(PO4)3
_chemical_formula_sum   'Li2 Zr4 P6 O24'
_cell_volume   532.86663371
_cell_formula_units_Z   2
loop_
 _symmetry_equiv_pos_site_id
 _symmetry_equiv_pos_as_xyz
  1  'x, y, z'
loop_
 _atom_site_type_symbol
 _atom_site_label
 _atom_site_symmetry_multiplicity
 _atom_site_fract_x
 _atom_site_fract_y
 _atom_site_fract_z
 _atom_site_occupancy
  Li  Li0  1  0.544740  0.356337  0.628114  1
  Li  Li1  1  0.955260  0.871886  0.143663  1
  Zr  Zr2  1  0.142376  0.143703  0.143217  1
  Zr  Zr3  1  0.357624  0.356783  0.356297  1
  Zr  Zr4  1  0.642674  0.644143  0.644748  1
  Zr  Zr5  1  0.857326  0.855252  0.855857  1
  P  P6  1  0.039300  0.748310  0.460455  1
  P  P7  1  0.460700  0.039545  0.751690  1
  P  P8  1  0.750000  0.462500  0.037500  1
  P  P9  1  0.250000  0.537188  0.962812  1
  P  P10  1  0.538544  0.960611  0.252498  1
  P  P11  1  0.961456  0.247502  0.539389  1
  O  O12  1  0.120345  0.287958  0.506083  1
  O  O13  1  0.284724  0.506825  0.124592  1
  O  O14  1  0.059951  0.911965  0.280913  1
  O  O15  1  0.504324  0.125609  0.285713  1
  O  O16  1  0.002595  0.786017  0.622372  1
  O  O17  1  0.212286  0.582238  0.438296  1
  O  O18  1  0.287714  0.061704  0.917762  1
  O  O19  1  0.440049  0.219087  0.588035  1
  O  O20  1  0.583682  0.436758  0.210423  1
  O  O21  1  0.215276  0.375408  0.993175  1
  O  O22  1  0.082935  0.714697  0.944992  1
  O  O23  1  0.379655  0.993917  0.212042  1
  O  O24  1  0.623623  0.015790  0.783344  1
  O  O25  1  0.916318  0.289577  0.063242  1
  O  O26  1  0.782628  0.628061  0.002987  1
  O  O27  1  0.417065  0.555008  0.785303  1
  O  O28  1  0.563307  0.789038  0.419086  1
  O  O29  1  0.723048  0.931784  0.091697  1
  O  O30  1  0.776952  0.408303  0.568216  1
  O  O31  1  0.995676  0.214287  0.374391  1
  O  O32  1  0.497405  0.877628  0.713983  1
  O  O33  1  0.936693  0.080914  0.710962  1
  O  O34  1  0.717372  0.497013  0.871939  1
  O  O35  1  0.876377  0.716656  0.484210  1
