# generated using pymatgen
data_FeSbPt
_symmetry_space_group_name_H-M   'P 1'
_cell_length_a   6.23300300
_cell_length_b   6.22850636
_cell_length_c   6.23219215
_cell_angle_alpha   88.99241839
_cell_angle_beta   90.95355251
_cell_angle_gamma   90.95071133
_symmetry_Int_Tables_number   1
_chemical_formula_structural   FeSbPt
_chemical_formula_sum   'Fe4 Sb4 Pt4'
_cell_volume   241.84496239
_cell_formula_units_Z   4
loop_
 _symmetry_equiv_pos_site_id
 _symmetry_equiv_pos_as_xyz
  1  'x, y, z'
loop_
 _atom_site_type_symbol
 _atom_site_label
 _atom_site_symmetry_multiplicity
 _atom_site_fract_x
 _atom_site_fract_y
 _atom_site_fract_z
 _atom_site_occupancy
  Fe  Fe0  1  0.116447  0.883852  0.383591  1
  Fe  Fe1  1  0.879206  0.375293  0.123490  1
  Fe  Fe2  1  0.624771  0.623083  0.620639  1
  Fe  Fe3  1  0.376494  0.120721  0.875191  1
  Sb  Sb4  1  0.624151  0.875711  0.126850  1
  Sb  Sb5  1  0.124435  0.626666  0.875891  1
  Sb  Sb6  1  0.887083  0.112790  0.612815  1
  Sb  Sb7  1  0.373075  0.375940  0.375602  1
  Pt  Pt8  1  0.978959  0.528569  0.477005  1
  Pt  Pt9  1  0.471593  0.976969  0.521226  1
  Pt  Pt10  1  0.520775  0.479277  0.979363  1
  Pt  Pt11  1  0.023010  0.021128  0.028337  1
