# generated using pymatgen
data_GaPt3
_symmetry_space_group_name_H-M   'P 1'
_cell_length_a   5.54859398
_cell_length_b   5.54854819
_cell_length_c   7.96398317
_cell_angle_alpha   89.99954496
_cell_angle_beta   89.99959120
_cell_angle_gamma   89.99977984
_symmetry_Int_Tables_number   1
_chemical_formula_structural   GaPt3
_chemical_formula_sum   'Ga4 Pt12'
_cell_volume   245.18429145
_cell_formula_units_Z   4
loop_
 _symmetry_equiv_pos_site_id
 _symmetry_equiv_pos_as_xyz
  1  'x, y, z'
loop_
 _atom_site_type_symbol
 _atom_site_label
 _atom_site_symmetry_multiplicity
 _atom_site_fract_x
 _atom_site_fract_y
 _atom_site_fract_z
 _atom_site_occupancy
  Ga  Ga0  1  0.499999  -0.000001  0.754203  1
  Ga  Ga1  1  0.999999  0.500000  0.245796  1
  Ga  Ga2  1  0.500000  0.999999  0.245796  1
  Ga  Ga3  1  1.000000  0.500002  0.754204  1
  Pt  Pt4  1  0.725940  0.774060  0.000002  1
  Pt  Pt5  1  0.288706  0.788707  0.499999  1
  Pt  Pt6  1  0.225939  0.725939  0.000001  1
  Pt  Pt7  1  0.274064  0.225940  0.000002  1
  Pt  Pt8  1  0.000001  0.000002  0.748642  1
  Pt  Pt9  1  0.788705  0.711295  0.500000  1
  Pt  Pt10  1  0.211293  0.288703  0.500000  1
  Pt  Pt11  1  0.711297  0.211296  0.499998  1
  Pt  Pt12  1  0.000001  0.000004  0.251357  1
  Pt  Pt13  1  0.499996  0.499996  0.748641  1
  Pt  Pt14  1  0.499997  0.499997  0.251359  1
  Pt  Pt15  1  0.774063  0.274061  0.000001  1
