# generated using pymatgen
data_Ba2PrF7
_symmetry_space_group_name_H-M   'P 1'
_cell_length_a   4.41989169
_cell_length_b   13.71770718
_cell_length_c   12.06917276
_cell_angle_alpha   18.22119579
_cell_angle_beta   54.10838047
_cell_angle_gamma   58.54398725
_symmetry_Int_Tables_number   1
_chemical_formula_structural   Ba2PrF7
_chemical_formula_sum   'Ba2 Pr1 F7'
_cell_volume   183.58796494
_cell_formula_units_Z   1
loop_
 _symmetry_equiv_pos_site_id
 _symmetry_equiv_pos_as_xyz
  1  'x, y, z'
loop_
 _atom_site_type_symbol
 _atom_site_label
 _atom_site_symmetry_multiplicity
 _atom_site_fract_x
 _atom_site_fract_y
 _atom_site_fract_z
 _atom_site_occupancy
  Ba  Ba0  1  0.998050  0.995311  0.012073  1
  Ba  Ba1  1  0.002086  0.665878  0.016544  1
  Pr  Pr2  1  0.947643  0.275476  0.049220  1
  F  F3  1  0.309224  0.270793  0.242623  1
  F  F4  1  0.254612  0.580232  0.258219  1
  F  F5  1  0.752948  0.072583  0.769734  1
  F  F6  1  0.352659  0.405281  0.665947  1
  F  F7  1  0.585506  0.334628  0.901435  1
  F  F8  1  0.018646  0.827444  0.411151  1
  F  F9  1  0.798624  0.809040  0.693053  1
