# generated using pymatgen
data_KHgSbS3
_symmetry_space_group_name_H-M   'P 1'
_cell_length_a   6.43663914
_cell_length_b   6.43663914
_cell_length_c   17.62289396
_cell_angle_alpha   79.66283191
_cell_angle_beta   79.66283191
_cell_angle_gamma   90.74582071
_symmetry_Int_Tables_number   1
_chemical_formula_structural   KHgSbS3
_chemical_formula_sum   'K4 Hg4 Sb4 S12'
_cell_volume   705.84148985
_cell_formula_units_Z   4
loop_
 _symmetry_equiv_pos_site_id
 _symmetry_equiv_pos_as_xyz
  1  'x, y, z'
loop_
 _atom_site_type_symbol
 _atom_site_label
 _atom_site_symmetry_multiplicity
 _atom_site_fract_x
 _atom_site_fract_y
 _atom_site_fract_z
 _atom_site_occupancy
  S  S0  1  0.822985  0.891911  0.608183  1
  S  S1  1  0.823068  0.733422  0.107080  1
  S  S2  1  0.233422  0.323068  0.607080  1
  S  S3  1  0.176932  0.266578  0.892920  1
  S  S4  1  0.391911  0.322985  0.108183  1
  S  S5  1  0.177015  0.108089  0.391817  1
  S  S6  1  0.608089  0.677015  0.891817  1
  S  S7  1  0.710586  0.266859  0.766930  1
  S  S8  1  0.233141  0.789414  0.733070  1
  S  S9  1  0.289414  0.733141  0.233070  1
  S  S10  1  0.766859  0.210586  0.266930  1
  S  S11  1  0.766578  0.676932  0.392920  1
  K  K12  1  0.091288  0.765457  0.915559  1
  K  K13  1  0.908712  0.234543  0.084441  1
  K  K14  1  0.734543  0.408712  0.584441  1
  K  K15  1  0.265457  0.591288  0.415559  1
  Sb  Sb16  1  0.210034  0.943301  0.598993  1
  Sb  Sb17  1  0.556699  0.289966  0.901007  1
  Sb  Sb18  1  0.789966  0.056699  0.401007  1
  Sb  Sb19  1  0.443301  0.710034  0.098993  1
  Hg  Hg20  1  0.863368  0.636632  0.250000  1
  Hg  Hg21  1  0.136632  0.363368  0.750000  1
  Hg  Hg22  1  0.337229  0.162771  0.250000  1
  Hg  Hg23  1  0.662771  0.837229  0.750000  1
