# generated using pymatgen
data_Sb2Pb2O7
_symmetry_space_group_name_H-M   'P 1'
_cell_length_a   7.67615795
_cell_length_b   7.67641023
_cell_length_c   7.67595973
_cell_angle_alpha   59.98912018
_cell_angle_beta   60.01664155
_cell_angle_gamma   60.00369284
_symmetry_Int_Tables_number   1
_chemical_formula_structural   Sb2Pb2O7
_chemical_formula_sum   'Sb4 Pb4 O14'
_cell_volume   319.85323472
_cell_formula_units_Z   2
loop_
 _symmetry_equiv_pos_site_id
 _symmetry_equiv_pos_as_xyz
  1  'x, y, z'
loop_
 _atom_site_type_symbol
 _atom_site_label
 _atom_site_symmetry_multiplicity
 _atom_site_fract_x
 _atom_site_fract_y
 _atom_site_fract_z
 _atom_site_occupancy
  Sb  Sb0  1  0.499934  -0.000063  0.000064  1
  Sb  Sb1  1  0.000065  0.000029  -0.000062  1
  Sb  Sb2  1  0.999905  -0.000033  0.500059  1
  Sb  Sb3  1  0.999899  0.500059  0.000020  1
  Pb  Pb4  1  0.000372  0.499950  0.499651  1
  Pb  Pb5  1  0.500184  0.499388  0.000167  1
  Pb  Pb6  1  0.499780  0.000111  0.500154  1
  Pb  Pb7  1  0.499694  0.500259  0.500349  1
  O  O8  1  0.317279  0.932654  0.932700  1
  O  O9  1  0.317207  0.317291  0.932741  1
  O  O10  1  0.067476  0.682566  0.682732  1
  O  O11  1  0.067383  0.067292  0.682688  1
  O  O12  1  0.682791  0.067241  0.067104  1
  O  O13  1  0.624372  0.625683  0.624988  1
  O  O14  1  0.067255  0.682932  0.067169  1
  O  O15  1  0.932773  0.932745  0.317150  1
  O  O16  1  0.932625  0.317286  0.317343  1
  O  O17  1  0.682656  0.682787  0.067219  1
  O  O18  1  0.932859  0.317248  0.932672  1
  O  O19  1  0.375742  0.374453  0.374929  1
  O  O20  1  0.317100  0.932879  0.317307  1
  O  O21  1  0.682651  0.067244  0.682857  1
