# generated using pymatgen
data_LaGaNi
_symmetry_space_group_name_H-M   'P 1'
_cell_length_a   6.46826633
_cell_length_b   7.57319425
_cell_length_c   6.56949581
_cell_angle_alpha   90.00000000
_cell_angle_beta   129.01314636
_cell_angle_gamma   90.00000000
_symmetry_Int_Tables_number   1
_chemical_formula_structural   LaGaNi
_chemical_formula_sum   'La4 Ga4 Ni4'
_cell_volume   250.04657648
_cell_formula_units_Z   4
loop_
 _symmetry_equiv_pos_site_id
 _symmetry_equiv_pos_as_xyz
  1  'x, y, z'
loop_
 _atom_site_type_symbol
 _atom_site_label
 _atom_site_symmetry_multiplicity
 _atom_site_fract_x
 _atom_site_fract_y
 _atom_site_fract_z
 _atom_site_occupancy
  La  La0  1  0.171324  0.900743  0.820117  1
  La  La1  1  0.328676  0.400743  0.679883  1
  La  La2  1  0.671324  0.599257  0.320117  1
  La  La3  1  0.828676  0.099257  0.179883  1
  Ga  Ga4  1  0.199462  0.754182  0.317589  1
  Ga  Ga5  1  0.300538  0.254182  0.182411  1
  Ga  Ga6  1  0.800538  0.245818  0.682411  1
  Ga  Ga7  1  0.699462  0.745818  0.817589  1
  Ni  Ni8  1  0.432362  0.040722  0.618579  1
  Ni  Ni9  1  0.932362  0.459278  0.118579  1
  Ni  Ni10  1  0.067638  0.540722  0.881421  1
  Ni  Ni11  1  0.567638  0.959278  0.381421  1
