# generated using pymatgen
data_Os5C17O16
_symmetry_space_group_name_H-M   'P 1'
_cell_length_a   10.17936579
_cell_length_b   16.07371957
_cell_length_c   16.71692927
_cell_angle_alpha   96.74047331
_cell_angle_beta   103.30902044
_cell_angle_gamma   93.31588697
_symmetry_Int_Tables_number   1
_chemical_formula_structural   Os5C17O16
_chemical_formula_sum   'Os20 C68 O64'
_cell_volume   2633.15879455
_cell_formula_units_Z   4
loop_
 _symmetry_equiv_pos_site_id
 _symmetry_equiv_pos_as_xyz
  1  'x, y, z'
loop_
 _atom_site_type_symbol
 _atom_site_label
 _atom_site_symmetry_multiplicity
 _atom_site_fract_x
 _atom_site_fract_y
 _atom_site_fract_z
 _atom_site_occupancy
  Os  Os0  1  0.796511  0.876898  0.729262  1
  Os  Os1  1  0.459179  0.951150  0.800421  1
  Os  Os2  1  0.672628  0.844302  0.868894  1
  Os  Os3  1  0.985149  0.527116  0.307839  1
  Os  Os4  1  0.517571  0.897426  0.638289  1
  Os  Os5  1  0.208403  0.444287  0.845850  1
  Os  Os6  1  0.482429  0.102574  0.361711  1
  Os  Os7  1  0.014851  0.472884  0.692161  1
  Os  Os8  1  0.928363  0.361765  0.790017  1
  Os  Os9  1  0.071637  0.638235  0.209983  1
  Os  Os10  1  0.710225  0.702411  0.251405  1
  Os  Os11  1  0.327372  0.155698  0.131106  1
  Os  Os12  1  0.203489  0.123102  0.270738  1
  Os  Os13  1  0.986947  0.709019  0.359178  1
  Os  Os14  1  0.422766  0.779279  0.739734  1
  Os  Os15  1  0.791597  0.555713  0.154150  1
  Os  Os16  1  0.540821  0.048850  0.199579  1
  Os  Os17  1  0.013053  0.290981  0.640822  1
  Os  Os18  1  0.289775  0.297589  0.748595  1
  Os  Os19  1  0.577234  0.220721  0.260266  1
  C  C20  1  0.168074  0.521353  0.368145  1
  C  C21  1  0.227377  0.252785  0.120283  1
  C  C22  1  0.420884  0.996885  0.388319  1
  C  C23  1  0.948900  0.283773  0.869740  1
  C  C24  1  0.836834  0.297194  0.571586  1
  C  C25  1  0.824738  0.997872  0.771698  1
  C  C26  1  0.628575  0.490974  0.156881  1
  C  C27  1  0.281617  0.395922  0.943920  1
  C  C28  1  0.333374  0.908312  0.582670  1
  C  C29  1  0.758253  0.225060  0.325203  1
  C  C30  1  0.234088  0.244171  0.312609  1
  C  C31  1  0.409905  0.178196  0.042593  1
  C  C32  1  0.981272  0.171978  0.641063  1
  C  C33  1  0.804162  0.921860  0.947367  1
  C  C34  1  0.910238  0.709847  0.453361  1
  C  C35  1  0.831926  0.478647  0.631855  1
  C  C36  1  0.671601  0.798401  0.320116  1
  C  C37  1  0.545176  0.822034  0.546872  1
  C  C38  1  0.216655  0.217715  0.811321  1
  C  C39  1  0.590095  0.821804  0.957407  1
  C  C40  1  0.772623  0.747215  0.879717  1
  C  C41  1  0.716052  0.020956  0.251635  1
  C  C42  1  0.783345  0.782285  0.188679  1
  C  C43  1  0.463105  0.315502  0.828203  1
  C  C44  1  0.248286  0.685111  0.268067  1
  C  C45  1  0.371425  0.509026  0.843119  1
  C  C46  1  0.110517  0.506732  0.613626  1
  C  C47  1  0.175262  0.002128  0.228302  1
  C  C48  1  0.018728  0.828022  0.358937  1
  C  C49  1  0.464635  0.673461  0.688868  1
  C  C50  1  0.895375  0.630174  0.256375  1
  C  C51  1  0.452377  0.936820  0.177247  1
  C  C52  1  0.535365  0.326539  0.311132  1
  C  C53  1  0.856558  0.896727  0.631216  1
  C  C54  1  0.547623  0.063180  0.822753  1
  C  C55  1  0.536895  0.684498  0.171797  1
  C  C56  1  0.646196  0.625590  0.321459  1
  C  C57  1  0.028055  0.137489  0.202045  1
  C  C58  1  0.666626  0.091688  0.417330  1
  C  C59  1  0.855203  0.464810  0.091478  1
  C  C60  1  0.022664  0.585882  0.742841  1
  C  C61  1  0.163166  0.702806  0.428414  1
  C  C62  1  0.765912  0.755829  0.687391  1
  C  C63  1  0.144797  0.535190  0.908522  1
  C  C64  1  0.857224  0.446855  0.853250  1
  C  C65  1  0.718383  0.604078  0.056080  1
  C  C66  1  0.142776  0.553145  0.146750  1
  C  C67  1  0.401351  0.946882  0.900540  1
  C  C68  1  0.283948  0.979044  0.748365  1
  C  C69  1  0.051100  0.716227  0.130260  1
  C  C70  1  0.977336  0.414118  0.257159  1
  C  C71  1  0.598649  0.053118  0.099460  1
  C  C72  1  0.104625  0.369826  0.743625  1
  C  C73  1  0.637529  0.264378  0.172693  1
  C  C74  1  0.362471  0.735622  0.827307  1
  C  C75  1  0.353804  0.374410  0.678541  1
  C  C76  1  0.579116  0.003115  0.611681  1
  C  C77  1  0.412124  0.130399  0.245772  1
  C  C78  1  0.195838  0.078140  0.052633  1
  C  C79  1  0.587876  0.869601  0.754228  1
  C  C80  1  0.328399  0.201599  0.679884  1
  C  C81  1  0.089762  0.290153  0.546639  1
  C  C82  1  0.143442  0.103273  0.368784  1
  C  C83  1  0.241747  0.774940  0.674797  1
  C  C84  1  0.889483  0.493268  0.386374  1
  C  C85  1  0.971945  0.862511  0.797955  1
  C  C86  1  0.454824  0.177966  0.453128  1
  C  C87  1  0.751714  0.314889  0.731933  1
  O  O88  1  0.968978  0.342951  0.230468  1
  O  O89  1  0.891046  0.410538  0.051848  1
  O  O90  1  0.480828  0.607331  0.657891  1
  O  O91  1  0.077007  0.855109  0.839886  1
  O  O92  1  0.152034  0.931808  0.202701  1
  O  O93  1  0.565776  0.328033  0.876846  1
  O  O94  1  0.671555  0.635357  0.997895  1
  O  O95  1  0.870379  0.228164  0.363723  1
  O  O96  1  0.357373  0.715288  0.301627  1
  O  O97  1  0.110884  0.092573  0.428917  1
  O  O98  1  0.471332  0.546627  0.840602  1
  O  O99  1  0.108954  0.589462  0.948152  1
  O  O100  1  0.393304  0.416695  0.636700  1
  O  O101  1  0.922993  0.144891  0.160114  1
  O  O102  1  0.675652  0.291659  0.119669  1
  O  O103  1  0.955759  0.241870  0.922712  1
  O  O104  1  0.519172  0.392669  0.342109  1
  O  O105  1  0.328444  0.364643  0.002105  1
  O  O106  1  0.384357  0.931426  0.402919  1
  O  O107  1  0.751425  0.685415  0.661963  1
  O  O108  1  0.129621  0.771836  0.636277  1
  O  O109  1  0.044241  0.758130  0.077288  1
  O  O110  1  0.347111  0.142003  0.639367  1
  O  O111  1  0.889116  0.907427  0.571083  1
  O  O112  1  0.730893  0.299981  0.527915  1
  O  O113  1  0.410431  0.866159  0.166160  1
  O  O114  1  0.528668  0.453373  0.159398  1
  O  O115  1  0.959385  0.100262  0.641985  1
  O  O116  1  0.190483  0.502380  0.109355  1
  O  O117  1  0.642627  0.284712  0.698373  1
  O  O118  1  0.825422  0.003142  0.279659  1
  O  O119  1  0.776923  0.084488  0.452953  1
  O  O120  1  0.615643  0.068574  0.597081  1
  O  O121  1  0.223077  0.915512  0.547047  1
  O  O122  1  0.606696  0.583305  0.363300  1
  O  O123  1  0.834188  0.688610  0.883635  1
  O  O124  1  0.652889  0.857997  0.360633  1
  O  O125  1  0.138718  0.292170  0.490355  1
  O  O126  1  0.840184  0.470320  0.437327  1
  O  O127  1  0.159816  0.529680  0.562673  1
  O  O128  1  0.434224  0.671967  0.123154  1
  O  O129  1  0.280019  0.516445  0.402382  1
  O  O130  1  0.177204  0.166954  0.845477  1
  O  O131  1  0.165812  0.311390  0.116365  1
  O  O132  1  0.269107  0.700019  0.472085  1
  O  O133  1  0.031022  0.657049  0.769532  1
  O  O134  1  0.119176  0.032585  0.001741  1
  O  O135  1  0.563416  0.774991  0.492867  1
  O  O136  1  0.324348  0.708341  0.880331  1
  O  O137  1  0.436584  0.225009  0.507133  1
  O  O138  1  0.809517  0.497620  0.890645  1
  O  O139  1  0.174578  0.996858  0.720341  1
  O  O140  1  0.639014  0.055212  0.039743  1
  O  O141  1  0.861282  0.707830  0.509645  1
  O  O142  1  0.589569  0.133841  0.833840  1
  O  O143  1  0.822796  0.833046  0.154523  1
  O  O144  1  0.248575  0.314585  0.338037  1
  O  O145  1  0.880824  0.967415  0.998259  1
  O  O146  1  0.453818  0.190177  0.986165  1
  O  O147  1  0.847966  0.068192  0.797299  1
  O  O148  1  0.719981  0.483555  0.597618  1
  O  O149  1  0.360986  0.944788  0.960257  1
  O  O150  1  0.546182  0.809823  0.013835  1
  O  O151  1  0.040615  0.899738  0.358015  1
