# generated using pymatgen
data_VTe4Cl4O
_symmetry_space_group_name_H-M   'P 1'
_cell_length_a   13.98503517
_cell_length_b   13.98503522
_cell_length_c   13.98503457
_cell_angle_alpha   106.11764586
_cell_angle_beta   106.11764595
_cell_angle_gamma   116.40919308
_symmetry_Int_Tables_number   1
_chemical_formula_structural   VTe4Cl4O
_chemical_formula_sum   'V8 Te32 Cl32 O8'
_cell_volume   2082.14061206
_cell_formula_units_Z   8
loop_
 _symmetry_equiv_pos_site_id
 _symmetry_equiv_pos_as_xyz
  1  'x, y, z'
loop_
 _atom_site_type_symbol
 _atom_site_label
 _atom_site_symmetry_multiplicity
 _atom_site_fract_x
 _atom_site_fract_y
 _atom_site_fract_z
 _atom_site_occupancy
  V  V0  1  0.891782  0.649159  0.748577  1
  V  V1  1  0.356795  0.608218  0.257377  1
  V  V2  1  0.850841  0.099418  0.242623  1
  V  V3  1  0.108218  0.350841  0.251423  1
  V  V4  1  0.149159  0.900582  0.757377  1
  V  V5  1  0.599418  0.856795  0.248577  1
  V  V6  1  0.643205  0.391782  0.742623  1
  V  V7  1  0.400582  0.143205  0.751423  1
  Te  Te8  1  0.428468  0.606440  0.602584  1
  Te  Te9  1  0.973663  0.158589  0.595045  1
  Te  Te10  1  0.106440  0.003856  0.177972  1
  Te  Te11  1  0.786415  0.601666  0.400675  1
  Te  Te12  1  0.202910  0.881521  0.102322  1
  Te  Te13  1  0.381521  0.779199  0.678612  1
  Te  Te14  1  0.279199  0.100588  0.397678  1
  Te  Te15  1  0.700991  0.385741  0.099325  1
  Te  Te16  1  0.571532  0.393560  0.397416  1
  Te  Te17  1  0.720801  0.899412  0.602322  1
  Te  Te18  1  0.893560  0.996144  0.822028  1
  Te  Te19  1  0.797090  0.118479  0.897678  1
  Te  Te20  1  0.618479  0.220801  0.321388  1
  Te  Te21  1  0.063544  0.378618  0.904955  1
  Te  Te22  1  0.496144  0.174116  0.102584  1
  Te  Te23  1  0.114259  0.713585  0.315251  1
  Te  Te24  1  0.503856  0.825884  0.897416  1
  Te  Te25  1  0.213585  0.398334  0.599325  1
  Te  Te26  1  0.600588  0.702910  0.821388  1
  Te  Te27  1  0.878618  0.473663  0.315074  1
  Te  Te28  1  0.299009  0.614259  0.900675  1
  Te  Te29  1  0.399412  0.297090  0.178612  1
  Te  Te30  1  0.341411  0.436456  0.815074  1
  Te  Te31  1  0.936456  0.621382  0.095045  1
  Te  Te32  1  0.674116  0.071532  0.677972  1
  Te  Te33  1  0.026337  0.841411  0.404955  1
  Te  Te34  1  0.101666  0.200991  0.815251  1
  Te  Te35  1  0.885741  0.286415  0.684749  1
  Te  Te36  1  0.121382  0.526337  0.684926  1
  Te  Te37  1  0.898334  0.799009  0.184749  1
  Te  Te38  1  0.658589  0.563544  0.184926  1
  Te  Te39  1  0.325884  0.928468  0.322028  1
  Cl  Cl40  1  0.488801  0.409462  0.635752  1
  Cl  Cl41  1  0.599563  0.241770  0.572041  1
  Cl  Cl42  1  0.000434  0.927799  0.652271  1
  Cl  Cl43  1  -0.000434  0.072201  0.347729  1
  Cl  Cl44  1  0.224472  0.651837  0.152271  1
  Cl  Cl45  1  0.021150  0.596938  0.846547  1
  Cl  Cl46  1  0.775528  0.348163  0.847729  1
  Cl  Cl47  1  0.572201  0.724472  0.072635  1
  Cl  Cl48  1  0.169729  0.027522  0.927959  1
  Cl  Cl49  1  0.151837  0.499566  0.427365  1
  Cl  Cl50  1  0.258230  0.330271  0.357793  1
  Cl  Cl51  1  0.325397  0.478850  0.075788  1
  Cl  Cl52  1  0.749609  0.825397  0.346547  1
  Cl  Cl53  1  0.527522  0.099563  0.857793  1
  Cl  Cl54  1  0.090538  0.226291  0.079339  1
  Cl  Cl55  1  0.903062  0.249609  0.424212  1
  Cl  Cl56  1  0.472478  0.900437  0.142207  1
  Cl  Cl57  1  0.726291  0.146952  0.135752  1
  Cl  Cl58  1  0.674603  0.521150  0.924212  1
  Cl  Cl59  1  0.646952  0.011199  0.420661  1
  Cl  Cl60  1  0.978850  0.403062  0.153453  1
  Cl  Cl61  1  0.273709  0.853048  0.864248  1
  Cl  Cl62  1  0.400437  0.758230  0.427959  1
  Cl  Cl63  1  0.096938  0.750391  0.575788  1
  Cl  Cl64  1  0.353048  0.988801  0.579339  1
  Cl  Cl65  1  0.848163  0.500434  0.572635  1
  Cl  Cl66  1  0.830271  0.972478  0.072041  1
  Cl  Cl67  1  0.427799  0.275528  0.927365  1
  Cl  Cl68  1  0.909462  0.773709  0.920661  1
  Cl  Cl69  1  0.511199  0.590538  0.364248  1
  Cl  Cl70  1  0.250391  0.174603  0.653453  1
  Cl  Cl71  1  0.741770  0.669729  0.642207  1
  O  O72  1  0.241827  0.489745  0.254651  1
  O  O73  1  0.758173  0.510255  0.745349  1
  O  O74  1  0.264907  0.012824  0.754651  1
  O  O75  1  0.735093  0.987176  0.245349  1
  O  O76  1  0.487176  0.741827  0.252083  1
  O  O77  1  0.989745  0.235093  0.247917  1
  O  O78  1  0.512824  0.258173  0.747917  1
  O  O79  1  0.010255  0.764907  0.752083  1
