# generated using pymatgen
data_VHO3
_symmetry_space_group_name_H-M   'P 1'
_cell_length_a   5.18999173
_cell_length_b   8.62758789
_cell_length_c   8.18530362
_cell_angle_alpha   90.34693040
_cell_angle_beta   97.77032464
_cell_angle_gamma   87.94920301
_symmetry_Int_Tables_number   1
_chemical_formula_structural   VHO3
_chemical_formula_sum   'V6 H6 O18'
_cell_volume   362.91603152
_cell_formula_units_Z   6
loop_
 _symmetry_equiv_pos_site_id
 _symmetry_equiv_pos_as_xyz
  1  'x, y, z'
loop_
 _atom_site_type_symbol
 _atom_site_label
 _atom_site_symmetry_multiplicity
 _atom_site_fract_x
 _atom_site_fract_y
 _atom_site_fract_z
 _atom_site_occupancy
  V  V0  1  0.443724  0.454581  0.180169  1
  V  V1  1  0.551335  0.944419  0.819267  1
  V  V2  1  0.585278  0.560225  0.828984  1
  V  V3  1  0.448564  0.064906  0.175980  1
  V  V4  1  0.915254  0.244596  0.062910  1
  V  V5  1  0.083176  0.758376  0.938685  1
  H  H6  1  0.019392  0.258422  0.717933  1
  H  H7  1  0.368322  0.649139  0.382523  1
  H  H8  1  0.162728  0.162605  0.585630  1
  H  H9  1  0.848325  0.217353  0.534456  1
  H  H10  1  0.097118  0.727793  0.528476  1
  H  H11  1  -0.000063  0.742975  0.335862  1
  O  O12  1  0.690393  0.419702  0.016752  1
  O  O13  1  0.330403  0.919655  0.995288  1
  O  O14  1  0.346396  0.600145  0.998593  1
  O  O15  1  0.674154  0.094308  0.002487  1
  O  O16  1  0.132162  0.409043  0.191800  1
  O  O17  1  0.881928  0.902590  0.793489  1
  O  O18  1  0.908154  0.606650  0.799906  1
  O  O19  1  0.121171  0.119084  0.214556  1
  O  O20  1  0.587859  0.259089  0.247396  1
  O  O21  1  0.432685  0.753193  0.751315  1
  O  O22  1  0.067933  0.242483  0.898383  1
  O  O23  1  0.917888  0.759606  0.093986  1
  O  O24  1  0.527690  0.582503  0.339441  1
  O  O25  1  0.420604  0.065762  0.673414  1
  O  O26  1  0.485025  0.435291  0.687980  1
  O  O27  1  0.584425  0.949994  0.319386  1
  O  O28  1  0.019675  0.246505  0.590558  1
  O  O29  1  0.152863  0.741015  0.420064  1
