# generated using pymatgen
data_Co(NiS2)2
_symmetry_space_group_name_H-M   'P 1'
_cell_length_a   6.92645738
_cell_length_b   6.79192372
_cell_length_c   6.04567179
_cell_angle_alpha   106.84907002
_cell_angle_beta   55.37945703
_cell_angle_gamma   120.73307576
_symmetry_Int_Tables_number   1
_chemical_formula_structural   Co(NiS2)2
_chemical_formula_sum   'Co2 Ni4 S8'
_cell_volume   201.18131529
_cell_formula_units_Z   2
loop_
 _symmetry_equiv_pos_site_id
 _symmetry_equiv_pos_as_xyz
  1  'x, y, z'
loop_
 _atom_site_type_symbol
 _atom_site_label
 _atom_site_symmetry_multiplicity
 _atom_site_fract_x
 _atom_site_fract_y
 _atom_site_fract_z
 _atom_site_occupancy
  Co  Co0  1  0.226872  0.499826  0.501434  1
  Co  Co1  1  0.476979  0.997924  0.003354  1
  Ni  Ni2  1  0.964301  0.504708  0.074272  1
  Ni  Ni3  1  0.533207  0.491824  0.928340  1
  Ni  Ni4  1  0.207227  0.995048  0.577982  1
  Ni  Ni5  1  0.788941  0.004911  0.429323  1
  S  S6  1  0.053776  0.843192  0.285978  1
  S  S7  1  0.088423  0.343307  0.215454  1
  S  S8  1  0.537456  0.809628  0.223592  1
  S  S9  1  0.509405  0.310668  0.278092  1
  S  S10  1  0.474692  0.686774  0.725273  1
  S  S11  1  0.493527  0.153382  0.716922  1
  S  S12  1  0.959774  0.654830  0.784611  1
  S  S13  1  0.946803  0.186954  0.776079  1
