# generated using pymatgen
data_Cs2PtC2(OF)4
_symmetry_space_group_name_H-M   'P 1'
_cell_length_a   6.37667598
_cell_length_b   8.12515910
_cell_length_c   9.91670282
_cell_angle_alpha   90.32221608
_cell_angle_beta   89.95291468
_cell_angle_gamma   113.24320284
_symmetry_Int_Tables_number   1
_chemical_formula_structural   Cs2PtC2(OF)4
_chemical_formula_sum   'Cs4 Pt2 C4 O8 F8'
_cell_volume   472.09034192
_cell_formula_units_Z   2
loop_
 _symmetry_equiv_pos_site_id
 _symmetry_equiv_pos_as_xyz
  1  'x, y, z'
loop_
 _atom_site_type_symbol
 _atom_site_label
 _atom_site_symmetry_multiplicity
 _atom_site_fract_x
 _atom_site_fract_y
 _atom_site_fract_z
 _atom_site_occupancy
  Cs  Cs0  1  0.726230  0.451753  0.834852  1
  Cs  Cs1  1  0.951668  0.909651  0.210649  1
  Cs  Cs2  1  0.275837  0.546833  0.170984  1
  Cs  Cs3  1  0.040055  0.087905  0.789414  1
  Pt  Pt4  1  0.383380  0.765760  0.808479  1
  Pt  Pt5  1  0.615998  0.232797  0.190923  1
  C  C6  1  0.483901  0.723721  0.538381  1
  C  C7  1  0.241176  0.724955  0.538334  1
  C  C8  1  0.757844  0.274937  0.459924  1
  C  C9  1  0.513253  0.273877  0.459958  1
  O  O10  1  0.160586  0.742659  0.658446  1
  O  O11  1  0.419168  0.288169  0.564341  1
  O  O12  1  0.839259  0.255283  0.340711  1
  O  O13  1  0.413415  0.253334  0.340177  1
  O  O14  1  0.865457  0.289741  0.565359  1
  O  O15  1  0.577545  0.709164  0.433622  1
  O  O16  1  0.583142  0.743935  0.658109  1
  O  O17  1  0.135089  0.713616  0.433462  1
  F  F18  1  0.168926  0.783457  0.950905  1
  F  F19  1  0.752796  0.497255  0.163614  1
  F  F20  1  0.378970  0.212620  0.050756  1
  F  F21  1  0.834888  0.216899  0.050557  1
  F  F22  1  0.509994  0.027751  0.783117  1
  F  F23  1  0.255421  0.501435  0.836512  1
  F  F24  1  0.482113  0.971220  0.217462  1
  F  F25  1  0.621686  0.787353  0.947955  1
