# generated using pymatgen
data_CuH8C2NCl3
_symmetry_space_group_name_H-M   'P 1'
_cell_length_a   8.59670417
_cell_length_b   9.71333287
_cell_length_c   10.67580448
_cell_angle_alpha   73.35580117
_cell_angle_beta   68.68533249
_cell_angle_gamma   64.77558657
_symmetry_Int_Tables_number   1
_chemical_formula_structural   CuH8C2NCl3
_chemical_formula_sum   'Cu4 H32 C8 N4 Cl12'
_cell_volume   742.08562713
_cell_formula_units_Z   4
loop_
 _symmetry_equiv_pos_site_id
 _symmetry_equiv_pos_as_xyz
  1  'x, y, z'
loop_
 _atom_site_type_symbol
 _atom_site_label
 _atom_site_symmetry_multiplicity
 _atom_site_fract_x
 _atom_site_fract_y
 _atom_site_fract_z
 _atom_site_occupancy
  Cu  Cu0  1  0.145846  0.856148  0.087092  1
  Cu  Cu1  1  0.854154  0.143852  0.912908  1
  Cu  Cu2  1  0.079252  0.651359  0.428589  1
  Cu  Cu3  1  0.920748  0.348641  0.571411  1
  H  H4  1  0.778466  0.982579  0.569350  1
  H  H5  1  0.221534  0.017421  0.430650  1
  H  H6  1  0.704866  0.059065  0.711060  1
  H  H7  1  0.295134  0.940935  0.288940  1
  H  H8  1  0.606180  0.490654  0.335376  1
  H  H9  1  0.393820  0.509346  0.664624  1
  H  H10  1  0.518897  0.587493  0.205023  1
  H  H11  1  0.481103  0.412507  0.794977  1
  H  H12  1  0.438091  0.994218  0.785850  1
  H  H13  1  0.561909  0.005782  0.214150  1
  H  H14  1  0.458638  0.122433  0.627766  1
  H  H15  1  0.541362  0.877567  0.372234  1
  H  H16  1  0.515228  0.922676  0.627897  1
  H  H17  1  0.484772  0.077324  0.372103  1
  H  H18  1  0.786767  0.731202  0.704405  1
  H  H19  1  0.213233  0.268798  0.295595  1
  H  H20  1  0.930519  0.805199  0.728684  1
  H  H21  1  0.069481  0.194801  0.271316  1
  H  H22  1  0.720327  0.816443  0.853431  1
  H  H23  1  0.279673  0.183557  0.146569  1
  H  H24  1  0.736151  0.251815  0.239542  1
  H  H25  1  0.263849  0.748185  0.760458  1
  H  H26  1  0.496402  0.334591  0.286039  1
  H  H27  1  0.503598  0.665409  0.713961  1
  H  H28  1  0.621941  0.358171  0.110928  1
  H  H29  1  0.378059  0.641829  0.889072  1
  H  H30  1  0.816264  0.520574  0.044598  1
  H  H31  1  0.183736  0.479426  0.955402  1
  H  H32  1  0.783012  0.632506  0.166191  1
  H  H33  1  0.216988  0.367494  0.833809  1
  H  H34  1  0.904697  0.430113  0.188289  1
  H  H35  1  0.095303  0.569887  0.811711  1
  C  C36  1  0.515461  0.005314  0.678873  1
  C  C37  1  0.484539  0.994686  0.321127  1
  C  C38  1  0.791484  0.820251  0.744973  1
  C  C39  1  0.208516  0.179749  0.255027  1
  C  C40  1  0.619976  0.348757  0.216035  1
  C  C41  1  0.380024  0.651243  0.783965  1
  C  C42  1  0.794279  0.521277  0.152047  1
  C  C43  1  0.205721  0.478723  0.847953  1
  N  N44  1  0.703947  0.973924  0.671071  1
  N  N45  1  0.296053  0.026076  0.328929  1
  N  N46  1  0.624999  0.493786  0.232793  1
  N  N47  1  0.375001  0.506214  0.767207  1
  Cl  Cl48  1  0.421065  0.831645  0.083218  1
  Cl  Cl49  1  0.578935  0.168355  0.916782  1
  Cl  Cl50  1  0.083487  0.117109  0.991594  1
  Cl  Cl51  1  0.916513  0.882891  0.008406  1
  Cl  Cl52  1  0.197187  0.600132  0.173346  1
  Cl  Cl53  1  0.802813  0.399868  0.826654  1
  Cl  Cl54  1  0.947536  0.912276  0.355172  1
  Cl  Cl55  1  0.052464  0.087724  0.644828  1
  Cl  Cl56  1  0.297067  0.686392  0.475406  1
  Cl  Cl57  1  0.702933  0.313609  0.524594  1
  Cl  Cl58  1  0.811278  0.611632  0.480107  1
  Cl  Cl59  1  0.188722  0.388368  0.519893  1
