# generated using pymatgen
data_K3Ga13
_symmetry_space_group_name_H-M   'P 1'
_cell_length_a   6.55901270
_cell_length_b   8.83574918
_cell_length_c   29.02679155
_cell_angle_alpha   90.00000000
_cell_angle_beta   90.00000000
_cell_angle_gamma   111.78738258
_symmetry_Int_Tables_number   1
_chemical_formula_structural   K3Ga13
_chemical_formula_sum   'K12 Ga52'
_cell_volume   1562.04810429
_cell_formula_units_Z   4
loop_
 _symmetry_equiv_pos_site_id
 _symmetry_equiv_pos_as_xyz
  1  'x, y, z'
loop_
 _atom_site_type_symbol
 _atom_site_label
 _atom_site_symmetry_multiplicity
 _atom_site_fract_x
 _atom_site_fract_y
 _atom_site_fract_z
 _atom_site_occupancy
  K  K0  1  0.212611  0.425222  0.588323  1
  K  K1  1  0.787389  0.574778  0.411677  1
  K  K2  1  0.363076  0.726153  0.820009  1
  K  K3  1  0.994626  0.989252  0.860443  1
  K  K4  1  0.636924  0.273847  0.320009  1
  K  K5  1  0.363076  0.726153  0.679991  1
  K  K6  1  0.005374  0.010748  0.360443  1
  K  K7  1  0.005374  0.010748  0.139557  1
  K  K8  1  0.212611  0.425222  0.911677  1
  K  K9  1  0.994626  0.989252  0.639557  1
  K  K10  1  0.636924  0.273847  0.179991  1
  K  K11  1  0.787389  0.574778  0.088323  1
  Ga  Ga12  1  0.201530  0.403061  0.074108  1
  Ga  Ga13  1  0.245633  0.103288  0.534520  1
  Ga  Ga14  1  0.404558  0.218789  0.048039  1
  Ga  Ga15  1  0.968852  0.341188  0.796160  1
  Ga  Ga16  1  0.739968  0.479936  0.842736  1
  Ga  Ga17  1  0.340386  0.680772  0.030339  1
  Ga  Ga18  1  0.595442  0.781211  0.951961  1
  Ga  Ga19  1  0.245633  0.103288  0.965480  1
  Ga  Ga20  1  0.857654  0.103288  0.534520  1
  Ga  Ga21  1  0.857654  0.103288  0.965480  1
  Ga  Ga22  1  0.814231  0.218789  0.048039  1
  Ga  Ga23  1  0.798470  0.596939  0.925892  1
  Ga  Ga24  1  0.340386  0.680772  0.469661  1
  Ga  Ga25  1  0.404558  0.218789  0.451961  1
  Ga  Ga26  1  0.772107  0.544215  0.750000  1
  Ga  Ga27  1  0.261068  0.937118  0.250000  1
  Ga  Ga28  1  0.185769  0.781211  0.548039  1
  Ga  Ga29  1  0.260032  0.520064  0.157264  1
  Ga  Ga30  1  0.754367  0.896712  0.034520  1
  Ga  Ga31  1  0.518196  0.036392  0.911314  1
  Ga  Ga32  1  0.372336  0.341188  0.796160  1
  Ga  Ga33  1  0.659614  0.319228  0.969661  1
  Ga  Ga34  1  0.142346  0.896712  0.465480  1
  Ga  Ga35  1  0.572817  0.145635  0.828763  1
  Ga  Ga36  1  0.754367  0.896712  0.465480  1
  Ga  Ga37  1  0.142346  0.896712  0.034520  1
  Ga  Ga38  1  0.427183  0.854365  0.171237  1
  Ga  Ga39  1  0.926134  0.852267  0.750000  1
  Ga  Ga40  1  0.738932  0.062882  0.750000  1
  Ga  Ga41  1  0.659614  0.319228  0.530339  1
  Ga  Ga42  1  0.372336  0.341188  0.703840  1
  Ga  Ga43  1  0.031148  0.658812  0.296160  1
  Ga  Ga44  1  0.676050  0.937118  0.250000  1
  Ga  Ga45  1  0.518196  0.036392  0.588686  1
  Ga  Ga46  1  0.227893  0.455785  0.250000  1
  Ga  Ga47  1  0.201530  0.403061  0.425892  1
  Ga  Ga48  1  0.627664  0.658812  0.203840  1
  Ga  Ga49  1  0.185769  0.781211  0.951961  1
  Ga  Ga50  1  0.481804  0.963608  0.411314  1
  Ga  Ga51  1  0.595442  0.781211  0.548039  1
  Ga  Ga52  1  0.323950  0.062882  0.750000  1
  Ga  Ga53  1  0.572817  0.145635  0.671237  1
  Ga  Ga54  1  0.798470  0.596939  0.574108  1
  Ga  Ga55  1  0.481804  0.963608  0.088686  1
  Ga  Ga56  1  0.260032  0.520064  0.342736  1
  Ga  Ga57  1  0.814231  0.218789  0.451961  1
  Ga  Ga58  1  0.031148  0.658812  0.203840  1
  Ga  Ga59  1  0.073866  0.147733  0.250000  1
  Ga  Ga60  1  0.427183  0.854365  0.328763  1
  Ga  Ga61  1  0.739968  0.479936  0.657264  1
  Ga  Ga62  1  0.968852  0.341188  0.703840  1
  Ga  Ga63  1  0.627664  0.658812  0.296160  1
