# generated using pymatgen
data_FeHO2
_symmetry_space_group_name_H-M   'P 1'
_cell_length_a   10.15265337
_cell_length_b   3.08370702
_cell_length_c   4.60627760
_cell_angle_alpha   90.00000000
_cell_angle_beta   90.00000000
_cell_angle_gamma   90.00000000
_symmetry_Int_Tables_number   1
_chemical_formula_structural   FeHO2
_chemical_formula_sum   'Fe4 H4 O8'
_cell_volume   144.21245685
_cell_formula_units_Z   4
loop_
 _symmetry_equiv_pos_site_id
 _symmetry_equiv_pos_as_xyz
  1  'x, y, z'
loop_
 _atom_site_type_symbol
 _atom_site_label
 _atom_site_symmetry_multiplicity
 _atom_site_fract_x
 _atom_site_fract_y
 _atom_site_fract_z
 _atom_site_occupancy
  Fe  Fe0  1  0.626404  0.250000  0.522235  1
  Fe  Fe1  1  0.126404  0.250000  0.977765  1
  Fe  Fe2  1  0.373596  0.750000  0.477765  1
  Fe  Fe3  1  0.873596  0.750000  0.022235  1
  H  H4  1  0.373901  0.250000  0.021791  1
  H  H5  1  0.873901  0.250000  0.478209  1
  H  H6  1  0.626099  0.750000  0.978209  1
  H  H7  1  0.126099  0.750000  0.521791  1
  O  O8  1  0.308397  0.250000  0.192058  1
  O  O9  1  0.808397  0.250000  0.307942  1
  O  O10  1  0.691603  0.750000  0.807942  1
  O  O11  1  0.191603  0.750000  0.692058  1
  O  O12  1  0.441611  0.250000  0.707529  1
  O  O13  1  0.941611  0.250000  0.792471  1
  O  O14  1  0.558389  0.750000  0.292471  1
  O  O15  1  0.058389  0.750000  0.207529  1
