# generated using pymatgen
data_Yb23Mg4Cu7
_symmetry_space_group_name_H-M   'P 1'
_cell_length_a   10.08033576
_cell_length_b   10.08033553
_cell_length_c   23.17039357
_cell_angle_alpha   90.00000000
_cell_angle_beta   90.00000000
_cell_angle_gamma   120.00000076
_symmetry_Int_Tables_number   1
_chemical_formula_structural   Yb23Mg4Cu7
_chemical_formula_sum   'Yb46 Mg8 Cu14'
_cell_volume   2038.98497333
_cell_formula_units_Z   2
loop_
 _symmetry_equiv_pos_site_id
 _symmetry_equiv_pos_as_xyz
  1  'x, y, z'
loop_
 _atom_site_type_symbol
 _atom_site_label
 _atom_site_symmetry_multiplicity
 _atom_site_fract_x
 _atom_site_fract_y
 _atom_site_fract_z
 _atom_site_occupancy
  Yb  Yb0  1  0.790615  0.209385  0.970334  1
  Yb  Yb1  1  0.077054  0.538527  0.331794  1
  Yb  Yb2  1  0.870081  0.129919  0.383801  1
  Yb  Yb3  1  0.922946  0.461473  0.668206  1
  Yb  Yb4  1  0.666667  0.333333  0.385348  1
  Yb  Yb5  1  0.461473  0.538527  0.331794  1
  Yb  Yb6  1  0.666667  0.333333  0.114652  1
  Yb  Yb7  1  0.748219  0.874109  0.250000  1
  Yb  Yb8  1  0.125891  0.251781  0.250000  1
  Yb  Yb9  1  0.870081  0.740162  0.383801  1
  Yb  Yb10  1  0.538527  0.077054  0.831794  1
  Yb  Yb11  1  0.129919  0.259838  0.616199  1
  Yb  Yb12  1  0.209385  0.418771  0.029666  1
  Yb  Yb13  1  0.129919  0.870081  0.616199  1
  Yb  Yb14  1  0.874109  0.125891  0.750000  1
  Yb  Yb15  1  0.418771  0.209385  0.970334  1
  Yb  Yb16  1  0.740162  0.870081  0.883801  1
  Yb  Yb17  1  0.870081  0.740162  0.116199  1
  Yb  Yb18  1  0.209385  0.418771  0.470334  1
  Yb  Yb19  1  0.581229  0.790615  0.470334  1
  Yb  Yb20  1  0.251781  0.125891  0.750000  1
  Yb  Yb21  1  0.461473  0.922946  0.168206  1
  Yb  Yb22  1  0.209385  0.790615  0.470334  1
  Yb  Yb23  1  0.125891  0.874109  0.250000  1
  Yb  Yb24  1  0.461473  0.538527  0.168206  1
  Yb  Yb25  1  0.333333  0.666667  0.614652  1
  Yb  Yb26  1  0.740162  0.870081  0.616199  1
  Yb  Yb27  1  0.461473  0.922946  0.331794  1
  Yb  Yb28  1  0.418771  0.209385  0.529666  1
  Yb  Yb29  1  0.209385  0.790615  0.029666  1
  Yb  Yb30  1  0.259838  0.129919  0.116199  1
  Yb  Yb31  1  0.129919  0.870081  0.883801  1
  Yb  Yb32  1  0.581229  0.790615  0.029666  1
  Yb  Yb33  1  0.538527  0.077054  0.668206  1
  Yb  Yb34  1  0.259838  0.129919  0.383801  1
  Yb  Yb35  1  0.922946  0.461473  0.831794  1
  Yb  Yb36  1  0.874109  0.748219  0.750000  1
  Yb  Yb37  1  0.870081  0.129919  0.116199  1
  Yb  Yb38  1  0.077054  0.538527  0.168206  1
  Yb  Yb39  1  0.333333  0.666667  0.885348  1
  Yb  Yb40  1  0.538527  0.461473  0.831794  1
  Yb  Yb41  1  0.129919  0.259838  0.883801  1
  Yb  Yb42  1  0.538527  0.461473  0.668206  1
  Yb  Yb43  1  0.790615  0.209385  0.529666  1
  Yb  Yb44  1  0.790615  0.581229  0.970334  1
  Yb  Yb45  1  0.790615  0.581229  0.529666  1
  Mg  Mg46  1  0.000000  0.000000  0.500000  1
  Mg  Mg47  1  0.770317  0.229683  0.250000  1
  Mg  Mg48  1  0.540635  0.770317  0.750000  1
  Mg  Mg49  1  0.229683  0.770317  0.750000  1
  Mg  Mg50  1  0.770317  0.540635  0.250000  1
  Mg  Mg51  1  0.229683  0.459365  0.750000  1
  Mg  Mg52  1  0.459365  0.229683  0.250000  1
  Mg  Mg53  1  0.000000  0.000000  0.000000  1
  Cu  Cu54  1  0.524659  0.475341  0.050778  1
  Cu  Cu55  1  0.524659  0.475341  0.449222  1
  Cu  Cu56  1  0.524659  0.049317  0.449222  1
  Cu  Cu57  1  0.524659  0.049317  0.050778  1
  Cu  Cu58  1  0.475341  0.524659  0.949222  1
  Cu  Cu59  1  0.475341  0.950683  0.550778  1
  Cu  Cu60  1  0.950683  0.475341  0.449222  1
  Cu  Cu61  1  0.950683  0.475341  0.050778  1
  Cu  Cu62  1  0.666667  0.333333  0.750000  1
  Cu  Cu63  1  0.049317  0.524659  0.550778  1
  Cu  Cu64  1  0.475341  0.950683  0.949222  1
  Cu  Cu65  1  0.475341  0.524659  0.550778  1
  Cu  Cu66  1  0.049317  0.524659  0.949222  1
  Cu  Cu67  1  0.333333  0.666667  0.250000  1
