# generated using pymatgen
data_Na2Nd2Ti3O10
_symmetry_space_group_name_H-M   'P 1'
_cell_length_a   3.85099523
_cell_length_b   3.85099524
_cell_length_c   14.64115217
_cell_angle_alpha   97.55701489
_cell_angle_beta   97.55701491
_cell_angle_gamma   90.00000001
_symmetry_Int_Tables_number   1
_chemical_formula_structural   Na2Nd2Ti3O10
_chemical_formula_sum   'Na2 Nd2 Ti3 O10'
_cell_volume   213.34223782
_cell_formula_units_Z   1
loop_
 _symmetry_equiv_pos_site_id
 _symmetry_equiv_pos_as_xyz
  1  'x, y, z'
loop_
 _atom_site_type_symbol
 _atom_site_label
 _atom_site_symmetry_multiplicity
 _atom_site_fract_x
 _atom_site_fract_y
 _atom_site_fract_z
 _atom_site_occupancy
  O  O0  1  0.868218  0.368218  0.736435  1
  O  O1  1  0.368218  0.868218  0.736435  1
  O  O2  1  0.131782  0.631782  0.263565  1
  O  O3  1  0.631782  0.131782  0.263565  1
  O  O4  1  0.792028  0.792028  0.584056  1
  O  O5  1  0.207972  0.207972  0.415944  1
  O  O6  1  0.000000  0.500000  0.000000  1
  O  O7  1  0.067349  0.067349  0.134699  1
  O  O8  1  0.932651  0.932651  0.865301  1
  O  O9  1  0.500000  0.000000  0.000000  1
  Na  Na10  1  0.712019  0.712019  0.424038  1
  Na  Na11  1  0.287981  0.287981  0.575962  1
  Ti  Ti12  1  0.853264  0.853264  0.706527  1
  Ti  Ti13  1  0.146736  0.146736  0.293473  1
  Ti  Ti14  1  0.000000  0.000000  0.000000  1
  Nd  Nd15  1  0.575261  0.575261  0.150522  1
  Nd  Nd16  1  0.424739  0.424739  0.849478  1
