# generated using pymatgen
data_K3GdSi2O7
_symmetry_space_group_name_H-M   'P 1'
_cell_length_a   10.02537745
_cell_length_b   10.02537762
_cell_length_c   14.57954556
_cell_angle_alpha   90.00000000
_cell_angle_beta   90.00000000
_cell_angle_gamma   119.99999942
_symmetry_Int_Tables_number   1
_chemical_formula_structural   K3GdSi2O7
_chemical_formula_sum   'K18 Gd6 Si12 O42'
_cell_volume   1269.04228720
_cell_formula_units_Z   6
loop_
 _symmetry_equiv_pos_site_id
 _symmetry_equiv_pos_as_xyz
  1  'x, y, z'
loop_
 _atom_site_type_symbol
 _atom_site_label
 _atom_site_symmetry_multiplicity
 _atom_site_fract_x
 _atom_site_fract_y
 _atom_site_fract_z
 _atom_site_occupancy
  K  K0  1  1.000000  0.668272  0.409236  1
  K  K1  1  0.668272  0.000000  0.090764  1
  K  K2  1  0.333333  0.666667  0.750000  1
  K  K3  1  0.000000  0.331728  0.590764  1
  K  K4  1  0.668272  0.668272  0.909236  1
  K  K5  1  0.331728  0.331728  0.409236  1
  K  K6  1  0.331728  0.000000  0.590764  1
  K  K7  1  0.666667  0.333333  0.250000  1
  K  K8  1  0.331728  0.000000  0.909236  1
  K  K9  1  0.000000  0.000000  0.000000  1
  K  K10  1  0.668272  0.000000  0.409236  1
  K  K11  1  1.000000  0.668272  0.090764  1
  K  K12  1  0.666667  0.333333  0.750000  1
  K  K13  1  0.668272  0.668272  0.590764  1
  K  K14  1  0.000000  0.331728  0.909236  1
  K  K15  1  0.333333  0.666667  0.250000  1
  K  K16  1  0.000000  0.000000  0.500000  1
  K  K17  1  0.331728  0.331728  0.090764  1
  Gd  Gd18  1  0.333333  0.666667  0.500000  1
  Gd  Gd19  1  0.666667  0.333333  0.000000  1
  Gd  Gd20  1  0.666667  0.333333  0.500000  1
  Gd  Gd21  1  0.000000  0.000000  0.750000  1
  Gd  Gd22  1  0.333333  0.666667  0.000000  1
  Gd  Gd23  1  0.000000  0.000000  0.250000  1
  Si  Si24  1  0.659485  0.000000  0.856872  1
  Si  Si25  1  0.340515  0.000000  0.143128  1
  Si  Si26  1  0.659485  0.659485  0.356872  1
  Si  Si27  1  0.000000  0.659485  0.856872  1
  Si  Si28  1  0.000000  0.659485  0.643128  1
  Si  Si29  1  0.340515  0.340515  0.643128  1
  Si  Si30  1  0.340515  0.340515  0.856872  1
  Si  Si31  1  0.659485  0.659485  0.143128  1
  Si  Si32  1  1.000000  0.340515  0.143128  1
  Si  Si33  1  0.340515  0.000000  0.356872  1
  Si  Si34  1  1.000000  0.340515  0.356872  1
  Si  Si35  1  0.659485  0.000000  0.643128  1
  O  O36  1  0.845431  0.321719  0.092771  1
  O  O37  1  0.678281  0.523712  0.092771  1
  O  O38  1  1.000000  0.177355  0.146285  1
  O  O39  1  0.523712  0.678281  0.092771  1
  O  O40  1  0.822645  0.822645  0.353715  1
  O  O41  1  0.678281  0.154569  0.907229  1
  O  O42  1  0.177355  0.177355  0.853715  1
  O  O43  1  0.000000  0.822645  0.646285  1
  O  O44  1  0.594726  0.594726  0.250000  1
  O  O45  1  0.523712  0.845431  0.592771  1
  O  O46  1  0.678281  0.523712  0.407229  1
  O  O47  1  0.154569  0.678281  0.592771  1
  O  O48  1  0.000000  0.822645  0.853715  1
  O  O49  1  0.154569  0.476288  0.407229  1
  O  O50  1  0.321719  0.476288  0.907229  1
  O  O51  1  0.845431  0.523712  0.592771  1
  O  O52  1  0.000000  0.405274  0.250000  1
  O  O53  1  0.476288  0.154569  0.092771  1
  O  O54  1  0.321719  0.845431  0.407229  1
  O  O55  1  0.405274  0.000000  0.250000  1
  O  O56  1  0.523712  0.678281  0.407229  1
  O  O57  1  0.154569  0.678281  0.907229  1
  O  O58  1  0.476288  0.154569  0.407229  1
  O  O59  1  0.177355  0.177355  0.646285  1
  O  O60  1  0.678281  0.154569  0.592771  1
  O  O61  1  0.476288  0.321719  0.907229  1
  O  O62  1  0.177355  0.000000  0.353715  1
  O  O63  1  0.405274  0.405274  0.750000  1
  O  O64  1  0.822645  0.822645  0.146285  1
  O  O65  1  0.845431  0.321719  0.407229  1
  O  O66  1  0.154569  0.476288  0.092771  1
  O  O67  1  0.822645  0.000000  0.853715  1
  O  O68  1  0.845431  0.523712  0.907229  1
  O  O69  1  1.000000  0.177355  0.353715  1
  O  O70  1  0.822645  0.000000  0.646285  1
  O  O71  1  0.321719  0.476288  0.592771  1
  O  O72  1  0.321719  0.845431  0.092771  1
  O  O73  1  1.000000  0.594726  0.750000  1
  O  O74  1  0.523712  0.845431  0.907229  1
  O  O75  1  0.594726  0.000000  0.750000  1
  O  O76  1  0.177355  0.000000  0.146285  1
  O  O77  1  0.476288  0.321719  0.592771  1
