# generated using pymatgen
data_Ca2Ga2Bi(B2O7)2
_symmetry_space_group_name_H-M   'P 1'
_cell_length_a   12.77836194
_cell_length_b   9.16263769
_cell_length_c   6.84099948
_cell_angle_alpha   94.17665058
_cell_angle_beta   90.00000000
_cell_angle_gamma   45.78857496
_symmetry_Int_Tables_number   1
_chemical_formula_structural   Ca2Ga2Bi(B2O7)2
_chemical_formula_sum   'Ca4 Ga4 Bi2 B8 O28'
_cell_volume   571.13974492
_cell_formula_units_Z   2
loop_
 _symmetry_equiv_pos_site_id
 _symmetry_equiv_pos_as_xyz
  1  'x, y, z'
loop_
 _atom_site_type_symbol
 _atom_site_label
 _atom_site_symmetry_multiplicity
 _atom_site_fract_x
 _atom_site_fract_y
 _atom_site_fract_z
 _atom_site_occupancy
  Ca  Ca0  1  0.668546  0.139890  0.583497  1
  Ca  Ca1  1  0.308436  0.860110  0.416503  1
  Ca  Ca2  1  0.699947  0.219786  0.097630  1
  Ca  Ca3  1  0.419733  0.780214  0.902370  1
  Ga  Ga4  1  0.921518  0.135272  0.761487  1
  Ga  Ga5  1  0.556789  0.864728  0.238513  1
  Ga  Ga6  1  0.251978  0.500000  0.500000  1
  Ga  Ga7  1  0.743738  0.500000  0.500000  1
  Bi  Bi8  1  0.170130  0.324742  0.201603  1
  Bi  Bi9  1  0.994872  0.675258  0.798397  1
  B  B10  1  0.333322  0.495128  0.183206  1
  B  B11  1  0.328450  0.504872  0.816794  1
  B  B12  1  0.249939  0.207875  0.708064  1
  B  B13  1  0.957814  0.792125  0.291936  1
  B  B14  1  0.917266  0.301993  0.029113  1
  B  B15  1  0.719259  0.698007  0.970887  1
  B  B16  1  0.992818  0.118156  0.313747  1
  B  B17  1  0.610975  0.881844  0.686253  1
  O  O18  1  0.080871  0.162835  0.046665  1
  O  O19  1  0.869831  0.270615  0.209046  1
  O  O20  1  0.032607  0.678931  0.111963  1
  O  O21  1  0.211538  0.321069  0.888037  1
  O  O22  1  0.363622  -0.013608  0.200671  1
  O  O23  1  0.230820  0.311925  0.549847  1
  O  O24  1  0.042745  0.688075  0.450153  1
  O  O25  1  0.553409  0.955629  0.516001  1
  O  O26  1  0.375813  0.500000  0.000000  1
  O  O27  1  0.641328  -0.018853  0.809205  1
  O  O28  1  0.423324  0.377712  0.658657  1
  O  O29  1  0.122475  0.018853  0.190795  1
  O  O30  1  0.301036  0.622288  0.341343  1
  O  O31  1  0.341573  0.341086  0.228960  1
  O  O32  1  0.182659  0.658914  0.771040  1
  O  O33  1  0.574882  0.548445  0.105398  1
  O  O34  1  0.623327  0.451555  0.894602  1
  O  O35  1  0.816577  0.976190  0.310228  1
  O  O36  1  0.664563  0.381605  0.481193  1
  O  O37  1  0.546168  0.618395  0.518807  1
  O  O38  1  0.292766  0.023810  0.689772  1
  O  O39  1  0.009038  0.044371  0.483999  1
  O  O40  1  0.850561  0.500000  0.000000  1
  O  O41  1  0.932914  0.390744  0.539279  1
  O  O42  1  0.823658  0.609256  0.460721  1
  O  O43  1  0.743705  0.837165  0.953335  1
  O  O44  1  0.640446  0.729385  0.790954  1
  O  O45  1  0.850014  0.013608  0.799329  1
