# generated using pymatgen
data_Fe4Si(CO)16
_symmetry_space_group_name_H-M   'P 1'
_cell_length_a   9.67462930
_cell_length_b   11.99134529
_cell_length_c   20.92195941
_cell_angle_alpha   90.00000000
_cell_angle_beta   98.31096321
_cell_angle_gamma   90.00000000
_symmetry_Int_Tables_number   1
_chemical_formula_structural   Fe4Si(CO)16
_chemical_formula_sum   'Fe16 Si4 C64 O64'
_cell_volume   2401.70456343
_cell_formula_units_Z   4
loop_
 _symmetry_equiv_pos_site_id
 _symmetry_equiv_pos_as_xyz
  1  'x, y, z'
loop_
 _atom_site_type_symbol
 _atom_site_label
 _atom_site_symmetry_multiplicity
 _atom_site_fract_x
 _atom_site_fract_y
 _atom_site_fract_z
 _atom_site_occupancy
  Fe  Fe0  1  0.734465  0.232449  0.503550  1
  Fe  Fe1  1  0.811134  0.357083  0.318142  1
  Fe  Fe2  1  0.221962  0.876639  0.691061  1
  Fe  Fe3  1  0.188866  0.857083  0.181858  1
  Fe  Fe4  1  0.811134  0.142917  0.818142  1
  Fe  Fe5  1  0.778038  0.376639  0.808939  1
  Fe  Fe6  1  0.734465  0.267551  0.003550  1
  Fe  Fe7  1  0.265535  0.732449  0.996450  1
  Fe  Fe8  1  0.221962  0.623361  0.191061  1
  Fe  Fe9  1  0.778038  0.123361  0.308939  1
  Fe  Fe10  1  0.479205  0.261368  0.421659  1
  Fe  Fe11  1  0.520795  0.761368  0.078341  1
  Fe  Fe12  1  0.479205  0.238632  0.921659  1
  Fe  Fe13  1  0.188866  0.642917  0.681858  1
  Fe  Fe14  1  0.520795  0.738632  0.578341  1
  Fe  Fe15  1  0.265535  0.767551  0.496450  1
  Si  Si16  1  0.702542  0.242881  0.388729  1
  Si  Si17  1  0.297458  0.742881  0.111271  1
  Si  Si18  1  0.297458  0.757119  0.611271  1
  Si  Si19  1  0.702542  0.257119  0.888729  1
  C  C20  1  0.255613  0.484193  0.167599  1
  C  C21  1  0.649745  0.781156  0.146112  1
  C  C22  1  0.255613  0.015807  0.667599  1
  C  C23  1  0.636708  0.372971  0.275746  1
  C  C24  1  0.464055  0.385435  0.905245  1
  C  C25  1  0.101498  0.860742  0.252225  1
  C  C26  1  0.600611  0.361260  0.769618  1
  C  C27  1  0.056990  0.887280  0.638920  1
  C  C28  1  0.194631  0.500938  0.658434  1
  C  C29  1  0.037359  0.656887  0.621435  1
  C  C30  1  0.399389  0.861260  0.730382  1
  C  C31  1  0.535945  0.614565  0.094755  1
  C  C32  1  0.662035  0.237860  0.578258  1
  C  C33  1  0.153984  0.893783  0.766124  1
  C  C34  1  0.913866  0.294402  0.029923  1
  C  C35  1  0.363292  0.872971  0.224254  1
  C  C36  1  0.382793  0.264290  0.490049  1
  C  C37  1  0.056990  0.612720  0.138920  1
  C  C38  1  0.649745  0.718844  0.646112  1
  C  C39  1  0.769720  0.119872  0.001194  1
  C  C40  1  0.337965  0.737860  0.921742  1
  C  C41  1  0.350255  0.281156  0.353888  1
  C  C42  1  0.712479  0.415531  0.991476  1
  C  C43  1  0.194631  0.999062  0.158434  1
  C  C44  1  0.769720  0.380128  0.501194  1
  C  C45  1  0.898502  0.360742  0.247775  1
  C  C46  1  0.489689  0.908841  0.079898  1
  C  C47  1  0.350255  0.218844  0.853888  1
  C  C48  1  0.805369  0.499062  0.341566  1
  C  C49  1  0.898502  0.139258  0.747775  1
  C  C50  1  0.399389  0.638740  0.230382  1
  C  C51  1  0.101498  0.639258  0.752225  1
  C  C52  1  0.510311  0.408841  0.420102  1
  C  C53  1  0.153984  0.606217  0.266124  1
  C  C54  1  0.489689  0.591159  0.579898  1
  C  C55  1  0.636708  0.127029  0.775746  1
  C  C56  1  0.617207  0.735710  0.509951  1
  C  C57  1  0.382793  0.235710  0.990049  1
  C  C58  1  0.363292  0.627029  0.724254  1
  C  C59  1  0.962641  0.343113  0.378565  1
  C  C60  1  0.846016  0.106217  0.233876  1
  C  C61  1  0.086134  0.794402  0.470077  1
  C  C62  1  0.662035  0.262140  0.078258  1
  C  C63  1  0.943010  0.387280  0.861080  1
  C  C64  1  0.943010  0.112720  0.361080  1
  C  C65  1  0.510311  0.091159  0.920102  1
  C  C66  1  0.913866  0.205598  0.529923  1
  C  C67  1  0.086134  0.705598  0.970077  1
  C  C68  1  0.464055  0.114565  0.405245  1
  C  C69  1  0.805369  0.000938  0.841566  1
  C  C70  1  0.962641  0.156887  0.878565  1
  C  C71  1  0.744387  0.515807  0.832401  1
  C  C72  1  0.230280  0.880128  0.998806  1
  C  C73  1  0.744387  0.984193  0.332401  1
  C  C74  1  0.846016  0.393783  0.733876  1
  C  C75  1  0.600611  0.138740  0.269618  1
  C  C76  1  0.287521  0.584469  0.008524  1
  C  C77  1  0.287521  0.915531  0.508524  1
  C  C78  1  0.617207  0.764290  0.009951  1
  C  C79  1  0.712479  0.084469  0.491476  1
  C  C80  1  0.230280  0.619872  0.498806  1
  C  C81  1  0.037359  0.843113  0.121435  1
  C  C82  1  0.337965  0.762140  0.421742  1
  C  C83  1  0.535945  0.885435  0.594755  1
  O  O84  1  0.380621  0.760476  0.372782  1
  O  O85  1  0.200234  0.973895  0.997492  1
  O  O86  1  0.048320  0.402537  0.894268  1
  O  O87  1  0.518870  0.505072  0.415418  1
  O  O88  1  0.727427  0.606660  0.848135  1
  O  O89  1  0.951304  0.135376  0.701408  1
  O  O90  1  0.939896  0.843157  0.081942  1
  O  O91  1  0.939896  0.656843  0.581942  1
  O  O92  1  0.727427  0.893340  0.348135  1
  O  O93  1  0.475236  0.890418  0.250485  1
  O  O94  1  0.291791  0.488105  0.013557  1
  O  O95  1  0.951680  0.902537  0.605732  1
  O  O96  1  0.679018  0.733342  0.466716  1
  O  O97  1  0.799766  0.473895  0.502508  1
  O  O98  1  0.486750  0.141318  0.243137  1
  O  O99  1  0.475236  0.609582  0.750485  1
  O  O100  1  0.113600  0.909848  0.814966  1
  O  O101  1  0.513250  0.641318  0.256863  1
  O  O102  1  0.708209  0.511895  0.986443  1
  O  O103  1  0.262007  0.204894  0.810763  1
  O  O104  1  0.380621  0.739524  0.872782  1
  O  O105  1  0.619379  0.260476  0.127218  1
  O  O106  1  0.708209  0.988105  0.486443  1
  O  O107  1  0.619379  0.239524  0.627218  1
  O  O108  1  0.030210  0.187839  0.548972  1
  O  O109  1  0.737993  0.704894  0.689237  1
  O  O110  1  0.443908  0.477968  0.890264  1
  O  O111  1  0.969790  0.812161  0.451028  1
  O  O112  1  0.556092  0.977968  0.609736  1
  O  O113  1  0.679018  0.766658  0.966716  1
  O  O114  1  0.481130  0.005072  0.084582  1
  O  O115  1  0.196719  0.092407  0.144417  1
  O  O116  1  0.048696  0.864624  0.298592  1
  O  O117  1  0.518870  0.994928  0.915418  1
  O  O118  1  0.803281  0.907593  0.855583  1
  O  O119  1  0.060104  0.156843  0.918058  1
  O  O120  1  0.524764  0.109582  0.749515  1
  O  O121  1  0.556092  0.522032  0.109736  1
  O  O122  1  0.803281  0.592407  0.355583  1
  O  O123  1  0.886400  0.409848  0.685034  1
  O  O124  1  0.951304  0.364624  0.201408  1
  O  O125  1  0.048320  0.097463  0.394268  1
  O  O126  1  0.320982  0.266658  0.533284  1
  O  O127  1  0.886400  0.090152  0.185034  1
  O  O128  1  0.291791  0.011895  0.513557  1
  O  O129  1  0.272573  0.106660  0.651865  1
  O  O130  1  0.513250  0.858682  0.756863  1
  O  O131  1  0.272573  0.393340  0.151865  1
  O  O132  1  0.060104  0.343157  0.418058  1
  O  O133  1  0.320982  0.233342  0.033284  1
  O  O134  1  0.969790  0.687839  0.951028  1
  O  O135  1  0.799766  0.026105  0.002508  1
  O  O136  1  0.486750  0.358682  0.743137  1
  O  O137  1  0.524764  0.390418  0.249515  1
  O  O138  1  0.030210  0.312161  0.048972  1
  O  O139  1  0.048696  0.635376  0.798592  1
  O  O140  1  0.443908  0.022032  0.390264  1
  O  O141  1  0.113600  0.590152  0.314966  1
  O  O142  1  0.196719  0.407593  0.644417  1
  O  O143  1  0.951680  0.597463  0.105732  1
  O  O144  1  0.262007  0.295106  0.310763  1
  O  O145  1  0.481130  0.494928  0.584582  1
  O  O146  1  0.200234  0.526105  0.497492  1
  O  O147  1  0.737993  0.795106  0.189237  1
