# generated using pymatgen
data_Ag3I(NO3)2
_symmetry_space_group_name_H-M   'P 1'
_cell_length_a   7.61417289
_cell_length_b   8.95637427
_cell_length_c   12.09883705
_cell_angle_alpha   90.00000000
_cell_angle_beta   90.00000000
_cell_angle_gamma   90.00000000
_symmetry_Int_Tables_number   1
_chemical_formula_structural   Ag3I(NO3)2
_chemical_formula_sum   'Ag12 I4 N8 O24'
_cell_volume   825.08481631
_cell_formula_units_Z   4
loop_
 _symmetry_equiv_pos_site_id
 _symmetry_equiv_pos_as_xyz
  1  'x, y, z'
loop_
 _atom_site_type_symbol
 _atom_site_label
 _atom_site_symmetry_multiplicity
 _atom_site_fract_x
 _atom_site_fract_y
 _atom_site_fract_z
 _atom_site_occupancy
  Ag  Ag0  1  0.558156  0.998412  0.929455  1
  Ag  Ag1  1  0.059730  0.507377  0.406499  1
  Ag  Ag2  1  0.941844  0.498412  0.070545  1
  Ag  Ag3  1  0.940270  0.992623  0.906499  1
  Ag  Ag4  1  0.407462  0.516697  0.800561  1
  Ag  Ag5  1  0.441844  0.501588  0.429455  1
  Ag  Ag6  1  0.592538  0.983303  0.300561  1
  Ag  Ag7  1  0.058156  0.001588  0.570545  1
  Ag  Ag8  1  0.559730  0.492623  0.093501  1
  Ag  Ag9  1  0.092538  0.016697  0.199439  1
  Ag  Ag10  1  0.907462  0.483303  0.699439  1
  Ag  Ag11  1  0.440270  0.007377  0.593501  1
  I  I12  1  0.765861  0.117103  0.101172  1
  I  I13  1  0.265861  0.882897  0.398828  1
  I  I14  1  0.234139  0.382897  0.601172  1
  I  I15  1  0.734139  0.617103  0.898828  1
  N  N16  1  0.250718  0.728725  0.769697  1
  N  N17  1  0.749282  0.771275  0.269697  1
  N  N18  1  0.247105  0.736955  0.078612  1
  N  N19  1  0.249282  0.228725  0.230303  1
  N  N20  1  0.750718  0.271275  0.730303  1
  N  N21  1  0.747105  0.263045  0.421388  1
  N  N22  1  0.252895  0.236955  0.921388  1
  N  N23  1  0.752895  0.763045  0.578612  1
  O  O24  1  0.594174  0.207838  0.403970  1
  O  O25  1  0.822020  0.717282  0.351709  1
  O  O26  1  0.761983  0.722297  0.174664  1
  O  O27  1  0.616824  0.686147  0.591024  1
  O  O28  1  0.491593  0.534741  0.261507  1
  O  O29  1  0.677980  0.217282  0.648291  1
  O  O30  1  0.905826  0.707838  0.596030  1
  O  O31  1  0.244814  0.099645  0.950649  1
  O  O32  1  0.991593  0.465259  0.238493  1
  O  O33  1  0.261983  0.277703  0.325336  1
  O  O34  1  0.405826  0.292162  0.903970  1
  O  O35  1  0.738017  0.222297  0.825336  1
  O  O36  1  0.322020  0.282718  0.148291  1
  O  O37  1  0.177980  0.782718  0.851709  1
  O  O38  1  0.255186  0.599645  0.049351  1
  O  O39  1  0.116824  0.313853  0.908976  1
  O  O40  1  0.508407  0.965259  0.761507  1
  O  O41  1  0.883176  0.186147  0.408976  1
  O  O42  1  0.094174  0.792162  0.096030  1
  O  O43  1  0.755186  0.400355  0.450649  1
  O  O44  1  0.238017  0.777703  0.674664  1
  O  O45  1  0.744814  0.900355  0.549351  1
  O  O46  1  0.008407  0.034741  0.738493  1
  O  O47  1  0.383176  0.813853  0.091024  1
