# generated using pymatgen
data_Sr2CuCO5
_symmetry_space_group_name_H-M   'P 1'
_cell_length_a   7.86885198
_cell_length_b   7.86885197
_cell_length_c   9.45830825
_cell_angle_alpha   114.58077330
_cell_angle_beta   114.58077329
_cell_angle_gamma   90.00000002
_symmetry_Int_Tables_number   1
_chemical_formula_structural   Sr2CuCO5
_chemical_formula_sum   'Sr8 Cu4 C4 O20'
_cell_volume   473.58871983
_cell_formula_units_Z   4
loop_
 _symmetry_equiv_pos_site_id
 _symmetry_equiv_pos_as_xyz
  1  'x, y, z'
loop_
 _atom_site_type_symbol
 _atom_site_label
 _atom_site_symmetry_multiplicity
 _atom_site_fract_x
 _atom_site_fract_y
 _atom_site_fract_z
 _atom_site_occupancy
  C  C0  1  0.486411  0.499472  0.499421  1
  C  C1  1  0.013010  0.999949  0.499421  1
  C  C2  1  0.500528  0.986990  0.500579  1
  C  C3  1  0.000051  0.513589  0.500579  1
  O  O4  1  0.832930  0.515971  0.498640  1
  O  O5  1  0.017331  0.167070  0.501360  1
  O  O6  1  0.484029  0.334290  0.501360  1
  O  O7  1  0.665710  0.982669  0.498640  1
  O  O8  1  0.009843  0.438982  0.354237  1
  O  O9  1  0.084746  0.990157  0.645763  1
  O  O10  1  0.561018  0.655607  0.645763  1
  O  O11  1  0.344393  0.915254  0.354237  1
  O  O12  1  0.936705  0.846246  0.351004  1
  O  O13  1  0.414300  0.504759  0.351004  1
  O  O14  1  0.153754  0.585700  0.648996  1
  O  O15  1  0.495241  0.063295  0.648996  1
  O  O16  1  0.262412  0.011426  0.022709  1
  O  O17  1  0.988717  0.737588  0.977291  1
  O  O18  1  0.988574  0.239704  0.977291  1
  O  O19  1  0.760296  0.011283  0.022709  1
  O  O20  1  0.740137  0.489303  0.978236  1
  O  O21  1  0.511067  0.259863  0.021764  1
  O  O22  1  0.510697  0.761901  0.021764  1
  O  O23  1  0.238099  0.488933  0.978236  1
  Cu  Cu24  1  0.749982  0.750051  0.000049  1
  Cu  Cu25  1  0.750002  0.250018  0.999951  1
  Cu  Cu26  1  0.249949  0.749933  0.999951  1
  Cu  Cu27  1  0.250067  0.249998  0.000049  1
  Sr  Sr28  1  0.621048  0.121048  0.242096  1
  Sr  Sr29  1  0.878952  0.378952  0.757904  1
  Sr  Sr30  1  0.398367  0.898367  0.796733  1
  Sr  Sr31  1  0.101633  0.601633  0.203267  1
  Sr  Sr32  1  0.614320  0.614320  0.228641  1
  Sr  Sr33  1  0.385680  0.385680  0.771359  1
  Sr  Sr34  1  0.885525  0.885525  0.771051  1
  Sr  Sr35  1  0.114475  0.114475  0.228949  1
