# generated using pymatgen
data_Ce2PbSe4
_symmetry_space_group_name_H-M   'P 1'
_cell_length_a   7.86554633
_cell_length_b   7.86554617
_cell_length_c   7.86554601
_cell_angle_alpha   109.32796804
_cell_angle_beta   109.75811355
_cell_angle_gamma   109.32796441
_symmetry_Int_Tables_number   1
_chemical_formula_structural   Ce2PbSe4
_chemical_formula_sum   'Ce4 Pb2 Se8'
_cell_volume   374.59034369
_cell_formula_units_Z   2
loop_
 _symmetry_equiv_pos_site_id
 _symmetry_equiv_pos_as_xyz
  1  'x, y, z'
loop_
 _atom_site_type_symbol
 _atom_site_label
 _atom_site_symmetry_multiplicity
 _atom_site_fract_x
 _atom_site_fract_y
 _atom_site_fract_z
 _atom_site_occupancy
  Ce  Ce0  1  0.250000  0.631521  0.381521  1
  Ce  Ce1  1  0.618479  0.368479  0.250000  1
  Ce  Ce2  1  0.750000  0.868479  0.118479  1
  Ce  Ce3  1  0.881521  0.131521  0.750000  1
  Pb  Pb4  1  0.125000  0.750000  0.875000  1
  Pb  Pb5  1  0.375000  0.250000  0.625000  1
  Se  Se6  1  0.988175  0.845756  0.490992  1
  Se  Se7  1  0.990992  0.345756  0.488175  1
  Se  Se8  1  0.511825  0.002817  0.857580  1
  Se  Se9  1  0.142420  0.154244  0.145237  1
  Se  Se10  1  0.357580  0.502817  0.011825  1
  Se  Se11  1  0.645237  0.654244  0.642420  1
  Se  Se12  1  0.509008  0.997183  0.354763  1
  Se  Se13  1  0.854763  0.497183  0.009008  1
