# generated using pymatgen
data_Mn(CuCl2)2
_symmetry_space_group_name_H-M   'P 1'
_cell_length_a   3.86223944
_cell_length_b   7.55227118
_cell_length_c   7.55227124
_cell_angle_alpha   59.79394518
_cell_angle_beta   59.24280190
_cell_angle_gamma   59.24280164
_symmetry_Int_Tables_number   1
_chemical_formula_structural   Mn(CuCl2)2
_chemical_formula_sum   'Mn1 Cu2 Cl4'
_cell_volume   153.72618882
_cell_formula_units_Z   1
loop_
 _symmetry_equiv_pos_site_id
 _symmetry_equiv_pos_as_xyz
  1  'x, y, z'
loop_
 _atom_site_type_symbol
 _atom_site_label
 _atom_site_symmetry_multiplicity
 _atom_site_fract_x
 _atom_site_fract_y
 _atom_site_fract_z
 _atom_site_occupancy
  Cl  Cl0  1  0.019957  0.984976  0.995066  1
  Cl  Cl1  1  1.000000  0.514611  0.985389  1
  Cl  Cl2  1  0.000000  0.983477  0.516523  1
  Cl  Cl3  1  0.980043  0.504934  0.515024  1
  Cu  Cu4  1  0.344107  0.161168  0.994725  1
  Cu  Cu5  1  0.655893  0.505275  0.338832  1
  Mn  Mn6  1  0.500000  0.775558  0.724442  1
