# generated using pymatgen
data_BaCu2P2H2O9
_symmetry_space_group_name_H-M   'P 1'
_cell_length_a   9.84269493
_cell_length_b   5.23656094
_cell_length_c   14.79128571
_cell_angle_alpha   90.00000000
_cell_angle_beta   90.00000000
_cell_angle_gamma   90.00000000
_symmetry_Int_Tables_number   1
_chemical_formula_structural   BaCu2P2H2O9
_chemical_formula_sum   'Ba4 Cu8 P8 H8 O36'
_cell_volume   762.37055204
_cell_formula_units_Z   4
loop_
 _symmetry_equiv_pos_site_id
 _symmetry_equiv_pos_as_xyz
  1  'x, y, z'
loop_
 _atom_site_type_symbol
 _atom_site_label
 _atom_site_symmetry_multiplicity
 _atom_site_fract_x
 _atom_site_fract_y
 _atom_site_fract_z
 _atom_site_occupancy
  Ba  Ba0  1  0.771503  0.751476  0.212659  1
  Ba  Ba1  1  0.728497  0.248524  0.712659  1
  Ba  Ba2  1  0.271503  0.748524  0.787341  1
  Ba  Ba3  1  0.228497  0.251476  0.287341  1
  Cu  Cu4  1  0.501244  0.767956  0.010201  1
  Cu  Cu5  1  0.998756  0.232044  0.510201  1
  Cu  Cu6  1  0.001244  0.732044  0.989799  1
  Cu  Cu7  1  0.498756  0.267956  0.489799  1
  Cu  Cu8  1  0.738415  0.846402  0.471510  1
  Cu  Cu9  1  0.761585  0.153598  0.971510  1
  Cu  Cu10  1  0.238415  0.653598  0.528490  1
  Cu  Cu11  1  0.261585  0.346402  0.028490  1
  P  P12  1  0.948978  0.732590  0.627086  1
  P  P13  1  0.551022  0.267410  0.127086  1
  P  P14  1  0.448978  0.767410  0.372914  1
  P  P15  1  0.051022  0.232590  0.872914  1
  P  P16  1  0.525877  0.762543  0.616502  1
  P  P17  1  0.974123  0.237457  0.116502  1
  P  P18  1  0.025877  0.737457  0.383498  1
  P  P19  1  0.474123  0.262543  0.883498  1
  H  H20  1  0.677500  0.215787  0.337645  1
  H  H21  1  0.822500  0.784213  0.837645  1
  H  H22  1  0.177500  0.284213  0.662355  1
  H  H23  1  0.322500  0.715787  0.162355  1
  H  H24  1  0.765541  0.389910  0.401587  1
  H  H25  1  0.734459  0.610090  0.901587  1
  H  H26  1  0.265541  0.110090  0.598413  1
  H  H27  1  0.234459  0.889910  0.098413  1
  O  O28  1  0.105136  0.760045  0.626734  1
  O  O29  1  0.394864  0.239955  0.126734  1
  O  O30  1  0.605136  0.739955  0.373266  1
  O  O31  1  0.894864  0.260045  0.873266  1
  O  O32  1  0.886176  0.776602  0.720120  1
  O  O33  1  0.613824  0.223398  0.220120  1
  O  O34  1  0.386176  0.723398  0.279880  1
  O  O35  1  0.113824  0.276602  0.779880  1
  O  O36  1  0.904135  0.464919  0.591012  1
  O  O37  1  0.595865  0.535081  0.091012  1
  O  O38  1  0.404135  0.035081  0.408988  1
  O  O39  1  0.095865  0.964919  0.908988  1
  O  O40  1  0.886227  0.943046  0.560129  1
  O  O41  1  0.613773  0.056954  0.060129  1
  O  O42  1  0.386227  0.556954  0.439871  1
  O  O43  1  0.113773  0.443046  0.939871  1
  O  O44  1  0.573802  0.799136  0.713222  1
  O  O45  1  0.926198  0.200864  0.213222  1
  O  O46  1  0.073802  0.700864  0.286778  1
  O  O47  1  0.426198  0.299136  0.786778  1
  O  O48  1  0.595512  0.972731  0.553467  1
  O  O49  1  0.904488  0.027269  0.053467  1
  O  O50  1  0.095512  0.527269  0.446533  1
  O  O51  1  0.404488  0.472731  0.946533  1
  O  O52  1  0.369253  0.805989  0.611135  1
  O  O53  1  0.130747  0.194011  0.111135  1
  O  O54  1  0.869253  0.694011  0.388865  1
  O  O55  1  0.630747  0.305989  0.888865  1
  O  O56  1  0.570699  0.495362  0.581732  1
  O  O57  1  0.929301  0.504638  0.081732  1
  O  O58  1  0.070699  0.004638  0.418268  1
  O  O59  1  0.429301  0.995362  0.918268  1
  O  O60  1  0.712995  0.230649  0.399763  1
  O  O61  1  0.787005  0.769351  0.899763  1
  O  O62  1  0.212995  0.269351  0.600237  1
  O  O63  1  0.287005  0.730649  0.100237  1
