# generated using pymatgen
data_SbH7F11
_symmetry_space_group_name_H-M   'P 1'
_cell_length_a   6.15867452
_cell_length_b   6.54794574
_cell_length_c   31.29975673
_cell_angle_alpha   112.21904432
_cell_angle_beta   112.60723067
_cell_angle_gamma   88.72223048
_symmetry_Int_Tables_number   1
_chemical_formula_structural   SbH7F11
_chemical_formula_sum   'Sb5 H35 F55'
_cell_volume   1067.46151942
_cell_formula_units_Z   5
loop_
 _symmetry_equiv_pos_site_id
 _symmetry_equiv_pos_as_xyz
  1  'x, y, z'
loop_
 _atom_site_type_symbol
 _atom_site_label
 _atom_site_symmetry_multiplicity
 _atom_site_fract_x
 _atom_site_fract_y
 _atom_site_fract_z
 _atom_site_occupancy
  Sb  Sb0  1  0.034770  0.062601  0.803337  1
  Sb  Sb1  1  0.114887  0.073469  0.629327  1
  Sb  Sb2  1  0.092311  0.091325  0.422357  1
  Sb  Sb3  1  -0.012876  0.030133  0.208477  1
  Sb  Sb4  1  0.812972  0.897581  0.987788  1
  H  H5  1  0.664752  0.431066  0.906769  1
  H  H6  1  0.867532  0.550862  0.756702  1
  H  H7  1  0.746598  0.772927  0.683060  1
  H  H8  1  0.272579  0.881011  0.912921  1
  H  H9  1  0.891097  0.533596  0.547765  1
  H  H10  1  0.453979  0.884706  0.771620  1
  H  H11  1  0.241239  0.077846  0.076289  1
  H  H12  1  0.435292  0.425797  0.810973  1
  H  H13  1  0.778537  0.874579  0.507421  1
  H  H14  1  0.332749  0.778198  0.701385  1
  H  H15  1  0.889940  0.395486  0.339608  1
  H  H16  1  0.408034  0.843230  0.572477  1
  H  H17  1  0.501252  0.145631  0.894548  1
  H  H18  1  0.622498  0.437247  0.616133  1
  H  H19  1  0.643501  0.866827  0.308719  1
  H  H20  1  0.245376  0.737242  0.499327  1
  H  H21  1  0.136273  0.537060  0.897099  1
  H  H22  1  0.839825  0.495285  0.153824  1
  H  H23  1  0.559100  0.839167  0.397837  1
  H  H24  1  0.569209  0.298379  0.716320  1
  H  H25  1  0.646334  0.572536  0.435548  1
  H  H26  1  0.577473  0.780274  0.108894  1
  H  H27  1  0.342191  0.677844  0.288990  1
  H  H28  1  0.075022  0.542432  0.675739  1
  H  H29  1  0.151703  0.726470  0.135753  1
  H  H30  1  0.653459  0.341775  0.548998  1
  H  H31  1  0.609559  0.513651  0.204302  1
  H  H32  1  0.949832  0.886805  0.911093  1
  H  H33  1  0.629702  0.223679  0.252730  1
  H  H34  1  -0.068959  0.559869  0.432738  1
  H  H35  1  0.587867  0.232399  0.096532  1
  H  H36  1  0.433248  0.241193  0.289777  1
  H  H37  1  0.377050  0.452108  -0.013232  1
  H  H38  1  0.989280  0.590540  0.275035  1
  H  H39  1  0.266321  0.630230  0.090151  1
  F  F40  1  0.090844  0.778987  0.983663  1
  F  F41  1  0.145670  0.400992  0.901758  1
  F  F42  1  0.357094  0.050297  0.888758  1
  F  F43  1  -0.003140  0.683475  0.783099  1
  F  F44  1  0.012369  0.421443  0.681137  1
  F  F45  1  0.441558  0.645102  0.084832  1
  F  F46  1  0.361974  0.177199  0.701519  1
  F  F47  1  0.344095  -0.028066  0.800836  1
  F  F48  1  0.502973  0.985218  0.974787  1
  F  F49  1  0.723980  0.370871  0.720571  1
  F  F50  1  0.029973  0.652080  0.563745  1
  F  F51  1  -0.105769  0.208527  0.456111  1
  F  F52  1  0.299335  0.350933  -0.007503  1
  F  F53  1  0.120263  0.779712  0.894013  1
  F  F54  1  0.314822  0.078541  0.481759  1
  F  F55  1  0.406431  0.957800  0.615919  1
  F  F56  1  0.532868  0.824023  0.747114  1
  F  F57  1  0.828079  0.960917  0.923004  1
  F  F58  1  0.691599  0.376820  0.524190  1
  F  F59  1  0.043508  0.396428  0.339895  1
  F  F60  1  0.241958  0.611940  0.299769  1
  F  F61  1  0.179983  0.348932  0.810182  1
  F  F62  1  0.625490  0.647010  0.922906  1
  F  F63  1  0.592287  0.469985  0.815059  1
  F  F64  1  0.169983  0.739255  0.673478  1
  F  F65  1  0.250763  0.124954  0.281040  1
  F  F66  1  0.226465  0.852588  0.387555  1
  F  F67  1  0.431345  0.758722  0.538917  1
  F  F68  1  0.909519  0.961274  0.728345  1
  F  F69  1  0.588928  0.327032  0.293298  1
  F  F70  1  0.901728  0.717072  0.200508  1
  F  F71  1  0.487867  0.456994  0.170541  1
  F  F72  1  0.220107  0.319911  0.619185  1
  F  F73  1  0.623348  0.658162  0.652726  1
  F  F74  1  0.623749  0.300242  0.588240  1
  F  F75  1  0.089900  0.727154  0.468086  1
  F  F76  1  0.081154  0.017989  0.072737  1
  F  F77  1  0.220191  0.873011  0.180774  1
  F  F78  1  0.685625  0.810149  0.386902  1
  F  F79  1  0.890267  0.001277  0.535884  1
  F  F80  1  0.810736  0.373804  0.121347  1
  F  F81  1  0.735029  0.715831  0.016280  1
  F  F82  1  0.263970  0.338917  0.427846  1
  F  F83  1  0.778667  0.450595  0.405869  1
  F  F84  1  0.590458  0.693788  0.457857  1
  F  F85  1  0.496678  0.799639  0.279082  1
  F  F86  1  0.451285  0.110503  0.072975  1
  F  F87  1  0.641797  0.121639  0.219013  1
  F  F88  1  0.866694  0.042241  0.355275  1
  F  F89  1  0.679388  0.269466  0.895198  1
  F  F90  1  0.104705  0.288161  0.202831  1
  F  F91  1  0.813640  0.569825  0.261799  1
  F  F92  1  0.754556  0.935503  0.135337  1
  F  F93  1  0.106334  0.613538  0.098036  1
  F  F94  1  0.921576  0.204239  0.013069  1
