# generated using pymatgen
data_KB3(HO3)2
_symmetry_space_group_name_H-M   'P 1'
_cell_length_a   11.55181818
_cell_length_b   11.55181818
_cell_length_c   16.70297980
_cell_angle_alpha   90.00000000
_cell_angle_beta   90.00000000
_cell_angle_gamma   90.00000000
_symmetry_Int_Tables_number   1
_chemical_formula_structural   KB3(HO3)2
_chemical_formula_sum   'K16 B48 H32 O96'
_cell_volume   2228.92084244
_cell_formula_units_Z   16
loop_
 _symmetry_equiv_pos_site_id
 _symmetry_equiv_pos_as_xyz
  1  'x, y, z'
loop_
 _atom_site_type_symbol
 _atom_site_label
 _atom_site_symmetry_multiplicity
 _atom_site_fract_x
 _atom_site_fract_y
 _atom_site_fract_z
 _atom_site_occupancy
  K  K0  1  0.750000  0.750000  0.483669  1
  K  K1  1  0.250000  0.250000  0.016331  1
  K  K2  1  0.250000  0.750000  0.000000  1
  K  K3  1  0.750000  0.250000  0.000000  1
  K  K4  1  0.750000  0.750000  0.239099  1
  K  K5  1  0.750000  0.250000  0.250000  1
  K  K6  1  0.250000  0.250000  0.516331  1
  K  K7  1  0.750000  0.250000  0.500000  1
  K  K8  1  0.250000  0.250000  0.260901  1
  K  K9  1  0.750000  0.250000  0.750000  1
  K  K10  1  0.250000  0.250000  0.760901  1
  K  K11  1  0.250000  0.750000  0.250000  1
  K  K12  1  0.750000  0.750000  0.739099  1
  K  K13  1  0.750000  0.750000  0.983669  1
  K  K14  1  0.250000  0.750000  0.750000  1
  K  K15  1  0.250000  0.750000  0.500000  1
  B  B16  1  0.481909  0.807103  0.613331  1
  B  B17  1  0.981909  0.307103  0.386669  1
  B  B18  1  0.807103  0.481909  0.113331  1
  B  B19  1  0.516961  0.903351  0.150103  1
  B  B20  1  0.307103  0.981909  0.886669  1
  B  B21  1  0.888108  0.496855  0.357987  1
  B  B22  1  0.111892  0.503145  0.642013  1
  B  B23  1  0.403351  0.016961  0.349897  1
  B  B24  1  0.018091  0.807103  0.113331  1
  B  B25  1  0.496855  0.888108  0.857987  1
  B  B26  1  0.403351  0.483039  0.849897  1
  B  B27  1  0.807103  0.018091  0.613331  1
  B  B28  1  0.611892  0.003145  0.357987  1
  B  B29  1  0.096649  0.483039  0.349897  1
  B  B30  1  0.388108  0.503145  0.142013  1
  B  B31  1  0.611892  0.496855  0.857987  1
  B  B32  1  0.996855  0.388108  0.142013  1
  B  B33  1  0.096649  0.016961  0.849897  1
  B  B34  1  0.192897  0.981909  0.386669  1
  B  B35  1  0.388108  0.996855  0.642013  1
  B  B36  1  0.307103  0.518091  0.386669  1
  B  B37  1  0.516961  0.596649  0.650103  1
  B  B38  1  0.888108  0.003145  0.857987  1
  B  B39  1  0.016961  0.403351  0.849897  1
  B  B40  1  0.596649  0.516961  0.150103  1
  B  B41  1  0.111892  0.996855  0.142013  1
  B  B42  1  0.596649  0.983039  0.650103  1
  B  B43  1  0.496855  0.611892  0.357987  1
  B  B44  1  0.018091  0.692897  0.613331  1
  B  B45  1  0.016961  0.096649  0.349897  1
  B  B46  1  0.692897  0.481909  0.613331  1
  B  B47  1  0.192897  0.518091  0.886669  1
  B  B48  1  0.983039  0.596649  0.150103  1
  B  B49  1  0.003145  0.611892  0.857987  1
  B  B50  1  0.518091  0.192897  0.386669  1
  B  B51  1  0.903351  0.983039  0.150103  1
  B  B52  1  0.903351  0.516961  0.650103  1
  B  B53  1  0.503145  0.111892  0.142013  1
  B  B54  1  0.481909  0.692897  0.113331  1
  B  B55  1  0.503145  0.388108  0.642013  1
  B  B56  1  0.483039  0.403351  0.349897  1
  B  B57  1  0.483039  0.096649  0.849897  1
  B  B58  1  0.981909  0.192897  0.886669  1
  B  B59  1  0.692897  0.018091  0.113331  1
  B  B60  1  0.996855  0.111892  0.642013  1
  B  B61  1  0.983039  0.903351  0.650103  1
  B  B62  1  0.518091  0.307103  0.886669  1
  B  B63  1  0.003145  0.888108  0.357987  1
  H  H64  1  0.029872  0.282819  0.640831  1
  H  H65  1  0.970128  0.717181  0.359169  1
  H  H66  1  0.214798  0.010544  0.991217  1
  H  H67  1  0.714798  0.989456  0.508783  1
  H  H68  1  0.010544  0.285202  0.991217  1
  H  H69  1  0.282819  0.029872  0.140831  1
  H  H70  1  0.717181  0.970128  0.859169  1
  H  H71  1  0.010544  0.214798  0.491217  1
  H  H72  1  0.217181  0.029872  0.640831  1
  H  H73  1  0.510544  0.785202  0.008783  1
  H  H74  1  0.489456  0.285202  0.491217  1
  H  H75  1  0.989456  0.714798  0.008783  1
  H  H76  1  0.529872  0.782819  0.359169  1
  H  H77  1  0.285202  0.010544  0.491217  1
  H  H78  1  0.489456  0.214798  0.991217  1
  H  H79  1  0.282819  0.470128  0.640831  1
  H  H80  1  0.970128  0.782819  0.859169  1
  H  H81  1  0.989456  0.785202  0.508783  1
  H  H82  1  0.470128  0.217181  0.640831  1
  H  H83  1  0.782819  0.529872  0.859169  1
  H  H84  1  0.782819  0.970128  0.359169  1
  H  H85  1  0.214798  0.489456  0.491217  1
  H  H86  1  0.714798  0.510544  0.008783  1
  H  H87  1  0.029872  0.217181  0.140831  1
  H  H88  1  0.217181  0.470128  0.140831  1
  H  H89  1  0.785202  0.989456  0.008783  1
  H  H90  1  0.285202  0.489456  0.991217  1
  H  H91  1  0.717181  0.529872  0.359169  1
  H  H92  1  0.510544  0.714798  0.508783  1
  H  H93  1  0.470128  0.282819  0.140831  1
  H  H94  1  0.785202  0.510544  0.508783  1
  H  H95  1  0.529872  0.717181  0.859169  1
  O  O96  1  0.458514  0.698724  0.655986  1
  O  O97  1  0.550735  0.505115  0.346778  1
  O  O98  1  0.292959  0.069239  0.643328  1
  O  O99  1  0.958514  0.301276  0.844014  1
  O  O100  1  0.865827  0.910419  0.640411  1
  O  O101  1  0.198724  0.958514  0.844014  1
  O  O102  1  0.511369  0.292142  0.974603  1
  O  O103  1  0.792959  0.930761  0.856672  1
  O  O104  1  0.910419  0.865827  0.140411  1
  O  O105  1  0.410419  0.365827  0.859589  1
  O  O106  1  0.877916  0.381178  0.371161  1
  O  O107  1  0.069239  0.207041  0.643328  1
  O  O108  1  0.122084  0.618822  0.628839  1
  O  O109  1  0.792142  0.488631  0.025397  1
  O  O110  1  0.134173  0.410419  0.859589  1
  O  O111  1  0.698724  0.458514  0.155986  1
  O  O112  1  0.541486  0.198724  0.844014  1
  O  O113  1  0.988631  0.207858  0.974603  1
  O  O114  1  0.569239  0.707041  0.356672  1
  O  O115  1  0.792959  0.569239  0.356672  1
  O  O116  1  0.910419  0.634173  0.640411  1
  O  O117  1  0.865827  0.589581  0.140411  1
  O  O118  1  0.069239  0.292959  0.143328  1
  O  O119  1  0.698724  0.041486  0.655986  1
  O  O120  1  0.458514  0.801276  0.155986  1
  O  O121  1  0.494885  0.050735  0.653222  1
  O  O122  1  0.930761  0.792959  0.356672  1
  O  O123  1  0.634173  0.589581  0.640411  1
  O  O124  1  0.041486  0.801276  0.655986  1
  O  O125  1  0.494885  0.449265  0.153222  1
  O  O126  1  0.994885  0.949265  0.846778  1
  O  O127  1  0.792142  0.011369  0.525397  1
  O  O128  1  0.430761  0.292959  0.643328  1
  O  O129  1  0.949265  0.505115  0.846778  1
  O  O130  1  0.118822  0.877916  0.371161  1
  O  O131  1  0.707041  0.569239  0.856672  1
  O  O132  1  0.207041  0.430761  0.643328  1
  O  O133  1  0.881178  0.377916  0.128839  1
  O  O134  1  0.881178  0.122084  0.628839  1
  O  O135  1  0.430761  0.207041  0.143328  1
  O  O136  1  0.050735  0.494885  0.153222  1
  O  O137  1  0.930761  0.707041  0.856672  1
  O  O138  1  0.301276  0.958514  0.344014  1
  O  O139  1  0.505115  0.949265  0.346778  1
  O  O140  1  0.589581  0.634173  0.140411  1
  O  O141  1  0.365827  0.089581  0.859589  1
  O  O142  1  0.301276  0.541486  0.844014  1
  O  O143  1  0.707858  0.488631  0.525397  1
  O  O144  1  0.801276  0.458514  0.655986  1
  O  O145  1  0.292959  0.430761  0.143328  1
  O  O146  1  0.589581  0.865827  0.640411  1
  O  O147  1  0.988631  0.292142  0.474603  1
  O  O148  1  0.707041  0.930761  0.356672  1
  O  O149  1  0.377916  0.881178  0.628839  1
  O  O150  1  0.634173  0.910419  0.140411  1
  O  O151  1  0.488631  0.707858  0.025397  1
  O  O152  1  0.707858  0.011369  0.025397  1
  O  O153  1  0.488631  0.792142  0.525397  1
  O  O154  1  0.449265  0.494885  0.653222  1
  O  O155  1  0.449265  0.005115  0.153222  1
  O  O156  1  0.089581  0.365827  0.359589  1
  O  O157  1  0.207858  0.511369  0.974603  1
  O  O158  1  0.377916  0.618822  0.128839  1
  O  O159  1  0.505115  0.550735  0.846778  1
  O  O160  1  0.618822  0.122084  0.128839  1
  O  O161  1  0.050735  0.005115  0.653222  1
  O  O162  1  0.410419  0.134173  0.359589  1
  O  O163  1  0.198724  0.541486  0.344014  1
  O  O164  1  0.041486  0.698724  0.155986  1
  O  O165  1  0.511369  0.207858  0.474603  1
  O  O166  1  0.541486  0.301276  0.344014  1
  O  O167  1  0.569239  0.792959  0.856672  1
  O  O168  1  0.622084  0.381178  0.871161  1
  O  O169  1  0.949265  0.994885  0.346778  1
  O  O170  1  0.207041  0.069239  0.143328  1
  O  O171  1  0.365827  0.410419  0.359589  1
  O  O172  1  0.618822  0.377916  0.628839  1
  O  O173  1  0.122084  0.881178  0.128839  1
  O  O174  1  0.207858  0.988631  0.474603  1
  O  O175  1  0.011369  0.707858  0.525397  1
  O  O176  1  0.994885  0.550735  0.346778  1
  O  O177  1  0.005115  0.449265  0.653222  1
  O  O178  1  0.089581  0.134173  0.859589  1
  O  O179  1  0.005115  0.050735  0.153222  1
  O  O180  1  0.118822  0.622084  0.871161  1
  O  O181  1  0.877916  0.118822  0.871161  1
  O  O182  1  0.134173  0.089581  0.359589  1
  O  O183  1  0.801276  0.041486  0.155986  1
  O  O184  1  0.958514  0.198724  0.344014  1
  O  O185  1  0.011369  0.792142  0.025397  1
  O  O186  1  0.292142  0.988631  0.974603  1
  O  O187  1  0.622084  0.118822  0.371161  1
  O  O188  1  0.550735  0.994885  0.846778  1
  O  O189  1  0.381178  0.877916  0.871161  1
  O  O190  1  0.292142  0.511369  0.474603  1
  O  O191  1  0.381178  0.622084  0.371161  1
