# generated using pymatgen
data_K5RbZn4Sn5S17
_symmetry_space_group_name_H-M   'P 1'
_cell_length_a   9.88388774
_cell_length_b   11.04091662
_cell_length_c   11.05051366
_cell_angle_alpha   78.52473620
_cell_angle_beta   63.39656163
_cell_angle_gamma   63.47515962
_symmetry_Int_Tables_number   1
_chemical_formula_structural   K5RbZn4Sn5S17
_chemical_formula_sum   'K5 Rb1 Zn4 Sn5 S17'
_cell_volume   964.74308540
_cell_formula_units_Z   1
loop_
 _symmetry_equiv_pos_site_id
 _symmetry_equiv_pos_as_xyz
  1  'x, y, z'
loop_
 _atom_site_type_symbol
 _atom_site_label
 _atom_site_symmetry_multiplicity
 _atom_site_fract_x
 _atom_site_fract_y
 _atom_site_fract_z
 _atom_site_occupancy
  K  K0  1  0.014201  0.494954  0.981579  1
  K  K1  1  0.008211  0.983108  0.499825  1
  K  K2  1  0.490608  0.490636  0.020415  1
  K  K3  1  0.490731  0.020483  0.498269  1
  K  K4  1  0.750441  0.499109  0.499706  1
  Rb  Rb5  1  0.558729  0.865364  0.963479  1
  Zn  Zn6  1  0.254814  0.359028  0.359559  1
  Zn  Zn7  1  0.385551  0.359959  0.639899  1
  Zn  Zn8  1  0.385571  0.638990  0.361972  1
  Zn  Zn9  1  0.978006  0.637569  0.636755  1
  Sn  Sn10  1  0.996486  0.003423  0.001902  1
  Sn  Sn11  1  0.027817  0.276631  0.722618  1
  Sn  Sn12  1  0.027202  0.721644  0.275942  1
  Sn  Sn13  1  0.252819  0.721535  0.722321  1
  Sn  Sn14  1  0.693052  0.278375  0.277469  1
  S  S15  1  0.115373  0.491353  0.220668  1
  S  S16  1  0.113512  0.222086  0.492320  1
  S  S17  1  0.251330  0.498823  0.499291  1
  S  S18  1  0.255128  0.781290  0.221024  1
  S  S19  1  0.254845  0.219965  0.782064  1
  S  S20  1  0.525345  0.218274  0.218000  1
  S  S21  1  0.392677  0.492307  0.779668  1
  S  S22  1  0.391931  0.780079  0.492855  1
  S  S23  1  0.663207  0.222630  0.507335  1
  S  S24  1  0.662810  0.509420  0.220172  1
  S  S25  1  0.281877  0.858459  0.856684  1
  S  S26  1  0.994115  0.145843  0.145716  1
  S  S27  1  0.859832  0.144119  0.855369  1
  S  S28  1  0.859765  0.855988  0.143343  1
  S  S29  1  0.827985  0.508882  0.779348  1
  S  S30  1  0.829998  0.779150  0.506877  1
  S  S31  1  0.965532  0.779924  0.778957  1
