# generated using pymatgen
data_Dy7(CuTe4)3
_symmetry_space_group_name_H-M   'P 1'
_cell_length_a   14.31520748
_cell_length_b   42.98034926
_cell_length_c   28.33746807
_cell_angle_alpha   8.59917070
_cell_angle_beta   15.24041197
_cell_angle_gamma   17.44649092
_symmetry_Int_Tables_number   1
_chemical_formula_structural   Dy7(CuTe4)3
_chemical_formula_sum   'Dy7 Cu3 Te12'
_cell_volume   685.28547424
_cell_formula_units_Z   1
loop_
 _symmetry_equiv_pos_site_id
 _symmetry_equiv_pos_as_xyz
  1  'x, y, z'
loop_
 _atom_site_type_symbol
 _atom_site_label
 _atom_site_symmetry_multiplicity
 _atom_site_fract_x
 _atom_site_fract_y
 _atom_site_fract_z
 _atom_site_occupancy
  Dy  Dy0  1  0.418248  0.998205  0.420023  1
  Dy  Dy1  1  0.000284  0.667858  0.996632  1
  Dy  Dy2  1  0.404491  0.332051  0.425835  1
  Dy  Dy3  1  0.591967  0.339089  0.568044  1
  Dy  Dy4  1  0.431379  0.670928  0.403717  1
  Dy  Dy5  1  0.566929  0.664442  0.592998  1
  Dy  Dy6  1  0.584870  0.995116  0.587789  1
  Cu  Cu7  1  0.190961  0.333906  0.191568  1
  Cu  Cu8  1  0.807723  0.001060  0.808849  1
  Cu  Cu9  1  0.809503  0.332096  0.811560  1
  Te  Te10  1  0.120979  0.989583  0.147105  1
  Te  Te11  1  0.293082  0.004379  0.284446  1
  Te  Te12  1  0.118422  0.345996  0.112995  1
  Te  Te13  1  0.293741  0.328558  0.297885  1
  Te  Te14  1  0.140996  0.666812  0.121969  1
  Te  Te15  1  0.287653  0.666108  0.294711  1
  Te  Te16  1  0.703888  0.331193  0.713522  1
  Te  Te17  1  0.882340  0.332302  0.869711  1
  Te  Te18  1  0.709197  0.664070  0.711789  1
  Te  Te19  1  0.871079  0.673480  0.862363  1
  Te  Te20  1  0.712275  0.004793  0.699156  1
  Te  Te21  1  0.869991  0.991310  0.887333  1
