# generated using pymatgen
data_NaZnAsO4
_symmetry_space_group_name_H-M   'P 1'
_cell_length_a   9.15454150
_cell_length_b   9.15454150
_cell_length_c   8.44359368
_cell_angle_alpha   90.00000000
_cell_angle_beta   90.00000000
_cell_angle_gamma   120.00000003
_symmetry_Int_Tables_number   1
_chemical_formula_structural   NaZnAsO4
_chemical_formula_sum   'Na6 Zn6 As6 O24'
_cell_volume   612.81749213
_cell_formula_units_Z   6
loop_
 _symmetry_equiv_pos_site_id
 _symmetry_equiv_pos_as_xyz
  1  'x, y, z'
loop_
 _atom_site_type_symbol
 _atom_site_label
 _atom_site_symmetry_multiplicity
 _atom_site_fract_x
 _atom_site_fract_y
 _atom_site_fract_z
 _atom_site_occupancy
  O  O0  1  0.603747  0.871329  0.183121  1
  O  O1  1  0.900476  0.468183  0.978863  1
  O  O2  1  0.567707  0.099524  0.978863  1
  O  O3  1  0.432293  0.900476  0.478863  1
  O  O4  1  0.099524  0.531817  0.478863  1
  O  O5  1  0.531817  0.432293  0.978863  1
  O  O6  1  0.774736  0.872701  0.496017  1
  O  O7  1  0.902034  0.774736  0.996017  1
  O  O8  1  0.872701  0.097966  0.996017  1
  O  O9  1  0.127299  0.902034  0.496017  1
  O  O10  1  0.097966  0.225264  0.496017  1
  O  O11  1  0.225264  0.127299  0.996017  1
  O  O12  1  0.228950  0.413693  0.861531  1
  O  O13  1  0.815257  0.228950  0.361531  1
  O  O14  1  0.732418  0.603747  0.683121  1
  O  O15  1  0.586307  0.815257  0.861531  1
  O  O16  1  0.184743  0.771050  0.861531  1
  O  O17  1  0.771050  0.586307  0.361531  1
  O  O18  1  0.267582  0.396253  0.183121  1
  O  O19  1  0.871329  0.267582  0.683121  1
  O  O20  1  0.396253  0.128671  0.683121  1
  O  O21  1  0.413693  0.184743  0.361531  1
  O  O22  1  0.128671  0.732418  0.183121  1
  O  O23  1  0.468183  0.567707  0.478863  1
  Na  Na24  1  0.333333  0.666667  0.690983  1
  Na  Na25  1  0.666667  0.333333  0.190983  1
  Na  Na26  1  0.000000  0.000000  0.185668  1
  Na  Na27  1  0.000000  0.000000  0.685668  1
  Na  Na28  1  0.333333  0.666667  0.271500  1
  Na  Na29  1  0.666667  0.333333  0.771500  1
  Zn  Zn30  1  0.662828  0.985175  0.393868  1
  Zn  Zn31  1  0.677653  0.662828  0.893868  1
  Zn  Zn32  1  0.985175  0.322347  0.893868  1
  Zn  Zn33  1  0.337172  0.014825  0.893868  1
  Zn  Zn34  1  0.322347  0.337172  0.393868  1
  Zn  Zn35  1  0.014825  0.677653  0.393868  1
  As  As36  1  0.683429  0.656029  0.503084  1
  As  As37  1  0.027401  0.683429  0.003084  1
  As  As38  1  0.656029  0.972599  0.003084  1
  As  As39  1  0.343971  0.027401  0.503084  1
  As  As40  1  0.972599  0.316571  0.503084  1
  As  As41  1  0.316571  0.343971  0.003084  1
