# generated using pymatgen
data_Ce3NF6
_symmetry_space_group_name_H-M   'P 1'
_cell_length_a   4.02409879
_cell_length_b   12.58596239
_cell_length_c   7.17020948
_cell_angle_alpha   29.89060008
_cell_angle_beta   55.80335339
_cell_angle_gamma   60.16135692
_symmetry_Int_Tables_number   1
_chemical_formula_structural   Ce3NF6
_chemical_formula_sum   'Ce3 N1 F6'
_cell_volume   149.63984934
_cell_formula_units_Z   1
loop_
 _symmetry_equiv_pos_site_id
 _symmetry_equiv_pos_as_xyz
  1  'x, y, z'
loop_
 _atom_site_type_symbol
 _atom_site_label
 _atom_site_symmetry_multiplicity
 _atom_site_fract_x
 _atom_site_fract_y
 _atom_site_fract_z
 _atom_site_occupancy
  Ce  Ce0  1  0.990977  0.025213  0.958529  1
  Ce  Ce1  1  0.923327  0.336069  0.037305  1
  Ce  Ce2  1  0.032928  0.637970  0.032146  1
  N  N3  1  0.163632  0.327866  0.289837  1
  F  F4  1  0.284331  0.626262  0.304243  1
  F  F5  1  0.732236  0.340791  0.755975  1
  F  F6  1  0.281625  0.086818  0.085170  1
  F  F7  1  0.585585  0.689818  0.556610  1
  F  F8  1  0.650403  0.846626  0.618529  1
  F  F9  1  0.742009  0.980273  0.771893  1
