# generated using pymatgen
data_Sr6La4Mg2Ru3O20
_symmetry_space_group_name_H-M   'P 1'
_cell_length_a   3.95833960
_cell_length_b   24.68212725
_cell_length_c   6.03314412
_cell_angle_alpha   105.67061680
_cell_angle_beta   104.75810775
_cell_angle_gamma   91.38021349
_symmetry_Int_Tables_number   1
_chemical_formula_structural   Sr6La4Mg2Ru3O20
_chemical_formula_sum   'Sr6 La4 Mg2 Ru3 O20'
_cell_volume   546.06918990
_cell_formula_units_Z   1
loop_
 _symmetry_equiv_pos_site_id
 _symmetry_equiv_pos_as_xyz
  1  'x, y, z'
loop_
 _atom_site_type_symbol
 _atom_site_label
 _atom_site_symmetry_multiplicity
 _atom_site_fract_x
 _atom_site_fract_y
 _atom_site_fract_z
 _atom_site_occupancy
  Sr  Sr0  1  0.602384  0.135899  0.266058  1
  Sr  Sr1  1  0.724481  0.325338  0.348151  1
  Sr  Sr2  1  0.699115  0.533178  0.184712  1
  Sr  Sr3  1  0.275519  0.074662  0.651849  1
  Sr  Sr4  1  0.397616  0.264101  0.733942  1
  Sr  Sr5  1  0.300885  0.866822  0.815288  1
  La  La6  1  0.378195  0.713521  0.758268  1
  La  La7  1  0.656475  0.937576  0.450284  1
  La  La8  1  0.343525  0.462424  0.549716  1
  La  La9  1  0.621805  0.686479  0.241732  1
  Mg  Mg10  1  0.061283  0.798030  0.232256  1
  Mg  Mg11  1  -0.061283  0.601970  0.767744  1
  Ru  Ru12  1  0.957679  0.003301  0.045403  1
  Ru  Ru13  1  0.000000  0.200000  0.000000  1
  Ru  Ru14  1  0.042321  0.396699  0.954597  1
  O  O15  1  0.812108  0.025488  0.742047  1
  O  O16  1  0.187892  0.374512  0.257953  1
  O  O17  1  0.892466  0.418147  0.657002  1
  O  O18  1  0.000000  0.700000  0.000000  1
  O  O19  1  0.107534  0.981853  0.342998  1
  O  O20  1  0.076778  0.082711  0.241147  1
  O  O21  1  0.154090  0.247461  0.324926  1
  O  O22  1  0.176979  0.480353  0.162778  1
  O  O23  1  -0.102841  0.641327  0.501833  1
  O  O24  1  0.143219  0.875890  0.420020  1
  O  O25  1  0.454828  0.001003  0.041212  1
  O  O26  1  0.500000  0.200000  0.000000  1
  O  O27  1  0.545172  0.398997  0.958788  1
  O  O28  1  0.492159  0.608415  0.926235  1
  O  O29  1  0.507841  0.791585  0.073765  1
  O  O30  1  -0.154090  0.152539  0.675074  1
  O  O31  1  0.923222  0.317289  0.758853  1
  O  O32  1  0.856781  0.524110  0.579980  1
  O  O33  1  0.102841  0.758673  0.498167  1
  O  O34  1  0.823021  0.919647  0.837222  1
