# generated using pymatgen
data_Ba2Ho2Al3Si5N11O3
_symmetry_space_group_name_H-M   'P 1'
_cell_length_a   6.36626820
_cell_length_b   6.36626858
_cell_length_c   10.51790732
_cell_angle_alpha   90.00000000
_cell_angle_beta   90.00000000
_cell_angle_gamma   119.99999801
_symmetry_Int_Tables_number   1
_chemical_formula_structural   Ba2Ho2Al3Si5N11O3
_chemical_formula_sum   'Ba2 Ho2 Al3 Si5 N11 O3'
_cell_volume   369.17294634
_cell_formula_units_Z   1
loop_
 _symmetry_equiv_pos_site_id
 _symmetry_equiv_pos_as_xyz
  1  'x, y, z'
loop_
 _atom_site_type_symbol
 _atom_site_label
 _atom_site_symmetry_multiplicity
 _atom_site_fract_x
 _atom_site_fract_y
 _atom_site_fract_z
 _atom_site_occupancy
  Ba  Ba0  1  0.333333  0.666667  0.129162  1
  Ba  Ba1  1  0.666667  0.333333  0.650908  1
  Ho  Ho2  1  0.333333  0.666667  0.626141  1
  Ho  Ho3  1  0.666667  0.333333  0.343693  1
  Al  Al4  1  0.159023  0.840977  0.432629  1
  Al  Al5  1  0.159023  0.318046  0.432629  1
  Al  Al6  1  0.681954  0.840977  0.432629  1
  Si  Si7  1  0.000000  0.000000  0.715471  1
  Si  Si8  1  0.000000  0.000000  0.210848  1
  Si  Si9  1  0.342717  0.171358  0.934986  1
  Si  Si10  1  0.828642  0.657283  0.934986  1
  Si  Si11  1  0.828642  0.171358  0.934986  1
  N  N12  1  0.144814  0.855186  0.261750  1
  N  N13  1  0.144814  0.289628  0.261750  1
  N  N14  1  0.000000  0.000000  0.537088  1
  N  N15  1  0.000000  0.000000  0.021980  1
  N  N16  1  0.284298  0.142149  0.782137  1
  N  N17  1  0.487901  0.512099  0.484595  1
  N  N18  1  0.710372  0.855186  0.261750  1
  N  N19  1  0.487901  0.975802  0.484595  1
  N  N20  1  0.857851  0.715702  0.782137  1
  N  N21  1  0.024198  0.512099  0.484595  1
  N  N22  1  0.857851  0.142149  0.782137  1
  O  O23  1  0.937336  0.468668  -0.020874  1
  O  O24  1  0.531332  0.062664  -0.020874  1
  O  O25  1  0.531332  0.468668  -0.020874  1
