# generated using pymatgen
data_Li2MnBr4
_symmetry_space_group_name_H-M   'P 1'
_cell_length_a   7.82992577
_cell_length_b   10.32369372
_cell_length_c   6.72976159
_cell_angle_alpha   29.24714285
_cell_angle_beta   54.42157114
_cell_angle_gamma   40.69789367
_symmetry_Int_Tables_number   1
_chemical_formula_structural   Li2MnBr4
_chemical_formula_sum   'Li2 Mn1 Br4'
_cell_volume   167.79922972
_cell_formula_units_Z   1
loop_
 _symmetry_equiv_pos_site_id
 _symmetry_equiv_pos_as_xyz
  1  'x, y, z'
loop_
 _atom_site_type_symbol
 _atom_site_label
 _atom_site_symmetry_multiplicity
 _atom_site_fract_x
 _atom_site_fract_y
 _atom_site_fract_z
 _atom_site_occupancy
  Li  Li0  1  0.494106  0.501651  0.498763  1
  Li  Li1  1  0.996886  0.505958  0.496049  1
  Mn  Mn2  1  0.759091  0.992197  0.505056  1
  Br  Br3  1  0.984377  0.004161  0.017752  1
  Br  Br4  1  0.508913  0.003628  0.969114  1
  Br  Br5  1  0.248019  0.503258  0.994777  1
  Br  Br6  1  0.749490  0.501191  0.997044  1
