# generated using pymatgen
data_Ce16O27
_symmetry_space_group_name_H-M   'P 1'
_cell_length_a   9.56312445
_cell_length_b   9.60450950
_cell_length_c   19.22773258
_cell_angle_alpha   109.54564639
_cell_angle_beta   109.45039288
_cell_angle_gamma   109.26639038
_symmetry_Int_Tables_number   1
_chemical_formula_structural   Ce16O27
_chemical_formula_sum   'Ce32 O54'
_cell_volume   1362.03137492
_cell_formula_units_Z   2
loop_
 _symmetry_equiv_pos_site_id
 _symmetry_equiv_pos_as_xyz
  1  'x, y, z'
loop_
 _atom_site_type_symbol
 _atom_site_label
 _atom_site_symmetry_multiplicity
 _atom_site_fract_x
 _atom_site_fract_y
 _atom_site_fract_z
 _atom_site_occupancy
  Ce  Ce0  1  0.015407  0.744141  0.882726  1
  Ce  Ce1  1  0.247045  0.996297  0.626281  1
  Ce  Ce2  1  0.008494  0.996324  0.750757  1
  Ce  Ce3  1  0.977102  0.504119  0.501218  1
  Ce  Ce4  1  0.247583  0.246630  0.987671  1
  Ce  Ce5  1  0.247997  0.725248  0.737777  1
  Ce  Ce6  1  0.272728  0.526702  0.885380  1
  Ce  Ce7  1  0.024639  0.750817  0.385522  1
  Ce  Ce8  1  0.232318  0.982532  0.126870  1
  Ce  Ce9  1  0.501004  0.276220  0.873687  1
  Ce  Ce10  1  0.476084  0.482127  0.737990  1
  Ce  Ce11  1  0.000059  0.495861  0.998739  1
  Ce  Ce12  1  0.000286  0.024328  0.252195  1
  Ce  Ce13  1  0.248857  0.226363  0.496533  1
  Ce  Ce14  1  0.523590  0.769992  0.638303  1
  Ce  Ce15  1  0.254373  0.732343  0.240600  1
  Ce  Ce16  1  0.256753  0.505578  0.364518  1
  Ce  Ce17  1  0.723547  0.474654  0.616244  1
  Ce  Ce18  1  0.735412  0.257103  0.752014  1
  Ce  Ce19  1  0.748275  0.755773  0.513373  1
  Ce  Ce20  1  0.491468  0.265930  0.373881  1
  Ce  Ce21  1  0.507217  0.995844  0.511575  1
  Ce  Ce22  1  0.508483  0.498534  0.249602  1
  Ce  Ce23  1  0.776154  0.019916  0.877437  1
  Ce  Ce24  1  0.504611  0.730137  0.127972  1
  Ce  Ce25  1  0.993927  0.245670  0.612185  1
  Ce  Ce26  1  0.727369  0.476533  0.113860  1
  Ce  Ce27  1  0.767679  0.275394  0.261585  1
  Ce  Ce28  1  0.751731  0.753843  0.011782  1
  Ce  Ce29  1  0.495951  0.000381  0.998672  1
  Ce  Ce30  1  0.768023  0.020927  0.373046  1
  Ce  Ce31  1  0.973490  0.246690  0.120975  1
  O  O32  1  0.004646  0.485917  0.868292  1
  O  O33  1  0.248633  0.972291  0.754425  1
  O  O34  1  0.256393  0.769939  0.869350  1
  O  O35  1  0.234020  0.259172  0.862042  1
  O  O36  1  0.991549  0.022782  0.636455  1
  O  O37  1  0.224242  0.472493  0.743850  1
  O  O38  1  0.248560  0.718733  0.613429  1
  O  O39  1  0.016975  0.270330  0.495833  1
  O  O40  1  0.026953  0.508008  0.389776  1
  O  O41  1  0.240126  0.234857  0.617909  1
  O  O42  1  0.999742  0.263780  0.250120  1
  O  O43  1  0.240447  0.982510  0.258928  1
  O  O44  1  0.725596  0.988653  0.981404  1
  O  O45  1  0.521567  0.767500  0.765442  1
  O  O46  1  0.257827  0.757471  0.364422  1
  O  O47  1  0.522959  0.537788  0.878791  1
  O  O48  1  0.487156  0.225645  0.981622  1
  O  O49  1  0.253862  0.280221  0.384535  1
  O  O50  1  0.486215  0.732862  0.506428  1
  O  O51  1  0.469840  0.488983  0.609343  1
  O  O52  1  0.489974  0.253327  0.749327  1
  O  O53  1  0.007466  0.017525  0.125848  1
  O  O54  1  0.255983  0.989670  0.503226  1
  O  O55  1  0.247792  0.469571  0.230798  1
  O  O56  1  0.266688  0.758371  0.124917  1
  O  O57  1  0.020821  0.251515  0.007653  1
  O  O58  1  0.980581  0.741277  0.992263  1
  O  O59  1  0.735278  0.238810  0.878128  1
  O  O60  1  0.500819  0.003158  0.632603  1
  O  O61  1  0.753846  0.533515  0.757473  1
  O  O62  1  0.733041  0.984022  0.481224  1
  O  O63  1  0.998723  0.970704  0.869525  1
  O  O64  1  0.524156  0.760856  0.264890  1
  O  O65  1  0.522490  0.525928  0.374299  1
  O  O66  1  0.498349  0.217954  0.489001  1
  O  O67  1  0.771573  0.747263  0.640243  1
  O  O68  1  0.257272  0.498752  0.000013  1
  O  O69  1  0.731751  0.499639  0.500129  1
  O  O70  1  0.507535  0.776999  0.017699  1
  O  O71  1  0.479257  0.467104  0.120661  1
  O  O72  1  0.762459  0.243583  0.633947  1
  O  O73  1  0.478269  0.236690  0.232695  1
  O  O74  1  0.272628  0.011937  0.020493  1
  O  O75  1  0.784774  0.034787  0.755197  1
  O  O76  1  0.986442  0.511072  0.628146  1
  O  O77  1  0.725184  0.242133  0.374211  1
  O  O78  1  0.976960  0.756952  0.496696  1
  O  O79  1  0.777432  0.537405  0.263658  1
  O  O80  1  0.986335  0.970057  0.364982  1
  O  O81  1  0.770644  0.748698  0.138801  1
  O  O82  1  0.742358  0.501373  0.000376  1
  O  O83  1  0.721309  0.232438  0.124400  1
  O  O84  1  0.734479  0.011905  0.241324  1
  O  O85  1  0.991966  0.512120  0.131787  1
