# generated using pymatgen
data_Cs2GeTe4
_symmetry_space_group_name_H-M   'P 1'
_cell_length_a   7.73777633
_cell_length_b   11.82321774
_cell_length_c   12.87657027
_cell_angle_alpha   90.00000000
_cell_angle_beta   90.00000000
_cell_angle_gamma   90.00000000
_symmetry_Int_Tables_number   1
_chemical_formula_structural   Cs2GeTe4
_chemical_formula_sum   'Cs8 Ge4 Te16'
_cell_volume   1178.01836685
_cell_formula_units_Z   4
loop_
 _symmetry_equiv_pos_site_id
 _symmetry_equiv_pos_as_xyz
  1  'x, y, z'
loop_
 _atom_site_type_symbol
 _atom_site_label
 _atom_site_symmetry_multiplicity
 _atom_site_fract_x
 _atom_site_fract_y
 _atom_site_fract_z
 _atom_site_occupancy
  Cs  Cs0  1  0.098173  0.555670  0.854309  1
  Cs  Cs1  1  0.598173  0.444330  0.645691  1
  Cs  Cs2  1  0.401827  0.944330  0.354309  1
  Cs  Cs3  1  0.401827  0.555670  0.354309  1
  Cs  Cs4  1  0.598173  0.055670  0.645691  1
  Cs  Cs5  1  0.098173  0.944330  0.854309  1
  Cs  Cs6  1  0.901827  0.444330  0.145691  1
  Cs  Cs7  1  0.901827  0.055670  0.145691  1
  Ge  Ge8  1  0.507085  0.750000  0.063193  1
  Ge  Ge9  1  0.007085  0.250000  0.436807  1
  Ge  Ge10  1  0.492915  0.250000  0.936807  1
  Ge  Ge11  1  0.992915  0.750000  0.563193  1
  Te  Te12  1  0.757103  0.750000  0.711086  1
  Te  Te13  1  0.085951  0.077369  0.567128  1
  Te  Te14  1  0.682936  0.250000  0.381890  1
  Te  Te15  1  0.817064  0.250000  0.881890  1
  Te  Te16  1  0.742897  0.750000  0.211086  1
  Te  Te17  1  0.585951  0.922631  0.932872  1
  Te  Te18  1  0.914049  0.577369  0.432872  1
  Te  Te19  1  0.242897  0.250000  0.288914  1
  Te  Te20  1  0.257103  0.250000  0.788914  1
  Te  Te21  1  0.317064  0.750000  0.618110  1
  Te  Te22  1  0.085951  0.422631  0.567128  1
  Te  Te23  1  0.914049  0.922631  0.432872  1
  Te  Te24  1  0.414049  0.422631  0.067128  1
  Te  Te25  1  0.414049  0.077369  0.067128  1
  Te  Te26  1  0.182936  0.750000  0.118110  1
  Te  Te27  1  0.585951  0.577369  0.932872  1
