# generated using pymatgen
data_P4S5
_symmetry_space_group_name_H-M   'P 1'
_cell_length_a   6.92053300
_cell_length_b   7.51482180
_cell_length_c   11.56210069
_cell_angle_alpha   90.00000000
_cell_angle_beta   90.00000000
_cell_angle_gamma   112.89145091
_symmetry_Int_Tables_number   1
_chemical_formula_structural   P4S5
_chemical_formula_sum   'P8 S10'
_cell_volume   553.94850368
_cell_formula_units_Z   2
loop_
 _symmetry_equiv_pos_site_id
 _symmetry_equiv_pos_as_xyz
  1  'x, y, z'
loop_
 _atom_site_type_symbol
 _atom_site_label
 _atom_site_symmetry_multiplicity
 _atom_site_fract_x
 _atom_site_fract_y
 _atom_site_fract_z
 _atom_site_occupancy
  P  P0  1  0.319934  0.604826  0.986371  1
  P  P1  1  0.680066  0.395174  0.486371  1
  P  P2  1  0.535858  0.527628  0.864960  1
  P  P3  1  0.464142  0.472372  0.364960  1
  P  P4  1  0.258618  0.446379  0.742685  1
  P  P5  1  0.741382  0.553621  0.242685  1
  P  P6  1  0.514426  0.925402  0.763655  1
  P  P7  1  0.485574  0.074598  0.263655  1
  S  S8  1  0.369953  0.889344  0.929191  1
  S  S9  1  0.630047  0.110656  0.429191  1
  S  S10  1  0.733603  0.790812  0.797601  1
  S  S11  1  0.266397  0.209188  0.297601  1
  S  S12  1  0.294233  0.708289  0.658006  1
  S  S13  1  0.705767  0.291711  0.158006  1
  S  S14  1  0.059661  0.402690  0.887546  1
  S  S15  1  0.940339  0.597310  0.387546  1
  S  S16  1  0.172858  0.236753  0.630985  1
  S  S17  1  0.827142  0.763247  0.130985  1
