# generated using pymatgen
data_YOF
_symmetry_space_group_name_H-M   'P 1'
_cell_length_a   14.39092351
_cell_length_b   5.36429039
_cell_length_c   7.47825534
_cell_angle_alpha   147.76170480
_cell_angle_beta   164.19296501
_cell_angle_gamma   28.46847072
_symmetry_Int_Tables_number   1
_chemical_formula_structural   YOF
_chemical_formula_sum   'Y2 O2 F2'
_cell_volume   74.95976611
_cell_formula_units_Z   2
loop_
 _symmetry_equiv_pos_site_id
 _symmetry_equiv_pos_as_xyz
  1  'x, y, z'
loop_
 _atom_site_type_symbol
 _atom_site_label
 _atom_site_symmetry_multiplicity
 _atom_site_fract_x
 _atom_site_fract_y
 _atom_site_fract_z
 _atom_site_occupancy
  Y  Y0  1  0.788677  0.655169  0.000000  1
  Y  Y1  1  0.211323  0.344831  1.000000  1
  O  O2  1  0.122756  0.927903  1.000000  1
  O  O3  1  0.877244  0.072097  0.000000  1
  F  F4  1  0.402410  0.546809  0.000000  1
  F  F5  1  0.597590  0.453191  1.000000  1
