# generated using pymatgen
data_YPdPb
_symmetry_space_group_name_H-M   'P 1'
_cell_length_a   7.91516051
_cell_length_b   7.91516048
_cell_length_c   4.00730741
_cell_angle_alpha   90.00000000
_cell_angle_beta   90.00000000
_cell_angle_gamma   120.00000016
_symmetry_Int_Tables_number   1
_chemical_formula_structural   YPdPb
_chemical_formula_sum   'Y3 Pd3 Pb3'
_cell_volume   217.42162702
_cell_formula_units_Z   3
loop_
 _symmetry_equiv_pos_site_id
 _symmetry_equiv_pos_as_xyz
  1  'x, y, z'
loop_
 _atom_site_type_symbol
 _atom_site_label
 _atom_site_symmetry_multiplicity
 _atom_site_fract_x
 _atom_site_fract_y
 _atom_site_fract_z
 _atom_site_occupancy
  Y  Y0  1  0.273258  0.273258  0.000000  1
  Y  Y1  1  0.726742  0.000000  0.000000  1
  Y  Y2  1  1.000000  0.726742  0.000000  1
  Pd  Pd3  1  0.000000  0.000000  0.500000  1
  Pd  Pd4  1  0.666667  0.333333  0.000000  1
  Pd  Pd5  1  0.333333  0.666667  0.000000  1
  Pb  Pb6  1  0.399787  0.000000  0.500000  1
  Pb  Pb7  1  0.600213  0.600213  0.500000  1
  Pb  Pb8  1  1.000000  0.399787  0.500000  1
