# generated using pymatgen
data_KC(NO2)3
_symmetry_space_group_name_H-M   'P 1'
_cell_length_a   8.96705224
_cell_length_b   9.99940146
_cell_length_c   9.99940206
_cell_angle_alpha   78.40177295
_cell_angle_beta   63.35915911
_cell_angle_gamma   63.35915671
_symmetry_Int_Tables_number   1
_chemical_formula_structural   KC(NO2)3
_chemical_formula_sum   'K4 C4 N12 O24'
_cell_volume   716.32859343
_cell_formula_units_Z   4
loop_
 _symmetry_equiv_pos_site_id
 _symmetry_equiv_pos_as_xyz
  1  'x, y, z'
loop_
 _atom_site_type_symbol
 _atom_site_label
 _atom_site_symmetry_multiplicity
 _atom_site_fract_x
 _atom_site_fract_y
 _atom_site_fract_z
 _atom_site_occupancy
  K  K0  1  0.453347  0.285522  0.285522  1
  K  K1  1  0.024313  0.714509  0.714509  1
  K  K2  1  0.988860  0.214468  0.785479  1
  K  K3  1  0.988860  0.785479  0.214468  1
  C  C4  1  0.501424  0.222424  0.777566  1
  C  C5  1  0.973820  0.277595  0.277595  1
  C  C6  1  0.529012  0.722429  0.722429  1
  C  C7  1  0.501424  0.777566  0.222424  1
  N  N8  1  0.612253  0.592386  0.791765  1
  N  N9  1  0.654011  0.092388  0.708235  1
  N  N10  1  0.454428  0.664745  0.335254  1
  N  N11  1  0.454641  0.291757  0.907609  1
  N  N12  1  0.996400  0.208236  0.407619  1
  N  N13  1  0.454641  0.907609  0.291757  1
  N  N14  1  0.039673  0.164756  0.164756  1
  N  N15  1  0.612253  0.791765  0.592386  1
  N  N16  1  0.996400  0.407619  0.208236  1
  N  N17  1  0.369176  0.835254  0.835254  1
  N  N18  1  0.454428  0.335254  0.664745  1
  N  N19  1  0.654011  0.708235  0.092388  1
  O  O20  1  0.334048  0.927551  0.423631  1
  O  O21  1  0.525807  -0.000999  0.224030  1
  O  O22  1  0.999835  0.275966  0.499015  1
  O  O23  1  0.511596  0.923637  0.572448  1
  O  O24  1  0.334048  0.423631  0.927551  1
  O  O25  1  0.209452  0.859559  0.859559  1
  O  O26  1  0.748839  0.775966  0.000996  1
  O  O27  1  0.557716  0.600447  0.399555  1
  O  O28  1  0.525807  0.224030  -0.000999  1
  O  O29  1  0.774819  0.724036  0.500984  1
  O  O30  1  0.007687  0.076363  0.427549  1
  O  O31  1  0.408161  0.899556  0.899556  1
  O  O32  1  0.007687  0.427549  0.076363  1
  O  O33  1  0.319007  0.359551  0.640450  1
  O  O34  1  0.685243  0.072448  0.576359  1
  O  O35  1  0.511596  0.572448  0.923637  1
  O  O36  1  0.999835  0.499015  0.275966  1
  O  O37  1  0.685243  0.576359  0.072448  1
  O  O38  1  0.928560  0.140449  0.140449  1
  O  O39  1  0.207259  0.100458  0.100458  1
  O  O40  1  0.557716  0.399555  0.600447  1
  O  O41  1  0.748839  0.000996  0.775966  1
  O  O42  1  0.774819  0.500984  0.724036  1
  O  O43  1  0.319007  0.640450  0.359551  1
