# generated using pymatgen
data_Na3In(PO4)2
_symmetry_space_group_name_H-M   'P 1'
_cell_length_a   5.17123516
_cell_length_b   5.17123516
_cell_length_c   7.13986641
_cell_angle_alpha   89.77485653
_cell_angle_beta   89.77485653
_cell_angle_gamma   64.80867657
_symmetry_Int_Tables_number   1
_chemical_formula_structural   Na3In(PO4)2
_chemical_formula_sum   'Na3 In1 P2 O8'
_cell_volume   172.77085191
_cell_formula_units_Z   1
loop_
 _symmetry_equiv_pos_site_id
 _symmetry_equiv_pos_as_xyz
  1  'x, y, z'
loop_
 _atom_site_type_symbol
 _atom_site_label
 _atom_site_symmetry_multiplicity
 _atom_site_fract_x
 _atom_site_fract_y
 _atom_site_fract_z
 _atom_site_occupancy
  Na  Na0  1  0.190795  0.690792  0.711372  1
  Na  Na1  1  0.809209  0.309206  0.288627  1
  Na  Na2  1  0.500002  0.999999  0.500000  1
  In  In3  1  0.500002  0.999999  0.000000  1
  P  P4  1  0.847736  0.347733  0.780087  1
  P  P5  1  0.152267  0.652264  0.219913  1
  O  O6  1  0.751000  0.250997  0.603362  1
  O  O7  1  0.249002  0.749000  0.396638  1
  O  O8  1  0.273804  0.315413  0.220373  1
  O  O9  1  0.184585  0.226196  0.779627  1
  O  O10  1  0.726197  0.684585  0.779627  1
  O  O11  1  0.815414  0.773803  0.220373  1
  O  O12  1  0.746216  0.246212  0.958997  1
  O  O13  1  0.253789  0.753785  0.041003  1
