# generated using pymatgen
data_Th2(Mo3S4)5
_symmetry_space_group_name_H-M   'P 1'
_cell_length_a   6.51781043
_cell_length_b   65.10212285
_cell_length_c   9.28944881
_cell_angle_alpha   44.59204880
_cell_angle_beta   88.67927672
_cell_angle_gamma   89.00162171
_symmetry_Int_Tables_number   1
_chemical_formula_structural   Th2(Mo3S4)5
_chemical_formula_sum   'Th8 Mo60 S80'
_cell_volume   2766.56987615
_cell_formula_units_Z   4
loop_
 _symmetry_equiv_pos_site_id
 _symmetry_equiv_pos_as_xyz
  1  'x, y, z'
loop_
 _atom_site_type_symbol
 _atom_site_label
 _atom_site_symmetry_multiplicity
 _atom_site_fract_x
 _atom_site_fract_y
 _atom_site_fract_z
 _atom_site_occupancy
  Th  Th0  1  0.000000  0.100000  0.000000  1
  Th  Th1  1  0.998599  0.399273  0.004227  1
  Th  Th2  1  0.999940  0.499914  0.000468  1
  Th  Th3  1  0.000060  0.700086  0.999532  1
  Th  Th4  1  0.001401  0.800727  0.995773  1
  Th  Th5  1  0.000434  0.900933  0.995054  1
  Th  Th6  1  0.999565  0.299067  0.004946  1
  Th  Th7  1  0.000000  0.600000  0.000000  1
  Mo  Mo8  1  0.212577  0.084657  0.564936  1
  Mo  Mo9  1  0.225175  0.185818  0.560515  1
  Mo  Mo10  1  0.223717  0.285541  0.561562  1
  Mo  Mo11  1  0.224325  0.385954  0.561642  1
  Mo  Mo12  1  0.224467  0.485970  0.561596  1
  Mo  Mo13  1  0.224442  0.585934  0.561881  1
  Mo  Mo14  1  0.224543  0.685891  0.562166  1
  Mo  Mo15  1  0.224545  0.785845  0.562434  1
  Mo  Mo16  1  0.222471  0.885513  0.564144  1
  Mo  Mo17  1  0.413673  0.034090  0.219387  1
  Mo  Mo18  1  0.225241  0.985964  0.560186  1
  Mo  Mo19  1  0.419800  0.133747  0.223303  1
  Mo  Mo20  1  0.444912  0.019749  0.580447  1
  Mo  Mo21  1  0.414977  0.234019  0.219038  1
  Mo  Mo22  1  0.434380  0.119131  0.584986  1
  Mo  Mo23  1  0.421451  0.333739  0.224567  1
  Mo  Mo24  1  0.444401  0.219388  0.581770  1
  Mo  Mo25  1  0.421087  0.433810  0.224415  1
  Mo  Mo26  1  0.438012  0.319647  0.579002  1
  Mo  Mo27  1  0.421282  0.533798  0.224422  1
  Mo  Mo28  1  0.437976  0.419748  0.578429  1
  Mo  Mo29  1  0.421303  0.633753  0.224658  1
  Mo  Mo30  1  0.438047  0.519774  0.578186  1
  Mo  Mo31  1  0.421128  0.733712  0.224907  1
  Mo  Mo32  1  0.437999  0.619731  0.578360  1
  Mo  Mo33  1  0.565620  0.080869  0.415014  1
  Mo  Mo34  1  0.420491  0.833699  0.225250  1
  Mo  Mo35  1  0.437897  0.719682  0.578521  1
  Mo  Mo36  1  0.555088  0.180251  0.419553  1
  Mo  Mo37  1  0.416932  0.933936  0.224485  1
  Mo  Mo38  1  0.580200  0.066253  0.776697  1
  Mo  Mo39  1  0.438124  0.819633  0.579212  1
  Mo  Mo40  1  0.567610  0.280483  0.418931  1
  Mo  Mo41  1  0.586327  0.165910  0.780613  1
  Mo  Mo42  1  0.432390  0.919517  0.581069  1
  Mo  Mo43  1  0.561876  0.380367  0.420788  1
  Mo  Mo44  1  0.583068  0.266064  0.775515  1
  Mo  Mo45  1  0.562103  0.480318  0.421479  1
  Mo  Mo46  1  0.579509  0.366301  0.774750  1
  Mo  Mo47  1  0.562001  0.580269  0.421640  1
  Mo  Mo48  1  0.578872  0.466288  0.775093  1
  Mo  Mo49  1  0.561953  0.680226  0.421814  1
  Mo  Mo50  1  0.578697  0.566247  0.775342  1
  Mo  Mo51  1  0.562024  0.780252  0.421571  1
  Mo  Mo52  1  0.578718  0.666202  0.775578  1
  Mo  Mo53  1  0.561988  0.880353  0.420998  1
  Mo  Mo54  1  0.578913  0.766190  0.775585  1
  Mo  Mo55  1  0.555599  0.980612  0.418230  1
  Mo  Mo56  1  0.578549  0.866261  0.775433  1
  Mo  Mo57  1  0.774825  0.014182  0.439485  1
  Mo  Mo58  1  0.585023  0.965981  0.780962  1
  Mo  Mo59  1  0.787423  0.115343  0.435064  1
  Mo  Mo60  1  0.774759  0.214036  0.439814  1
  Mo  Mo61  1  0.777529  0.314487  0.435856  1
  Mo  Mo62  1  0.775455  0.414155  0.437566  1
  Mo  Mo63  1  0.775457  0.514109  0.437834  1
  Mo  Mo64  1  0.775558  0.614066  0.438119  1
  Mo  Mo65  1  0.775533  0.714030  0.438404  1
  Mo  Mo66  1  0.775675  0.814046  0.438358  1
  Mo  Mo67  1  0.776283  0.914459  0.438438  1
  S  S68  1  0.126347  0.038231  0.376151  1
  S  S69  1  0.131116  0.135399  0.380058  1
  S  S70  1  0.126701  0.237957  0.376565  1
  S  S71  1  0.127965  0.338525  0.368827  1
  S  S72  1  0.127525  0.438509  0.368422  1
  S  S73  1  0.127543  0.538553  0.368015  1
  S  S74  1  0.127548  0.638540  0.367902  1
  S  S75  1  0.240415  0.099508  0.242429  1
  S  S76  1  0.127510  0.738552  0.367701  1
  S  S77  1  0.234874  0.200765  0.234101  1
  S  S78  1  0.237818  0.074856  0.875127  1
  S  S79  1  0.127552  0.838445  0.368910  1
  S  S80  1  0.242183  0.299792  0.241936  1
  S  S81  1  0.265418  0.174741  0.874083  1
  S  S82  1  0.125515  0.936559  0.375468  1
  S  S83  1  0.240852  0.400117  0.241016  1
  S  S84  1  0.244265  0.275808  0.870584  1
  S  S85  1  0.241320  0.500033  0.241232  1
  S  S86  1  0.247468  0.375927  0.871990  1
  S  S87  1  0.241332  0.599960  0.241630  1
  S  S88  1  0.247155  0.476025  0.871566  1
  S  S89  1  0.241257  0.699885  0.242010  1
  S  S90  1  0.247062  0.576005  0.871729  1
  S  S91  1  0.383485  0.038823  0.739181  1
  S  S92  1  0.241329  0.799821  0.242376  1
  S  S93  1  0.247047  0.675954  0.872006  1
  S  S94  1  0.371903  0.137195  0.755279  1
  S  S95  1  0.241839  0.899592  0.242943  1
  S  S96  1  0.246912  0.775886  0.872187  1
  S  S97  1  0.379507  0.238642  0.740368  1
  S  S98  1  0.235781  0.000736  0.234192  1
  S  S99  1  0.244780  0.875286  0.875527  1
  S  S100  1  0.368558  0.337482  0.752663  1
  S  S101  1  0.264440  0.975012  0.872572  1
  S  S102  1  0.367759  0.437466  0.753093  1
  S  S103  1  0.368087  0.537430  0.753235  1
  S  S104  1  0.368456  0.637383  0.753410  1
  S  S105  1  0.368885  0.737367  0.753422  1
  S  S106  1  0.371527  0.837094  0.754206  1
  S  S107  1  0.371428  0.937291  0.756558  1
  S  S108  1  0.628097  0.062805  0.244721  1
  S  S109  1  0.616515  0.161177  0.260819  1
  S  S110  1  0.628572  0.262709  0.243442  1
  S  S111  1  0.628473  0.362906  0.245794  1
  S  S112  1  0.631115  0.462633  0.246578  1
  S  S113  1  0.631544  0.562617  0.246590  1
  S  S114  1  0.734582  0.025259  0.125917  1
  S  S115  1  0.631913  0.662570  0.246765  1
  S  S116  1  0.762182  0.125144  0.124873  1
  S  S117  1  0.765126  0.999235  0.765899  1
  S  S118  1  0.632241  0.762534  0.246907  1
  S  S119  1  0.735560  0.224988  0.127428  1
  S  S120  1  0.759585  0.100492  0.757571  1
  S  S121  1  0.631442  0.862518  0.247337  1
  S  S122  1  0.755220  0.324714  0.124473  1
  S  S123  1  0.764219  0.199264  0.765808  1
  S  S124  1  0.620493  0.961358  0.259632  1
  S  S125  1  0.753088  0.424114  0.127813  1
  S  S126  1  0.758161  0.300408  0.757057  1
  S  S127  1  0.752953  0.524046  0.127994  1
  S  S128  1  0.758671  0.400179  0.757624  1
  S  S129  1  0.752938  0.623995  0.128271  1
  S  S130  1  0.758743  0.500116  0.757990  1
  S  S131  1  0.752845  0.723975  0.128434  1
  S  S132  1  0.758668  0.600040  0.758370  1
  S  S133  1  0.868884  0.064601  0.619942  1
  S  S134  1  0.752532  0.824073  0.128010  1
  S  S135  1  0.758680  0.699967  0.758768  1
  S  S136  1  0.873653  0.161769  0.623849  1
  S  S137  1  0.755735  0.924192  0.129416  1
  S  S138  1  0.759148  0.799883  0.758984  1
  S  S139  1  0.874485  0.263441  0.624532  1
  S  S140  1  0.757817  0.900208  0.758064  1
  S  S141  1  0.872448  0.361555  0.631090  1
  S  S142  1  0.872490  0.461448  0.632299  1
  S  S143  1  0.872452  0.561460  0.632098  1
  S  S144  1  0.872457  0.661447  0.631985  1
  S  S145  1  0.872475  0.761491  0.631578  1
  S  S146  1  0.872035  0.861475  0.631173  1
  S  S147  1  0.873299  0.962043  0.623435  1
