# generated using pymatgen
data_V2Bi4O11
_symmetry_space_group_name_H-M   'P 1'
_cell_length_a   7.27020133
_cell_length_b   8.57013732
_cell_length_c   9.44497730
_cell_angle_alpha   90.00000000
_cell_angle_beta   90.00000000
_cell_angle_gamma   102.94574731
_symmetry_Int_Tables_number   1
_chemical_formula_structural   V2Bi4O11
_chemical_formula_sum   'V4 Bi8 O22'
_cell_volume   573.52691595
_cell_formula_units_Z   2
loop_
 _symmetry_equiv_pos_site_id
 _symmetry_equiv_pos_as_xyz
  1  'x, y, z'
loop_
 _atom_site_type_symbol
 _atom_site_label
 _atom_site_symmetry_multiplicity
 _atom_site_fract_x
 _atom_site_fract_y
 _atom_site_fract_z
 _atom_site_occupancy
  V  V0  1  0.612140  0.427090  0.175719  1
  V  V1  1  0.115777  0.950637  0.678213  1
  V  V2  1  0.884223  0.049363  0.178213  1
  V  V3  1  0.387860  0.572910  0.675719  1
  Bi  Bi4  1  0.166390  0.308867  0.455075  1
  Bi  Bi5  1  0.227549  0.503082  0.071244  1
  Bi  Bi6  1  0.349424  0.017267  0.051572  1
  Bi  Bi7  1  0.127659  0.780180  0.330151  1
  Bi  Bi8  1  0.872341  0.219820  0.830151  1
  Bi  Bi9  1  0.650576  0.982733  0.551572  1
  Bi  Bi10  1  0.833610  0.691133  0.955075  1
  Bi  Bi11  1  0.772451  0.496918  0.571244  1
  O  O12  1  0.158785  0.736587  0.097469  1
  O  O13  1  0.159668  0.523610  0.597565  1
  O  O14  1  0.877843  0.852116  0.232758  1
  O  O15  1  0.815458  0.506020  0.801110  1
  O  O16  1  0.473899  0.399464  0.638897  1
  O  O17  1  0.679906  0.004375  0.774300  1
  O  O18  1  0.320020  0.942482  0.588495  1
  O  O19  1  0.933652  0.891544  0.554332  1
  O  O20  1  0.921638  0.172273  0.326086  1
  O  O21  1  0.554302  0.714297  0.581739  1
  O  O22  1  0.394314  0.614743  0.852275  1
  O  O23  1  0.445698  0.285703  0.081739  1
  O  O24  1  0.605686  0.385257  0.352275  1
  O  O25  1  0.066348  0.108456  0.054332  1
  O  O26  1  0.078362  0.827727  0.826086  1
  O  O27  1  0.679980  0.057518  0.088495  1
  O  O28  1  0.526101  0.600536  0.138897  1
  O  O29  1  0.184542  0.493980  0.301110  1
  O  O30  1  0.122157  0.147885  0.732758  1
  O  O31  1  0.320094  0.995625  0.274300  1
  O  O32  1  0.841215  0.263413  0.597469  1
  O  O33  1  0.840332  0.476390  0.097565  1
