# generated using pymatgen
data_Co6C13(SO6)2
_symmetry_space_group_name_H-M   'P 1'
_cell_length_a   9.36226142
_cell_length_b   9.36498454
_cell_length_c   15.13881983
_cell_angle_alpha   95.88680664
_cell_angle_beta   102.21926917
_cell_angle_gamma   119.73189758
_symmetry_Int_Tables_number   1
_chemical_formula_structural   Co6C13(SO6)2
_chemical_formula_sum   'Co12 C26 S4 O24'
_cell_volume   1092.28538764
_cell_formula_units_Z   2
loop_
 _symmetry_equiv_pos_site_id
 _symmetry_equiv_pos_as_xyz
  1  'x, y, z'
loop_
 _atom_site_type_symbol
 _atom_site_label
 _atom_site_symmetry_multiplicity
 _atom_site_fract_x
 _atom_site_fract_y
 _atom_site_fract_z
 _atom_site_occupancy
  Co  Co0  1  0.324058  0.338587  0.350678  1
  Co  Co1  1  0.616740  0.164940  0.032610  1
  Co  Co2  1  0.322108  0.753984  0.877153  1
  Co  Co3  1  0.430128  0.893760  0.058828  1
  Co  Co4  1  0.719712  0.979625  0.062918  1
  Co  Co5  1  0.509371  0.026333  0.851245  1
  Co  Co6  1  0.665392  0.626814  0.558510  1
  Co  Co7  1  0.366656  0.413390  0.531508  1
  Co  Co8  1  0.613947  0.842966  0.881955  1
  Co  Co9  1  0.581432  0.341973  0.561320  1
  Co  Co10  1  0.538516  0.264835  0.381360  1
  Co  Co11  1  0.622695  0.551890  0.377446  1
  C  C12  1  0.808294  0.949227  0.853211  1
  C  C13  1  0.612203  0.727935  0.354684  1
  C  C14  1  0.275724  0.538531  0.522531  1
  C  C15  1  0.783312  0.362105  0.602370  1
  C  C16  1  0.374852  0.706781  0.097266  1
  C  C17  1  0.663217  0.814870  0.565050  1
  C  C18  1  0.806562  0.355003  0.036718  1
  C  C19  1  0.221388  0.445334  0.310082  1
  C  C20  1  0.361449  0.088023  0.809852  1
  C  C21  1  0.134412  0.138554  0.328846  1
  C  C22  1  0.618985  0.660885  0.896413  1
  C  C23  1  0.516665  0.423980  0.459922  1
  C  C24  1  0.892036  0.723675  0.597675  1
  C  C25  1  0.247521  0.901188  0.064562  1
  C  C26  1  0.687779  0.191668  0.828510  1
  C  C27  1  0.841367  0.639767  0.383006  1
  C  C28  1  0.479327  0.243900  0.023889  1
  C  C29  1  0.121926  0.739611  0.851633  1
  C  C30  1  0.740288  0.817401  0.103457  1
  C  C31  1  0.936066  0.117935  0.067595  1
  C  C32  1  0.243838  0.541208  0.882759  1
  C  C33  1  0.534589  0.943291  0.960806  1
  C  C34  1  0.447381  0.131412  0.566331  1
  C  C35  1  0.736635  0.276761  0.396229  1
  C  C36  1  0.400437  0.041119  0.353437  1
  C  C37  1  0.182791  0.228954  0.538938  1
  S  S38  1  0.415294  0.787250  0.757825  1
  S  S39  1  0.469513  0.340002  0.257353  1
  S  S40  1  0.563634  0.506020  0.663338  1
  S  S41  1  0.657266  0.099990  0.164165  1
  O  O42  1  0.389541  0.296213  0.016505  1
  O  O43  1  0.932549  0.016006  0.831254  1
  O  O44  1  0.149836  0.509166  0.279712  1
  O  O45  1  0.805692  0.301388  0.814048  1
  O  O46  1  0.268067  0.130078  0.779385  1
  O  O47  1  0.930711  0.479602  0.038951  1
  O  O48  1  0.126994  0.903213  0.070500  1
  O  O49  1  0.040260  0.784901  0.623541  1
  O  O50  1  0.667052  0.941283  0.571567  1
  O  O51  1  0.866563  0.283606  0.407217  1
  O  O52  1  0.342485  0.585453  0.123435  1
  O  O53  1  0.752580  0.710415  0.129183  1
  O  O54  1  0.008042  0.008005  0.315098  1
  O  O55  1  0.214521  0.619693  0.516167  1
  O  O56  1  0.357531  0.993627  0.570696  1
  O  O57  1  0.626217  0.543161  0.906116  1
  O  O58  1  0.609869  0.846221  0.340434  1
  O  O59  1  0.983946  0.697923  0.384962  1
  O  O60  1  0.988521  0.726304  0.835145  1
  O  O61  1  0.061272  0.109997  0.544423  1
  O  O62  1  0.192809  0.401048  0.883944  1
  O  O63  1  0.915147  0.374080  0.629694  1
  O  O64  1  0.078193  0.209607  0.070731  1
  O  O65  1  0.307702  0.895111  0.332662  1
