# generated using pymatgen
data_CeCu5Sn
_symmetry_space_group_name_H-M   'P 1'
_cell_length_a   5.06322523
_cell_length_b   8.32430964
_cell_length_c   10.57584006
_cell_angle_alpha   90.01424120
_cell_angle_beta   90.00082538
_cell_angle_gamma   90.00043578
_symmetry_Int_Tables_number   1
_chemical_formula_structural   CeCu5Sn
_chemical_formula_sum   'Ce4 Cu20 Sn4'
_cell_volume   445.74895553
_cell_formula_units_Z   4
loop_
 _symmetry_equiv_pos_site_id
 _symmetry_equiv_pos_as_xyz
  1  'x, y, z'
loop_
 _atom_site_type_symbol
 _atom_site_label
 _atom_site_symmetry_multiplicity
 _atom_site_fract_x
 _atom_site_fract_y
 _atom_site_fract_z
 _atom_site_occupancy
  Ce  Ce0  1  0.249999  0.754130  0.940926  1
  Ce  Ce1  1  0.750000  0.245885  0.059090  1
  Ce  Ce2  1  0.250001  0.254148  0.559082  1
  Ce  Ce3  1  0.750000  0.745907  0.440887  1
  Cu  Cu4  1  0.000017  0.069686  0.311368  1
  Cu  Cu5  1  0.499982  0.069685  0.311370  1
  Cu  Cu6  1  0.499886  0.930392  0.688671  1
  Cu  Cu7  1  0.249999  0.319154  0.244386  1
  Cu  Cu8  1  0.750000  0.680845  0.755712  1
  Cu  Cu9  1  0.750001  0.937240  0.896917  1
  Cu  Cu10  1  -0.000018  0.569653  0.188645  1
  Cu  Cu11  1  0.750001  0.582173  0.983505  1
  Cu  Cu12  1  0.499892  0.430345  0.811309  1
  Cu  Cu13  1  0.250002  0.562562  0.396949  1
  Cu  Cu14  1  0.250000  0.417963  0.016477  1
  Cu  Cu15  1  0.749998  0.082290  0.516533  1
  Cu  Cu16  1  0.000113  0.930393  0.688671  1
  Cu  Cu17  1  0.250000  0.819154  0.255618  1
  Cu  Cu18  1  0.249999  0.918081  0.483565  1
  Cu  Cu19  1  0.249999  0.062632  0.103068  1
  Cu  Cu20  1  0.500019  0.569655  0.188645  1
  Cu  Cu21  1  0.750000  0.437150  0.603084  1
  Cu  Cu22  1  0.750001  0.180857  0.744263  1
  Cu  Cu23  1  0.000107  0.430345  0.811309  1
  Sn  Sn24  1  0.750000  0.360305  0.359496  1
  Sn  Sn25  1  0.750000  0.860409  0.140505  1
  Sn  Sn26  1  0.250000  0.639414  0.640654  1
  Sn  Sn27  1  0.250001  0.139547  0.859295  1
