# generated using pymatgen
data_Co2RhS4
_symmetry_space_group_name_H-M   'P 1'
_cell_length_a   6.93241491
_cell_length_b   6.86842947
_cell_length_c   6.93241408
_cell_angle_alpha   60.30485469
_cell_angle_beta   60.61703227
_cell_angle_gamma   60.30485106
_symmetry_Int_Tables_number   1
_chemical_formula_structural   Co2RhS4
_chemical_formula_sum   'Co4 Rh2 S8'
_cell_volume   235.55937270
_cell_formula_units_Z   2
loop_
 _symmetry_equiv_pos_site_id
 _symmetry_equiv_pos_as_xyz
  1  'x, y, z'
loop_
 _atom_site_type_symbol
 _atom_site_label
 _atom_site_symmetry_multiplicity
 _atom_site_fract_x
 _atom_site_fract_y
 _atom_site_fract_z
 _atom_site_occupancy
  Co  Co0  1  0.001076  0.998924  0.001076  1
  Co  Co1  1  0.248924  0.251076  0.248924  1
  Co  Co2  1  0.625000  0.125000  0.625000  1
  Co  Co3  1  0.625000  0.625000  0.625000  1
  Rh  Rh4  1  0.125000  0.625000  0.625000  1
  Rh  Rh5  1  0.625000  0.625000  0.125000  1
  S  S6  1  0.392405  0.376440  0.392405  1
  S  S7  1  0.398421  0.383052  0.835474  1
  S  S8  1  0.392405  0.838750  0.392405  1
  S  S9  1  0.835474  0.383052  0.398421  1
  S  S10  1  0.414526  0.866948  0.851579  1
  S  S11  1  0.857595  0.411250  0.857595  1
  S  S12  1  0.851579  0.866948  0.414526  1
  S  S13  1  0.857595  0.873560  0.857595  1
