# generated using pymatgen
data_H7WC7NO5
_symmetry_space_group_name_H-M   'P 1'
_cell_length_a   9.16090582
_cell_length_b   10.30442253
_cell_length_c   12.14712809
_cell_angle_alpha   90.00000000
_cell_angle_beta   105.72635907
_cell_angle_gamma   90.00000000
_symmetry_Int_Tables_number   1
_chemical_formula_structural   H7WC7NO5
_chemical_formula_sum   'H28 W4 C28 N4 O20'
_cell_volume   1103.73985835
_cell_formula_units_Z   4
loop_
 _symmetry_equiv_pos_site_id
 _symmetry_equiv_pos_as_xyz
  1  'x, y, z'
loop_
 _atom_site_type_symbol
 _atom_site_label
 _atom_site_symmetry_multiplicity
 _atom_site_fract_x
 _atom_site_fract_y
 _atom_site_fract_z
 _atom_site_occupancy
  H  H0  1  0.366365  0.118746  0.072951  1
  H  H1  1  0.633635  0.881254  0.927049  1
  H  H2  1  0.339081  0.798403  0.154477  1
  H  H3  1  0.541488  0.035614  0.897824  1
  H  H4  1  0.541488  0.464386  0.397824  1
  H  H5  1  0.611100  0.356232  0.200372  1
  H  H6  1  0.183797  0.510875  0.602983  1
  H  H7  1  0.366365  0.381254  0.572951  1
  H  H8  1  0.509381  0.585381  0.288709  1
  H  H9  1  0.803570  0.316678  0.271370  1
  H  H10  1  0.196430  0.683322  0.728630  1
  H  H11  1  0.388900  0.643768  0.799628  1
  H  H12  1  0.339081  0.701597  0.654477  1
  H  H13  1  0.458512  0.535614  0.602176  1
  H  H14  1  0.490619  0.414619  0.711291  1
  H  H15  1  0.490619  0.085381  0.211291  1
  H  H16  1  0.458512  0.964386  0.102176  1
  H  H17  1  0.660919  0.298403  0.345523  1
  H  H18  1  0.611100  0.143768  0.700372  1
  H  H19  1  0.816203  0.010875  0.897017  1
  H  H20  1  0.509381  0.914619  0.788709  1
  H  H21  1  0.633635  0.618746  0.427049  1
  H  H22  1  0.803570  0.183322  0.771370  1
  H  H23  1  0.660919  0.201597  0.845523  1
  H  H24  1  0.196430  0.816678  0.228630  1
  H  H25  1  0.816203  0.489125  0.397017  1
  H  H26  1  0.183797  0.989125  0.102983  1
  H  H27  1  0.388900  0.856232  0.299628  1
  W  W28  1  0.818101  0.864372  0.704176  1
  W  W29  1  0.181899  0.364372  0.795824  1
  W  W30  1  0.818101  0.635628  0.204176  1
  W  W31  1  0.181899  0.135628  0.295824  1
  C  C32  1  0.963684  0.383422  0.688175  1
  C  C33  1  0.594741  0.543679  0.361657  1
  C  C34  1  0.698342  0.357711  0.282702  1
  C  C35  1  0.104066  0.240447  0.894747  1
  C  C36  1  0.142847  0.984030  0.397226  1
  C  C37  1  0.895934  0.759553  0.105253  1
  C  C38  1  0.775132  0.703552  0.792753  1
  C  C39  1  0.405259  0.043679  0.138343  1
  C  C40  1  0.963684  0.116578  0.188175  1
  C  C41  1  0.594741  0.956321  0.861657  1
  C  C42  1  0.036316  0.883422  0.811825  1
  C  C43  1  0.698342  0.142289  0.782702  1
  C  C44  1  0.394359  0.346824  0.909065  1
  C  C45  1  0.301658  0.857711  0.217298  1
  C  C46  1  0.142847  0.515970  0.897226  1
  C  C47  1  0.857153  0.484030  0.102774  1
  C  C48  1  0.394359  0.153176  0.409065  1
  C  C49  1  0.036316  0.616578  0.311825  1
  C  C50  1  0.405259  0.456321  0.638343  1
  C  C51  1  0.605641  0.846824  0.590935  1
  C  C52  1  0.224868  0.296448  0.207247  1
  C  C53  1  0.301658  0.642289  0.717298  1
  C  C54  1  0.605641  0.653176  0.090935  1
  C  C55  1  0.224868  0.203552  0.707247  1
  C  C56  1  0.775132  0.796448  0.292753  1
  C  C57  1  0.104066  0.259553  0.394747  1
  C  C58  1  0.857153  0.015970  0.602774  1
  C  C59  1  0.895934  0.740447  0.605253  1
  N  N60  1  0.273047  0.506413  0.675096  1
  N  N61  1  0.726953  0.493587  0.324904  1
  N  N62  1  0.726953  0.006413  0.824904  1
  N  N63  1  0.273047  0.993587  0.175096  1
  O  O64  1  0.249694  0.392079  0.164181  1
  O  O65  1  0.877883  0.404102  0.041132  1
  O  O66  1  0.122117  0.595898  0.958868  1
  O  O67  1  0.939217  0.665132  0.548217  1
  O  O68  1  0.839429  0.392761  0.631024  1
  O  O69  1  0.939217  0.834868  0.048217  1
  O  O70  1  0.122117  0.904102  0.458868  1
  O  O71  1  0.489470  0.667217  0.022386  1
  O  O72  1  0.750306  0.607921  0.835819  1
  O  O73  1  0.160571  0.892761  0.868976  1
  O  O74  1  0.510530  0.332783  0.977614  1
  O  O75  1  0.249694  0.107921  0.664181  1
  O  O76  1  0.160571  0.607239  0.368976  1
  O  O77  1  0.060783  0.165132  0.951783  1
  O  O78  1  0.750306  0.892079  0.335819  1
  O  O79  1  0.510530  0.167217  0.477614  1
  O  O80  1  0.489470  0.832783  0.522386  1
  O  O81  1  0.839429  0.107239  0.131024  1
  O  O82  1  0.060783  0.334868  0.451783  1
  O  O83  1  0.877883  0.095898  0.541132  1
