# generated using pymatgen
data_Sr(H8O5)2
_symmetry_space_group_name_H-M   'P 1'
_cell_length_a   6.35372279
_cell_length_b   6.41628996
_cell_length_c   11.40592239
_cell_angle_alpha   91.80810214
_cell_angle_beta   90.53258471
_cell_angle_gamma   92.02065318
_symmetry_Int_Tables_number   1
_chemical_formula_structural   Sr(H8O5)2
_chemical_formula_sum   'Sr2 H32 O20'
_cell_volume   464.44325459
_cell_formula_units_Z   2
loop_
 _symmetry_equiv_pos_site_id
 _symmetry_equiv_pos_as_xyz
  1  'x, y, z'
loop_
 _atom_site_type_symbol
 _atom_site_label
 _atom_site_symmetry_multiplicity
 _atom_site_fract_x
 _atom_site_fract_y
 _atom_site_fract_z
 _atom_site_occupancy
  Sr  Sr0  1  0.985708  0.014211  0.484626  1
  Sr  Sr1  1  0.009659  0.997221  0.987743  1
  H  H2  1  0.473446  0.650186  0.523325  1
  H  H3  1  0.268750  0.377927  0.383775  1
  H  H4  1  0.153658  0.266533  0.277595  1
  H  H5  1  0.744191  0.627393  0.350117  1
  H  H6  1  0.972427  0.544797  0.364542  1
  H  H7  1  0.534012  0.988988  0.379302  1
  H  H8  1  0.615906  0.222548  0.369642  1
  H  H9  1  0.311449  0.747206  0.370247  1
  H  H10  1  0.805570  0.257494  0.778404  1
  H  H11  1  0.734513  0.377106  0.894633  1
  H  H12  1  0.053652  0.540431  0.857391  1
  H  H13  1  0.284706  0.607555  0.895246  1
  H  H14  1  0.301126  0.164680  0.789903  1
  H  H15  1  0.411082  0.275595  0.902704  1
  H  H16  1  0.572698  0.932961  0.852768  1
  H  H17  1  0.620526  0.706989  0.894765  1
  H  H18  1  0.777286  0.611536  0.593348  1
  H  H19  1  0.851375  0.719308  0.713354  1
  H  H20  1  0.069061  0.438558  0.649916  1
  H  H21  1  0.287732  0.385708  0.599762  1
  H  H22  1  0.303218  0.799807  0.690106  1
  H  H23  1  0.342405  0.867800  0.550587  1
  H  H24  1  0.582235  0.052769  0.652810  1
  H  H25  1  0.637442  0.276022  0.607091  1
  H  H26  1  0.065086  0.665159  0.168203  1
  H  H27  1  0.294092  0.638269  0.112542  1
  H  H28  1  0.891107  0.325689  0.184864  1
  H  H29  1  0.704492  0.376370  0.097286  1
  H  H30  1  0.697613  0.921177  0.192853  1
  H  H31  1  0.633828  0.716638  0.110295  1
  H  H32  1  0.361025  0.085264  0.180841  1
  H  H33  1  0.360751  0.309368  0.119487  1
  O  O34  1  0.499228  0.444846  0.399818  1
  O  O35  1  0.504582  0.492795  0.944149  1
  O  O36  1  0.521310  0.504839  0.526466  1
  O  O37  1  0.494900  0.495216  0.075122  1
  O  O38  1  0.117376  0.322936  0.357994  1
  O  O39  1  0.892318  0.675723  0.361488  1
  O  O40  1  0.662425  0.075467  0.352253  1
  O  O41  1  0.331373  0.865511  0.425191  1
  O  O42  1  0.859043  0.311950  0.855914  1
  O  O43  1  0.151752  0.664375  0.861248  1
  O  O44  1  0.347852  0.134451  0.869831  1
  O  O45  1  0.686585  0.831451  0.853973  1
  O  O46  1  0.900083  0.681811  0.633842  1
  O  O47  1  0.159422  0.319746  0.632785  1
  O  O48  1  0.358213  0.909026  0.640432  1
  O  O49  1  0.703971  0.154246  0.639241  1
  O  O50  1  0.186042  0.742586  0.136749  1
  O  O51  1  0.845079  0.304997  0.103532  1
  O  O52  1  0.723603  0.848597  0.117352  1
  O  O53  1  0.266532  0.188863  0.151452  1
