# generated using pymatgen
data_Nb2O5
_symmetry_space_group_name_H-M   'P 1'
_cell_length_a   3.86188530
_cell_length_b   14.71565954
_cell_length_c   15.43637828
_cell_angle_alpha   73.14961818
_cell_angle_beta   82.81454817
_cell_angle_gamma   82.44630057
_symmetry_Int_Tables_number   1
_chemical_formula_structural   Nb2O5
_chemical_formula_sum   'Nb16 O40'
_cell_volume   828.79687990
_cell_formula_units_Z   8
loop_
 _symmetry_equiv_pos_site_id
 _symmetry_equiv_pos_as_xyz
  1  'x, y, z'
loop_
 _atom_site_type_symbol
 _atom_site_label
 _atom_site_symmetry_multiplicity
 _atom_site_fract_x
 _atom_site_fract_y
 _atom_site_fract_z
 _atom_site_occupancy
  Nb  Nb0  1  0.077437  0.752926  0.096428  1
  Nb  Nb1  1  0.206070  0.488127  0.097557  1
  Nb  Nb2  1  0.061900  0.976997  0.898803  1
  Nb  Nb3  1  -0.000115  0.671036  0.371122  1
  Nb  Nb4  1  0.035829  0.327910  0.628918  1
  Nb  Nb5  1  0.925437  0.246487  0.903124  1
  Nb  Nb6  1  0.876732  0.591002  0.631902  1
  Nb  Nb7  1  0.157091  0.060088  0.628586  1
  Nb  Nb8  1  0.794590  0.511652  0.901824  1
  Nb  Nb9  1  0.939456  0.021996  0.100936  1
  Nb  Nb10  1  0.841540  0.939025  0.370982  1
  Nb  Nb11  1  0.658828  0.783388  0.899574  1
  Nb  Nb12  1  0.246699  0.137861  0.365606  1
  Nb  Nb13  1  0.751245  0.861376  0.633853  1
  Nb  Nb14  1  0.126753  0.407839  0.368071  1
  Nb  Nb15  1  0.342900  0.216402  0.099606  1
  O  O16  1  0.590318  0.767475  0.055067  1
  O  O17  1  0.715926  0.655929  0.910055  1
  O  O18  1  0.794094  0.907931  0.501416  1
  O  O19  1  0.768628  0.102556  0.358028  1
  O  O20  1  0.573936  0.939490  0.912768  1
  O  O21  1  0.161160  0.451091  0.220383  1
  O  O22  1  0.307208  0.165719  0.222325  1
  O  O23  1  0.130656  0.813784  0.925807  1
  O  O24  1  0.897539  0.982038  0.223546  1
  O  O25  1  0.974361  0.270635  0.782596  1
  O  O26  1  0.030049  0.728217  0.217240  1
  O  O27  1  0.853824  0.373638  0.917962  1
  O  O28  1  0.871229  0.185588  0.073704  1
  O  O29  1  0.811726  0.734728  0.645422  1
  O  O30  1  0.016115  0.909333  0.061310  1
  O  O31  1  0.954490  0.458484  0.637315  1
  O  O32  1  0.380522  0.604298  0.641484  1
  O  O33  1  0.670635  0.020833  0.638936  1
  O  O34  1  0.693389  0.834750  0.776841  1
  O  O35  1  0.839995  0.548740  0.778975  1
  O  O36  1  0.904238  0.816849  0.363350  1
  O  O37  1  0.045999  0.540425  0.362739  1
  O  O38  1  0.482628  0.685559  0.351078  1
  O  O39  1  0.284677  0.344042  0.088298  1
  O  O40  1  0.621804  0.395083  0.357540  1
  O  O41  1  0.103575  0.015843  0.776130  1
  O  O42  1  0.274808  0.513982  0.936928  1
  O  O43  1  0.093385  0.181878  0.637085  1
  O  O44  1  0.934063  0.641524  0.500163  1
  O  O45  1  0.725914  0.486135  0.061990  1
  O  O46  1  0.073089  0.357067  0.499744  1
  O  O47  1  0.205004  0.091854  0.497997  1
  O  O48  1  0.328569  0.978642  0.360189  1
  O  O49  1  0.230429  0.896854  0.640863  1
  O  O50  1  0.427490  0.059521  0.087223  1
  O  O51  1  0.412253  0.231626  0.944401  1
  O  O52  1  0.147534  0.625972  0.081118  1
  O  O53  1  0.187794  0.264561  0.354362  1
  O  O54  1  0.520488  0.314203  0.648687  1
  O  O55  1  0.986088  0.089675  0.938448  1
