# generated using pymatgen
data_Tl2SeO4
_symmetry_space_group_name_H-M   'P 1'
_cell_length_a   6.38917012
_cell_length_b   6.71256724
_cell_length_c   8.14733622
_cell_angle_alpha   90.40111298
_cell_angle_beta   89.78929305
_cell_angle_gamma   121.68899899
_symmetry_Int_Tables_number   1
_chemical_formula_structural   Tl2SeO4
_chemical_formula_sum   'Tl4 Se2 O8'
_cell_volume   297.31905147
_cell_formula_units_Z   2
loop_
 _symmetry_equiv_pos_site_id
 _symmetry_equiv_pos_as_xyz
  1  'x, y, z'
loop_
 _atom_site_type_symbol
 _atom_site_label
 _atom_site_symmetry_multiplicity
 _atom_site_fract_x
 _atom_site_fract_y
 _atom_site_fract_z
 _atom_site_occupancy
  Tl  Tl0  1  0.331884  0.663465  0.740830  1
  Tl  Tl1  1  0.000003  0.000079  0.996167  1
  Tl  Tl2  1  0.668116  0.331580  0.240830  1
  Tl  Tl3  1  0.999997  0.000076  0.496167  1
  Se  Se4  1  0.311801  0.656314  0.242679  1
  Se  Se5  1  0.688199  0.344512  0.742679  1
  O  O6  1  0.123576  0.763384  0.239562  1
  O  O7  1  0.482595  0.733956  0.072622  1
  O  O8  1  0.493684  0.757954  0.408222  1
  O  O9  1  0.128613  0.360929  0.252018  1
  O  O10  1  0.506316  0.264269  0.908222  1
  O  O11  1  0.876424  0.639808  0.739562  1
  O  O12  1  0.517405  0.251360  0.572622  1
  O  O13  1  0.871387  0.232315  0.752018  1
