# generated using pymatgen
data_DyFeGe2O7
_symmetry_space_group_name_H-M   'P 1'
_cell_length_a   6.72463603
_cell_length_b   8.67984604
_cell_length_c   9.83644253
_cell_angle_alpha   90.00000000
_cell_angle_beta   100.28334376
_cell_angle_gamma   90.00000000
_symmetry_Int_Tables_number   1
_chemical_formula_structural   DyFeGe2O7
_chemical_formula_sum   'Dy4 Fe4 Ge8 O28'
_cell_volume   564.91895268
_cell_formula_units_Z   4
loop_
 _symmetry_equiv_pos_site_id
 _symmetry_equiv_pos_as_xyz
  1  'x, y, z'
loop_
 _atom_site_type_symbol
 _atom_site_label
 _atom_site_symmetry_multiplicity
 _atom_site_fract_x
 _atom_site_fract_y
 _atom_site_fract_z
 _atom_site_occupancy
  Dy  Dy0  1  0.750476  0.957897  0.747318  1
  Dy  Dy1  1  0.249524  0.457897  0.252682  1
  Dy  Dy2  1  0.249524  0.042103  0.252682  1
  Dy  Dy3  1  0.750476  0.542103  0.747318  1
  Fe  Fe4  1  0.751150  0.948364  0.248705  1
  Fe  Fe5  1  0.248850  0.051636  0.751295  1
  Fe  Fe6  1  0.248850  0.448364  0.751295  1
  Fe  Fe7  1  0.751150  0.551636  0.248705  1
  Ge  Ge8  1  0.546830  0.250000  0.031802  1
  Ge  Ge9  1  0.950704  0.250000  0.471039  1
  Ge  Ge10  1  0.528465  0.750000  0.445348  1
  Ge  Ge11  1  0.049296  0.750000  0.528961  1
  Ge  Ge12  1  0.453170  0.750000  0.968198  1
  Ge  Ge13  1  0.974810  0.750000  0.050817  1
  Ge  Ge14  1  0.471535  0.250000  0.554652  1
  Ge  Ge15  1  0.025190  0.250000  0.949183  1
  O  O16  1  0.251615  0.750000  0.432630  1
  O  O17  1  0.042425  0.585962  0.637218  1
  O  O18  1  0.970940  0.572333  0.139667  1
  O  O19  1  0.466690  0.071420  0.640377  1
  O  O20  1  0.540265  0.413408  0.140419  1
  O  O21  1  0.970940  0.927667  0.139667  1
  O  O22  1  0.957575  0.085962  0.362782  1
  O  O23  1  0.459735  0.913408  0.859581  1
  O  O24  1  0.748790  0.250000  0.936197  1
  O  O25  1  0.148597  0.250000  0.121809  1
  O  O26  1  0.029060  0.427667  0.860333  1
  O  O27  1  0.341609  0.250000  0.886778  1
  O  O28  1  0.540265  0.086592  0.140419  1
  O  O29  1  0.153583  0.250000  0.617771  1
  O  O30  1  0.029060  0.072332  0.860333  1
  O  O31  1  0.344874  0.250000  0.383269  1
  O  O32  1  0.459735  0.586592  0.859581  1
  O  O33  1  0.251210  0.750000  0.063803  1
  O  O34  1  0.533310  0.571420  0.359623  1
  O  O35  1  0.658391  0.750000  0.113222  1
  O  O36  1  0.851403  0.750000  0.878191  1
  O  O37  1  0.846417  0.750000  0.382229  1
  O  O38  1  0.748385  0.250000  0.567370  1
  O  O39  1  0.957575  0.414038  0.362782  1
  O  O40  1  0.533310  0.928580  0.359623  1
  O  O41  1  0.655126  0.750000  0.616731  1
  O  O42  1  0.042425  0.914038  0.637218  1
  O  O43  1  0.466690  0.428580  0.640377  1
