# generated using pymatgen
data_Li2SiN2
_symmetry_space_group_name_H-M   'P 1'
_cell_length_a   9.96992238
_cell_length_b   9.98166619
_cell_length_c   15.09983060
_cell_angle_alpha   90.00000000
_cell_angle_beta   90.00000000
_cell_angle_gamma   90.00000000
_symmetry_Int_Tables_number   1
_chemical_formula_structural   Li2SiN2
_chemical_formula_sum   'Li64 Si32 N64'
_cell_volume   1502.68134269
_cell_formula_units_Z   32
loop_
 _symmetry_equiv_pos_site_id
 _symmetry_equiv_pos_as_xyz
  1  'x, y, z'
loop_
 _atom_site_type_symbol
 _atom_site_label
 _atom_site_symmetry_multiplicity
 _atom_site_fract_x
 _atom_site_fract_y
 _atom_site_fract_z
 _atom_site_occupancy
  Li  Li0  1  0.399367  0.847642  0.622524  1
  Li  Li1  1  0.291965  0.027969  0.875356  1
  Li  Li2  1  0.637867  0.703920  0.121494  1
  Li  Li3  1  0.956700  0.619420  0.873585  1
  Li  Li4  1  0.396706  0.938850  0.479004  1
  Li  Li5  1  0.672073  0.161750  0.228181  1
  Li  Li6  1  0.208035  0.972031  0.375356  1
  Li  Li7  1  0.808648  0.393952  0.283948  1
  Li  Li8  1  0.363706  0.422352  0.537210  1
  Li  Li9  1  0.708035  0.972031  0.124644  1
  Li  Li10  1  0.636294  0.577648  0.462790  1
  Li  Li11  1  0.137867  0.703920  0.378506  1
  Li  Li12  1  0.137867  0.796080  0.878506  1
  Li  Li13  1  0.708035  0.527969  0.624644  1
  Li  Li14  1  0.603294  0.438850  0.020996  1
  Li  Li15  1  0.827927  0.661750  0.228181  1
  Li  Li16  1  0.327927  0.661750  0.271819  1
  Li  Li17  1  0.863706  0.422352  0.962790  1
  Li  Li18  1  0.043300  0.380580  0.126415  1
  Li  Li19  1  0.691352  0.893952  0.283948  1
  Li  Li20  1  0.136294  0.922352  0.537210  1
  Li  Li21  1  0.827927  0.838250  0.728181  1
  Li  Li22  1  0.172073  0.161750  0.271819  1
  Li  Li23  1  0.603294  0.061150  0.520996  1
  Li  Li24  1  0.808648  0.106048  0.783948  1
  Li  Li25  1  0.191352  0.606048  0.716052  1
  Li  Li26  1  0.637867  0.796080  0.621494  1
  Li  Li27  1  0.899367  0.847642  0.877476  1
  Li  Li28  1  0.291965  0.472031  0.375356  1
  Li  Li29  1  0.600633  0.347642  0.877476  1
  Li  Li30  1  0.043300  0.119420  0.626415  1
  Li  Li31  1  0.208035  0.527969  0.875356  1
  Li  Li32  1  0.327927  0.838250  0.771819  1
  Li  Li33  1  0.456700  0.880580  0.126415  1
  Li  Li34  1  0.100633  0.347642  0.622524  1
  Li  Li35  1  0.308648  0.106048  0.716052  1
  Li  Li36  1  0.103294  0.438850  0.479004  1
  Li  Li37  1  0.399367  0.652358  0.122524  1
  Li  Li38  1  0.363706  0.077648  0.037210  1
  Li  Li39  1  0.672073  0.338250  0.728181  1
  Li  Li40  1  0.396706  0.561150  0.979004  1
  Li  Li41  1  0.136294  0.577648  0.037210  1
  Li  Li42  1  0.362133  0.203920  0.378506  1
  Li  Li43  1  0.191352  0.893952  0.216052  1
  Li  Li44  1  0.456700  0.619420  0.626415  1
  Li  Li45  1  0.636294  0.922352  0.962790  1
  Li  Li46  1  0.862133  0.203920  0.121494  1
  Li  Li47  1  0.543300  0.119420  0.873585  1
  Li  Li48  1  0.100633  0.152358  0.122524  1
  Li  Li49  1  0.956700  0.880580  0.373585  1
  Li  Li50  1  0.791965  0.027969  0.624644  1
  Li  Li51  1  0.691352  0.606048  0.783948  1
  Li  Li52  1  0.862133  0.296080  0.621494  1
  Li  Li53  1  0.896706  0.561150  0.520996  1
  Li  Li54  1  0.791965  0.472031  0.124644  1
  Li  Li55  1  0.172073  0.338250  0.771819  1
  Li  Li56  1  0.103294  0.061150  0.979004  1
  Li  Li57  1  0.308648  0.393952  0.216052  1
  Li  Li58  1  0.543300  0.380580  0.373585  1
  Li  Li59  1  0.362133  0.296080  0.878506  1
  Li  Li60  1  0.863706  0.077648  0.462790  1
  Li  Li61  1  0.600633  0.152358  0.377476  1
  Li  Li62  1  0.896706  0.938850  0.020996  1
  Li  Li63  1  0.899367  0.652358  0.377476  1
  Si  Si64  1  0.858253  0.167095  0.943259  1
  Si  Si65  1  0.858253  0.332905  0.443259  1
  Si  Si66  1  0.433483  0.604681  0.813474  1
  Si  Si67  1  0.566517  0.395319  0.186526  1
  Si  Si68  1  0.566517  0.104681  0.686526  1
  Si  Si69  1  0.391056  0.680711  0.442622  1
  Si  Si70  1  0.066517  0.395319  0.313474  1
  Si  Si71  1  0.891056  0.819289  0.557378  1
  Si  Si72  1  0.066517  0.104681  0.813474  1
  Si  Si73  1  0.413787  0.143917  0.199518  1
  Si  Si74  1  0.608944  0.180711  0.057378  1
  Si  Si75  1  0.586213  0.643917  0.300482  1
  Si  Si76  1  0.913787  0.143917  0.300482  1
  Si  Si77  1  0.086213  0.856083  0.699518  1
  Si  Si78  1  0.108944  0.319289  0.942622  1
  Si  Si79  1  0.933483  0.604681  0.686526  1
  Si  Si80  1  0.913787  0.356083  0.800482  1
  Si  Si81  1  0.433483  0.895319  0.313474  1
  Si  Si82  1  0.891056  0.680711  0.057378  1
  Si  Si83  1  0.586213  0.856083  0.800482  1
  Si  Si84  1  0.933483  0.895319  0.186526  1
  Si  Si85  1  0.086213  0.643917  0.199518  1
  Si  Si86  1  0.358253  0.167095  0.556741  1
  Si  Si87  1  0.358253  0.332905  0.056741  1
  Si  Si88  1  0.413787  0.356083  0.699518  1
  Si  Si89  1  0.608944  0.319289  0.557378  1
  Si  Si90  1  0.141747  0.667095  0.556741  1
  Si  Si91  1  0.641747  0.832905  0.443259  1
  Si  Si92  1  0.391056  0.819289  0.942622  1
  Si  Si93  1  0.108944  0.180711  0.442622  1
  Si  Si94  1  0.141747  0.832905  0.056741  1
  Si  Si95  1  0.641747  0.667095  0.943259  1
  N  N96  1  0.161799  0.975021  0.767394  1
  N  N97  1  0.661799  0.524979  0.232606  1
  N  N98  1  0.289539  0.281247  0.632613  1
  N  N99  1  0.442922  0.041132  0.615106  1
  N  N100  1  0.210461  0.781247  0.632613  1
  N  N101  1  0.710461  0.718753  0.367387  1
  N  N102  1  0.031500  0.433064  0.869934  1
  N  N103  1  0.493199  0.274810  0.261631  1
  N  N104  1  0.057078  0.958868  0.115106  1
  N  N105  1  0.942922  0.458868  0.384894  1
  N  N106  1  0.661799  0.975021  0.732606  1
  N  N107  1  0.263365  0.589056  0.492594  1
  N  N108  1  0.942922  0.041132  0.884894  1
  N  N109  1  0.338201  0.475021  0.767394  1
  N  N110  1  0.968500  0.933064  0.630066  1
  N  N111  1  0.993199  0.274810  0.238369  1
  N  N112  1  0.516350  0.750091  0.012469  1
  N  N113  1  0.263365  0.910944  0.992594  1
  N  N114  1  0.289539  0.218753  0.132613  1
  N  N115  1  0.983650  0.249909  0.512469  1
  N  N116  1  0.483650  0.250091  0.487531  1
  N  N117  1  0.557078  0.541132  0.884894  1
  N  N118  1  0.316232  0.806699  0.378163  1
  N  N119  1  0.838201  0.475021  0.732606  1
  N  N120  1  0.683768  0.306699  0.121837  1
  N  N121  1  0.493199  0.225190  0.761631  1
  N  N122  1  0.983650  0.250091  0.012469  1
  N  N123  1  0.710461  0.781247  0.867387  1
  N  N124  1  0.057078  0.541132  0.615106  1
  N  N125  1  0.468500  0.933064  0.869934  1
  N  N126  1  0.557078  0.958868  0.384894  1
  N  N127  1  0.016350  0.749909  0.987531  1
  N  N128  1  0.483650  0.249909  0.987531  1
  N  N129  1  0.816232  0.693301  0.621837  1
  N  N130  1  0.789539  0.281247  0.867387  1
  N  N131  1  0.736635  0.089056  0.007406  1
  N  N132  1  0.468500  0.566936  0.369934  1
  N  N133  1  0.316232  0.693301  0.878163  1
  N  N134  1  0.183768  0.306699  0.378163  1
  N  N135  1  0.016350  0.750091  0.487531  1
  N  N136  1  0.531500  0.066936  0.130066  1
  N  N137  1  0.006801  0.725190  0.761631  1
  N  N138  1  0.531500  0.433064  0.630066  1
  N  N139  1  0.993199  0.225190  0.738369  1
  N  N140  1  0.338201  0.024979  0.267394  1
  N  N141  1  0.161799  0.524979  0.267394  1
  N  N142  1  0.210461  0.718753  0.132613  1
  N  N143  1  0.236635  0.089056  0.492594  1
  N  N144  1  0.763365  0.589056  0.007406  1
  N  N145  1  0.763365  0.910944  0.507406  1
  N  N146  1  0.506801  0.774810  0.238369  1
  N  N147  1  0.789539  0.218753  0.367387  1
  N  N148  1  0.968500  0.566936  0.130066  1
  N  N149  1  0.031500  0.066936  0.369934  1
  N  N150  1  0.516350  0.749909  0.512469  1
  N  N151  1  0.506801  0.725190  0.738369  1
  N  N152  1  0.236635  0.410944  0.992594  1
  N  N153  1  0.736635  0.410944  0.507406  1
  N  N154  1  0.183768  0.193301  0.878163  1
  N  N155  1  0.838201  0.024979  0.232606  1
  N  N156  1  0.006801  0.774810  0.261631  1
  N  N157  1  0.816232  0.806699  0.121837  1
  N  N158  1  0.442922  0.458868  0.115106  1
  N  N159  1  0.683768  0.193301  0.621837  1
