# generated using pymatgen
data_Sr9NdFe5(MoO6)5
_symmetry_space_group_name_H-M   'P 1'
_cell_length_a   5.63749514
_cell_length_b   28.26218692
_cell_length_c   9.79783581
_cell_angle_alpha   30.13916345
_cell_angle_beta   106.68709395
_cell_angle_gamma   89.99323943
_symmetry_Int_Tables_number   1
_chemical_formula_structural   Sr9NdFe5(MoO6)5
_chemical_formula_sum   'Sr9 Nd1 Fe5 Mo5 O30'
_cell_volume   642.87935332
_cell_formula_units_Z   1
loop_
 _symmetry_equiv_pos_site_id
 _symmetry_equiv_pos_as_xyz
  1  'x, y, z'
loop_
 _atom_site_type_symbol
 _atom_site_label
 _atom_site_symmetry_multiplicity
 _atom_site_fract_x
 _atom_site_fract_y
 _atom_site_fract_z
 _atom_site_occupancy
  Sr  Sr0  1  0.250739  0.145925  0.499802  1
  Sr  Sr1  1  0.251256  0.349819  0.503121  1
  Sr  Sr2  1  0.248186  0.552527  0.492927  1
  Sr  Sr3  1  0.241001  0.753262  0.484198  1
  Sr  Sr4  1  0.262517  0.948602  0.521171  1
  Sr  Sr5  1  0.751802  0.046730  0.510466  1
  Sr  Sr6  1  0.754285  0.248886  0.504568  1
  Sr  Sr7  1  0.747741  0.451611  0.492937  1
  Sr  Sr8  1  0.753965  0.843942  0.509027  1
  Nd  Nd9  1  0.742015  0.666258  0.471866  1
  Fe  Fe10  1  0.004298  0.197602  0.005770  1
  Fe  Fe11  1  0.997333  0.400768  0.000081  1
  Fe  Fe12  1  0.999096  0.602160  0.994360  1
  Fe  Fe13  1  0.000965  0.799817  0.002525  1
  Fe  Fe14  1  0.497834  0.900944  0.995700  1
  Mo  Mo15  1  0.004427  0.997774  0.006716  1
  Mo  Mo16  1  0.501642  0.100670  0.000946  1
  Mo  Mo17  1  0.494049  0.303654  0.988605  1
  Mo  Mo18  1  0.500572  0.499016  0.000786  1
  Mo  Mo19  1  0.503271  0.696986  0.010865  1
  O  O20  1  0.242989  0.051056  0.497074  1
  O  O21  1  0.256926  0.246793  0.511192  1
  O  O22  1  0.243802  0.451292  0.491320  1
  O  O23  1  0.249741  0.648594  0.502236  1
  O  O24  1  0.266957  0.843504  0.527414  1
  O  O25  1  0.211310  0.143328  0.995749  1
  O  O26  1  0.221133  0.345851  0.990447  1
  O  O27  1  0.191628  0.544590  0.981721  1
  O  O28  1  0.205470  0.740836  0.001901  1
  O  O29  1  0.218290  0.939918  0.011077  1
  O  O30  1  0.291471  0.042790  0.997470  1
  O  O31  1  0.280210  0.245698  0.993109  1
  O  O32  1  0.306055  0.439827  0.008299  1
  O  O33  1  0.297667  0.835376  0.018762  1
  O  O34  1  0.292508  0.641731  0.999043  1
  O  O35  1  0.746901  0.152626  0.491421  1
  O  O36  1  0.745492  0.349244  0.499583  1
  O  O37  1  0.751232  0.553004  0.490074  1
  O  O38  1  0.750059  0.743626  0.505184  1
  O  O39  1  0.740002  0.954688  0.483485  1
  O  O40  1  0.706704  0.158619  0.997972  1
  O  O41  1  0.711397  0.361504  0.990883  1
  O  O42  1  0.696185  0.557187  0.992238  1
  O  O43  1  0.713965  0.750758  0.031915  1
  O  O44  1  0.720573  0.953887  0.013523  1
  O  O45  1  0.793350  0.057937  0.001948  1
  O  O46  1  0.770233  0.262439  0.989242  1
  O  O47  1  0.795725  0.465839  0.979630  1
  O  O48  1  0.791200  0.656277  0.004646  1
  O  O49  1  0.783829  0.854229  0.005005  1
