# generated using pymatgen
data_Cr(CO)6
_symmetry_space_group_name_H-M   'P 1'
_cell_length_a   6.26524628
_cell_length_b   11.02049336
_cell_length_c   11.61642538
_cell_angle_alpha   90.00000000
_cell_angle_beta   90.00000000
_cell_angle_gamma   90.00000000
_symmetry_Int_Tables_number   1
_chemical_formula_structural   Cr(CO)6
_chemical_formula_sum   'Cr4 C24 O24'
_cell_volume   802.06892683
_cell_formula_units_Z   4
loop_
 _symmetry_equiv_pos_site_id
 _symmetry_equiv_pos_as_xyz
  1  'x, y, z'
loop_
 _atom_site_type_symbol
 _atom_site_label
 _atom_site_symmetry_multiplicity
 _atom_site_fract_x
 _atom_site_fract_y
 _atom_site_fract_z
 _atom_site_occupancy
  Cr  Cr0  1  0.061655  0.250000  0.127421  1
  Cr  Cr1  1  0.561655  0.750000  0.372579  1
  Cr  Cr2  1  0.938345  0.750000  0.872579  1
  Cr  Cr3  1  0.438345  0.250000  0.627421  1
  C  C4  1  0.057428  0.874682  0.775465  1
  C  C5  1  0.942572  0.374682  0.224535  1
  C  C6  1  0.942572  0.125318  0.224535  1
  C  C7  1  0.819823  0.872940  0.971341  1
  C  C8  1  0.680177  0.872940  0.471341  1
  C  C9  1  0.803757  0.250000  0.037461  1
  C  C10  1  0.319823  0.127060  0.528659  1
  C  C11  1  0.180177  0.127060  0.028659  1
  C  C12  1  0.680177  0.627060  0.471341  1
  C  C13  1  0.303757  0.750000  0.462539  1
  C  C14  1  0.180177  0.372940  0.028659  1
  C  C15  1  0.442572  0.874682  0.275465  1
  C  C16  1  0.182561  0.250000  0.718479  1
  C  C17  1  0.696243  0.250000  0.537461  1
  C  C18  1  0.557428  0.374682  0.724535  1
  C  C19  1  0.557428  0.125318  0.724535  1
  C  C20  1  0.196243  0.750000  0.962539  1
  C  C21  1  0.819823  0.627060  0.971341  1
  C  C22  1  0.319823  0.372940  0.528659  1
  C  C23  1  0.442572  0.625318  0.275465  1
  C  C24  1  0.057428  0.625318  0.775465  1
  C  C25  1  0.317439  0.250000  0.218479  1
  C  C26  1  0.682561  0.750000  0.781521  1
  C  C27  1  0.817439  0.750000  0.281521  1
  O  O28  1  0.629426  0.049456  0.781806  1
  O  O29  1  0.870574  0.049456  0.281806  1
  O  O30  1  0.370574  0.950544  0.218194  1
  O  O31  1  0.352811  0.750000  0.015999  1
  O  O32  1  0.249420  0.053258  0.468334  1
  O  O33  1  0.147189  0.750000  0.515999  1
  O  O34  1  0.527987  0.750000  0.726213  1
  O  O35  1  0.647189  0.250000  0.984001  1
  O  O36  1  0.250580  0.053258  0.968334  1
  O  O37  1  0.972013  0.750000  0.226213  1
  O  O38  1  0.129426  0.549456  0.718194  1
  O  O39  1  0.370574  0.549456  0.218194  1
  O  O40  1  0.749420  0.946742  0.031666  1
  O  O41  1  0.249420  0.446742  0.468334  1
  O  O42  1  0.749420  0.553258  0.031666  1
  O  O43  1  0.250580  0.446742  0.968334  1
  O  O44  1  0.129426  0.950544  0.718194  1
  O  O45  1  0.750580  0.946742  0.531666  1
  O  O46  1  0.750580  0.553258  0.531666  1
  O  O47  1  0.629426  0.450544  0.781806  1
  O  O48  1  0.027987  0.250000  0.773787  1
  O  O49  1  0.472013  0.250000  0.273787  1
  O  O50  1  0.870574  0.450544  0.281806  1
  O  O51  1  0.852811  0.250000  0.484001  1
