# generated using pymatgen
data_Li2P2PdO7
_symmetry_space_group_name_H-M   'P 1'
_cell_length_a   6.50310345
_cell_length_b   7.04345775
_cell_length_c   8.12595213
_cell_angle_alpha   115.59510873
_cell_angle_beta   113.62462857
_cell_angle_gamma   89.96834126
_symmetry_Int_Tables_number   1
_chemical_formula_structural   Li2P2PdO7
_chemical_formula_sum   'Li4 P4 Pd2 O14'
_cell_volume   300.76385856
_cell_formula_units_Z   2
loop_
 _symmetry_equiv_pos_site_id
 _symmetry_equiv_pos_as_xyz
  1  'x, y, z'
loop_
 _atom_site_type_symbol
 _atom_site_label
 _atom_site_symmetry_multiplicity
 _atom_site_fract_x
 _atom_site_fract_y
 _atom_site_fract_z
 _atom_site_occupancy
  Li  Li0  1  0.228639  0.728963  0.458416  1
  Li  Li1  1  0.771278  0.268556  0.539241  1
  Li  Li2  1  0.230340  0.228827  0.459602  1
  Li  Li3  1  0.771157  0.769845  0.539138  1
  P  P4  1  0.442745  0.358720  0.220354  1
  P  P5  1  0.222348  0.138078  0.780282  1
  P  P6  1  0.558338  0.639182  0.780322  1
  P  P7  1  0.779148  0.858554  0.220310  1
  Pd  Pd8  1  -0.000425  -0.000184  -0.000005  1
  Pd  Pd9  1  0.000733  0.498460  0.000377  1
  O  O10  1  0.316706  0.177579  0.228906  1
  O  O11  1  0.086340  0.949388  0.771002  1
  O  O12  1  0.915596  0.679110  0.229809  1
  O  O13  1  0.553693  0.749248  0.000604  1
  O  O14  1  0.446803  0.248505  -0.000275  1
  O  O15  1  0.316208  0.554779  0.611906  1
  O  O16  1  0.685129  0.449869  0.772064  1
  O  O17  1  0.316490  0.547898  0.229748  1
  O  O18  1  0.684921  0.443199  0.388514  1
  O  O19  1  0.914850  0.048294  0.229304  1
  O  O20  1  0.295711  0.053682  0.611580  1
  O  O21  1  0.085714  0.318462  0.770535  1
  O  O22  1  0.706475  0.943036  0.389323  1
  O  O23  1  0.684280  0.819070  0.770535  1
