# generated using pymatgen
data_K3Gd3(PS4)4
_symmetry_space_group_name_H-M   'P 1'
_cell_length_a   10.03223006
_cell_length_b   10.03222982
_cell_length_c   14.74725913
_cell_angle_alpha   89.22925574
_cell_angle_beta   89.22925576
_cell_angle_gamma   72.01229974
_symmetry_Int_Tables_number   1
_chemical_formula_structural   K3Gd3(PS4)4
_chemical_formula_sum   'K6 Gd6 P8 S32'
_cell_volume   1411.50630799
_cell_formula_units_Z   2
loop_
 _symmetry_equiv_pos_site_id
 _symmetry_equiv_pos_as_xyz
  1  'x, y, z'
loop_
 _atom_site_type_symbol
 _atom_site_label
 _atom_site_symmetry_multiplicity
 _atom_site_fract_x
 _atom_site_fract_y
 _atom_site_fract_z
 _atom_site_occupancy
  K  K0  1  0.028150  0.387518  0.163079  1
  K  K1  1  0.612482  0.971850  0.336921  1
  K  K2  1  0.387518  0.028150  0.663079  1
  K  K3  1  0.000000  0.000000  0.000000  1
  K  K4  1  0.971850  0.612482  0.836921  1
  K  K5  1  0.000000  0.000000  0.500000  1
  Gd  Gd6  1  0.253590  0.485556  0.511805  1
  Gd  Gd7  1  0.746410  0.514444  0.488195  1
  Gd  Gd8  1  0.485556  0.253590  0.011805  1
  Gd  Gd9  1  0.249221  0.750779  0.250000  1
  Gd  Gd10  1  0.750779  0.249221  0.750000  1
  Gd  Gd11  1  0.514444  0.746410  0.988195  1
  P  P12  1  0.237317  0.601370  0.023365  1
  P  P13  1  0.762683  0.398630  0.976635  1
  P  P14  1  0.398630  0.762683  0.476635  1
  P  P15  1  0.961324  0.668232  0.361421  1
  P  P16  1  0.668232  0.961324  0.861421  1
  P  P17  1  0.601370  0.237317  0.523365  1
  P  P18  1  0.038676  0.331768  0.638579  1
  P  P19  1  0.331768  0.038676  0.138579  1
  S  S20  1  0.270175  0.740507  0.581283  1
  S  S21  1  0.321551  0.052725  0.999640  1
  S  S22  1  0.843449  0.472144  0.671117  1
  S  S23  1  0.052725  0.321551  0.499640  1
  S  S24  1  0.729825  0.259493  0.418717  1
  S  S25  1  0.143826  0.039120  0.194558  1
  S  S26  1  0.527856  0.156551  0.828883  1
  S  S27  1  0.296939  0.923988  0.392634  1
  S  S28  1  0.960880  0.856174  0.305442  1
  S  S29  1  0.156551  0.527856  0.328883  1
  S  S30  1  0.401841  0.194474  0.187020  1
  S  S31  1  0.415780  0.545422  0.104168  1
  S  S32  1  0.454578  0.584220  0.395832  1
  S  S33  1  0.856174  0.960880  0.805442  1
  S  S34  1  0.259493  0.729825  0.918717  1
  S  S35  1  0.703061  0.076012  0.607366  1
  S  S36  1  0.947275  0.678449  0.500360  1
  S  S37  1  0.678449  0.947275  0.000360  1
  S  S38  1  0.923988  0.296939  0.892634  1
  S  S39  1  0.805526  0.598159  0.312980  1
  S  S40  1  0.211891  0.420705  0.974298  1
  S  S41  1  0.579295  0.788109  0.525702  1
  S  S42  1  0.076012  0.703061  0.107366  1
  S  S43  1  0.420705  0.211891  0.474298  1
  S  S44  1  0.039120  0.143826  0.694558  1
  S  S45  1  0.598159  0.805526  0.812980  1
  S  S46  1  0.584220  0.454578  0.895832  1
  S  S47  1  0.545422  0.415780  0.604168  1
  S  S48  1  0.472144  0.843449  0.171117  1
  S  S49  1  0.740507  0.270175  0.081283  1
  S  S50  1  0.788109  0.579295  0.025702  1
  S  S51  1  0.194474  0.401841  0.687020  1
