# generated using pymatgen
data_Al11NO15
_symmetry_space_group_name_H-M   'P 1'
_cell_length_a   5.69357011
_cell_length_b   11.20807951
_cell_length_c   9.79498418
_cell_angle_alpha   30.15362365
_cell_angle_beta   54.30745694
_cell_angle_gamma   59.48584231
_symmetry_Int_Tables_number   1
_chemical_formula_structural   Al11NO15
_chemical_formula_sum   'Al11 N1 O15'
_cell_volume   254.99265789
_cell_formula_units_Z   1
loop_
 _symmetry_equiv_pos_site_id
 _symmetry_equiv_pos_as_xyz
  1  'x, y, z'
loop_
 _atom_site_type_symbol
 _atom_site_label
 _atom_site_symmetry_multiplicity
 _atom_site_fract_x
 _atom_site_fract_y
 _atom_site_fract_z
 _atom_site_occupancy
  Al  Al0  1  0.004502  0.984943  0.007496  1
  Al  Al1  1  0.248477  0.004116  0.249927  1
  Al  Al2  1  0.998658  0.495282  0.998058  1
  Al  Al3  1  0.244612  0.515957  0.241480  1
  Al  Al4  1  0.631814  0.256964  0.118180  1
  Al  Al5  1  0.135937  0.484171  0.638033  1
  Al  Al6  1  0.623674  0.749413  0.126217  1
  Al  Al7  1  0.633292  0.484728  0.627252  1
  Al  Al8  1  0.106912  0.014362  0.623161  1
  Al  Al9  1  0.632250  0.743897  0.630690  1
  Al  Al10  1  0.619317  0.015318  0.622177  1
  N  N11  1  0.865707  0.501365  0.862570  1
  O  O12  1  0.389461  0.999614  0.383931  1
  O  O13  1  0.376116  0.240632  0.382774  1
  O  O14  1  0.848982  0.000008  0.382768  1
  O  O15  1  0.387124  0.979511  0.885630  1
  O  O16  1  0.363386  0.520042  0.368867  1
  O  O17  1  0.384239  0.737710  0.381500  1
  O  O18  1  0.368698  0.265238  0.871267  1
  O  O19  1  0.893702  0.227195  0.381697  1
  O  O20  1  0.880086  0.980347  0.884084  1
  O  O21  1  0.862982  0.519935  0.363310  1
  O  O22  1  0.397404  0.500366  0.866645  1
  O  O23  1  0.382773  0.773223  0.841429  1
  O  O24  1  0.868706  0.255000  0.871124  1
  O  O25  1  0.856130  0.734801  0.400304  1
  O  O26  1  0.870062  0.765862  0.864431  1
