# generated using pymatgen
data_MnGe4H24C8(S5N)2
_symmetry_space_group_name_H-M   'P 1'
_cell_length_a   9.99998524
_cell_length_b   9.99998524
_cell_length_c   9.99998524
_cell_angle_alpha   122.01154805
_cell_angle_beta   122.01154805
_cell_angle_gamma   86.54983479
_symmetry_Int_Tables_number   1
_chemical_formula_structural   MnGe4H24C8(S5N)2
_chemical_formula_sum   'Mn1 Ge4 H24 C8 S10 N2'
_cell_volume   684.25420326
_cell_formula_units_Z   1
loop_
 _symmetry_equiv_pos_site_id
 _symmetry_equiv_pos_as_xyz
  1  'x, y, z'
loop_
 _atom_site_type_symbol
 _atom_site_label
 _atom_site_symmetry_multiplicity
 _atom_site_fract_x
 _atom_site_fract_y
 _atom_site_fract_z
 _atom_site_occupancy
  Mn  Mn0  1  0.250000  0.750000  0.500000  1
  Ge  Ge1  1  0.480321  0.586263  0.243518  1
  Ge  Ge2  1  0.342746  0.236803  0.756482  1
  Ge  Ge3  1  0.763197  0.519679  0.105943  1
  Ge  Ge4  1  0.413737  0.657254  0.894057  1
  H  H5  1  0.001573  0.395692  0.694126  1
  H  H6  1  0.701565  0.307447  0.305874  1
  H  H7  1  0.692553  0.998427  0.394118  1
  H  H8  1  0.604308  0.298435  0.605882  1
  H  H9  1  0.893712  0.439999  0.804016  1
  H  H10  1  0.635983  0.089695  0.195984  1
  H  H11  1  0.910305  0.106288  0.546288  1
  H  H12  1  0.560001  0.364017  0.453712  1
  H  H13  1  0.851543  0.503727  0.649925  1
  H  H14  1  0.853802  0.201618  0.350075  1
  H  H15  1  0.798382  0.148457  0.652184  1
  H  H16  1  0.496273  0.146198  0.347816  1
  H  H17  1  0.844129  0.754892  0.807404  1
  H  H18  1  0.947488  0.036726  0.192596  1
  H  H19  1  0.963274  0.155871  0.910762  1
  H  H20  1  0.245108  0.052512  0.089238  1
  H  H21  1  0.025003  0.808411  0.037251  1
  H  H22  1  0.771160  0.987752  0.962749  1
  H  H23  1  0.012248  0.974997  0.783408  1
  H  H24  1  0.191589  0.228840  0.216592  1
  H  H25  1  0.046477  0.775819  0.855191  1
  H  H26  1  0.920628  0.191287  0.144809  1
  H  H27  1  0.808713  0.953523  0.729342  1
  H  H28  1  0.224181  0.079372  0.270658  1
  C  C29  1  0.884844  0.409971  0.676293  1
  C  C30  1  0.733678  0.208551  0.323707  1
  C  C31  1  0.791449  0.115156  0.525127  1
  C  C32  1  0.590029  0.266322  0.474873  1
  C  C33  1  0.977205  0.820394  0.918240  1
  C  C34  1  0.902154  0.058966  0.081760  1
  C  C35  1  0.941034  0.022795  0.843189  1
  C  C36  1  0.179606  0.097846  0.156811  1
  S  S37  1  0.485693  0.671512  0.498748  1
  S  S38  1  0.172764  0.986946  0.501252  1
  S  S39  1  0.013054  0.514307  0.185819  1
  S  S40  1  0.328488  0.827236  0.814181  1
  S  S41  1  0.750370  0.613189  0.358540  1
  S  S42  1  0.254649  0.391830  0.641460  1
  S  S43  1  0.608170  0.249630  0.862819  1
  S  S44  1  0.386811  0.745351  0.137181  1
  S  S45  1  0.318985  0.318985  0.000000  1
  S  S46  1  0.681015  0.681015  0.000000  1
  N  N47  1  0.750000  0.250000  0.500000  1
  N  N48  1  0.000000  0.000000  0.000000  1
