# generated using pymatgen
data_MnGaNi2
_symmetry_space_group_name_H-M   'P 1'
_cell_length_a   4.15039823
_cell_length_b   5.52558371
_cell_length_c   20.63273319
_cell_angle_alpha   90.00000000
_cell_angle_beta   89.93545102
_cell_angle_gamma   90.00000000
_symmetry_Int_Tables_number   1
_chemical_formula_structural   MnGaNi2
_chemical_formula_sum   'Mn10 Ga10 Ni20'
_cell_volume   473.17786337
_cell_formula_units_Z   10
loop_
 _symmetry_equiv_pos_site_id
 _symmetry_equiv_pos_as_xyz
  1  'x, y, z'
loop_
 _atom_site_type_symbol
 _atom_site_label
 _atom_site_symmetry_multiplicity
 _atom_site_fract_x
 _atom_site_fract_y
 _atom_site_fract_z
 _atom_site_occupancy
  Mn  Mn0  1  0.958875  0.000000  0.800023  1
  Mn  Mn1  1  0.449763  0.500000  0.899985  1
  Mn  Mn2  1  0.041125  0.000000  0.199977  1
  Mn  Mn3  1  0.541125  0.500000  0.699977  1
  Mn  Mn4  1  0.458875  0.500000  0.300023  1
  Mn  Mn5  1  0.550237  0.500000  0.100015  1
  Mn  Mn6  1  0.050237  0.000000  0.600015  1
  Mn  Mn7  1  0.949763  0.000000  0.399985  1
  Mn  Mn8  1  0.000000  0.000000  0.000000  1
  Mn  Mn9  1  0.500000  0.500000  0.500000  1
  Ga  Ga10  1  0.958197  0.500000  0.800190  1
  Ga  Ga11  1  0.448967  0.000000  0.899912  1
  Ga  Ga12  1  0.948967  0.500000  0.399912  1
  Ga  Ga13  1  0.551033  0.000000  0.100088  1
  Ga  Ga14  1  0.541803  0.000000  0.699810  1
  Ga  Ga15  1  0.000000  0.500000  0.000000  1
  Ga  Ga16  1  0.051033  0.500000  0.600088  1
  Ga  Ga17  1  0.500000  0.000000  0.500000  1
  Ga  Ga18  1  0.041803  0.500000  0.199810  1
  Ga  Ga19  1  0.458197  0.000000  0.300190  1
  Ni  Ni20  1  0.454776  0.750198  0.800052  1
  Ni  Ni21  1  0.054414  0.250142  0.099998  1
  Ni  Ni22  1  0.954776  0.250198  0.300052  1
  Ni  Ni23  1  0.000000  0.749855  0.500000  1
  Ni  Ni24  1  0.454776  0.249802  0.800052  1
  Ni  Ni25  1  0.054414  0.749858  0.099998  1
  Ni  Ni26  1  0.045224  0.749802  0.699948  1
  Ni  Ni27  1  0.945586  0.749858  0.900002  1
  Ni  Ni28  1  0.545224  0.750198  0.199948  1
  Ni  Ni29  1  0.954776  0.749802  0.300052  1
  Ni  Ni30  1  0.545224  0.249802  0.199948  1
  Ni  Ni31  1  0.554414  0.249858  0.599998  1
  Ni  Ni32  1  0.500000  0.249855  0.000000  1
  Ni  Ni33  1  0.445586  0.249858  0.400002  1
  Ni  Ni34  1  0.045224  0.250198  0.699948  1
  Ni  Ni35  1  0.945586  0.250142  0.900002  1
  Ni  Ni36  1  0.554414  0.750142  0.599998  1
  Ni  Ni37  1  0.000000  0.250145  0.500000  1
  Ni  Ni38  1  0.500000  0.750145  0.000000  1
  Ni  Ni39  1  0.445586  0.750142  0.400002  1
