# generated using pymatgen
data_C20Cl3
_symmetry_space_group_name_H-M   'P 1'
_cell_length_a   11.20916651
_cell_length_b   11.95060609
_cell_length_c   21.60137752
_cell_angle_alpha   104.30384559
_cell_angle_beta   90.00000000
_cell_angle_gamma   117.96804138
_symmetry_Int_Tables_number   1
_chemical_formula_structural   C20Cl3
_chemical_formula_sum   'C160 Cl24'
_cell_volume   2453.66121040
_cell_formula_units_Z   8
loop_
 _symmetry_equiv_pos_site_id
 _symmetry_equiv_pos_as_xyz
  1  'x, y, z'
loop_
 _atom_site_type_symbol
 _atom_site_label
 _atom_site_symmetry_multiplicity
 _atom_site_fract_x
 _atom_site_fract_y
 _atom_site_fract_z
 _atom_site_occupancy
  C  C0  1  0.704747  0.293479  0.869844  1
  C  C1  1  0.454988  0.699442  0.562676  1
  C  C2  1  0.438072  0.635873  0.668010  1
  C  C3  1  0.637116  0.055154  0.235642  1
  C  C4  1  0.020811  0.064310  0.274018  1
  C  C5  1  0.056029  0.176990  0.753482  1
  C  C6  1  0.017468  0.053066  0.636644  1
  C  C7  1  0.334856  0.897457  0.435314  1
  C  C8  1  0.550300  0.295081  0.156917  1
  C  C9  1  0.120961  0.176990  0.253482  1
  C  C10  1  0.224452  0.283988  0.301092  1
  C  C11  1  0.539560  0.585691  0.652523  1
  C  C12  1  0.018466  0.165741  0.687901  1
  C  C13  1  0.371586  0.352747  0.394950  1
  C  C14  1  0.613742  0.663368  0.775766  1
  C  C15  1  0.147275  0.165741  0.187901  1
  C  C16  1  0.717417  0.014661  0.538626  1
  C  C17  1  0.172146  0.137867  0.435462  1
  C  C18  1  0.632217  0.878148  0.527646  1
  C  C19  1  0.277841  0.244677  0.173186  1
  C  C20  1  0.295253  0.706521  0.130156  1
  C  C21  1  0.981162  0.352747  0.894950  1
  C  C22  1  0.562601  0.897457  0.935314  1
  C  C23  1  0.588733  0.293479  0.369844  1
  C  C24  1  0.768565  0.713407  0.632354  1
  C  C25  1  0.909125  0.997510  0.921560  1
  C  C26  1  0.055157  0.286593  0.867646  1
  C  C27  1  0.105169  0.692864  0.061439  1
  C  C28  1  0.965721  0.137867  0.935462  1
  C  C29  1  0.629796  0.240039  0.174621  1
  C  C30  1  0.474081  0.816545  0.224739  1
  C  C31  1  0.354841  0.887098  0.623707  1
  C  C32  1  0.687896  0.780826  0.895999  1
  C  C33  1  0.411267  0.706521  0.630156  1
  C  C34  1  0.362884  0.944846  0.764358  1
  C  C35  1  0.242502  0.642983  0.229196  1
  C  C36  1  0.092929  0.780826  0.395999  1
  C  C37  1  0.645159  0.112902  0.376293  1
  C  C38  1  0.496664  0.826589  0.545084  1
  C  C39  1  0.002319  0.359059  0.786758  1
  C  C40  1  0.670075  0.173411  0.954916  1
  C  C41  1  0.450956  0.224537  0.104256  1
  C  C42  1  0.960123  0.931205  0.161107  1
  C  C43  1  0.847402  0.382867  0.716459  1
  C  C44  1  0.628414  0.647253  0.605050  1
  C  C45  1  0.090875  0.002490  0.078440  1
  C  C46  1  0.581962  0.944846  0.264358  1
  C  C47  1  0.551416  0.088843  0.427754  1
  C  C48  1  0.110247  0.799235  0.039609  1
  C  C49  1  0.348184  0.728397  0.756437  1
  C  C50  1  0.494872  0.881008  0.361610  1
  C  C51  1  0.468320  0.950304  0.419204  1
  C  C52  1  0.859104  0.077684  0.564370  1
  C  C53  1  0.775548  0.716012  0.698908  1
  C  C54  1  0.599519  0.357017  0.270804  1
  C  C55  1  0.744781  0.295081  0.656917  1
  C  C56  1  0.545012  0.300558  0.437324  1
  C  C57  1  0.722159  0.755323  0.826814  1
  C  C58  1  0.802199  0.364127  0.831990  1
  C  C59  1  0.049626  0.663368  0.275766  1
  C  C60  1  0.039877  0.068795  0.838893  1
  C  C61  1  0.140897  0.922316  0.435630  1
  C  C62  1  0.226419  0.775463  0.395744  1
  C  C63  1  0.382744  0.973118  0.830997  1
  C  C64  1  0.613865  0.118992  0.138390  1
  C  C65  1  0.966836  0.244677  0.673186  1
  C  C66  1  0.549044  0.775463  0.895744  1
  C  C67  1  0.312104  0.219174  0.104001  1
  C  C68  1  0.852725  0.834259  0.812099  1
  C  C69  1  0.460440  0.414309  0.347477  1
  C  C70  1  0.437399  0.102543  0.064686  1
  C  C71  1  0.028918  0.068795  0.338893  1
  C  C72  1  0.467743  0.112902  0.876293  1
  C  C73  1  0.018838  0.647253  0.105050  1
  C  C74  1  0.866866  0.820024  0.613869  1
  C  C75  1  0.651816  0.271603  0.243563  1
  C  C76  1  0.561928  0.364127  0.331990  1
  C  C77  1  0.657536  0.183455  0.275261  1
  C  C78  1  0.773581  0.224537  0.604256  1
  C  C79  1  0.587695  0.692864  0.561439  1
  C  C80  1  0.449700  0.704919  0.843083  1
  C  C81  1  0.956502  0.935690  0.225982  1
  C  C82  1  0.218580  0.077684  0.064370  1
  C  C83  1  0.503336  0.173411  0.454916  1
  C  C84  1  0.448584  0.911157  0.572246  1
  C  C85  1  0.505128  0.118992  0.638390  1
  C  C86  1  0.944843  0.713407  0.132354  1
  C  C87  1  0.665144  0.102543  0.564686  1
  C  C88  1  0.043498  0.064310  0.774018  1
  C  C89  1  0.088385  0.997510  0.421560  1
  C  C90  1  0.342464  0.816545  0.724739  1
  C  C91  1  0.462574  0.911157  0.072246  1
  C  C92  1  0.367783  0.121852  0.472354  1
  C  C93  1  0.971082  0.931205  0.661107  1
  C  C94  1  0.953158  0.820024  0.113869  1
  C  C95  1  0.532257  0.887098  0.123707  1
  C  C96  1  0.152598  0.617133  0.283541  1
  C  C97  1  0.979189  0.935690  0.725982  1
  C  C98  1  0.911615  0.002490  0.578440  1
  C  C99  1  0.997681  0.640941  0.213242  1
  C  C100  1  0.431285  0.795850  0.158502  1
  C  C101  1  0.953869  0.414309  0.847477  1
  C  C102  1  0.568715  0.204150  0.841498  1
  C  C103  1  0.610243  0.240039  0.674621  1
  C  C104  1  0.757498  0.357017  0.770804  1
  C  C105  1  0.059536  0.283988  0.801092  1
  C  C106  1  0.907071  0.219174  0.604001  1
  C  C107  1  0.781420  0.922316  0.935630  1
  C  C108  1  0.386258  0.336632  0.224234  1
  C  C109  1  0.418038  0.055154  0.735642  1
  C  C110  1  0.619788  0.271603  0.743563  1
  C  C111  1  0.950374  0.336632  0.724234  1
  C  C112  1  0.531680  0.049696  0.580796  1
  C  C113  1  0.356739  0.359059  0.286758  1
  C  C114  1  0.389757  0.759961  0.325379  1
  C  C115  1  0.380212  0.728397  0.256437  1
  C  C116  1  0.617256  0.026882  0.169003  1
  C  C117  1  0.033164  0.755323  0.326814  1
  C  C118  1  0.046131  0.585691  0.152523  1
  C  C119  1  0.255219  0.704919  0.343083  1
  C  C120  1  0.889753  0.200765  0.960391  1
  C  C121  1  0.133134  0.179976  0.386131  1
  C  C122  1  0.282583  0.985339  0.461374  1
  C  C123  1  0.688988  0.799235  0.539609  1
  C  C124  1  0.481984  0.950304  0.919204  1
  C  C125  1  0.537427  0.088843  0.927754  1
  C  C126  1  0.879039  0.823010  0.746518  1
  C  C127  1  0.244455  0.699442  0.062676  1
  C  C128  1  0.982532  0.946934  0.363356  1
  C  C129  1  0.535465  0.382867  0.216459  1
  C  C130  1  0.197801  0.635873  0.168010  1
  C  C131  1  0.370204  0.759961  0.825379  1
  C  C132  1  0.754070  0.121852  0.972354  1
  C  C133  1  0.827854  0.862133  0.564538  1
  C  C134  1  0.525919  0.183455  0.775261  1
  C  C135  1  0.034279  0.862133  0.064538  1
  C  C136  1  0.329925  0.826589  0.045084  1
  C  C137  1  0.981534  0.834259  0.312099  1
  C  C138  1  0.464535  0.617133  0.783541  1
  C  C139  1  0.046842  0.179976  0.886131  1
  C  C140  1  0.755545  0.300558  0.937324  1
  C  C141  1  0.590374  0.973118  0.330997  1
  C  C142  1  0.894831  0.307136  0.938561  1
  C  C143  1  0.412305  0.307136  0.438561  1
  C  C144  1  0.409626  0.026882  0.669003  1
  C  C145  1  0.386135  0.881008  0.861610  1
  C  C146  1  0.311012  0.200765  0.460391  1
  C  C147  1  0.245930  0.878148  0.027646  1
  C  C148  1  0.635434  0.204150  0.341498  1
  C  C149  1  0.035598  0.053066  0.136644  1
  C  C150  1  0.943971  0.823010  0.246518  1
  C  C151  1  0.231435  0.286593  0.367646  1
  C  C152  1  0.400481  0.642983  0.729196  1
  C  C153  1  0.364566  0.795850  0.658502  1
  C  C154  1  0.518016  0.049696  0.080796  1
  C  C155  1  0.297244  0.014661  0.038626  1
  C  C156  1  0.964402  0.946934  0.863356  1
  C  C157  1  0.940464  0.716012  0.198908  1
  C  C158  1  0.702756  0.985339  0.961374  1
  C  C159  1  0.643261  0.640941  0.713242  1
  Cl  Cl160  1  0.620597  0.554739  0.214710  1
  Cl  Cl161  1  0.175160  0.809106  0.587882  1
  Cl  Cl162  1  0.248590  0.559948  0.004931  1
  Cl  Cl163  1  0.751410  0.440052  0.995069  1
  Cl  Cl164  1  0.302948  0.340038  0.068382  1
  Cl  Cl165  1  0.077822  0.888144  0.887140  1
  Cl  Cl166  1  0.934142  0.554739  0.714710  1
  Cl  Cl167  1  0.311358  0.559948  0.504931  1
  Cl  Cl168  1  0.037090  0.340038  0.568382  1
  Cl  Cl169  1  0.697052  0.659962  0.931618  1
  Cl  Cl170  1  0.546779  0.593598  0.376608  1
  Cl  Cl171  1  0.453221  0.406402  0.623392  1
  Cl  Cl172  1  0.366055  0.190894  0.912118  1
  Cl  Cl173  1  0.189678  0.111856  0.612860  1
  Cl  Cl174  1  0.962910  0.659962  0.431618  1
  Cl  Cl175  1  0.065858  0.445261  0.285290  1
  Cl  Cl176  1  0.046819  0.593598  0.876608  1
  Cl  Cl177  1  0.824840  0.190894  0.412118  1
  Cl  Cl178  1  0.810322  0.888144  0.387140  1
  Cl  Cl179  1  0.688642  0.440052  0.495069  1
  Cl  Cl180  1  0.953181  0.406402  0.123392  1
  Cl  Cl181  1  0.633945  0.809106  0.087882  1
  Cl  Cl182  1  0.379403  0.445261  0.785290  1
  Cl  Cl183  1  0.922178  0.111856  0.112860  1
