# generated using pymatgen
data_W43N38
_symmetry_space_group_name_H-M   'P 1'
_cell_length_a   7.94539901
_cell_length_b   7.94539926
_cell_length_c   151.28650206
_cell_angle_alpha   20.74338779
_cell_angle_beta   20.74338309
_cell_angle_gamma   21.02731532
_symmetry_Int_Tables_number   1
_chemical_formula_structural   W43N38
_chemical_formula_sum   'W43 N38'
_cell_volume   1058.03840848
_cell_formula_units_Z   1
loop_
 _symmetry_equiv_pos_site_id
 _symmetry_equiv_pos_as_xyz
  1  'x, y, z'
loop_
 _atom_site_type_symbol
 _atom_site_label
 _atom_site_symmetry_multiplicity
 _atom_site_fract_x
 _atom_site_fract_y
 _atom_site_fract_z
 _atom_site_occupancy
  W  W0  1  0.009625  0.009625  0.000027  1
  W  W1  1  0.001850  0.001850  0.052391  1
  W  W2  1  0.118665  0.118665  0.059004  1
  W  W3  1  0.036383  0.036383  0.102739  1
  W  W4  1  0.878711  0.878711  0.046328  1
  W  W5  1  0.996952  0.996952  0.159442  1
  W  W6  1  0.867799  0.867799  0.100290  1
  W  W7  1  0.009723  0.009723  0.210437  1
  W  W8  1  0.877948  0.877948  0.152037  1
  W  W9  1  0.874630  0.874630  0.204905  1
  W  W10  1  0.008414  0.008414  0.315861  1
  W  W11  1  0.008159  0.008159  0.263536  1
  W  W12  1  0.874473  0.874473  0.257434  1
  W  W13  1  0.876021  0.876021  0.309896  1
  W  W14  1  0.012772  0.012772  0.420769  1
  W  W15  1  0.011908  0.011908  0.368259  1
  W  W16  1  0.875691  0.875691  0.362557  1
  W  W17  1  0.875708  0.875708  0.415189  1
  W  W18  1  0.012468  0.012468  0.473435  1
  W  W19  1  0.874563  0.874563  0.467963  1
  W  W20  1  0.014152  0.014152  0.525867  1
  W  W21  1  0.872716  0.872716  0.520856  1
  W  W22  1  0.994445  0.994445  0.633015  1
  W  W23  1  0.011982  0.011982  0.579008  1
  W  W24  1  0.872329  0.872329  0.573599  1
  W  W25  1  0.111941  0.111941  0.691165  1
  W  W26  1  0.875831  0.875831  0.625557  1
  W  W27  1  0.875746  0.875746  0.678015  1
  W  W28  1  0.002120  0.002120  0.789259  1
  W  W29  1  0.011791  0.011791  0.736671  1
  W  W30  1  0.000332  0.000332  0.684023  1
  W  W31  1  0.115505  0.115505  0.796196  1
  W  W32  1  0.867708  0.867708  0.731630  1
  W  W33  1  0.017790  0.017790  0.841345  1
  W  W34  1  0.876184  0.876184  0.783407  1
  W  W35  1  0.125025  0.125025  0.900451  1
  W  W36  1  0.872331  0.872331  0.836411  1
  W  W37  1  -0.000270  -0.000270  0.894773  1
  W  W38  1  0.113152  0.113152  0.954222  1
  W  W39  1  0.884589  0.884589  0.887887  1
  W  W40  1  0.005815  0.005815  0.946631  1
  W  W41  1  0.876232  0.876232  0.941270  1
  W  W42  1  0.866331  0.866331  0.995141  1
  N  N43  1  0.281442  0.281442  0.013307  1
  N  N44  1  0.270279  0.270279  0.066994  1
  N  N45  1  0.724647  0.724647  0.038400  1
  N  N46  1  0.277347  0.277347  0.118991  1
  N  N47  1  0.745750  0.745750  0.089154  1
  N  N48  1  0.272867  0.272867  0.172187  1
  N  N49  1  0.729503  0.729503  0.141805  1
  N  N50  1  0.270213  0.270213  0.224905  1
  N  N51  1  0.721847  0.721847  0.196166  1
  N  N52  1  0.272492  0.272492  0.277288  1
  N  N53  1  0.717647  0.717647  0.248956  1
  N  N54  1  0.272566  0.272566  0.329901  1
  N  N55  1  0.719636  0.719636  0.301482  1
  N  N56  1  0.272677  0.272677  0.382502  1
  N  N57  1  0.718687  0.718687  0.354186  1
  N  N58  1  0.271659  0.271659  0.435237  1
  N  N59  1  0.720240  0.720240  0.406672  1
  N  N60  1  0.271059  0.271059  0.487970  1
  N  N61  1  0.720386  0.720386  0.459236  1
  N  N62  1  0.270767  0.270767  0.540706  1
  N  N63  1  0.719427  0.719427  0.511972  1
  N  N64  1  0.268902  0.268902  0.593570  1
  N  N65  1  0.717421  0.717421  0.564822  1
  N  N66  1  0.278158  0.278158  0.645001  1
  N  N67  1  0.714091  0.714091  0.617526  1
  N  N68  1  0.268633  0.268633  0.698631  1
  N  N69  1  0.712097  0.712097  0.671285  1
  N  N70  1  0.281402  0.281402  0.750054  1
  N  N71  1  0.733814  0.733814  0.721583  1
  N  N72  1  0.269069  0.269069  0.803993  1
  N  N73  1  0.719909  0.719909  0.775720  1
  N  N74  1  0.281550  0.281550  0.855585  1
  N  N75  1  0.738106  0.738106  0.826497  1
  N  N76  1  0.277235  0.277235  0.908368  1
  N  N77  1  0.722788  0.722788  0.880731  1
  N  N78  1  0.269115  0.269115  0.961920  1
  N  N79  1  0.722809  0.722809  0.933628  1
  N  N80  1  0.737525  0.737525  0.984167  1
