# generated using pymatgen
data_K3(VS2)5
_symmetry_space_group_name_H-M   'P 1'
_cell_length_a   39.86596808
_cell_length_b   23.43974880
_cell_length_c   15.58300877
_cell_angle_alpha   11.02913475
_cell_angle_beta   12.25354078
_cell_angle_gamma   8.10737896
_symmetry_Int_Tables_number   1
_chemical_formula_structural   K3(VS2)5
_chemical_formula_sum   'K3 V5 S10'
_cell_volume   384.62551496
_cell_formula_units_Z   1
loop_
 _symmetry_equiv_pos_site_id
 _symmetry_equiv_pos_as_xyz
  1  'x, y, z'
loop_
 _atom_site_type_symbol
 _atom_site_label
 _atom_site_symmetry_multiplicity
 _atom_site_fract_x
 _atom_site_fract_y
 _atom_site_fract_z
 _atom_site_occupancy
  K  K0  1  0.069271  0.820288  0.845254  1
  K  K1  1  0.248065  0.851557  0.848775  1
  K  K2  1  0.458814  0.845139  0.836195  1
  V  V3  1  0.985121  0.016240  0.011861  1
  V  V4  1  0.203765  0.008239  0.977109  1
  V  V5  1  0.424809  0.930674  0.041426  1
  V  V6  1  0.609281  0.956457  0.040282  1
  V  V7  1  0.784604  0.068849  0.935662  1
  S  S8  1  0.041188  0.404065  0.375393  1
  S  S9  1  0.241673  0.397741  0.388505  1
  S  S10  1  0.161427  0.601341  0.608314  1
  S  S11  1  0.446646  0.386152  0.392807  1
  S  S12  1  0.360877  0.589908  0.622452  1
  S  S13  1  0.646317  0.376959  0.411384  1
  S  S14  1  0.561719  0.604468  0.592555  1
  S  S15  1  0.845104  0.403343  0.376461  1
  S  S16  1  0.759267  0.621731  0.578722  1
  S  S17  1  0.956050  0.606851  0.606845  1
