# generated using pymatgen
data_K2NbCl3
_symmetry_space_group_name_H-M   'P 1'
_cell_length_a   7.33102170
_cell_length_b   7.55478606
_cell_length_c   41.54384005
_cell_angle_alpha   91.12782100
_cell_angle_beta   97.94122719
_cell_angle_gamma   82.38866405
_symmetry_Int_Tables_number   1
_chemical_formula_structural   K2NbCl3
_chemical_formula_sum   'K20 Nb10 Cl30'
_cell_volume   2258.73177945
_cell_formula_units_Z   10
loop_
 _symmetry_equiv_pos_site_id
 _symmetry_equiv_pos_as_xyz
  1  'x, y, z'
loop_
 _atom_site_type_symbol
 _atom_site_label
 _atom_site_symmetry_multiplicity
 _atom_site_fract_x
 _atom_site_fract_y
 _atom_site_fract_z
 _atom_site_occupancy
  K  K0  1  0.197190  0.112141  0.172726  1
  K  K1  1  0.944032  0.012135  0.556995  1
  K  K2  1  0.036128  0.063320  0.357942  1
  K  K3  1  -0.004404  0.008074  0.758176  1
  K  K4  1  0.950018  0.969976  0.956655  1
  K  K5  1  0.537609  0.518806  0.052638  1
  K  K6  1  0.608627  0.566447  0.253268  1
  K  K7  1  0.466458  0.534475  0.434609  1
  K  K8  1  0.600956  0.529250  0.650947  1
  K  K9  1  0.514336  0.497549  0.845672  1
  K  K10  1  0.458497  0.497154  0.159044  1
  K  K11  1  0.307457  0.452390  0.322507  1
  K  K12  1  0.531083  0.567064  0.545160  1
  K  K13  1  0.611202  0.514130  0.746478  1
  K  K14  1  0.568145  0.527807  0.949196  1
  K  K15  1  0.951066  0.018543  0.062393  1
  K  K16  1  0.011530  0.096532  0.259498  1
  K  K17  1  0.023316  0.095140  0.446632  1
  K  K18  1  0.954338  0.002940  0.652440  1
  K  K19  1  0.981083  0.977739  0.855519  1
  Nb  Nb20  1  0.476342  0.040113  -0.000433  1
  Nb  Nb21  1  0.718244  0.002545  0.154290  1
  Nb  Nb22  1  0.588492  0.826572  0.356980  1
  Nb  Nb23  1  0.444928  0.015399  0.605137  1
  Nb  Nb24  1  0.496231  0.988360  0.789693  1
  Nb  Nb25  1  0.973856  0.479561  0.114058  1
  Nb  Nb26  1  0.778264  0.553086  0.359037  1
  Nb  Nb27  1  0.011312  0.521985  0.504687  1
  Nb  Nb28  1  0.107822  0.505712  0.728131  1
  Nb  Nb29  1  0.035263  0.470908  0.913471  1
  Cl  Cl30  1  0.254441  0.681653  0.897781  1
  Cl  Cl31  1  0.300758  0.877030  0.034994  1
  Cl  Cl32  1  0.342585  0.934583  0.308985  1
  Cl  Cl33  1  0.369842  0.885976  0.400287  1
  Cl  Cl34  1  0.358844  0.986224  0.544079  1
  Cl  Cl35  1  0.366159  0.893294  0.655061  1
  Cl  Cl36  1  0.248031  0.172058  0.816276  1
  Cl  Cl37  1  0.263047  0.235668  0.954387  1
  Cl  Cl38  1  0.743403  0.250466  0.113666  1
  Cl  Cl39  1  0.777621  0.330951  0.309598  1
  Cl  Cl40  1  0.799460  0.290228  0.500276  1
  Cl  Cl41  1  0.786798  0.256577  0.903706  1
  Cl  Cl42  1  0.878028  0.290498  0.703152  1
  Cl  Cl43  1  0.745167  0.231224  0.199916  1
  Cl  Cl44  1  0.730184  0.246727  0.002318  1
  Cl  Cl45  1  0.658477  0.250025  0.595703  1
  Cl  Cl46  1  0.688044  0.302403  0.390601  1
  Cl  Cl47  1  0.716332  0.225699  0.800726  1
  Cl  Cl48  1  0.664832  0.780421  0.195446  1
  Cl  Cl49  1  0.737122  0.777806  0.009103  1
  Cl  Cl50  1  0.743623  0.767997  0.601700  1
  Cl  Cl51  1  0.848486  0.786113  0.403909  1
  Cl  Cl52  1  0.777458  0.754537  0.798004  1
  Cl  Cl53  1  0.768624  0.776189  0.109243  1
  Cl  Cl54  1  0.844040  0.786786  0.317634  1
  Cl  Cl55  1  0.856151  0.819568  0.491818  1
  Cl  Cl56  1  0.860010  0.748741  0.703995  1
  Cl  Cl57  1  0.774948  0.723560  0.897719  1
  Cl  Cl58  1  0.253772  0.378564  0.235146  1
  Cl  Cl59  1  0.148296  0.408582  0.386338  1
