# generated using pymatgen
data_RbCuPdF5
_symmetry_space_group_name_H-M   'P 1'
_cell_length_a   6.32015151
_cell_length_b   7.37562790
_cell_length_c   10.95104314
_cell_angle_alpha   89.97686908
_cell_angle_beta   89.93903528
_cell_angle_gamma   89.93713233
_symmetry_Int_Tables_number   1
_chemical_formula_structural   RbCuPdF5
_chemical_formula_sum   'Rb4 Cu4 Pd4 F20'
_cell_volume   510.48317815
_cell_formula_units_Z   4
loop_
 _symmetry_equiv_pos_site_id
 _symmetry_equiv_pos_as_xyz
  1  'x, y, z'
loop_
 _atom_site_type_symbol
 _atom_site_label
 _atom_site_symmetry_multiplicity
 _atom_site_fract_x
 _atom_site_fract_y
 _atom_site_fract_z
 _atom_site_occupancy
  Rb  Rb0  1  0.975218  0.250147  0.355502  1
  Rb  Rb1  1  0.524798  0.749920  0.855500  1
  Rb  Rb2  1  0.024763  0.749853  0.644598  1
  Rb  Rb3  1  0.475183  0.250080  0.144402  1
  Cu  Cu4  1  0.499945  0.999958  0.499974  1
  Cu  Cu5  1  0.999951  0.999958  0.000028  1
  Cu  Cu6  1  0.499941  0.500044  0.499973  1
  Cu  Cu7  1  0.999939  0.500048  0.000025  1
  Pd  Pd8  1  0.196117  0.750048  0.293681  1
  Pd  Pd9  1  0.696038  0.750061  0.206354  1
  Pd  Pd10  1  0.303958  0.249940  0.793840  1
  Pd  Pd11  1  0.803883  0.249953  0.706125  1
  F  F12  1  0.168601  0.553535  0.170650  1
  F  F13  1  0.717284  0.938402  0.073803  1
  F  F14  1  0.831432  0.446472  0.829370  1
  F  F15  1  0.217149  0.561654  0.426222  1
  F  F16  1  0.782499  0.061504  0.573594  1
  F  F17  1  0.033139  0.750143  0.937677  1
  F  F18  1  0.282814  0.438385  0.926374  1
  F  F19  1  0.668679  0.553419  0.329364  1
  F  F20  1  0.966835  0.249858  0.062374  1
  F  F21  1  0.168637  0.946560  0.170577  1
  F  F22  1  0.782894  0.438490  0.573574  1
  F  F23  1  0.831389  0.053429  0.829439  1
  F  F24  1  0.668559  0.946506  0.329444  1
  F  F25  1  0.331365  0.446581  0.670618  1
  F  F26  1  0.533160  0.750280  0.562340  1
  F  F27  1  0.282764  0.061457  0.926402  1
  F  F28  1  0.331465  0.053490  0.670532  1
  F  F29  1  0.217547  0.938346  0.426203  1
  F  F30  1  0.466822  0.249720  0.437611  1
  F  F31  1  0.717230  0.561760  0.073829  1
