# generated using pymatgen
data_Sn2As2H22C7(ClO2)2
_symmetry_space_group_name_H-M   'P 1'
_cell_length_a   8.26517528
_cell_length_b   7.84403599
_cell_length_c   8.28261356
_cell_angle_alpha   72.72067537
_cell_angle_beta   88.09039559
_cell_angle_gamma   80.54430385
_symmetry_Int_Tables_number   1
_chemical_formula_structural   Sn2As2H22C7(ClO2)2
_chemical_formula_sum   'Sn2 As2 H22 C7 Cl2 O4'
_cell_volume   505.71116095
_cell_formula_units_Z   1
loop_
 _symmetry_equiv_pos_site_id
 _symmetry_equiv_pos_as_xyz
  1  'x, y, z'
loop_
 _atom_site_type_symbol
 _atom_site_label
 _atom_site_symmetry_multiplicity
 _atom_site_fract_x
 _atom_site_fract_y
 _atom_site_fract_z
 _atom_site_occupancy
  Sn  Sn0  1  0.169113  0.932113  0.481086  1
  Sn  Sn1  1  0.775059  0.089160  0.417610  1
  As  As2  1  0.237100  0.178642  0.054190  1
  As  As3  1  0.838515  0.702924  0.653869  1
  H  H4  1  0.022928  0.427844  0.108151  1
  H  H5  1  0.083913  0.316679  0.602054  1
  H  H6  1  0.116989  0.109887  0.957536  1
  H  H7  1  0.210795  0.577074  0.661375  1
  H  H8  1  0.224996  0.580388  0.443360  1
  H  H9  1  0.345805  0.223802  0.895454  1
  H  H10  1  0.395035  0.519011  0.107374  1
  H  H11  1  0.333600  0.116150  0.673541  1
  H  H12  1  0.361243  0.771070  0.120319  1
  H  H13  1  0.393100  0.621638  0.549971  1
  H  H14  1  0.620146  0.431013  0.443139  1
  H  H15  1  0.577416  0.138096  0.792787  1
  H  H16  1  0.665060  0.146670  0.770308  1
  H  H17  1  0.596952  0.803444  0.424318  1
  H  H18  1  0.679664  0.446844  0.877368  1
  H  H19  1  0.611803  0.825413  0.017629  1
  H  H20  1  0.994389  0.315885  0.590078  1
  H  H21  1  0.817531  0.459069  0.332491  1
  H  H22  1  0.911304  0.916865  0.933013  1
  H  H23  1  0.906201  0.666401  0.487391  1
  H  H24  1  0.083614  0.495896  0.891235  1
  H  H25  1  0.956514  0.844224  0.164112  1
  C  C26  1  0.126154  0.427262  0.021896  1
  C  C27  1  0.350276  0.104200  0.543679  1
  C  C28  1  0.259382  0.641625  0.537028  1
  C  C29  1  0.740109  0.367817  0.410387  1
  C  C30  1  0.868575  0.858674  0.062655  1
  C  C31  1  0.627699  0.848498  0.533355  1
  C  C32  1  0.721524  0.817870  0.090933  1
  Cl  Cl33  1  0.259174  0.634646  0.078934  1
  Cl  Cl34  1  0.638176  0.376710  0.032662  1
  O  O35  1  0.992732  0.058189  0.300936  1
  O  O36  1  0.413598  0.213228  0.430874  1
  O  O37  1  0.509030  0.880975  0.635480  1
  O  O38  1  0.941083  0.903700  0.636423  1
