# generated using pymatgen
data_NaCe4I7N2
_symmetry_space_group_name_H-M   'P 1'
_cell_length_a   11.18002698
_cell_length_b   11.92581390
_cell_length_c   14.33055019
_cell_angle_alpha   89.99324038
_cell_angle_beta   89.82573172
_cell_angle_gamma   90.01163463
_symmetry_Int_Tables_number   1
_chemical_formula_structural   NaCe4I7N2
_chemical_formula_sum   'Na4 Ce16 I28 N8'
_cell_volume   1910.69656666
_cell_formula_units_Z   4
loop_
 _symmetry_equiv_pos_site_id
 _symmetry_equiv_pos_as_xyz
  1  'x, y, z'
loop_
 _atom_site_type_symbol
 _atom_site_label
 _atom_site_symmetry_multiplicity
 _atom_site_fract_x
 _atom_site_fract_y
 _atom_site_fract_z
 _atom_site_occupancy
  Na  Na0  1  0.047286  0.249740  0.906441  1
  Na  Na1  1  0.952624  0.749738  0.093579  1
  Na  Na2  1  0.546871  0.749754  0.593413  1
  Na  Na3  1  0.452947  0.249741  0.406598  1
  Ce  Ce4  1  0.120501  0.313109  0.587148  1
  Ce  Ce5  1  0.379307  0.313320  0.087191  1
  Ce  Ce6  1  0.879010  0.813694  0.412923  1
  Ce  Ce7  1  0.623207  0.077198  0.085173  1
  Ce  Ce8  1  0.124011  0.577323  0.414448  1
  Ce  Ce9  1  0.913590  0.319289  0.398761  1
  Ce  Ce10  1  0.585848  0.319796  0.898691  1
  Ce  Ce11  1  0.085826  0.819826  0.601300  1
  Ce  Ce12  1  0.876336  0.077241  0.585609  1
  Ce  Ce13  1  0.395509  0.056582  0.912280  1
  Ce  Ce14  1  0.377030  0.577526  0.914953  1
  Ce  Ce15  1  0.895572  0.556740  0.587585  1
  Ce  Ce16  1  0.104282  0.056724  0.412270  1
  Ce  Ce17  1  0.604844  0.556873  0.087856  1
  Ce  Ce18  1  0.620971  0.813267  0.912671  1
  Ce  Ce19  1  0.414354  0.819709  0.101413  1
  I  I20  1  0.099758  0.829756  0.264828  1
  I  I21  1  0.316050  0.298450  0.798685  1
  I  I22  1  0.311891  0.788903  0.470737  1
  I  I23  1  0.869952  0.087327  0.275200  1
  I  I24  1  0.348937  0.458013  0.518080  1
  I  I25  1  0.317661  0.110182  0.551880  1
  I  I26  1  0.599373  0.329680  0.235033  1
  I  I27  1  0.815566  0.798538  0.701170  1
  I  I28  1  0.573818  0.536910  0.750531  1
  I  I29  1  0.188631  0.788649  0.971114  1
  I  I30  1  0.181686  0.110483  0.052180  1
  I  I31  1  0.129860  0.587652  0.724600  1
  I  I32  1  0.818345  0.610477  0.947744  1
  I  I33  1  0.151466  0.458079  0.018311  1
  I  I34  1  0.400714  0.829691  0.765047  1
  I  I35  1  0.184386  0.298314  0.298756  1
  I  I36  1  0.369349  0.587258  0.225091  1
  I  I37  1  0.630737  0.087339  0.774897  1
  I  I38  1  0.848611  0.958089  0.981635  1
  I  I39  1  0.926789  0.536633  0.250788  1
  I  I40  1  0.682293  0.610410  0.448167  1
  I  I41  1  0.650925  0.958257  0.482061  1
  I  I42  1  0.688051  0.288637  0.529388  1
  I  I43  1  0.426163  0.036696  0.249327  1
  I  I44  1  0.683959  0.798393  0.201381  1
  I  I45  1  0.900038  0.329755  0.735139  1
  I  I46  1  0.811542  0.288782  0.028990  1
  I  I47  1  0.073230  0.036827  0.749281  1
  N  N48  1  0.003421  0.191264  0.497118  1
  N  N49  1  0.987089  0.942511  0.503533  1
  N  N50  1  0.996475  0.691328  0.502606  1
  N  N51  1  0.512771  0.942254  0.003249  1
  N  N52  1  0.487541  0.442552  0.996801  1
  N  N53  1  0.496309  0.191279  0.997037  1
  N  N54  1  0.012662  0.442343  0.496252  1
  N  N55  1  0.504024  0.691459  0.003060  1
