# generated using pymatgen
data_LiAlSiH2O5
_symmetry_space_group_name_H-M   'P 1'
_cell_length_a   5.07286790
_cell_length_b   8.47431274
_cell_length_c   12.00864356
_cell_angle_alpha   90.00000000
_cell_angle_beta   90.00000000
_cell_angle_gamma   90.00000000
_symmetry_Int_Tables_number   1
_chemical_formula_structural   LiAlSiH2O5
_chemical_formula_sum   'Li4 Al4 Si4 H8 O20'
_cell_volume   516.24040748
_cell_formula_units_Z   4
loop_
 _symmetry_equiv_pos_site_id
 _symmetry_equiv_pos_as_xyz
  1  'x, y, z'
loop_
 _atom_site_type_symbol
 _atom_site_label
 _atom_site_symmetry_multiplicity
 _atom_site_fract_x
 _atom_site_fract_y
 _atom_site_fract_z
 _atom_site_occupancy
  Li  Li0  1  0.046317  0.768586  0.599677  1
  Li  Li1  1  0.546317  0.268586  0.900323  1
  Li  Li2  1  0.546317  0.231414  0.400323  1
  Li  Li3  1  0.046317  0.731414  0.099677  1
  Al  Al4  1  0.765821  0.646257  0.345035  1
  Al  Al5  1  0.265821  0.146257  0.154965  1
  Al  Al6  1  0.765821  0.853743  0.845035  1
  Al  Al7  1  0.265821  0.353743  0.654965  1
  Si  Si8  1  0.223361  0.459529  0.280051  1
  Si  Si9  1  0.723361  0.959529  0.219949  1
  Si  Si10  1  0.723361  0.540471  0.719949  1
  Si  Si11  1  0.223361  0.040471  0.780051  1
  H  H12  1  0.949928  0.046931  0.635308  1
  H  H13  1  0.449928  0.546931  0.864692  1
  H  H14  1  0.449928  0.953069  0.364692  1
  H  H15  1  0.281219  0.131585  0.553243  1
  H  H16  1  0.781219  0.868415  0.446757  1
  H  H17  1  0.781219  0.631585  0.946757  1
  H  H18  1  0.949928  0.453069  0.135308  1
  H  H19  1  0.281219  0.368415  0.053243  1
  O  O20  1  0.453532  0.528208  0.648177  1
  O  O21  1  0.953532  0.028208  0.851823  1
  O  O22  1  0.339557  0.260575  0.034541  1
  O  O23  1  0.118225  -0.008087  0.646597  1
  O  O24  1  0.941206  0.086269  0.182033  1
  O  O25  1  0.941206  0.413731  0.682033  1
  O  O26  1  0.840132  0.719414  0.731853  1
  O  O27  1  0.840132  0.780586  0.231853  1
  O  O28  1  0.441206  0.586269  0.317967  1
  O  O29  1  0.441206  0.913731  0.817967  1
  O  O30  1  0.839557  0.739425  0.965459  1
  O  O31  1  0.339557  0.239425  0.534541  1
  O  O32  1  0.839557  0.760575  0.465459  1
  O  O33  1  0.340132  0.219414  0.768147  1
  O  O34  1  0.953532  0.471792  0.351823  1
  O  O35  1  0.118225  0.508087  0.146597  1
  O  O36  1  0.618225  0.008087  0.353403  1
  O  O37  1  0.340132  0.280586  0.268147  1
  O  O38  1  0.453532  0.971792  0.148177  1
  O  O39  1  0.618225  0.491913  0.853403  1
