# generated using pymatgen
data_Sc5(In2Ni)2
_symmetry_space_group_name_H-M   'P 1'
_cell_length_a   3.60921537
_cell_length_b   8.00631162
_cell_length_c   18.67074901
_cell_angle_alpha   90.20039694
_cell_angle_beta   89.04511617
_cell_angle_gamma   89.41324957
_symmetry_Int_Tables_number   1
_chemical_formula_structural   Sc5(In2Ni)2
_chemical_formula_sum   'Sc10 In8 Ni4'
_cell_volume   539.41251292
_cell_formula_units_Z   2
loop_
 _symmetry_equiv_pos_site_id
 _symmetry_equiv_pos_as_xyz
  1  'x, y, z'
loop_
 _atom_site_type_symbol
 _atom_site_label
 _atom_site_symmetry_multiplicity
 _atom_site_fract_x
 _atom_site_fract_y
 _atom_site_fract_z
 _atom_site_occupancy
  Sc  Sc0  1  -0.002052  0.886868  0.595027  1
  Sc  Sc1  1  -0.000772  0.386180  0.903976  1
  Sc  Sc2  1  0.000279  0.614541  0.094837  1
  Sc  Sc3  1  0.998903  0.113759  0.405750  1
  Sc  Sc4  1  0.999526  -0.000369  0.000740  1
  Sc  Sc5  1  -0.000716  0.240280  0.723116  1
  Sc  Sc6  1  -0.001036  0.256898  0.222401  1
  Sc  Sc7  1  0.001877  0.741899  0.776506  1
  Sc  Sc8  1  0.001151  0.500067  0.500456  1
  Sc  Sc9  1  -0.002860  0.758706  0.277220  1
  In  In10  1  0.499923  0.803998  0.430632  1
  In  In11  1  0.500195  0.302407  0.069136  1
  In  In12  1  0.503369  0.071612  0.844042  1
  In  In13  1  0.501134  0.928367  0.156239  1
  In  In14  1  0.498463  0.695995  0.929572  1
  In  In15  1  0.502864  0.571634  0.656113  1
  In  In16  1  0.499244  0.429599  0.344267  1
  In  In17  1  0.500553  0.196751  0.570388  1
  Ni  Ni18  1  0.499608  0.534102  0.193545  1
  Ni  Ni19  1  0.500104  0.465583  0.806535  1
  Ni  Ni20  1  0.500493  0.968558  0.692969  1
  Ni  Ni21  1  0.499749  0.032567  0.306537  1
