# generated using pymatgen
data_KAgCO3
_symmetry_space_group_name_H-M   'P 1'
_cell_length_a   5.98425579
_cell_length_b   5.90668778
_cell_length_c   11.03671848
_cell_angle_alpha   104.53365137
_cell_angle_beta   105.77327780
_cell_angle_gamma   89.87824184
_symmetry_Int_Tables_number   1
_chemical_formula_structural   KAgCO3
_chemical_formula_sum   'K4 Ag4 C4 O12'
_cell_volume   362.49719384
_cell_formula_units_Z   4
loop_
 _symmetry_equiv_pos_site_id
 _symmetry_equiv_pos_as_xyz
  1  'x, y, z'
loop_
 _atom_site_type_symbol
 _atom_site_label
 _atom_site_symmetry_multiplicity
 _atom_site_fract_x
 _atom_site_fract_y
 _atom_site_fract_z
 _atom_site_occupancy
  K  K0  1  0.678839  0.426763  0.356964  1
  K  K1  1  0.318929  0.568398  0.642518  1
  K  K2  1  0.821182  0.070266  0.641028  1
  K  K3  1  0.176391  0.928983  0.359289  1
  Ag  Ag4  1  0.234911  0.352932  0.996503  1
  Ag  Ag5  1  0.756159  0.148457  0.999826  1
  Ag  Ag6  1  0.760770  0.648567  0.002210  1
  Ag  Ag7  1  0.259426  0.850360  0.997798  1
  C  C8  1  0.623401  0.875657  0.248869  1
  C  C9  1  0.376752  0.121712  0.751561  1
  C  C10  1  0.123154  0.375224  0.248567  1
  C  C11  1  0.875617  0.621459  0.750564  1
  O  O12  1  0.810501  0.564295  0.624738  1
  O  O13  1  0.432755  0.739212  0.186427  1
  O  O14  1  0.931011  0.454941  0.187957  1
  O  O15  1  0.750864  0.952172  0.185598  1
  O  O16  1  0.314034  0.060984  0.625599  1
  O  O17  1  0.065239  0.541320  0.813248  1
  O  O18  1  0.187663  0.432054  0.374292  1
  O  O19  1  0.249249  0.042598  0.813769  1
  O  O20  1  0.564195  0.261488  0.814706  1
  O  O21  1  0.750893  0.760715  0.814265  1
  O  O22  1  0.687212  0.935760  0.374889  1
  O  O23  1  0.249469  0.239146  0.184062  1
