# generated using pymatgen
data_CaTiSiO5
_symmetry_space_group_name_H-M   'P 1'
_cell_length_a   6.66863369
_cell_length_b   7.13268339
_cell_length_c   8.77021855
_cell_angle_alpha   90.00000000
_cell_angle_beta   90.00000000
_cell_angle_gamma   114.06041903
_symmetry_Int_Tables_number   1
_chemical_formula_structural   CaTiSiO5
_chemical_formula_sum   'Ca4 Ti4 Si4 O20'
_cell_volume   380.91335284
_cell_formula_units_Z   4
loop_
 _symmetry_equiv_pos_site_id
 _symmetry_equiv_pos_as_xyz
  1  'x, y, z'
loop_
 _atom_site_type_symbol
 _atom_site_label
 _atom_site_symmetry_multiplicity
 _atom_site_fract_x
 _atom_site_fract_y
 _atom_site_fract_z
 _atom_site_occupancy
  Ca  Ca0  1  0.250000  0.250000  0.422256  1
  Ca  Ca1  1  0.250000  0.750000  0.077744  1
  Ca  Ca2  1  0.750000  0.250000  0.922256  1
  Ca  Ca3  1  0.750000  0.750000  0.577744  1
  Ti  Ti4  1  0.750000  0.500000  0.250000  1
  Ti  Ti5  1  0.250000  0.000000  0.750000  1
  Ti  Ti6  1  0.250000  0.500000  0.750000  1
  Ti  Ti7  1  0.750000  0.000000  0.250000  1
  Si  Si8  1  0.250000  0.750000  0.429631  1
  Si  Si9  1  0.750000  0.250000  0.570369  1
  Si  Si10  1  0.750000  0.750000  0.929631  1
  Si  Si11  1  0.250000  0.250000  0.070369  1
  O  O12  1  0.936226  0.407091  0.687536  1
  O  O13  1  0.250000  0.750000  0.818422  1
  O  O14  1  0.151830  0.385142  0.964212  1
  O  O15  1  0.848170  0.114858  0.464212  1
  O  O16  1  0.436226  0.407091  0.187536  1
  O  O17  1  0.651830  0.385142  0.464212  1
  O  O18  1  0.348170  0.614858  0.535788  1
  O  O19  1  0.436226  0.907091  0.312464  1
  O  O20  1  0.348170  0.114858  0.964212  1
  O  O21  1  0.063774  0.592909  0.312464  1
  O  O22  1  0.750000  0.250000  0.181578  1
  O  O23  1  0.063774  0.092909  0.187536  1
  O  O24  1  0.151830  0.885142  0.535788  1
  O  O25  1  0.563774  0.092909  0.687536  1
  O  O26  1  0.936226  0.907091  0.812464  1
  O  O27  1  0.848170  0.614858  0.035788  1
  O  O28  1  0.563774  0.592909  0.812464  1
  O  O29  1  0.750000  0.750000  0.318422  1
  O  O30  1  0.250000  0.250000  0.681578  1
  O  O31  1  0.651830  0.885142  0.035788  1
