# generated using pymatgen
data_Ta11O2
_symmetry_space_group_name_H-M   'P 1'
_cell_length_a   13.57287539
_cell_length_b   7.48816327
_cell_length_c   9.77327952
_cell_angle_alpha   63.84958725
_cell_angle_beta   44.21304950
_cell_angle_gamma   40.99560445
_symmetry_Int_Tables_number   1
_chemical_formula_structural   Ta11O2
_chemical_formula_sum   'Ta22 O4'
_cell_volume   443.34572465
_cell_formula_units_Z   2
loop_
 _symmetry_equiv_pos_site_id
 _symmetry_equiv_pos_as_xyz
  1  'x, y, z'
loop_
 _atom_site_type_symbol
 _atom_site_label
 _atom_site_symmetry_multiplicity
 _atom_site_fract_x
 _atom_site_fract_y
 _atom_site_fract_z
 _atom_site_occupancy
  Ta  Ta0  1  0.977178  0.293866  0.374488  1
  Ta  Ta1  1  0.213147  0.230985  0.365045  1
  Ta  Ta2  1  0.199902  0.742752  0.195238  1
  Ta  Ta3  1  0.202711  0.237031  0.688496  1
  Ta  Ta4  1  0.450646  0.262314  0.272110  1
  Ta  Ta5  1  0.458143  0.743679  0.781457  1
  Ta  Ta6  1  0.955444  0.739863  0.942886  1
  Ta  Ta7  1  0.706964  0.241051  0.849108  1
  Ta  Ta8  1  0.741135  0.708604  0.658228  1
  Ta  Ta9  1  0.203287  0.757295  0.518862  1
  Ta  Ta10  1  0.434097  0.218133  0.647925  1
  Ta  Ta11  1  0.654464  0.307158  0.229208  1
  Ta  Ta12  1  0.696354  0.750048  0.037861  1
  Ta  Ta13  1  0.257393  0.723599  0.795949  1
  Ta  Ta14  1  0.963485  0.244121  0.095686  1
  Ta  Ta15  1  0.441802  0.245820  0.946061  1
  Ta  Ta16  1  0.681183  0.770307  0.362848  1
  Ta  Ta17  1  0.704975  0.247882  0.517210  1
  Ta  Ta18  1  0.450311  0.759837  0.090699  1
  Ta  Ta19  1  0.963813  0.747872  0.254713  1
  Ta  Ta20  1  0.940989  0.253817  0.788069  1
  Ta  Ta21  1  0.950881  0.713838  0.623466  1
  O  O22  1  0.956548  0.994856  0.020651  1
  O  O23  1  0.423148  0.022906  0.882392  1
  O  O24  1  0.453361  0.517820  0.512354  1
  O  O25  1  0.954374  0.016447  0.513929  1
