# generated using pymatgen
data_Al(HO)3
_symmetry_space_group_name_H-M   'P 1'
_cell_length_a   5.07125875
_cell_length_b   5.21905404
_cell_length_c   5.70259256
_cell_angle_alpha   63.66806481
_cell_angle_beta   62.76864200
_cell_angle_gamma   60.19416812
_symmetry_Int_Tables_number   1
_chemical_formula_structural   Al(HO)3
_chemical_formula_sum   'Al2 H6 O6'
_cell_volume   111.78808767
_cell_formula_units_Z   2
loop_
 _symmetry_equiv_pos_site_id
 _symmetry_equiv_pos_as_xyz
  1  'x, y, z'
loop_
 _atom_site_type_symbol
 _atom_site_label
 _atom_site_symmetry_multiplicity
 _atom_site_fract_x
 _atom_site_fract_y
 _atom_site_fract_z
 _atom_site_occupancy
  Al  Al0  1  0.664835  0.666477  0.993113  1
  Al  Al1  1  0.340602  0.322005  0.003846  1
  H  H2  1  0.747467  0.153490  0.598461  1
  H  H3  1  0.269196  0.838867  0.400013  1
  H  H4  1  0.141064  0.375435  0.634882  1
  H  H5  1  0.868064  0.617525  0.358869  1
  H  H6  1  0.259866  0.861927  0.771057  1
  H  H7  1  0.746721  0.128342  0.227859  1
  O  O8  1  0.706406  0.063105  0.794508  1
  O  O9  1  0.298377  0.925870  0.203469  1
  O  O10  1  0.073808  0.446484  0.791598  1
  O  O11  1  0.930874  0.539385  0.208122  1
  O  O12  1  0.457544  0.683425  0.777162  1
  O  O13  1  0.547880  0.305241  0.220015  1
