# generated using pymatgen
data_KPO3
_symmetry_space_group_name_H-M   'P 1'
_cell_length_a   5.13758860
_cell_length_b   6.43410816
_cell_length_c   6.04031200
_cell_angle_alpha   115.98840104
_cell_angle_beta   83.89595134
_cell_angle_gamma   98.13142724
_symmetry_Int_Tables_number   1
_chemical_formula_structural   KPO3
_chemical_formula_sum   'K2 P2 O6'
_cell_volume   177.45225371
_cell_formula_units_Z   2
loop_
 _symmetry_equiv_pos_site_id
 _symmetry_equiv_pos_as_xyz
  1  'x, y, z'
loop_
 _atom_site_type_symbol
 _atom_site_label
 _atom_site_symmetry_multiplicity
 _atom_site_fract_x
 _atom_site_fract_y
 _atom_site_fract_z
 _atom_site_occupancy
  K  K0  1  0.289736  0.058204  0.333776  1
  K  K1  1  0.710264  0.941796  0.666224  1
  P  P2  1  0.052717  0.427732  0.156809  1
  P  P3  1  0.947283  0.572268  0.843191  1
  O  O4  1  0.152931  0.644281  0.375433  1
  O  O5  1  0.696522  0.719523  0.973283  1
  O  O6  1  0.224693  0.060822  0.814563  1
  O  O7  1  0.775307  0.939178  0.185437  1
  O  O8  1  0.303478  0.280477  0.026717  1
  O  O9  1  0.847069  0.355719  0.624567  1
