# generated using pymatgen
data_Nb6(Pb2O5)5
_symmetry_space_group_name_H-M   'P 1'
_cell_length_a   7.71700717
_cell_length_b   15.46344372
_cell_length_c   13.41500966
_cell_angle_alpha   29.83971431
_cell_angle_beta   55.47685622
_cell_angle_gamma   60.53647339
_symmetry_Int_Tables_number   1
_chemical_formula_structural   Nb6(Pb2O5)5
_chemical_formula_sum   'Nb6 Pb10 O25'
_cell_volume   656.26305065
_cell_formula_units_Z   1
loop_
 _symmetry_equiv_pos_site_id
 _symmetry_equiv_pos_as_xyz
  1  'x, y, z'
loop_
 _atom_site_type_symbol
 _atom_site_label
 _atom_site_symmetry_multiplicity
 _atom_site_fract_x
 _atom_site_fract_y
 _atom_site_fract_z
 _atom_site_occupancy
  Nb  Nb0  1  0.977559  0.248216  0.013143  1
  Nb  Nb1  1  0.481012  0.002154  0.010233  1
  Nb  Nb2  1  0.986842  0.756214  0.002476  1
  Nb  Nb3  1  0.488515  0.500432  0.011912  1
  Nb  Nb4  1  0.982501  0.736921  0.519200  1
  Nb  Nb5  1  0.984093  0.256498  0.503943  1
  Pb  Pb6  1  0.002292  0.001355  0.002550  1
  Pb  Pb7  1  0.006339  0.502001  0.997813  1
  Pb  Pb8  1  0.504936  0.256020  0.998804  1
  Pb  Pb9  1  0.454891  0.004995  0.522771  1
  Pb  Pb10  1  0.499817  0.766441  0.978586  1
  Pb  Pb11  1  0.498118  0.231869  0.516538  1
  Pb  Pb12  1  0.983681  0.003084  0.508935  1
  Pb  Pb13  1  0.467917  0.506348  0.506702  1
  Pb  Pb14  1  0.490867  0.740593  0.518993  1
  Pb  Pb15  1  0.980855  0.500447  0.515891  1
  O  O16  1  0.075203  0.285070  0.085163  1
  O  O17  1  0.627489  0.008309  0.081065  1
  O  O18  1  0.074646  0.002414  0.684499  1
  O  O19  1  0.314899  0.309257  0.300727  1
  O  O20  1  0.117976  0.230061  0.615760  1
  O  O21  1  0.118891  0.772076  0.073371  1
  O  O22  1  0.690052  0.304622  0.082320  1
  O  O23  1  0.416117  0.998228  0.884367  1
  O  O24  1  0.666940  0.501220  0.071389  1
  O  O25  1  0.096548  0.498591  0.696342  1
  O  O26  1  0.083580  0.716161  0.652159  1
  O  O27  1  0.289910  0.189439  0.916317  1
  O  O28  1  0.300512  0.806248  0.299936  1
  O  O29  1  0.710731  0.812435  0.074997  1
  O  O30  1  0.930460  0.281533  0.342846  1
  O  O31  1  0.708421  0.191821  0.694267  1
  O  O32  1  0.928881  0.502796  0.290774  1
  O  O33  1  0.604870  0.500713  0.622479  1
  O  O34  1  0.359357  0.502551  0.905920  1
  O  O35  1  0.317724  0.693089  0.915913  1
  O  O36  1  0.883281  0.259564  0.889157  1
  O  O37  1  0.890817  0.744729  0.399969  1
  O  O38  1  0.697726  0.684902  0.697551  1
  O  O39  1  0.950248  0.997318  0.292176  1
  O  O40  1  0.928983  0.721968  0.903466  1
