# generated using pymatgen
data_CsNi2F6
_symmetry_space_group_name_H-M   'P 1'
_cell_length_a   7.28367389
_cell_length_b   7.28414029
_cell_length_c   7.28414029
_cell_angle_alpha   60.00358585
_cell_angle_beta   60.00211804
_cell_angle_gamma   60.00211804
_symmetry_Int_Tables_number   1
_chemical_formula_structural   CsNi2F6
_chemical_formula_sum   'Cs2 Ni4 F12'
_cell_volume   273.28624285
_cell_formula_units_Z   2
loop_
 _symmetry_equiv_pos_site_id
 _symmetry_equiv_pos_as_xyz
  1  'x, y, z'
loop_
 _atom_site_type_symbol
 _atom_site_label
 _atom_site_symmetry_multiplicity
 _atom_site_fract_x
 _atom_site_fract_y
 _atom_site_fract_z
 _atom_site_occupancy
  F  F0  1  0.931159  0.431016  0.318978  1
  F  F1  1  0.681152  0.568984  0.681022  1
  F  F2  1  0.068841  0.181022  0.068984  1
  F  F3  1  0.318848  0.818978  0.931016  1
  F  F4  1  0.068841  0.568984  0.681022  1
  F  F5  1  0.318848  0.431016  0.318978  1
  F  F6  1  0.318975  0.431025  0.931025  1
  F  F7  1  0.681025  0.568975  0.068975  1
  F  F8  1  0.068814  0.181186  0.681186  1
  F  F9  1  0.931186  0.818814  0.318814  1
  F  F10  1  0.681152  0.181022  0.068984  1
  F  F11  1  0.931159  0.818978  0.931016  1
  Ni  Ni12  1  0.000000  0.500000  0.500000  1
  Ni  Ni13  1  0.000000  0.000000  0.000000  1
  Ni  Ni14  1  0.500000  0.500000  0.000000  1
  Ni  Ni15  1  0.000000  0.500000  0.000000  1
  Cs  Cs16  1  0.625096  0.124904  0.624904  1
  Cs  Cs17  1  0.374904  0.875096  0.375096  1
