# generated using pymatgen
data_CdI2
_symmetry_space_group_name_H-M   'P 1'
_cell_length_a   4.34410456
_cell_length_b   4.34410482
_cell_length_c   73.64119325
_cell_angle_alpha   90.00000000
_cell_angle_beta   90.00000000
_cell_angle_gamma   119.99999799
_symmetry_Int_Tables_number   1
_chemical_formula_structural   CdI2
_chemical_formula_sum   'Cd10 I20'
_cell_volume   1203.51643048
_cell_formula_units_Z   10
loop_
 _symmetry_equiv_pos_site_id
 _symmetry_equiv_pos_as_xyz
  1  'x, y, z'
loop_
 _atom_site_type_symbol
 _atom_site_label
 _atom_site_symmetry_multiplicity
 _atom_site_fract_x
 _atom_site_fract_y
 _atom_site_fract_z
 _atom_site_occupancy
  Cd  Cd0  1  0.666667  0.333333  0.224999  1
  Cd  Cd1  1  0.666667  0.333333  0.724999  1
  Cd  Cd2  1  0.000000  0.000000  0.825005  1
  Cd  Cd3  1  0.666667  0.333333  0.425006  1
  Cd  Cd4  1  0.000000  0.000000  0.924992  1
  Cd  Cd5  1  0.666667  0.333333  0.025002  1
  Cd  Cd6  1  0.000000  0.000000  0.325001  1
  Cd  Cd7  1  0.000000  0.000000  0.524984  1
  Cd  Cd8  1  0.000000  0.000000  0.124992  1
  Cd  Cd9  1  0.000000  0.000000  0.624990  1
  I  I10  1  0.000000  0.000000  0.201502  1
  I  I11  1  0.333333  0.666667  0.448517  1
  I  I12  1  0.333333  0.666667  0.348522  1
  I  I13  1  0.666667  0.333333  0.101483  1
  I  I14  1  0.666667  0.333333  0.901473  1
  I  I15  1  0.333333  0.666667  0.948506  1
  I  I16  1  0.000000  0.000000  0.401498  1
  I  I17  1  0.333333  0.666667  0.048521  1
  I  I18  1  0.666667  0.333333  0.301487  1
  I  I19  1  0.000000  0.000000  0.001498  1
  I  I20  1  0.333333  0.666667  0.548505  1
  I  I21  1  0.666667  0.333333  0.601480  1
  I  I22  1  0.333333  0.666667  0.148509  1
  I  I23  1  0.333333  0.666667  0.248520  1
  I  I24  1  0.000000  0.000000  0.701500  1
  I  I25  1  0.666667  0.333333  0.501467  1
  I  I26  1  0.333333  0.666667  0.848524  1
  I  I27  1  0.333333  0.666667  0.648509  1
  I  I28  1  0.666667  0.333333  0.801489  1
  I  I29  1  0.333333  0.666667  0.748520  1
