# generated using pymatgen
data_Tl6PbI10
_symmetry_space_group_name_H-M   'P 1'
_cell_length_a   10.88990179
_cell_length_b   10.88990151
_cell_length_c   13.53067440
_cell_angle_alpha   90.00000000
_cell_angle_beta   90.00000000
_cell_angle_gamma   120.00000081
_symmetry_Int_Tables_number   1
_chemical_formula_structural   Tl6PbI10
_chemical_formula_sum   'Tl12 Pb2 I20'
_cell_volume   1389.62617791
_cell_formula_units_Z   2
loop_
 _symmetry_equiv_pos_site_id
 _symmetry_equiv_pos_as_xyz
  1  'x, y, z'
loop_
 _atom_site_type_symbol
 _atom_site_label
 _atom_site_symmetry_multiplicity
 _atom_site_fract_x
 _atom_site_fract_y
 _atom_site_fract_z
 _atom_site_occupancy
  Tl  Tl0  1  0.030583  0.640736  0.251132  1
  Tl  Tl1  1  0.999686  0.367964  0.999814  1
  Tl  Tl2  1  0.000314  0.368278  0.499814  1
  Tl  Tl3  1  0.610153  0.969417  0.251132  1
  Tl  Tl4  1  0.359264  0.389847  0.251132  1
  Tl  Tl5  1  0.389847  0.359264  0.751132  1
  Tl  Tl6  1  0.631722  0.632036  0.499814  1
  Tl  Tl7  1  0.632036  0.631722  0.999814  1
  Tl  Tl8  1  0.368278  0.000314  0.999814  1
  Tl  Tl9  1  0.367964  0.999686  0.499814  1
  Tl  Tl10  1  0.640736  0.030583  0.751132  1
  Tl  Tl11  1  0.969417  0.610153  0.751132  1
  Pb  Pb12  1  0.000000  0.000000  0.377800  1
  Pb  Pb13  1  0.000000  0.000000  0.877800  1
  I  I14  1  0.999929  0.743072  0.999563  1
  I  I15  1  0.000071  0.743143  0.499563  1
  I  I16  1  0.255976  0.999716  0.752778  1
  I  I17  1  0.000284  0.256260  0.752778  1
  I  I18  1  0.333333  0.666667  0.103304  1
  I  I19  1  0.333333  0.666667  0.396276  1
  I  I20  1  0.333333  0.666667  0.858715  1
  I  I21  1  0.333333  0.666667  0.642046  1
  I  I22  1  0.256928  0.256857  0.999563  1
  I  I23  1  0.256857  0.256928  0.499563  1
  I  I24  1  0.256260  0.000284  0.252778  1
  I  I25  1  0.743740  0.744024  0.752778  1
  I  I26  1  0.744024  0.743740  0.252778  1
  I  I27  1  0.666667  0.333333  0.358715  1
  I  I28  1  0.666667  0.333333  0.603304  1
  I  I29  1  0.666667  0.333333  0.142046  1
  I  I30  1  0.666667  0.333333  0.896276  1
  I  I31  1  0.743072  0.999929  0.499563  1
  I  I32  1  0.743143  0.000071  0.999563  1
  I  I33  1  0.999716  0.255976  0.252778  1
