# generated using pymatgen
data_Na3Cr11Se20
_symmetry_space_group_name_H-M   'P 1'
_cell_length_a   12.96143690
_cell_length_b   12.96143690
_cell_length_c   64.70777610
_cell_angle_alpha   16.24118372
_cell_angle_beta   16.24118375
_cell_angle_gamma   16.32709754
_symmetry_Int_Tables_number   1
_chemical_formula_structural   Na3Cr11Se20
_chemical_formula_sum   'Na3 Cr11 Se20'
_cell_volume   743.89076367
_cell_formula_units_Z   1
loop_
 _symmetry_equiv_pos_site_id
 _symmetry_equiv_pos_as_xyz
  1  'x, y, z'
loop_
 _atom_site_type_symbol
 _atom_site_label
 _atom_site_symmetry_multiplicity
 _atom_site_fract_x
 _atom_site_fract_y
 _atom_site_fract_z
 _atom_site_occupancy
  Na  Na0  1  0.685401  0.685401  0.524936  1
  Na  Na1  1  0.656959  0.656959  0.735000  1
  Na  Na2  1  0.649109  0.649109  0.939453  1
  Cr  Cr3  1  0.418835  0.418835  0.087723  1
  Cr  Cr4  1  0.585889  0.585889  0.110532  1
  Cr  Cr5  1  0.442649  0.442649  0.275155  1
  Cr  Cr6  1  0.496000  0.496000  0.301632  1
  Cr  Cr7  1  0.571526  0.571526  0.318740  1
  Cr  Cr8  1  0.419392  0.419392  0.488005  1
  Cr  Cr9  1  0.577686  0.577686  0.513688  1
  Cr  Cr10  1  0.430110  0.430110  0.681692  1
  Cr  Cr11  1  0.507844  0.507844  0.700240  1
  Cr  Cr12  1  0.410631  0.410631  0.891864  1
  Cr  Cr13  1  0.588114  0.588114  0.908485  1
  Se  Se14  1  0.051027  0.051027  0.013177  1
  Se  Se15  1  0.211129  0.211129  0.038875  1
  Se  Se16  1  0.059702  0.059702  0.207895  1
  Se  Se17  1  0.202375  0.202375  0.241288  1
  Se  Se18  1  0.059573  0.059573  0.410784  1
  Se  Se19  1  0.795731  0.795731  0.159192  1
  Se  Se20  1  0.204139  0.204139  0.441118  1
  Se  Se21  1  0.941006  0.941006  0.189600  1
  Se  Se22  1  0.059379  0.059379  0.608675  1
  Se  Se23  1  0.798959  0.798959  0.357759  1
  Se  Se24  1  0.187276  0.187276  0.648964  1
  Se  Se25  1  0.945016  0.945016  0.388926  1
  Se  Se26  1  0.052343  0.052343  0.812605  1
  Se  Se27  1  0.785896  0.785896  0.563170  1
  Se  Se28  1  0.191229  0.191229  0.844894  1
  Se  Se29  1  0.957728  0.957728  0.583191  1
  Se  Se30  1  0.800227  0.800227  0.757429  1
  Se  Se31  1  0.931959  0.931959  0.792047  1
  Se  Se32  1  0.794711  0.794711  0.959531  1
  Se  Se33  1  0.946348  0.946348  0.986913  1
