# generated using pymatgen
data_CsZn2P2HO8
_symmetry_space_group_name_H-M   'P 1'
_cell_length_a   7.96444636
_cell_length_b   8.76176164
_cell_length_c   8.76176164
_cell_angle_alpha   44.05149097
_cell_angle_beta   90.00000000
_cell_angle_gamma   90.00000000
_symmetry_Int_Tables_number   1
_chemical_formula_structural   CsZn2P2HO8
_chemical_formula_sum   'Cs2 Zn4 P4 H2 O16'
_cell_volume   425.12195314
_cell_formula_units_Z   2
loop_
 _symmetry_equiv_pos_site_id
 _symmetry_equiv_pos_as_xyz
  1  'x, y, z'
loop_
 _atom_site_type_symbol
 _atom_site_label
 _atom_site_symmetry_multiplicity
 _atom_site_fract_x
 _atom_site_fract_y
 _atom_site_fract_z
 _atom_site_occupancy
  Cs  Cs0  1  0.500000  0.500000  0.500000  1
  Cs  Cs1  1  0.000000  0.000000  0.000000  1
  Zn  Zn2  1  0.750000  0.982971  0.482971  1
  Zn  Zn3  1  0.250000  0.517029  0.017029  1
  Zn  Zn4  1  0.250000  0.017029  0.517029  1
  Zn  Zn5  1  0.750000  0.482971  0.982971  1
  P  P6  1  0.461066  0.142732  0.142732  1
  P  P7  1  0.538934  0.857268  0.857268  1
  P  P8  1  0.961066  0.357268  0.357268  1
  P  P9  1  0.038934  0.642732  0.642732  1
  H  H10  1  0.500000  0.000000  0.000000  1
  H  H11  1  0.000000  0.500000  0.500000  1
  O  O12  1  0.300582  0.201035  0.201035  1
  O  O13  1  0.699418  0.798965  0.798965  1
  O  O14  1  0.800582  0.298965  0.298965  1
  O  O15  1  0.199418  0.701035  0.701035  1
  O  O16  1  0.560893  0.355849  0.962041  1
  O  O17  1  0.439107  0.037959  0.644151  1
  O  O18  1  0.060893  0.537959  0.144151  1
  O  O19  1  0.939107  0.855849  0.462041  1
  O  O20  1  0.439107  0.644151  0.037959  1
  O  O21  1  0.560893  0.962041  0.355849  1
  O  O22  1  0.939107  0.462041  0.855849  1
  O  O23  1  0.060893  0.144151  0.537959  1
  O  O24  1  0.392543  0.052897  0.052897  1
  O  O25  1  0.607457  0.947103  0.947103  1
  O  O26  1  0.892543  0.447103  0.447103  1
  O  O27  1  0.107457  0.552897  0.552897  1
