# generated using pymatgen
data_Ca2Al2Si(HO4)2
_symmetry_space_group_name_H-M   'P 1'
_cell_length_a   7.73260222
_cell_length_b   7.73260218
_cell_length_c   15.45665374
_cell_angle_alpha   109.63770227
_cell_angle_beta   109.63770216
_cell_angle_gamma   109.16130950
_symmetry_Int_Tables_number   1
_chemical_formula_structural   Ca2Al2Si(HO4)2
_chemical_formula_sum   'Ca8 Al8 Si4 H8 O32'
_cell_volume   711.23613608
_cell_formula_units_Z   4
loop_
 _symmetry_equiv_pos_site_id
 _symmetry_equiv_pos_as_xyz
  1  'x, y, z'
loop_
 _atom_site_type_symbol
 _atom_site_label
 _atom_site_symmetry_multiplicity
 _atom_site_fract_x
 _atom_site_fract_y
 _atom_site_fract_z
 _atom_site_occupancy
  Ca  Ca0  1  0.000433  0.995430  0.856966  1
  Ca  Ca1  1  0.003200  0.717327  0.001375  1
  Ca  Ca2  1  0.286501  0.281499  0.643034  1
  Ca  Ca3  1  0.281499  0.286501  0.143034  1
  Ca  Ca4  1  0.717327  0.003200  0.501375  1
  Ca  Ca5  1  0.000450  0.714577  0.498625  1
  Ca  Ca6  1  0.714577  0.000450  0.998625  1
  Ca  Ca7  1  0.995430  0.000433  0.356966  1
  Al  Al8  1  0.252501  0.753119  0.752749  1
  Al  Al9  1  0.501645  0.252921  0.876956  1
  Al  Al10  1  0.252921  0.501645  0.376956  1
  Al  Al11  1  0.247620  0.747003  0.247251  1
  Al  Al12  1  0.747003  0.247620  0.747251  1
  Al  Al13  1  0.747732  0.499009  0.623044  1
  Al  Al14  1  0.499009  0.747732  0.123044  1
  Al  Al15  1  0.753119  0.252501  0.252749  1
  Si  Si16  1  0.247956  0.497922  0.873674  1
  Si  Si17  1  0.500607  0.750573  0.626326  1
  Si  Si18  1  0.497922  0.247956  0.373674  1
  Si  Si19  1  0.750573  0.500607  0.126326  1
  H  H20  1  0.999702  0.996433  0.676138  1
  H  H21  1  0.647426  0.644157  0.823862  1
  H  H22  1  0.356274  0.003935  0.502013  1
  H  H23  1  0.644157  0.647426  0.323862  1
  H  H24  1  0.352249  0.999910  0.997987  1
  H  H25  1  0.999910  0.352249  0.497987  1
  H  H26  1  0.996433  0.999702  0.176138  1
  H  H27  1  0.003935  0.356274  0.002013  1
  O  O28  1  0.010602  0.436851  0.858451  1
  O  O29  1  0.276766  0.554721  0.783766  1
  O  O30  1  0.001169  0.001640  0.614608  1
  O  O31  1  0.293701  0.719950  0.641549  1
  O  O32  1  0.278800  0.290916  0.861742  1
  O  O33  1  0.003705  0.443727  0.365109  1
  O  O34  1  0.446219  0.722669  0.507976  1
  O  O35  1  0.436851  0.010602  0.358451  1
  O  O36  1  0.443727  0.003705  0.865109  1
  O  O37  1  0.226500  0.997413  0.498477  1
  O  O38  1  0.290719  0.566089  0.283654  1
  O  O39  1  0.709235  0.987189  0.716234  1
  O  O40  1  0.771954  0.772425  0.885392  1
  O  O41  1  0.001640  0.001169  0.114608  1
  O  O42  1  0.566089  0.290719  0.783654  1
  O  O43  1  0.555316  0.567432  0.638258  1
  O  O44  1  0.290916  0.278800  0.361742  1
  O  O45  1  0.273487  0.713509  0.134891  1
  O  O46  1  0.713509  0.273487  0.634891  1
  O  O47  1  0.430267  0.706717  0.992024  1
  O  O48  1  0.229545  0.000458  0.001523  1
  O  O49  1  0.706717  0.430267  0.492024  1
  O  O50  1  0.723412  0.998782  0.216346  1
  O  O51  1  0.772425  0.771954  0.385392  1
  O  O52  1  0.554721  0.276766  0.283766  1
  O  O53  1  0.998782  0.723412  0.716346  1
  O  O54  1  0.567432  0.555316  0.138258  1
  O  O55  1  0.719950  0.293701  0.141549  1
  O  O56  1  0.722669  0.446219  0.007976  1
  O  O57  1  0.000458  0.229545  0.501523  1
  O  O58  1  0.987189  0.709235  0.216234  1
  O  O59  1  0.997413  0.226500  0.998477  1
