# generated using pymatgen
data_AgBiS2
_symmetry_space_group_name_H-M   'P 1'
_cell_length_a   7.95641743
_cell_length_b   10.60638955
_cell_length_c   7.01200606
_cell_angle_alpha   29.07203591
_cell_angle_beta   55.46283698
_cell_angle_gamma   41.35505235
_symmetry_Int_Tables_number   1
_chemical_formula_structural   AgBiS2
_chemical_formula_sum   'Ag2 Bi2 S4'
_cell_volume   182.51182303
_cell_formula_units_Z   2
loop_
 _symmetry_equiv_pos_site_id
 _symmetry_equiv_pos_as_xyz
  1  'x, y, z'
loop_
 _atom_site_type_symbol
 _atom_site_label
 _atom_site_symmetry_multiplicity
 _atom_site_fract_x
 _atom_site_fract_y
 _atom_site_fract_z
 _atom_site_occupancy
  Ag  Ag0  1  0.241799  0.506135  0.996598  1
  Ag  Ag1  1  0.495248  0.994029  0.009709  1
  Bi  Bi2  1  0.997788  0.994366  0.008258  1
  Bi  Bi3  1  0.751653  0.498570  0.000876  1
  S  S4  1  0.000182  0.501096  0.506300  1
  S  S5  1  0.517569  0.485406  0.505637  1
  S  S6  1  0.258118  0.989428  0.517023  1
  S  S7  1  0.754794  0.001842  0.489037  1
