# generated using pymatgen
data_NdH12(NO5)3
_symmetry_space_group_name_H-M   'P 1'
_cell_length_a   6.91240912
_cell_length_b   9.16538102
_cell_length_c   12.00721670
_cell_angle_alpha   70.20553487
_cell_angle_beta   87.94237273
_cell_angle_gamma   68.90565337
_symmetry_Int_Tables_number   1
_chemical_formula_structural   NdH12(NO5)3
_chemical_formula_sum   'Nd2 H24 N6 O30'
_cell_volume   664.59282991
_cell_formula_units_Z   2
loop_
 _symmetry_equiv_pos_site_id
 _symmetry_equiv_pos_as_xyz
  1  'x, y, z'
loop_
 _atom_site_type_symbol
 _atom_site_label
 _atom_site_symmetry_multiplicity
 _atom_site_fract_x
 _atom_site_fract_y
 _atom_site_fract_z
 _atom_site_occupancy
  Nd  Nd0  1  0.811517  0.592918  0.731683  1
  Nd  Nd1  1  0.188483  0.407082  0.268317  1
  H  H2  1  0.322472  0.716946  0.700314  1
  H  H3  1  0.677528  0.283054  0.299686  1
  H  H4  1  0.644555  0.116271  0.369294  1
  H  H5  1  0.355445  0.883729  0.630706  1
  H  H6  1  0.660145  0.657849  0.474371  1
  H  H7  1  0.339855  0.342151  0.525629  1
  H  H8  1  0.179491  0.527794  0.492566  1
  H  H9  1  0.820509  0.472206  0.507434  1
  H  H10  1  0.366570  0.680008  0.255741  1
  H  H11  1  0.633430  0.319992  0.744259  1
  H  H12  1  0.360291  0.673290  0.124912  1
  H  H13  1  0.639709  0.326710  0.875088  1
  H  H14  1  0.573960  0.654376  0.952039  1
  H  H15  1  0.426040  0.345624  0.047961  1
  H  H16  1  0.773143  0.486984  0.007121  1
  H  H17  1  0.226857  0.513016  0.992879  1
  H  H18  1  0.770355  0.161945  0.057161  1
  H  H19  1  0.229645  0.838055  0.942839  1
  H  H20  1  0.607380  0.103393  0.016104  1
  H  H21  1  0.392620  0.896607  0.983896  1
  H  H22  1  0.274831  0.834709  0.370825  1
  H  H23  1  0.725169  0.165291  0.629175  1
  H  H24  1  0.606624  0.355429  0.574673  1
  H  H25  1  0.393376  0.644571  0.425327  1
  N  N26  1  0.173242  0.271437  0.817638  1
  N  N27  1  0.826758  0.728563  0.182362  1
  N  N28  1  0.926745  0.827474  0.499094  1
  N  N29  1  0.073255  0.172526  0.500906  1
  N  N30  1  0.935261  0.821432  0.824127  1
  N  N31  1  0.064739  0.178568  0.175873  1
  O  O32  1  0.105351  0.347426  0.706718  1
  O  O33  1  0.894649  0.652574  0.293282  1
  O  O34  1  0.078445  0.345501  0.888790  1
  O  O35  1  0.921555  0.654499  0.111210  1
  O  O36  1  0.057778  0.684695  0.567452  1
  O  O37  1  0.942222  0.315305  0.432548  1
  O  O38  1  0.739792  0.870594  0.524499  1
  O  O39  1  0.260208  0.129406  0.475501  1
  O  O40  1  0.757531  0.866102  0.770950  1
  O  O41  1  0.242469  0.133898  0.229050  1
  O  O42  1  0.070892  0.677011  0.829711  1
  O  O43  1  0.929108  0.322989  0.170289  1
  O  O44  1  0.429514  0.764782  0.674024  1
  O  O45  1  0.570486  0.235218  0.325976  1
  O  O46  1  0.729315  0.552976  0.541863  1
  O  O47  1  0.270685  0.447024  0.458137  1
  O  O48  1  0.642863  0.391139  0.789513  1
  O  O49  1  0.357137  0.608861  0.210487  1
  O  O50  1  0.692533  0.567806  0.932325  1
  O  O51  1  0.307467  0.432194  0.067675  1
  O  O52  1  0.321385  0.136284  0.852469  1
  O  O53  1  0.678615  0.863716  0.147531  1
  O  O54  1  0.983795  0.918126  0.412300  1
  O  O55  1  0.016205  0.081874  0.587700  1
  O  O56  1  0.979256  0.911388  0.868817  1
  O  O57  1  0.020744  0.088612  0.131183  1
  O  O58  1  0.631408  0.203714  0.012624  1
  O  O59  1  0.368592  0.796286  0.987376  1
  O  O60  1  0.597993  0.255259  0.634868  1
  O  O61  1  0.402007  0.744741  0.365132  1
