# generated using pymatgen
data_GdFe5P3
_symmetry_space_group_name_H-M   'P 1'
_cell_length_a   3.66122837
_cell_length_b   10.29045541
_cell_length_c   11.81397395
_cell_angle_alpha   90.00000000
_cell_angle_beta   90.00000000
_cell_angle_gamma   90.00000000
_symmetry_Int_Tables_number   1
_chemical_formula_structural   GdFe5P3
_chemical_formula_sum   'Gd4 Fe20 P12'
_cell_volume   445.09982444
_cell_formula_units_Z   4
loop_
 _symmetry_equiv_pos_site_id
 _symmetry_equiv_pos_as_xyz
  1  'x, y, z'
loop_
 _atom_site_type_symbol
 _atom_site_label
 _atom_site_symmetry_multiplicity
 _atom_site_fract_x
 _atom_site_fract_y
 _atom_site_fract_z
 _atom_site_occupancy
  Gd  Gd0  1  0.250000  0.918328  0.203948  1
  Gd  Gd1  1  0.750000  0.418328  0.296052  1
  Gd  Gd2  1  0.250000  0.581672  0.703948  1
  Gd  Gd3  1  0.750000  0.081672  0.796052  1
  Fe  Fe4  1  0.250000  0.876847  0.699665  1
  Fe  Fe5  1  0.250000  0.095324  0.990542  1
  Fe  Fe6  1  0.750000  0.781340  0.824286  1
  Fe  Fe7  1  0.750000  0.904676  0.009458  1
  Fe  Fe8  1  0.750000  0.595324  0.509458  1
  Fe  Fe9  1  0.750000  0.294445  0.012566  1
  Fe  Fe10  1  0.750000  0.535621  0.066306  1
  Fe  Fe11  1  0.750000  0.718660  0.324286  1
  Fe  Fe12  1  0.250000  0.281340  0.675714  1
  Fe  Fe13  1  0.250000  0.623153  0.199665  1
  Fe  Fe14  1  0.250000  0.404676  0.490542  1
  Fe  Fe15  1  0.250000  0.705555  0.987434  1
  Fe  Fe16  1  0.750000  0.205555  0.512566  1
  Fe  Fe17  1  0.250000  0.218660  0.175714  1
  Fe  Fe18  1  0.250000  0.794445  0.487434  1
  Fe  Fe19  1  0.250000  0.035621  0.433694  1
  Fe  Fe20  1  0.750000  0.964379  0.566306  1
  Fe  Fe21  1  0.750000  0.123153  0.300335  1
  Fe  Fe22  1  0.750000  0.376847  0.800335  1
  Fe  Fe23  1  0.250000  0.464379  0.933694  1
  P  P24  1  0.250000  0.232337  0.371493  1
  P  P25  1  0.750000  0.579463  0.887873  1
  P  P26  1  0.750000  0.732337  0.128507  1
  P  P27  1  0.750000  0.103196  0.104178  1
  P  P28  1  0.250000  0.420537  0.112127  1
  P  P29  1  0.250000  0.603196  0.395822  1
  P  P30  1  0.750000  0.767663  0.628507  1
  P  P31  1  0.250000  0.896804  0.895822  1
  P  P32  1  0.750000  0.920537  0.387873  1
  P  P33  1  0.250000  0.267663  0.871493  1
  P  P34  1  0.750000  0.396804  0.604178  1
  P  P35  1  0.250000  0.079463  0.612127  1
