# generated using pymatgen
data_SN
_symmetry_space_group_name_H-M   'P 1'
_cell_length_a   5.29219559
_cell_length_b   4.97866511
_cell_length_c   27.66821244
_cell_angle_alpha   89.75113473
_cell_angle_beta   90.53631005
_cell_angle_gamma   90.11693579
_symmetry_Int_Tables_number   1
_chemical_formula_structural   SN
_chemical_formula_sum   'S18 N18'
_cell_volume   728.96371462
_cell_formula_units_Z   18
loop_
 _symmetry_equiv_pos_site_id
 _symmetry_equiv_pos_as_xyz
  1  'x, y, z'
loop_
 _atom_site_type_symbol
 _atom_site_label
 _atom_site_symmetry_multiplicity
 _atom_site_fract_x
 _atom_site_fract_y
 _atom_site_fract_z
 _atom_site_occupancy
  S  S0  1  0.684064  0.474121  0.933345  1
  S  S1  1  0.747625  0.914015  0.716108  1
  S  S2  1  0.840376  0.434461  0.775041  1
  S  S3  1  0.329577  0.890055  0.075577  1
  S  S4  1  0.593733  0.813532  0.554884  1
  S  S5  1  0.903879  0.313942  0.545629  1
  S  S6  1  0.225773  0.705715  0.846167  1
  S  S7  1  0.360184  0.231085  0.903519  1
  S  S8  1  0.662983  0.937647  0.325202  1
  S  S9  1  0.754746  0.412658  0.383939  1
  S  S10  1  0.280279  0.658464  0.636435  1
  S  S11  1  0.188962  0.064902  0.657312  1
  S  S12  1  0.813363  -0.021433  0.166399  1
  S  S13  1  0.315973  0.562978  0.442839  1
  S  S14  1  0.217260  0.157269  0.464231  1
  S  S15  1  0.136334  0.732069  0.196254  1
  S  S16  1  0.276720  0.206120  0.253239  1
  S  S17  1  0.167266  0.390832  0.024159  1
  N  N18  1  0.640097  0.765779  0.928060  1
  N  N19  1  0.605552  0.476964  0.810489  1
  N  N20  1  0.892638  0.647020  0.732383  1
  N  N21  1  0.779093  0.070703  0.573867  1
  N  N22  1  0.194460  0.703724  0.035035  1
  N  N23  1  0.719420  0.571809  0.526634  1
  N  N24  1  0.180259  0.472844  0.883773  1
  N  N25  1  0.609389  0.146052  0.367457  1
  N  N26  1  0.457323  0.684778  0.806918  1
  N  N27  1  0.896499  0.979198  0.289647  1
  N  N28  1  0.915994  0.088465  0.681377  1
  N  N29  1  0.858219  0.268987  0.171605  1
  N  N30  1  0.547462  0.674822  0.611094  1
  N  N31  1  0.948810  0.178623  0.489219  1
  N  N32  1  0.586649  0.586255  0.418644  1
  N  N33  1  0.047420  0.186841  0.292813  1
  N  N34  1  0.319545  0.974001  0.215791  1
  N  N35  1  0.302073  0.202699  0.064915  1
