# generated using pymatgen
data_TlSbTe2
_symmetry_space_group_name_H-M   'P 1'
_cell_length_a   23.92366217
_cell_length_b   6.89929196
_cell_length_c   12.23624241
_cell_angle_alpha   155.61287987
_cell_angle_beta   167.84288498
_cell_angle_gamma   21.30329533
_symmetry_Int_Tables_number   1
_chemical_formula_structural   TlSbTe2
_chemical_formula_sum   'Tl1 Sb1 Te2'
_cell_volume   154.52390197
_cell_formula_units_Z   1
loop_
 _symmetry_equiv_pos_site_id
 _symmetry_equiv_pos_as_xyz
  1  'x, y, z'
loop_
 _atom_site_type_symbol
 _atom_site_label
 _atom_site_symmetry_multiplicity
 _atom_site_fract_x
 _atom_site_fract_y
 _atom_site_fract_z
 _atom_site_occupancy
  Tl  Tl0  1  0.000000  0.000000  0.000000  1
  Sb  Sb1  1  0.000000  0.500000  0.000000  1
  Te  Te2  1  0.644263  -0.151443  1.000000  1
  Te  Te3  1  0.355737  0.151443  0.000000  1
