# generated using pymatgen
data_HSO3F
_symmetry_space_group_name_H-M   'P 1'
_cell_length_a   5.77364040
_cell_length_b   7.93953063
_cell_length_c   9.64654131
_cell_angle_alpha   90.00788596
_cell_angle_beta   89.99863953
_cell_angle_gamma   89.99945476
_symmetry_Int_Tables_number   1
_chemical_formula_structural   HSO3F
_chemical_formula_sum   'H4 S4 O12 F4'
_cell_volume   442.19739932
_cell_formula_units_Z   4
loop_
 _symmetry_equiv_pos_site_id
 _symmetry_equiv_pos_as_xyz
  1  'x, y, z'
loop_
 _atom_site_type_symbol
 _atom_site_label
 _atom_site_symmetry_multiplicity
 _atom_site_fract_x
 _atom_site_fract_y
 _atom_site_fract_z
 _atom_site_occupancy
  H  H0  1  0.621846  0.139241  0.205078  1
  H  H1  1  0.877941  0.860790  0.705052  1
  H  H2  1  0.121936  0.360740  0.794929  1
  H  H3  1  0.378090  0.639208  0.294932  1
  S  S4  1  0.273131  0.031207  0.544890  1
  S  S5  1  0.226853  0.968870  0.044690  1
  S  S6  1  0.773150  0.468835  0.455307  1
  S  S7  1  0.726863  0.531133  0.955194  1
  O  O8  1  0.262556  0.630742  0.370250  1
  O  O9  1  0.237409  0.369268  0.870228  1
  O  O10  1  0.762627  0.869318  0.629676  1
  O  O11  1  0.737458  0.130827  0.129838  1
  O  O12  1  0.307334  0.026309  0.396137  1
  O  O13  1  0.192687  0.973678  0.896306  1
  O  O14  1  0.807321  0.473699  0.603691  1
  O  O15  1  0.692684  0.526330  0.103779  1
  O  O16  1  0.295854  0.193320  0.611992  1
  O  O17  1  0.204165  0.806627  0.112024  1
  O  O18  1  0.795826  0.306616  0.387979  1
  O  O19  1  0.704160  0.693373  0.887981  1
  F  F20  1  0.801709  0.044000  0.588107  1
  F  F21  1  0.698368  0.955917  0.087903  1
  F  F22  1  0.301639  0.455963  0.412005  1
  F  F23  1  0.198392  0.543989  0.912033  1
