# generated using pymatgen
data_Nb3(CuTe3)2
_symmetry_space_group_name_H-M   'P 1'
_cell_length_a   18.06098769
_cell_length_b   13.12537361
_cell_length_c   8.13664046
_cell_angle_alpha   58.08165197
_cell_angle_beta   48.61467735
_cell_angle_gamma   23.39106495
_symmetry_Int_Tables_number   1
_chemical_formula_structural   Nb3(CuTe3)2
_chemical_formula_sum   'Nb6 Cu4 Te12'
_cell_volume   554.44799356
_cell_formula_units_Z   2
loop_
 _symmetry_equiv_pos_site_id
 _symmetry_equiv_pos_as_xyz
  1  'x, y, z'
loop_
 _atom_site_type_symbol
 _atom_site_label
 _atom_site_symmetry_multiplicity
 _atom_site_fract_x
 _atom_site_fract_y
 _atom_site_fract_z
 _atom_site_occupancy
  Nb  Nb0  1  0.624014  0.161226  0.610324  1
  Nb  Nb1  1  0.125864  0.632481  0.867699  1
  Nb  Nb2  1  0.381582  0.714331  0.107866  1
  Nb  Nb3  1  0.618418  0.285669  0.892134  1
  Nb  Nb4  1  0.874136  0.367519  0.132301  1
  Nb  Nb5  1  0.375986  0.838774  0.389676  1
  Cu  Cu6  1  0.272000  0.209283  0.141338  1
  Cu  Cu7  1  0.291618  0.528403  0.008615  1
  Cu  Cu8  1  0.708382  0.471597  -0.008615  1
  Cu  Cu9  1  0.728000  0.790717  0.858662  1
  Te  Te10  1  0.721068  0.304237  0.435937  1
  Te  Te11  1  0.832085  0.846355  -0.120844  1
  Te  Te12  1  0.248814  0.609966  0.318465  1
  Te  Te13  1  0.953310  0.390899  0.689073  1
  Te  Te14  1  0.520105  0.888114  0.303869  1
  Te  Te15  1  0.758100  0.143864  0.137674  1
  Te  Te16  1  0.479895  0.111886  0.696131  1
  Te  Te17  1  0.241900  0.856136  0.862326  1
  Te  Te18  1  0.046690  0.609101  0.310927  1
  Te  Te19  1  0.751186  0.390034  0.681535  1
  Te  Te20  1  0.167915  0.153645  0.120844  1
  Te  Te21  1  0.278932  0.695763  0.564063  1
