# generated using pymatgen
data_Al(HO)3
_symmetry_space_group_name_H-M   'P 1'
_cell_length_a   7.09928313
_cell_length_b   7.43226698
_cell_length_c   8.47033945
_cell_angle_alpha   111.69005172
_cell_angle_beta   142.41467587
_cell_angle_gamma   88.90999661
_symmetry_Int_Tables_number   1
_chemical_formula_structural   Al(HO)3
_chemical_formula_sum   'Al4 H12 O12'
_cell_volume   221.76634566
_cell_formula_units_Z   4
loop_
 _symmetry_equiv_pos_site_id
 _symmetry_equiv_pos_as_xyz
  1  'x, y, z'
loop_
 _atom_site_type_symbol
 _atom_site_label
 _atom_site_symmetry_multiplicity
 _atom_site_fract_x
 _atom_site_fract_y
 _atom_site_fract_z
 _atom_site_occupancy
  Al  Al0  1  0.481476  0.833858  0.315070  1
  Al  Al1  1  0.518619  0.166169  0.684988  1
  Al  Al2  1  0.997951  0.667334  0.666132  1
  Al  Al3  1  0.002072  0.332636  0.333865  1
  H  H4  1  0.097987  0.053392  0.889039  1
  H  H5  1  0.902329  0.946645  0.111069  1
  H  H6  1  0.603665  0.541848  0.909824  1
  H  H7  1  0.396354  0.458170  0.090186  1
  H  H8  1  0.098282  0.726825  0.449841  1
  H  H9  1  0.901718  0.273139  0.550154  1
  H  H10  1  0.486893  0.210180  0.390383  1
  H  H11  1  0.513093  0.789813  0.609615  1
  H  H12  1  0.675334  0.909803  0.176421  1
  H  H13  1  0.324666  0.090137  0.823510  1
  H  H14  1  0.185552  0.407296  0.180117  1
  H  H15  1  0.814541  0.592720  0.819941  1
  O  O16  1  0.987689  0.938789  0.699094  1
  O  O17  1  0.012383  0.061191  0.300892  1
  O  O18  1  0.511438  0.441427  0.726398  1
  O  O19  1  0.488617  0.558585  0.273635  1
  O  O20  1  0.059700  0.623931  0.476237  1
  O  O21  1  0.940322  0.376030  0.523765  1
  O  O22  1  0.580815  0.137434  0.496613  1
  O  O23  1  0.419289  0.862597  0.503447  1
  O  O24  1  0.481460  0.817828  0.090221  1
  O  O25  1  0.518567  0.182172  0.909777  1
  O  O26  1  0.010567  0.302501  0.105609  1
  O  O27  1  0.989516  0.697510  0.894439  1
