# generated using pymatgen
data_La(ReSi)2
_symmetry_space_group_name_H-M   'P 1'
_cell_length_a   4.15162689
_cell_length_b   4.25534239
_cell_length_c   11.00033576
_cell_angle_alpha   101.09796468
_cell_angle_beta   100.87699761
_cell_angle_gamma   90.01301994
_symmetry_Int_Tables_number   1
_chemical_formula_structural   La(ReSi)2
_chemical_formula_sum   'La2 Re4 Si4'
_cell_volume   187.14340182
_cell_formula_units_Z   2
loop_
 _symmetry_equiv_pos_site_id
 _symmetry_equiv_pos_as_xyz
  1  'x, y, z'
loop_
 _atom_site_type_symbol
 _atom_site_label
 _atom_site_symmetry_multiplicity
 _atom_site_fract_x
 _atom_site_fract_y
 _atom_site_fract_z
 _atom_site_occupancy
  La  La0  1  0.666879  0.911423  0.826557  1
  La  La1  1  0.338890  0.084958  0.172504  1
  Re  Re2  1  0.965357  0.210574  0.421942  1
  Re  Re3  1  0.540643  0.283763  0.571030  1
  Re  Re4  1  0.043740  0.786467  0.577780  1
  Re  Re5  1  0.468359  0.712849  0.428901  1
  Si  Si6  1  0.780479  0.524930  0.057804  1
  Si  Si7  1  0.221984  0.470722  0.940446  1
  Si  Si8  1  0.108939  0.351080  0.707180  1
  Si  Si9  1  0.899245  0.646223  0.292304  1
