# generated using pymatgen
data_K2YbTi(PO4)3
_symmetry_space_group_name_H-M   'P 1'
_cell_length_a   10.31628362
_cell_length_b   10.39145526
_cell_length_c   20.68917446
_cell_angle_alpha   89.95907590
_cell_angle_beta   90.02077166
_cell_angle_gamma   89.81639464
_symmetry_Int_Tables_number   1
_chemical_formula_structural   K2YbTi(PO4)3
_chemical_formula_sum   'K16 Yb8 Ti8 P24 O96'
_cell_volume   2217.89222331
_cell_formula_units_Z   8
loop_
 _symmetry_equiv_pos_site_id
 _symmetry_equiv_pos_as_xyz
  1  'x, y, z'
loop_
 _atom_site_type_symbol
 _atom_site_label
 _atom_site_symmetry_multiplicity
 _atom_site_fract_x
 _atom_site_fract_y
 _atom_site_fract_z
 _atom_site_occupancy
  Yb  Yb0  1  0.097848  0.396764  0.300598  1
  Yb  Yb1  1  0.095412  0.393782  0.798526  1
  Yb  Yb2  1  0.172219  0.160206  0.586874  1
  Yb  Yb3  1  0.408400  0.607788  0.050921  1
  Yb  Yb4  1  0.666868  0.327043  0.918881  1
  Yb  Yb5  1  0.665298  0.330142  0.415422  1
  Yb  Yb6  1  0.833434  0.672744  0.168294  1
  Yb  Yb7  1  0.832384  0.668905  0.669475  1
  K  K8  1  0.044554  0.542918  0.476312  1
  K  K9  1  0.048439  0.546466  0.976029  1
  K  K10  1  0.180387  0.813118  0.158076  1
  K  K11  1  0.175536  0.819178  0.659227  1
  K  K12  1  0.318199  0.184949  0.409559  1
  K  K13  1  0.319793  0.187400  0.908824  1
  K  K14  1  0.452828  0.453501  0.226426  1
  K  K15  1  0.452601  0.451750  0.727471  1
  K  K16  1  0.547144  0.952750  0.023663  1
  K  K17  1  0.545773  0.956810  0.523653  1
  K  K18  1  0.684299  0.674891  0.339877  1
  K  K19  1  0.682912  0.675509  0.839902  1
  K  K20  1  0.822814  0.322434  0.590066  1
  K  K21  1  0.816276  0.325187  0.090244  1
  K  K22  1  0.952954  0.047716  0.273132  1
  K  K23  1  0.953977  0.047964  0.772647  1
  Ti  Ti24  1  0.164534  0.166070  0.083461  1
  Ti  Ti25  1  0.334925  0.834634  0.332765  1
  Ti  Ti26  1  0.336246  0.833863  0.833655  1
  Ti  Ti27  1  0.395311  0.608814  0.552627  1
  Ti  Ti28  1  0.606030  0.103027  0.196609  1
  Ti  Ti29  1  0.603576  0.104886  0.696372  1
  Ti  Ti30  1  0.891006  0.895842  0.446810  1
  Ti  Ti31  1  0.894276  0.896922  0.946542  1
  P  P32  1  0.020879  0.721144  0.319647  1
  P  P33  1  0.021701  0.721291  0.819298  1
  P  P34  1  0.130899  0.474344  0.141438  1
  P  P35  1  0.135432  0.491736  0.641102  1
  P  P36  1  0.211111  0.867049  0.487814  1
  P  P37  1  0.204954  0.882597  0.989130  1
  P  P38  1  0.295374  0.117067  0.239091  1
  P  P39  1  0.299159  0.112123  0.744862  1
  P  P40  1  0.373965  0.529092  0.396591  1
  P  P41  1  0.370092  0.525083  0.891628  1
  P  P42  1  0.478238  0.278558  0.069432  1
  P  P43  1  0.487269  0.294361  0.565494  1
  P  P44  1  0.512495  0.797426  0.193743  1
  P  P45  1  0.507051  0.793650  0.689168  1
  P  P46  1  0.621211  0.008467  0.352874  1
  P  P47  1  0.621329  0.008056  0.852092  1
  P  P48  1  0.719389  0.636382  0.003359  1
  P  P49  1  0.708858  0.631155  0.506841  1
  P  P50  1  0.782246  0.363982  0.253018  1
  P  P51  1  0.781123  0.362885  0.753905  1
  P  P52  1  0.868057  0.987710  0.603873  1
  P  P53  1  0.878875  0.991567  0.102874  1
  P  P54  1  0.981599  0.201159  0.440250  1
  P  P55  1  0.988085  0.203190  0.943331  1
  O  O56  1  0.000518  0.545182  0.131899  1
  O  O57  1  0.019655  0.581739  0.630751  1
  O  O58  1  0.013820  0.583086  0.344198  1
  O  O59  1  0.015455  0.582956  0.843518  1
  O  O60  1  0.041378  0.270200  0.382220  1
  O  O61  1  0.053615  0.278487  0.889449  1
  O  O62  1  0.063905  0.831036  0.487541  1
  O  O63  1  0.058464  0.843503  0.987497  1
  O  O64  1  0.073754  0.225701  0.496721  1
  O  O65  1  0.080704  0.215380  0.003841  1
  O  O66  1  0.112954  0.328747  0.120954  1
  O  O67  1  0.099527  0.355291  0.621387  1
  O  O68  1  0.164987  0.764574  0.309233  1
  O  O69  1  0.165844  0.765568  0.809866  1
  O  O70  1  0.180700  0.483800  0.210577  1
  O  O71  1  0.186983  0.497150  0.710177  1
  O  O72  1  0.220334  0.222737  0.273963  1
  O  O73  1  0.223527  0.221306  0.776282  1
  O  O74  1  0.219641  0.008204  0.030010  1
  O  O75  1  0.239125  0.986576  0.527642  1
  O  O76  1  0.225382  0.541663  0.095423  1
  O  O77  1  0.245504  0.545513  0.594614  1
  O  O78  1  0.241149  0.093549  0.169460  1
  O  O79  1  0.247593  0.073308  0.678994  1
  O  O80  1  0.261823  0.888209  0.417294  1
  O  O81  1  0.259149  0.904067  0.919342  1
  O  O82  1  0.262042  0.461469  0.363171  1
  O  O83  1  0.274363  0.458797  0.846496  1
  O  O84  1  0.280645  0.991803  0.280873  1
  O  O85  1  0.288934  0.993566  0.791586  1
  O  O86  1  0.280615  0.778388  0.024065  1
  O  O87  1  0.289918  0.755005  0.520209  1
  O  O88  1  0.345571  0.529569  0.471156  1
  O  O89  1  0.322268  0.517517  0.961229  1
  O  O90  1  0.333819  0.234275  0.060190  1
  O  O91  1  0.352919  0.246253  0.547066  1
  O  O92  1  0.388525  0.670000  0.870399  1
  O  O93  1  0.390357  0.670311  0.371584  1
  O  O94  1  0.420040  0.783779  0.254046  1
  O  O95  1  0.411976  0.780217  0.748152  1
  O  O96  1  0.441832  0.156175  0.237469  1
  O  O97  1  0.445103  0.153341  0.740766  1
  O  O98  1  0.446190  0.722813  0.139829  1
  O  O99  1  0.444618  0.714108  0.632530  1
  O  O100  1  0.484246  0.416880  0.094111  1
  O  O101  1  0.482650  0.441651  0.583763  1
  O  O102  1  0.499553  0.453610  0.881688  1
  O  O103  1  0.497977  0.454083  0.382950  1
  O  O104  1  0.504141  0.912250  0.858396  1
  O  O105  1  0.501872  0.915988  0.359550  1
  O  O106  1  0.521700  0.941509  0.172121  1
  O  O107  1  0.514863  0.937595  0.667507  1
  O  O108  1  0.542500  0.185944  0.120329  1
  O  O109  1  0.541332  0.214296  0.624270  1
  O  O110  1  0.581579  0.691544  0.999551  1
  O  O111  1  0.561346  0.670480  0.510829  1
  O  O112  1  0.552766  0.257338  0.006651  1
  O  O113  1  0.582389  0.269685  0.510143  1
  O  O114  1  0.583840  0.138973  0.878331  1
  O  O115  1  0.583181  0.139810  0.379072  1
  O  O116  1  0.646280  0.746425  0.212298  1
  O  O117  1  0.638801  0.741134  0.708074  1
  O  O118  1  0.665957  0.015517  0.280721  1
  O  O119  1  0.664939  0.014561  0.779500  1
  O  O120  1  0.688713  0.255744  0.226682  1
  O  O121  1  0.689639  0.252675  0.727547  1
  O  O122  1  0.730661  0.520288  0.459759  1
  O  O123  1  0.737314  0.518857  0.959376  1
  O  O124  1  0.733184  0.946498  0.893373  1
  O  O125  1  0.732966  0.946231  0.393909  1
  O  O126  1  0.743618  0.402376  0.321577  1
  O  O127  1  0.743340  0.398636  0.822649  1
  O  O128  1  0.756261  0.600840  0.072558  1
  O  O129  1  0.757902  0.597425  0.573870  1
  O  O130  1  0.767772  0.053958  0.143975  1
  O  O131  1  0.748101  0.044030  0.642172  1
  O  O132  1  0.763656  0.480936  0.208371  1
  O  O133  1  0.760792  0.478334  0.709135  1
  O  O134  1  0.786606  0.748348  0.477594  1
  O  O135  1  0.813141  0.744076  0.976611  1
  O  O136  1  0.834626  0.984803  0.030549  1
  O  O137  1  0.831412  0.980922  0.530245  1
  O  O138  1  0.846595  0.249261  0.456989  1
  O  O139  1  0.854751  0.253285  0.962385  1
  O  O140  1  0.915814  0.859773  0.128632  1
  O  O141  1  0.903047  0.854292  0.628127  1
  O  O142  1  0.945656  0.743610  0.257131  1
  O  O143  1  0.946229  0.743369  0.756903  1
  O  O144  1  0.920700  0.310552  0.250683  1
  O  O145  1  0.919341  0.309433  0.750433  1
  O  O146  1  0.956239  0.811543  0.371806  1
  O  O147  1  0.957848  0.813877  0.870376  1
  O  O148  1  0.975121  0.053231  0.422527  1
  O  O149  1  0.978881  0.058856  0.921808  1
  O  O150  1  0.998903  0.083580  0.109435  1
  O  O151  1  0.978389  0.082123  0.615487  1
