# generated using pymatgen
data_C4SO2
_symmetry_space_group_name_H-M   'P 1'
_cell_length_a   6.05208091
_cell_length_b   9.78696314
_cell_length_c   14.25518326
_cell_angle_alpha   90.00000000
_cell_angle_beta   90.00000000
_cell_angle_gamma   90.00000000
_symmetry_Int_Tables_number   1
_chemical_formula_structural   C4SO2
_chemical_formula_sum   'C32 S8 O16'
_cell_volume   844.35578443
_cell_formula_units_Z   8
loop_
 _symmetry_equiv_pos_site_id
 _symmetry_equiv_pos_as_xyz
  1  'x, y, z'
loop_
 _atom_site_type_symbol
 _atom_site_label
 _atom_site_symmetry_multiplicity
 _atom_site_fract_x
 _atom_site_fract_y
 _atom_site_fract_z
 _atom_site_occupancy
  C  C0  1  0.767078  0.405379  0.442102  1
  C  C1  1  0.619986  0.399093  0.575251  1
  C  C2  1  0.752707  0.722338  0.672241  1
  C  C3  1  0.752707  0.222338  0.827759  1
  C  C4  1  0.966481  0.158564  0.786135  1
  C  C5  1  0.966481  0.658564  0.713865  1
  C  C6  1  0.033519  0.158564  0.286135  1
  C  C7  1  0.286444  0.284703  0.233416  1
  C  C8  1  0.448316  0.966410  0.515599  1
  C  C9  1  0.380014  0.899093  0.424749  1
  C  C10  1  0.551684  0.466410  0.484401  1
  C  C11  1  0.286444  0.784703  0.266584  1
  C  C12  1  0.232922  0.405379  0.942102  1
  C  C13  1  0.903474  0.228370  0.695161  1
  C  C14  1  0.619986  0.899093  0.924749  1
  C  C15  1  0.713556  0.784703  0.766584  1
  C  C16  1  0.903474  0.728370  0.804839  1
  C  C17  1  0.767078  0.905379  0.057898  1
  C  C18  1  0.247293  0.722338  0.172241  1
  C  C19  1  0.810214  0.343797  0.536827  1
  C  C20  1  0.096526  0.228370  0.195161  1
  C  C21  1  0.247293  0.222338  0.327759  1
  C  C22  1  0.713556  0.284703  0.733416  1
  C  C23  1  0.810214  0.843797  0.963173  1
  C  C24  1  0.448316  0.466410  0.984401  1
  C  C25  1  0.232922  0.905379  0.557898  1
  C  C26  1  0.033519  0.658564  0.213865  1
  C  C27  1  0.380014  0.399093  0.075251  1
  C  C28  1  0.189786  0.343797  0.036827  1
  C  C29  1  0.551684  0.966410  0.015599  1
  C  C30  1  0.189786  0.843797  0.463173  1
  C  C31  1  0.096526  0.728370  0.304839  1
  S  S32  1  0.015663  0.242653  0.584433  1
  S  S33  1  0.512440  0.390797  0.687677  1
  S  S34  1  0.984337  0.742653  0.415567  1
  S  S35  1  0.487560  0.890797  0.312323  1
  S  S36  1  0.487560  0.390797  0.187677  1
  S  S37  1  0.015663  0.742653  0.915567  1
  S  S38  1  0.512440  0.890797  0.812323  1
  S  S39  1  0.984337  0.242653  0.084433  1
  O  O40  1  0.139250  0.908290  0.633310  1
  O  O41  1  0.139250  0.408290  0.866690  1
  O  O42  1  0.115135  0.586794  0.685442  1
  O  O43  1  0.340043  0.722259  0.096638  1
  O  O44  1  0.115135  0.086794  0.814558  1
  O  O45  1  0.884865  0.086794  0.314558  1
  O  O46  1  0.860750  0.908290  0.133310  1
  O  O47  1  0.399836  0.036363  0.043397  1
  O  O48  1  0.659957  0.222259  0.903362  1
  O  O49  1  0.860750  0.408290  0.366690  1
  O  O50  1  0.600164  0.036363  0.543397  1
  O  O51  1  0.884865  0.586794  0.185442  1
  O  O52  1  0.600164  0.536363  0.956603  1
  O  O53  1  0.659957  0.722259  0.596638  1
  O  O54  1  0.340043  0.222259  0.403362  1
  O  O55  1  0.399836  0.536363  0.456603  1
