# generated using pymatgen
data_Rb2Sn(GeO3)3
_symmetry_space_group_name_H-M   'P 1'
_cell_length_a   12.33523586
_cell_length_b   12.33523621
_cell_length_c   10.88836347
_cell_angle_alpha   90.00000000
_cell_angle_beta   90.00000000
_cell_angle_gamma   119.99999906
_symmetry_Int_Tables_number   1
_chemical_formula_structural   Rb2Sn(GeO3)3
_chemical_formula_sum   'Rb12 Sn6 Ge18 O54'
_cell_volume   1434.78944752
_cell_formula_units_Z   6
loop_
 _symmetry_equiv_pos_site_id
 _symmetry_equiv_pos_as_xyz
  1  'x, y, z'
loop_
 _atom_site_type_symbol
 _atom_site_label
 _atom_site_symmetry_multiplicity
 _atom_site_fract_x
 _atom_site_fract_y
 _atom_site_fract_z
 _atom_site_occupancy
  Rb  Rb0  1  0.649126  0.649868  0.016873  1
  Rb  Rb1  1  0.350874  0.000741  0.483127  1
  Rb  Rb2  1  0.350132  0.999259  0.016873  1
  Rb  Rb3  1  0.649868  0.000741  0.983127  1
  Rb  Rb4  1  0.350874  0.350132  0.983127  1
  Rb  Rb5  1  0.649126  0.999259  0.516873  1
  Rb  Rb6  1  0.000741  0.649868  0.516873  1
  Rb  Rb7  1  0.000741  0.350874  0.016873  1
  Rb  Rb8  1  0.350132  0.350874  0.516873  1
  Rb  Rb9  1  0.999259  0.350132  0.483127  1
  Rb  Rb10  1  0.649868  0.649126  0.483127  1
  Rb  Rb11  1  0.999259  0.649126  0.983127  1
  Sn  Sn12  1  0.333333  0.666667  0.992665  1
  Sn  Sn13  1  0.666667  0.333333  0.007335  1
  Sn  Sn14  1  0.000000  0.000000  0.500000  1
  Sn  Sn15  1  0.666667  0.333333  0.507335  1
  Sn  Sn16  1  0.000000  0.000000  0.000000  1
  Sn  Sn17  1  0.333333  0.666667  0.492665  1
  Ge  Ge18  1  0.549501  0.715896  0.738436  1
  Ge  Ge19  1  1.000000  0.177466  0.250000  1
  Ge  Ge20  1  0.177466  0.000000  0.250000  1
  Ge  Ge21  1  0.549501  0.833605  0.238436  1
  Ge  Ge22  1  0.284104  0.833605  0.738436  1
  Ge  Ge23  1  0.166395  0.715896  0.238436  1
  Ge  Ge24  1  0.284104  0.450499  0.238436  1
  Ge  Ge25  1  0.715896  0.549501  0.761564  1
  Ge  Ge26  1  0.166395  0.450499  0.738436  1
  Ge  Ge27  1  0.450499  0.166395  0.761564  1
  Ge  Ge28  1  0.000000  0.822534  0.750000  1
  Ge  Ge29  1  0.833605  0.284104  0.761564  1
  Ge  Ge30  1  0.715896  0.166395  0.261564  1
  Ge  Ge31  1  0.833605  0.549501  0.261564  1
  Ge  Ge32  1  0.450499  0.284104  0.261564  1
  Ge  Ge33  1  0.822534  0.000000  0.750000  1
  Ge  Ge34  1  0.822534  0.822534  0.250000  1
  Ge  Ge35  1  0.177466  0.177466  0.750000  1
  O  O36  1  0.155398  0.065252  0.115776  1
  O  O37  1  0.811116  0.453419  0.389686  1
  O  O38  1  0.618286  0.618286  0.750000  1
  O  O39  1  0.506179  0.232114  0.615946  1
  O  O40  1  0.618286  0.000000  0.250000  1
  O  O41  1  0.642303  0.453419  0.889686  1
  O  O42  1  0.090146  0.934748  0.384224  1
  O  O43  1  0.274065  0.767886  0.884054  1
  O  O44  1  0.232114  0.725935  0.384054  1
  O  O45  1  0.546581  0.188884  0.889686  1
  O  O46  1  0.671091  0.799255  0.199526  1
  O  O47  1  0.357697  0.546581  0.110314  1
  O  O48  1  0.128164  0.799255  0.699526  1
  O  O49  1  0.200745  0.871836  0.199526  1
  O  O50  1  0.328909  0.200745  0.800474  1
  O  O51  1  0.493821  0.767886  0.384054  1
  O  O52  1  0.065252  0.155398  0.384224  1
  O  O53  1  0.767886  0.493821  0.115946  1
  O  O54  1  0.381714  0.381714  0.250000  1
  O  O55  1  0.871836  0.200745  0.300474  1
  O  O56  1  0.934748  0.844602  0.615776  1
  O  O57  1  0.328909  0.128164  0.300474  1
  O  O58  1  0.155398  0.090146  0.615776  1
  O  O59  1  0.274065  0.506179  0.384054  1
  O  O60  1  0.909854  0.065252  0.615776  1
  O  O61  1  0.642303  0.188884  0.389686  1
  O  O62  1  0.090146  0.155398  0.884224  1
  O  O63  1  0.128164  0.328909  0.199526  1
  O  O64  1  0.844602  0.934748  0.884224  1
  O  O65  1  0.934748  0.090146  0.115776  1
  O  O66  1  0.453419  0.811116  0.110314  1
  O  O67  1  0.811116  0.357697  0.889686  1
  O  O68  1  0.844602  0.909854  0.384224  1
  O  O69  1  0.357697  0.811116  0.610314  1
  O  O70  1  0.453419  0.642303  0.610314  1
  O  O71  1  0.381714  0.000000  0.750000  1
  O  O72  1  0.725935  0.493821  0.615946  1
  O  O73  1  0.871836  0.671091  0.800474  1
  O  O74  1  0.546581  0.357697  0.389686  1
  O  O75  1  0.671091  0.871836  0.699526  1
  O  O76  1  1.000000  0.381714  0.750000  1
  O  O77  1  0.065252  0.909854  0.884224  1
  O  O78  1  0.200745  0.328909  0.699526  1
  O  O79  1  0.188884  0.642303  0.110314  1
  O  O80  1  0.799255  0.128164  0.800474  1
  O  O81  1  0.188884  0.546581  0.610314  1
  O  O82  1  0.232114  0.506179  0.884054  1
  O  O83  1  0.767886  0.274065  0.615946  1
  O  O84  1  0.506179  0.274065  0.115946  1
  O  O85  1  0.799255  0.671091  0.300474  1
  O  O86  1  0.493821  0.725935  0.884054  1
  O  O87  1  0.725935  0.232114  0.115946  1
  O  O88  1  0.000000  0.618286  0.250000  1
  O  O89  1  0.909854  0.844602  0.115776  1
