# generated using pymatgen
data_Nd2Cu2O5
_symmetry_space_group_name_H-M   'P 1'
_cell_length_a   3.71630468
_cell_length_b   7.13668634
_cell_length_c   26.71798443
_cell_angle_alpha   87.46310030
_cell_angle_beta   86.01168288
_cell_angle_gamma   74.86185483
_symmetry_Int_Tables_number   1
_chemical_formula_structural   Nd2Cu2O5
_chemical_formula_sum   'Nd12 Cu12 O30'
_cell_volume   682.12013104
_cell_formula_units_Z   6
loop_
 _symmetry_equiv_pos_site_id
 _symmetry_equiv_pos_as_xyz
  1  'x, y, z'
loop_
 _atom_site_type_symbol
 _atom_site_label
 _atom_site_symmetry_multiplicity
 _atom_site_fract_x
 _atom_site_fract_y
 _atom_site_fract_z
 _atom_site_occupancy
  Nd  Nd0  1  0.578295  0.170626  0.635560  1
  Nd  Nd1  1  0.092314  0.345492  0.402004  1
  Nd  Nd2  1  0.419359  0.830941  0.364601  1
  Nd  Nd3  1  0.884220  0.330052  0.864453  1
  Nd  Nd4  1  0.111956  0.671465  0.135426  1
  Nd  Nd5  1  0.882527  0.493279  0.731385  1
  Nd  Nd6  1  0.116458  0.508625  0.268785  1
  Nd  Nd7  1  0.907288  0.655696  0.597946  1
  Nd  Nd8  1  0.605848  0.008284  0.768766  1
  Nd  Nd9  1  0.340521  0.157053  0.097773  1
  Nd  Nd10  1  0.390566  0.993748  0.231218  1
  Nd  Nd11  1  0.656907  0.844323  0.902489  1
  Cu  Cu12  1  0.248262  0.830936  0.680934  1
  Cu  Cu13  1  0.265384  0.974024  0.538834  1
  Cu  Cu14  1  0.277974  0.524654  0.961161  1
  Cu  Cu15  1  0.293256  0.657781  0.469518  1
  Cu  Cu16  1  0.916774  0.843585  0.030297  1
  Cu  Cu17  1  0.258957  0.670677  0.819278  1
  Cu  Cu18  1  0.718016  0.475948  0.038807  1
  Cu  Cu19  1  0.730683  0.028338  0.461237  1
  Cu  Cu20  1  0.750561  0.170205  0.319008  1
  Cu  Cu21  1  0.707597  0.343223  0.530543  1
  Cu  Cu22  1  0.078967  0.158188  0.969510  1
  Cu  Cu23  1  0.737376  0.332118  0.180838  1
  O  O24  1  0.250048  0.172320  0.319401  1
  O  O25  1  0.392129  0.491416  0.665840  1
  O  O26  1  0.757466  0.671888  0.819716  1
  O  O27  1  0.273437  0.945537  0.461368  1
  O  O28  1  0.746938  0.251607  0.249981  1
  O  O29  1  0.718092  0.411151  0.110791  1
  O  O30  1  0.872190  0.128511  0.038253  1
  O  O31  1  0.748465  0.829508  0.680540  1
  O  O32  1  0.006461  0.324336  0.590203  1
  O  O33  1  0.048456  0.160832  0.708407  1
  O  O34  1  0.239578  0.329464  0.180368  1
  O  O35  1  0.050542  0.010157  0.833927  1
  O  O36  1  0.262343  0.908528  0.610680  1
  O  O37  1  0.278989  0.592187  0.889359  1
  O  O38  1  0.417379  0.340092  0.791733  1
  O  O39  1  0.179843  0.555251  0.038646  1
  O  O40  1  0.993026  0.676866  0.409995  1
  O  O41  1  0.251009  0.749823  0.750070  1
  O  O42  1  0.576290  0.825286  0.089793  1
  O  O43  1  0.723289  0.055825  0.539029  1
  O  O44  1  0.816549  0.445306  0.960868  1
  O  O45  1  0.579121  0.661925  0.208321  1
  O  O46  1  0.946108  0.991592  0.165835  1
  O  O47  1  0.463259  0.627934  0.538142  1
  O  O48  1  0.538213  0.373566  0.461671  1
  O  O49  1  0.124969  0.874055  0.961878  1
  O  O50  1  0.951455  0.840656  0.291655  1
  O  O51  1  0.737080  0.092298  0.389202  1
  O  O52  1  0.419841  0.175941  0.910000  1
  O  O53  1  0.606352  0.510620  0.334225  1
