# generated using pymatgen
data_Na2In5Au6
_symmetry_space_group_name_H-M   'P 1'
_cell_length_a   9.47776726
_cell_length_b   9.47937677
_cell_length_c   9.47955951
_cell_angle_alpha   90.01166487
_cell_angle_beta   89.99364888
_cell_angle_gamma   89.99759487
_symmetry_Int_Tables_number   1
_chemical_formula_structural   Na2In5Au6
_chemical_formula_sum   'Na6 In15 Au18'
_cell_volume   851.67513944
_cell_formula_units_Z   3
loop_
 _symmetry_equiv_pos_site_id
 _symmetry_equiv_pos_as_xyz
  1  'x, y, z'
loop_
 _atom_site_type_symbol
 _atom_site_label
 _atom_site_symmetry_multiplicity
 _atom_site_fract_x
 _atom_site_fract_y
 _atom_site_fract_z
 _atom_site_occupancy
  Na  Na0  1  0.499999  0.828103  0.999949  1
  Na  Na1  1  0.499990  0.171915  0.999969  1
  Na  Na2  1  0.828055  0.999966  0.499991  1
  Na  Na3  1  0.000030  0.499977  0.828105  1
  Na  Na4  1  0.999983  0.500013  0.171874  1
  Na  Na5  1  0.171908  -0.000001  0.500029  1
  In  In6  1  0.283261  0.283642  0.716655  1
  In  In7  1  0.716559  0.716489  0.283520  1
  In  In8  1  0.716369  0.283323  0.716520  1
  In  In9  1  0.500104  0.000002  0.337680  1
  In  In10  1  0.500231  0.000130  0.662319  1
  In  In11  1  0.337788  0.499996  0.999981  1
  In  In12  1  0.662329  0.500027  0.000052  1
  In  In13  1  0.000087  0.337541  0.500028  1
  In  In14  1  0.716697  0.716673  0.716416  1
  In  In15  1  0.283315  0.716520  0.283491  1
  In  In16  1  0.999865  0.662458  0.499987  1
  In  In17  1  0.283381  0.716481  0.716386  1
  In  In18  1  0.716613  0.283624  0.283549  1
  In  In19  1  0.283662  0.283291  0.283444  1
  In  In20  1  0.999957  0.999923  0.999889  1
  Au  Au21  1  0.826959  0.740634  0.000011  1
  Au  Au22  1  0.259330  0.999961  0.173082  1
  Au  Au23  1  0.000006  0.172967  0.740569  1
  Au  Au24  1  0.173004  0.259321  0.000032  1
  Au  Au25  1  0.826897  0.259302  0.000043  1
  Au  Au26  1  0.735120  0.499934  0.500076  1
  Au  Au27  1  0.000034  0.826962  0.740681  1
  Au  Au28  1  0.173043  0.740597  0.999981  1
  Au  Au29  1  0.740613  0.000087  0.172954  1
  Au  Au30  1  0.000017  0.173085  0.259326  1
  Au  Au31  1  0.499998  0.500017  0.264987  1
  Au  Au32  1  0.499982  0.499945  0.735107  1
  Au  Au33  1  0.500014  0.735101  0.500051  1
  Au  Au34  1  0.259409  0.999975  0.826888  1
  Au  Au35  1  0.264855  0.499978  0.500007  1
  Au  Au36  1  0.740668  0.000021  0.826924  1
  Au  Au37  1  0.999924  0.827059  0.259412  1
  Au  Au38  1  0.499946  0.264961  0.500037  1
