# generated using pymatgen
data_EuMgH4
_symmetry_space_group_name_H-M   'P 1'
_cell_length_a   6.84709858
_cell_length_b   6.84709858
_cell_length_c   5.56822993
_cell_angle_alpha   90.00000000
_cell_angle_beta   90.00000000
_cell_angle_gamma   32.91177471
_symmetry_Int_Tables_number   1
_chemical_formula_structural   EuMgH4
_chemical_formula_sum   'Eu2 Mg2 H8'
_cell_volume   141.84289428
_cell_formula_units_Z   2
loop_
 _symmetry_equiv_pos_site_id
 _symmetry_equiv_pos_as_xyz
  1  'x, y, z'
loop_
 _atom_site_type_symbol
 _atom_site_label
 _atom_site_symmetry_multiplicity
 _atom_site_fract_x
 _atom_site_fract_y
 _atom_site_fract_z
 _atom_site_occupancy
  Eu  Eu0  1  0.848115  0.848115  0.744035  1
  Eu  Eu1  1  0.151885  0.151885  0.244035  1
  Mg  Mg2  1  0.585691  0.585691  0.695744  1
  Mg  Mg3  1  0.414309  0.414309  0.195744  1
  H  H4  1  0.669651  0.669651  0.975112  1
  H  H5  1  0.330349  0.330349  0.475112  1
  H  H6  1  0.704169  0.704169  0.489967  1
  H  H7  1  0.295831  0.295831  0.989967  1
  H  H8  1  0.927174  0.927174  0.152651  1
  H  H9  1  0.072826  0.072826  0.652651  1
  H  H10  1  0.455935  0.455935  0.843491  1
  H  H11  1  0.544065  0.544065  0.343491  1
