# generated using pymatgen
data_Cs2Co2(MoO4)3
_symmetry_space_group_name_H-M   'P 1'
_cell_length_a   11.01709237
_cell_length_b   11.02630662
_cell_length_c   11.02011601
_cell_angle_alpha   90.00000000
_cell_angle_beta   90.00000000
_cell_angle_gamma   90.00000000
_symmetry_Int_Tables_number   1
_chemical_formula_structural   Cs2Co2(MoO4)3
_chemical_formula_sum   'Cs8 Co8 Mo12 O48'
_cell_volume   1338.69987327
_cell_formula_units_Z   4
loop_
 _symmetry_equiv_pos_site_id
 _symmetry_equiv_pos_as_xyz
  1  'x, y, z'
loop_
 _atom_site_type_symbol
 _atom_site_label
 _atom_site_symmetry_multiplicity
 _atom_site_fract_x
 _atom_site_fract_y
 _atom_site_fract_z
 _atom_site_occupancy
  Cs  Cs0  1  0.457460  0.042402  0.957813  1
  Cs  Cs1  1  0.820916  0.178990  0.679398  1
  Cs  Cs2  1  0.179084  0.678990  0.820602  1
  Cs  Cs3  1  0.957460  0.457598  0.042187  1
  Cs  Cs4  1  0.679084  0.821010  0.179398  1
  Cs  Cs5  1  0.320916  0.321010  0.320602  1
  Cs  Cs6  1  0.042540  0.957598  0.457813  1
  Cs  Cs7  1  0.542540  0.542402  0.542187  1
  Co  Co8  1  0.887526  0.612143  0.387439  1
  Co  Co9  1  0.112474  0.112143  0.112561  1
  Co  Co10  1  0.336813  0.662783  0.162396  1
  Co  Co11  1  0.836813  0.837217  0.837604  1
  Co  Co12  1  0.163187  0.337217  0.662396  1
  Co  Co13  1  0.663187  0.162783  0.337604  1
  Co  Co14  1  0.612474  0.387857  0.887439  1
  Co  Co15  1  0.387526  0.887857  0.612561  1
  Mo  Mo16  1  0.198722  0.623982  0.473513  1
  Mo  Mo17  1  0.877310  0.526421  0.697537  1
  Mo  Mo18  1  0.301278  0.376018  0.973513  1
  Mo  Mo19  1  0.801278  0.123982  0.026487  1
  Mo  Mo20  1  0.473971  0.198504  0.623367  1
  Mo  Mo21  1  0.026029  0.801496  0.123367  1
  Mo  Mo22  1  0.698722  0.876018  0.526487  1
  Mo  Mo23  1  0.622690  0.473579  0.197537  1
  Mo  Mo24  1  0.973971  0.301496  0.376633  1
  Mo  Mo25  1  0.526029  0.698504  0.876633  1
  Mo  Mo26  1  0.377310  0.973579  0.302463  1
  Mo  Mo27  1  0.122690  0.026421  0.802463  1
  O  O28  1  0.983495  0.457707  0.329318  1
  O  O29  1  0.397040  0.819487  0.254699  1
  O  O30  1  0.945026  0.775440  0.983294  1
  O  O31  1  0.548702  0.287874  0.737784  1
  O  O32  1  0.212364  0.261904  0.049092  1
  O  O33  1  0.329867  0.984114  0.458926  1
  O  O34  1  0.054974  0.275440  0.516706  1
  O  O35  1  0.253387  0.394616  0.818885  1
  O  O36  1  0.482239  0.553279  0.224648  1
  O  O37  1  0.236818  0.951558  0.712864  1
  O  O38  1  0.542214  0.829800  0.515773  1
  O  O39  1  0.670133  0.484114  0.041074  1
  O  O40  1  0.746613  0.894616  0.681115  1
  O  O41  1  0.016505  0.957707  0.170682  1
  O  O42  1  0.226124  0.483197  0.552152  1
  O  O43  1  0.753387  0.105384  0.181115  1
  O  O44  1  0.516505  0.542293  0.829318  1
  O  O45  1  0.736818  0.548442  0.287136  1
  O  O46  1  0.951298  0.712126  0.237784  1
  O  O47  1  0.982239  0.946721  0.775352  1
  O  O48  1  0.773876  0.983197  0.947848  1
  O  O49  1  0.170133  0.015886  0.958926  1
  O  O50  1  0.246613  0.605384  0.318885  1
  O  O51  1  0.457786  0.329800  0.984227  1
  O  O52  1  0.179883  0.752981  0.102454  1
  O  O53  1  0.048702  0.212126  0.262216  1
  O  O54  1  0.445026  0.724560  0.016706  1
  O  O55  1  0.320117  0.247019  0.602454  1
  O  O56  1  0.451298  0.787874  0.762216  1
  O  O57  1  0.263182  0.048442  0.212864  1
  O  O58  1  0.679883  0.747019  0.897546  1
  O  O59  1  0.957786  0.170200  0.015773  1
  O  O60  1  0.787636  0.761904  0.450908  1
  O  O61  1  0.017761  0.446721  0.724648  1
  O  O62  1  0.712364  0.238096  0.950908  1
  O  O63  1  0.042214  0.670200  0.484227  1
  O  O64  1  0.554974  0.224560  0.483294  1
  O  O65  1  0.287636  0.738096  0.549092  1
  O  O66  1  0.897040  0.680513  0.745301  1
  O  O67  1  0.517761  0.053279  0.275352  1
  O  O68  1  0.763182  0.451558  0.787136  1
  O  O69  1  0.102960  0.180513  0.754699  1
  O  O70  1  0.829867  0.515886  0.541074  1
  O  O71  1  0.483495  0.042293  0.670682  1
  O  O72  1  0.273876  0.516803  0.052152  1
  O  O73  1  0.820117  0.252981  0.397546  1
  O  O74  1  0.726124  0.016803  0.447848  1
  O  O75  1  0.602960  0.319487  0.245301  1
