# generated using pymatgen
data_Ce5Mg41
_symmetry_space_group_name_H-M   'P 1'
_cell_length_a   10.42913324
_cell_length_b   11.71290588
_cell_length_c   11.71290557
_cell_angle_alpha   78.56818704
_cell_angle_beta   63.56396783
_cell_angle_gamma   63.56396881
_symmetry_Int_Tables_number   1
_chemical_formula_structural   Ce5Mg41
_chemical_formula_sum   'Ce5 Mg41'
_cell_volume   1147.20940440
_cell_formula_units_Z   1
loop_
 _symmetry_equiv_pos_site_id
 _symmetry_equiv_pos_as_xyz
  1  'x, y, z'
loop_
 _atom_site_type_symbol
 _atom_site_label
 _atom_site_symmetry_multiplicity
 _atom_site_fract_x
 _atom_site_fract_y
 _atom_site_fract_z
 _atom_site_occupancy
  Ce  Ce0  1  0.428576  0.808468  0.334381  1
  Ce  Ce1  1  0.571424  0.191532  0.665619  1
  Ce  Ce2  1  0.762957  0.665619  0.808468  1
  Ce  Ce3  1  0.237043  0.334381  0.191532  1
  Ce  Ce4  1  0.000000  0.000000  0.000000  1
  Mg  Mg5  1  0.878090  0.343471  0.900350  1
  Mg  Mg6  1  0.374434  0.291253  0.443789  1
  Mg  Mg7  1  0.500000  0.000000  0.000000  1
  Mg  Mg8  1  0.446128  0.940577  0.787395  1
  Mg  Mg9  1  0.625566  0.708747  0.556211  1
  Mg  Mg10  1  0.181777  0.443789  0.708747  1
  Mg  Mg11  1  0.174099  0.059423  0.212605  1
  Mg  Mg12  1  0.665687  0.443789  0.708747  1
  Mg  Mg13  1  0.080368  0.711982  0.833794  1
  Mg  Mg14  1  0.085838  0.833794  0.288018  1
  Mg  Mg15  1  0.914162  0.166206  0.711982  1
  Mg  Mg16  1  0.216968  0.123839  0.442225  1
  Mg  Mg17  1  0.009640  0.393682  0.587037  1
  Mg  Mg18  1  0.221560  0.900350  0.656529  1
  Mg  Mg19  1  0.783032  0.876161  0.557775  1
  Mg  Mg20  1  0.596678  0.412963  0.393682  1
  Mg  Mg21  1  0.403322  0.587037  0.606318  1
  Mg  Mg22  1  0.207650  0.166206  0.711982  1
  Mg  Mg23  1  0.626145  0.288018  0.166206  1
  Mg  Mg24  1  0.766478  0.787395  0.059423  1
  Mg  Mg25  1  0.109476  0.708747  0.556211  1
  Mg  Mg26  1  0.373855  0.711982  0.833794  1
  Mg  Mg27  1  0.792350  0.833794  0.288018  1
  Mg  Mg28  1  0.778440  0.099650  0.343471  1
  Mg  Mg29  1  0.000000  0.000000  0.500000  1
  Mg  Mg30  1  0.825901  0.940577  0.787395  1
  Mg  Mg31  1  0.919632  0.288018  0.166206  1
  Mg  Mg32  1  0.990360  0.606318  0.412963  1
  Mg  Mg33  1  0.000000  0.500000  0.000000  1
  Mg  Mg34  1  0.340807  0.442225  0.876161  1
  Mg  Mg35  1  0.613295  0.212605  0.940577  1
  Mg  Mg36  1  0.818223  0.556211  0.291253  1
  Mg  Mg37  1  0.890524  0.291253  0.443789  1
  Mg  Mg38  1  0.121910  0.656529  0.099650  1
  Mg  Mg39  1  0.233522  0.212605  0.940577  1
  Mg  Mg40  1  0.334313  0.556211  0.291253  1
  Mg  Mg41  1  0.500000  0.500000  0.000000  1
  Mg  Mg42  1  0.386705  0.787395  0.059423  1
  Mg  Mg43  1  0.553872  0.059423  0.212605  1
  Mg  Mg44  1  0.500000  0.000000  0.500000  1
  Mg  Mg45  1  0.659193  0.557775  0.123839  1
