# generated using pymatgen
data_CoH14C3NCl3O2
_symmetry_space_group_name_H-M   'P 1'
_cell_length_a   7.28117076
_cell_length_b   8.24599213
_cell_length_c   16.87670816
_cell_angle_alpha   90.05162203
_cell_angle_beta   90.04743480
_cell_angle_gamma   89.98935280
_symmetry_Int_Tables_number   1
_chemical_formula_structural   CoH14C3NCl3O2
_chemical_formula_sum   'Co4 H56 C12 N4 Cl12 O8'
_cell_volume   1013.28482913
_cell_formula_units_Z   4
loop_
 _symmetry_equiv_pos_site_id
 _symmetry_equiv_pos_as_xyz
  1  'x, y, z'
loop_
 _atom_site_type_symbol
 _atom_site_label
 _atom_site_symmetry_multiplicity
 _atom_site_fract_x
 _atom_site_fract_y
 _atom_site_fract_z
 _atom_site_occupancy
  Co  Co0  1  0.500000  0.000000  1.000000  1
  Co  Co1  1  0.000000  -0.000000  0.000000  1
  Co  Co2  1  0.500000  0.500000  0.500000  1
  Co  Co3  1  0.000000  0.500000  0.500000  1
  H  H4  1  0.074075  0.688772  0.961176  1
  H  H5  1  0.573913  0.694124  0.715469  1
  H  H6  1  0.461912  0.788502  0.310607  1
  H  H7  1  0.750168  0.744534  0.371214  1
  H  H8  1  0.750146  0.755637  0.871215  1
  H  H9  1  0.461903  0.711580  0.810595  1
  H  H10  1  0.925925  0.311228  0.038824  1
  H  H11  1  0.873859  0.491095  0.865954  1
  H  H12  1  0.925791  0.805765  0.215527  1
  H  H13  1  0.538097  0.288420  0.189405  1
  H  H14  1  0.250020  0.543778  0.224962  1
  H  H15  1  0.126160  0.990985  0.634003  1
  H  H16  1  0.038141  0.711536  0.810659  1
  H  H17  1  0.079727  0.117285  0.230363  1
  H  H18  1  0.373743  0.990990  0.634041  1
  H  H19  1  0.573975  0.188584  0.539111  1
  H  H20  1  0.961859  0.288464  0.189341  1
  H  H21  1  0.426025  0.811415  0.460889  1
  H  H22  1  0.574143  0.311199  0.038842  1
  H  H23  1  0.074162  0.305937  0.284492  1
  H  H24  1  0.038116  0.788491  0.310670  1
  H  H25  1  0.100557  0.314108  0.983772  1
  H  H26  1  0.920326  0.617210  0.269576  1
  H  H27  1  0.626257  0.009010  0.365959  1
  H  H28  1  0.749980  0.456222  0.775038  1
  H  H29  1  0.961884  0.211509  0.689330  1
  H  H30  1  0.749955  0.043636  0.275087  1
  H  H31  1  0.538088  0.211498  0.689393  1
  H  H32  1  0.249832  0.255466  0.628786  1
  H  H33  1  0.579627  0.882758  0.769599  1
  H  H34  1  0.079674  0.382790  0.730424  1
  H  H35  1  0.579645  0.617197  0.269544  1
  H  H36  1  0.626287  0.491160  0.865911  1
  H  H37  1  0.926036  0.188750  0.539038  1
  H  H38  1  0.073964  0.811250  0.460962  1
  H  H39  1  0.925838  0.694063  0.715508  1
  H  H40  1  0.425857  0.688801  0.961158  1
  H  H41  1  0.074209  0.194235  0.784473  1
  H  H42  1  0.250045  0.956364  0.724913  1
  H  H43  1  0.899801  0.814130  0.516271  1
  H  H44  1  0.420373  0.117242  0.230401  1
  H  H45  1  0.100199  0.185870  0.483729  1
  H  H46  1  0.600281  0.814279  0.516281  1
  H  H47  1  0.920273  0.882715  0.769637  1
  H  H48  1  0.249854  0.244363  0.128785  1
  H  H49  1  0.873840  0.009015  0.365997  1
  H  H50  1  0.600686  0.685912  0.016234  1
  H  H51  1  0.426072  0.194283  0.784511  1
  H  H52  1  0.399719  0.185721  0.483719  1
  H  H53  1  0.899443  0.685892  0.016228  1
  H  H54  1  0.126141  0.508905  0.134046  1
  H  H55  1  0.373713  0.508840  0.134089  1
  H  H56  1  0.573928  0.805717  0.215489  1
  H  H57  1  0.426087  0.305876  0.284531  1
  H  H58  1  0.420355  0.382803  0.730456  1
  H  H59  1  0.399314  0.314088  0.983766  1
  C  C60  1  0.421465  0.250502  0.725565  1
  C  C61  1  0.921403  0.749504  0.274460  1
  C  C62  1  0.750021  0.520414  0.831958  1
  C  C63  1  0.921404  0.750433  0.774479  1
  C  C64  1  0.250003  0.020356  0.668004  1
  C  C65  1  0.249979  0.479586  0.168042  1
  C  C66  1  0.421478  0.249538  0.225555  1
  C  C67  1  0.578535  0.749498  0.274435  1
  C  C68  1  0.749997  0.979645  0.331996  1
  C  C69  1  0.578522  0.750462  0.774445  1
  C  C70  1  0.078597  0.250496  0.725540  1
  C  C71  1  0.078596  0.249567  0.225521  1
  N  N72  1  0.249973  0.198632  0.683873  1
  N  N73  1  0.750027  0.801368  0.316127  1
  N  N74  1  0.750032  0.698642  0.816105  1
  N  N75  1  0.249968  0.301359  0.183895  1
  Cl  Cl76  1  0.249885  0.002041  0.418162  1
  Cl  Cl77  1  0.750066  0.502123  0.081678  1
  Cl  Cl78  1  0.750097  0.435285  0.404820  1
  Cl  Cl79  1  0.749872  0.065198  0.905071  1
  Cl  Cl80  1  0.249781  0.494391  0.403080  1
  Cl  Cl81  1  0.250128  0.934802  0.094928  1
  Cl  Cl82  1  0.249904  0.564714  0.595180  1
  Cl  Cl83  1  0.750220  0.505609  0.596920  1
  Cl  Cl84  1  0.249846  0.005745  0.902743  1
  Cl  Cl85  1  0.750153  0.994254  0.097256  1
  Cl  Cl86  1  0.750115  0.997959  0.581838  1
  Cl  Cl87  1  0.249934  0.497877  0.918322  1
  O  O88  1  0.537652  0.748498  0.475072  1
  O  O89  1  0.962322  0.751677  0.975229  1
  O  O90  1  0.037678  0.248323  0.024771  1
  O  O91  1  0.037812  0.251520  0.524983  1
  O  O92  1  0.537595  0.751738  0.975255  1
  O  O93  1  0.462405  0.248262  0.024745  1
  O  O94  1  0.962188  0.748480  0.475017  1
  O  O95  1  0.462347  0.251501  0.524928  1
