# generated using pymatgen
data_Sr6B(PO4)5
_symmetry_space_group_name_H-M   'P 1'
_cell_length_a   9.89425672
_cell_length_b   9.89425672
_cell_length_c   11.89450270
_cell_angle_alpha   114.57709071
_cell_angle_beta   114.57709074
_cell_angle_gamma   90.00000003
_symmetry_Int_Tables_number   1
_chemical_formula_structural   Sr6B(PO4)5
_chemical_formula_sum   'Sr12 B2 P10 O40'
_cell_volume   941.69456235
_cell_formula_units_Z   2
loop_
 _symmetry_equiv_pos_site_id
 _symmetry_equiv_pos_as_xyz
  1  'x, y, z'
loop_
 _atom_site_type_symbol
 _atom_site_label
 _atom_site_symmetry_multiplicity
 _atom_site_fract_x
 _atom_site_fract_y
 _atom_site_fract_z
 _atom_site_occupancy
  B  B0  1  0.750000  0.250000  0.500000  1
  B  B1  1  0.250000  0.750000  0.500000  1
  O  O2  1  0.971522  0.815843  0.613906  1
  O  O3  1  0.530222  0.785445  0.771199  1
  O  O4  1  0.240978  0.985755  0.771199  1
  O  O5  1  0.030222  0.485755  0.771199  1
  O  O6  1  0.740978  0.285445  0.771199  1
  O  O7  1  0.714555  0.969778  0.228801  1
  O  O8  1  0.958379  0.830251  0.211875  1
  O  O9  1  0.253496  0.381624  0.211875  1
  O  O10  1  0.753496  0.330251  0.211875  1
  O  O11  1  0.618376  0.041621  0.788125  1
  O  O12  1  0.169749  0.746504  0.788125  1
  O  O13  1  0.118376  0.246504  0.788125  1
  O  O14  1  0.669749  0.541621  0.788125  1
  O  O15  1  0.471522  0.298063  0.613906  1
  O  O16  1  0.201937  0.028478  0.386094  1
  O  O17  1  0.184157  0.357616  0.386094  1
  O  O18  1  0.684157  0.528478  0.386094  1
  O  O19  1  0.642384  0.798063  0.613906  1
  O  O20  1  0.514245  0.259022  0.228801  1
  O  O21  1  0.142384  0.315843  0.613906  1
  O  O22  1  0.214555  0.759022  0.228801  1
  O  O23  1  0.014245  0.469778  0.228801  1
  O  O24  1  0.631699  0.110673  0.418338  1
  O  O25  1  0.692335  0.368301  0.581662  1
  O  O26  1  0.889327  0.213361  0.581662  1
  O  O27  1  0.192335  0.713361  0.581662  1
  O  O28  1  0.389327  0.868301  0.581662  1
  O  O29  1  0.786639  0.307665  0.418338  1
  O  O30  1  0.286639  0.610673  0.418338  1
  O  O31  1  0.131699  0.807665  0.418338  1
  O  O32  1  0.983296  0.085577  0.911873  1
  O  O33  1  0.173704  0.016704  0.088127  1
  O  O34  1  0.914423  0.071423  0.088127  1
  O  O35  1  0.673704  0.571423  0.088127  1
  O  O36  1  0.414423  0.516704  0.088127  1
  O  O37  1  0.928577  0.826296  0.911873  1
  O  O38  1  0.428577  0.585577  0.911873  1
  O  O39  1  0.483296  0.326296  0.911873  1
  O  O40  1  0.701937  0.857616  0.386094  1
  O  O41  1  0.458379  0.881624  0.211875  1
  P  P42  1  0.128681  0.855641  0.302164  1
  P  P43  1  0.173483  0.446523  0.302164  1
  P  P44  1  0.673483  0.355641  0.302164  1
  P  P45  1  0.553477  0.871319  0.697836  1
  P  P46  1  0.144359  0.826517  0.697836  1
  P  P47  1  0.053477  0.326517  0.697836  1
  P  P48  1  0.644359  0.371319  0.697836  1
  P  P49  1  0.628681  0.946523  0.302164  1
  P  P50  1  0.500000  0.500000  0.000000  1
  P  P51  1  0.000000  0.000000  0.000000  1
  Sr  Sr52  1  0.722811  0.777189  0.000000  1
  Sr  Sr53  1  0.222811  0.722811  0.000000  1
  Sr  Sr54  1  0.277189  0.222811  0.000000  1
  Sr  Sr55  1  0.777189  0.277189  0.000000  1
  Sr  Sr56  1  0.330867  0.135815  0.671050  1
  Sr  Sr57  1  0.340183  0.535236  0.671050  1
  Sr  Sr58  1  0.840183  0.635815  0.671050  1
  Sr  Sr59  1  0.464764  0.669133  0.328950  1
  Sr  Sr60  1  0.864185  0.659817  0.328950  1
  Sr  Sr61  1  0.964764  0.159817  0.328950  1
  Sr  Sr62  1  0.364185  0.169133  0.328950  1
  Sr  Sr63  1  0.830867  0.035236  0.671050  1
