# generated using pymatgen
data_Na3Ca7Ta3Ti7O30
_symmetry_space_group_name_H-M   'P 1'
_cell_length_a   5.45653796
_cell_length_b   5.54607395
_cell_length_c   38.66733412
_cell_angle_alpha   90.05648923
_cell_angle_beta   90.01897375
_cell_angle_gamma   90.08054514
_symmetry_Int_Tables_number   1
_chemical_formula_structural   Na3Ca7Ta3Ti7O30
_chemical_formula_sum   'Na6 Ca14 Ta6 Ti14 O60'
_cell_volume   1170.16311289
_cell_formula_units_Z   2
loop_
 _symmetry_equiv_pos_site_id
 _symmetry_equiv_pos_as_xyz
  1  'x, y, z'
loop_
 _atom_site_type_symbol
 _atom_site_label
 _atom_site_symmetry_multiplicity
 _atom_site_fract_x
 _atom_site_fract_y
 _atom_site_fract_z
 _atom_site_occupancy
  Na  Na0  1  0.008887  0.962863  0.348611  1
  Na  Na1  1  0.017224  0.966295  0.747570  1
  Na  Na2  1  0.007600  0.979641  0.950702  1
  Na  Na3  1  0.484288  0.465055  0.148220  1
  Na  Na4  1  0.490545  0.470871  0.547175  1
  Na  Na5  1  0.490462  0.486091  0.951331  1
  Ca  Ca6  1  0.006167  0.951146  0.148323  1
  Ca  Ca7  1  0.007992  0.954155  0.547494  1
  Ca  Ca8  1  0.484982  0.459301  0.347666  1
  Ca  Ca9  1  0.501889  0.464214  0.746759  1
  Ca  Ca10  1  0.504430  0.541357  0.052232  1
  Ca  Ca11  1  0.503753  0.537890  0.252280  1
  Ca  Ca12  1  0.516910  0.542063  0.651394  1
  Ca  Ca13  1  0.505167  0.531434  0.451866  1
  Ca  Ca14  1  0.512094  0.537415  0.850301  1
  Ca  Ca15  1  0.983594  0.047052  0.051613  1
  Ca  Ca16  1  0.986028  0.049297  0.252146  1
  Ca  Ca17  1  0.987464  0.038352  0.451982  1
  Ca  Ca18  1  0.995653  0.047543  0.651503  1
  Ca  Ca19  1  0.991723  0.052039  0.850429  1
  Ta  Ta20  1  0.492453  0.010392  0.000737  1
  Ta  Ta21  1  0.497547  0.000343  0.199759  1
  Ta  Ta22  1  0.499177  0.994949  0.399251  1
  Ta  Ta23  1  0.502784  0.007105  0.599187  1
  Ta  Ta24  1  0.496080  0.006331  0.901071  1
  Ta  Ta25  1  0.501518  0.001463  0.798114  1
  Ti  Ti26  1  0.002830  0.513169  0.000125  1
  Ti  Ti27  1  0.983512  0.499880  0.099912  1
  Ti  Ti28  1  0.997487  0.497837  0.199058  1
  Ti  Ti29  1  0.987093  0.511348  0.299472  1
  Ti  Ti30  1  0.996853  0.499141  0.399066  1
  Ti  Ti31  1  0.987369  0.497038  0.499580  1
  Ti  Ti32  1  0.009449  0.503121  0.598913  1
  Ti  Ti33  1  0.018870  0.501089  0.700945  1
  Ti  Ti34  1  0.006719  0.508167  0.800108  1
  Ti  Ti35  1  -0.000037  0.510820  0.902931  1
  Ti  Ti36  1  0.480501  0.998326  0.101590  1
  Ti  Ti37  1  0.483066  0.001034  0.300969  1
  Ti  Ti38  1  0.484237  0.996553  0.500471  1
  Ti  Ti39  1  0.514355  0.002336  0.698888  1
  O  O40  1  0.078610  0.482593  0.050355  1
  O  O41  1  0.080129  0.481609  0.249898  1
  O  O42  1  0.081465  0.481088  0.449804  1
  O  O43  1  0.081613  0.481366  0.649208  1
  O  O44  1  0.082556  0.481809  0.848669  1
  O  O45  1  0.202893  0.204746  0.192640  1
  O  O46  1  0.209808  0.206925  0.107388  1
  O  O47  1  0.226026  0.218652  0.307021  1
  O  O48  1  0.222682  0.217285  0.392379  1
  O  O49  1  0.214117  0.209709  0.506730  1
  O  O50  1  0.199290  0.200336  0.592325  1
  O  O51  1  0.219715  0.219518  0.706677  1
  O  O52  1  0.215372  0.208328  0.792603  1
  O  O53  1  0.209615  0.212133  0.905758  1
  O  O54  1  0.208292  0.214240  0.993986  1
  O  O55  1  0.286641  0.712072  0.192424  1
  O  O56  1  0.294635  0.712093  0.307146  1
  O  O57  1  0.287413  0.719149  0.107744  1
  O  O58  1  0.296447  0.704048  0.391803  1
  O  O59  1  0.284793  0.712720  0.591829  1
  O  O60  1  0.281510  0.722949  0.507028  1
  O  O61  1  0.290202  0.711846  0.707061  1
  O  O62  1  0.284971  0.711638  0.906565  1
  O  O63  1  0.302700  0.699695  0.791779  1
  O  O64  1  0.281400  0.713742  0.993902  1
  O  O65  1  0.416626  0.980502  0.050847  1
  O  O66  1  0.419561  0.980500  0.250245  1
  O  O67  1  0.417983  0.978585  0.649873  1
  O  O68  1  0.419327  0.978063  0.449769  1
  O  O69  1  0.417168  0.976791  0.849540  1
  O  O70  1  0.580897  0.019760  0.349729  1
  O  O71  1  0.582604  0.021291  0.150146  1
  O  O72  1  0.581642  0.019584  0.549635  1
  O  O73  1  0.580144  0.018218  0.749212  1
  O  O74  1  0.575292  0.013219  0.950473  1
  O  O75  1  0.714370  0.280480  0.010088  1
  O  O76  1  0.718136  0.284556  0.091033  1
  O  O77  1  0.718945  0.286286  0.292122  1
  O  O78  1  0.711803  0.286773  0.210368  1
  O  O79  1  0.710951  0.285216  0.609973  1
  O  O80  1  0.719910  0.281696  0.409226  1
  O  O81  1  0.721781  0.277079  0.490583  1
  O  O82  1  0.718191  0.277086  0.890248  1
  O  O83  1  0.712424  0.282998  0.691759  1
  O  O84  1  0.715319  0.284688  0.808713  1
  O  O85  1  0.776861  0.777661  0.009962  1
  O  O86  1  0.789842  0.785735  0.092493  1
  O  O87  1  0.792579  0.790676  0.208379  1
  O  O88  1  0.790387  0.781202  0.409619  1
  O  O89  1  0.788209  0.787211  0.608081  1
  O  O90  1  0.787214  0.781215  0.290886  1
  O  O91  1  0.783380  0.779431  0.492083  1
  O  O92  1  0.779671  0.782392  0.690597  1
  O  O93  1  0.791179  0.783761  0.809448  1
  O  O94  1  0.779338  0.777443  0.890462  1
  O  O95  1  0.928666  0.516138  0.150841  1
  O  O96  1  0.923327  0.513988  0.350677  1
  O  O97  1  0.930686  0.514833  0.550221  1
  O  O98  1  0.927015  0.514548  0.750144  1
  O  O99  1  0.926965  0.515595  0.950053  1
