# generated using pymatgen
data_Ag3SI
_symmetry_space_group_name_H-M   'P 1'
_cell_length_a   4.73214823
_cell_length_b   4.31968993
_cell_length_c   18.10155563
_cell_angle_alpha   116.16298830
_cell_angle_beta   121.29231830
_cell_angle_gamma   89.88724468
_symmetry_Int_Tables_number   1
_chemical_formula_structural   Ag3SI
_chemical_formula_sum   'Ag6 S2 I2'
_cell_volume   271.07710535
_cell_formula_units_Z   2
loop_
 _symmetry_equiv_pos_site_id
 _symmetry_equiv_pos_as_xyz
  1  'x, y, z'
loop_
 _atom_site_type_symbol
 _atom_site_label
 _atom_site_symmetry_multiplicity
 _atom_site_fract_x
 _atom_site_fract_y
 _atom_site_fract_z
 _atom_site_occupancy
  Ag  Ag0  1  0.417328  0.087881  0.932744  1
  Ag  Ag1  1  0.707339  0.047368  0.825656  1
  Ag  Ag2  1  0.203339  0.788286  0.359662  1
  Ag  Ag3  1  0.375876  0.671707  0.091054  1
  Ag  Ag4  1  0.671097  0.196723  0.323937  1
  Ag  Ag5  1  0.996443  0.388906  0.146460  1
  S  S6  1  0.983715  0.063942  0.235087  1
  S  S7  1  0.026800  0.027973  0.994408  1
  I  I8  1  0.022973  0.082351  0.734780  1
  I  I9  1  0.945090  -0.005137  0.481212  1
