# generated using pymatgen
data_K(Zr3I7)4
_symmetry_space_group_name_H-M   'P 1'
_cell_length_a   11.33677500
_cell_length_b   11.33677528
_cell_length_c   53.28751243
_cell_angle_alpha   90.00000000
_cell_angle_beta   90.00000000
_cell_angle_gamma   93.96941227
_symmetry_Int_Tables_number   1
_chemical_formula_structural   K(Zr3I7)4
_chemical_formula_sum   'K4 Zr48 I112'
_cell_volume   6832.21386642
_cell_formula_units_Z   4
loop_
 _symmetry_equiv_pos_site_id
 _symmetry_equiv_pos_as_xyz
  1  'x, y, z'
loop_
 _atom_site_type_symbol
 _atom_site_label
 _atom_site_symmetry_multiplicity
 _atom_site_fract_x
 _atom_site_fract_y
 _atom_site_fract_z
 _atom_site_occupancy
  K  K0  1  0.994277  0.994277  0.648627  1
  K  K1  1  0.062499  0.062499  0.876254  1
  K  K2  1  0.562499  0.562499  0.498746  1
  K  K3  1  0.494277  0.494277  0.726373  1
  Zr  Zr4  1  0.052034  0.822661  0.095745  1
  Zr  Zr5  1  0.053914  0.820129  0.344574  1
  Zr  Zr6  1  0.047302  0.830676  0.599838  1
  Zr  Zr7  1  0.013039  0.803205  0.846322  1
  Zr  Zr8  1  0.181026  0.949586  0.154844  1
  Zr  Zr9  1  0.166022  0.959964  0.399585  1
  Zr  Zr10  1  0.218126  0.947566  0.652527  1
  Zr  Zr11  1  0.215720  0.913523  0.913043  1
  Zr  Zr12  1  0.102881  0.102881  0.106912  1
  Zr  Zr13  1  0.112204  0.112204  0.352171  1
  Zr  Zr14  1  0.124389  0.124389  0.601875  1
  Zr  Zr15  1  0.192739  0.192739  0.836706  1
  Zr  Zr16  1  0.320129  0.553914  0.030426  1
  Zr  Zr17  1  0.303205  0.513039  0.528678  1
  Zr  Zr18  1  0.322661  0.552034  0.279255  1
  Zr  Zr19  1  0.330676  0.547302  0.775162  1
  Zr  Zr20  1  0.399501  0.399501  0.231192  1
  Zr  Zr21  1  0.320940  0.320940  0.724187  1
  Zr  Zr22  1  0.354449  0.354449  0.479557  1
  Zr  Zr23  1  0.392777  0.392777  0.981094  1
  Zr  Zr24  1  0.449586  0.681026  0.220156  1
  Zr  Zr25  1  0.447566  0.718126  0.722473  1
  Zr  Zr26  1  0.413523  0.715720  0.461957  1
  Zr  Zr27  1  0.459964  0.666022  0.975415  1
  Zr  Zr28  1  0.553914  0.320129  0.030426  1
  Zr  Zr29  1  0.552034  0.322661  0.279255  1
  Zr  Zr30  1  0.513039  0.303205  0.528678  1
  Zr  Zr31  1  0.547302  0.330676  0.775162  1
  Zr  Zr32  1  0.612204  0.612204  0.022829  1
  Zr  Zr33  1  0.602881  0.602881  0.268088  1
  Zr  Zr34  1  0.692739  0.692739  0.538294  1
  Zr  Zr35  1  0.624389  0.624389  0.773125  1
  Zr  Zr36  1  0.718126  0.447566  0.722473  1
  Zr  Zr37  1  0.681026  0.449586  0.220156  1
  Zr  Zr38  1  0.715720  0.413523  0.461957  1
  Zr  Zr39  1  0.666022  0.459964  0.975415  1
  Zr  Zr40  1  0.899501  0.899501  0.143808  1
  Zr  Zr41  1  0.820940  0.820940  0.650813  1
  Zr  Zr42  1  0.854449  0.854449  0.895443  1
  Zr  Zr43  1  0.892777  0.892777  0.393906  1
  Zr  Zr44  1  0.822661  0.052034  0.095745  1
  Zr  Zr45  1  0.820129  0.053914  0.344574  1
  Zr  Zr46  1  0.803205  0.013039  0.846322  1
  Zr  Zr47  1  0.830676  0.047302  0.599838  1
  Zr  Zr48  1  0.949586  0.181026  0.154844  1
  Zr  Zr49  1  0.947566  0.218126  0.652527  1
  Zr  Zr50  1  0.959964  0.166022  0.399585  1
  Zr  Zr51  1  0.913523  0.215720  0.913043  1
  I  I52  1  0.029404  0.794276  0.184967  1
  I  I53  1  0.034971  0.798817  0.433963  1
  I  I54  1  0.038352  0.788201  0.684800  1
  I  I55  1  0.023350  0.787115  0.936736  1
  I  I56  1  0.107223  0.611463  0.062420  1
  I  I57  1  0.111463  0.607223  0.312580  1
  I  I58  1  0.103390  0.603451  0.561927  1
  I  I59  1  0.103451  0.603390  0.813073  1
  I  I60  1  0.107188  0.343973  0.127567  1
  I  I61  1  0.109188  0.346836  0.374239  1
  I  I62  1  0.118008  0.362599  0.625062  1
  I  I63  1  0.099634  0.348065  0.876806  1
  I  I64  1  0.155855  0.395311  0.002841  1
  I  I65  1  0.158937  0.395473  0.251960  1
  I  I66  1  0.124917  0.375355  0.501283  1
  I  I67  1  0.132168  0.387493  0.755279  1
  I  I68  1  0.208679  0.973463  0.065738  1
  I  I69  1  0.206117  0.966815  0.312629  1
  I  I70  1  0.202504  0.960564  0.564249  1
  I  I71  1  0.192687  0.956774  0.815475  1
  I  I72  1  0.143938  0.143938  0.190603  1
  I  I73  1  0.149787  0.149787  0.438165  1
  I  I74  1  0.153539  0.153539  0.689681  1
  I  I75  1  0.134521  0.134521  0.936949  1
  I  I76  1  0.253378  0.753663  0.000823  1
  I  I77  1  0.248203  0.752717  0.249823  1
  I  I78  1  0.243538  0.757424  0.751137  1
  I  I79  1  0.248005  0.736927  0.501019  1
  I  I80  1  0.252717  0.748203  0.125177  1
  I  I81  1  0.253663  0.753378  0.374177  1
  I  I82  1  0.257424  0.743538  0.623863  1
  I  I83  1  0.236927  0.748005  0.873981  1
  I  I84  1  0.294276  0.529404  0.190033  1
  I  I85  1  0.287115  0.523350  0.438264  1
  I  I86  1  0.288201  0.538352  0.690200  1
  I  I87  1  0.298817  0.534971  0.941037  1
  I  I88  1  0.356437  0.356437  0.065295  1
  I  I89  1  0.358241  0.358241  0.315130  1
  I  I90  1  0.329085  0.329085  0.565834  1
  I  I91  1  0.362056  0.362056  0.815376  1
  I  I92  1  0.391718  0.891718  0.187500  1
  I  I93  1  0.417587  0.917587  0.687500  1
  I  I94  1  0.391259  0.918214  0.434036  1
  I  I95  1  0.418214  0.891259  0.940964  1
  I  I96  1  0.343973  0.107188  0.127567  1
  I  I97  1  0.346836  0.109188  0.374239  1
  I  I98  1  0.362599  0.118008  0.625062  1
  I  I99  1  0.348065  0.099634  0.876806  1
  I  I100  1  0.395311  0.155855  0.002841  1
  I  I101  1  0.395473  0.158937  0.251960  1
  I  I102  1  0.375355  0.124917  0.501283  1
  I  I103  1  0.387493  0.132168  0.755279  1
  I  I104  1  0.466815  0.706117  0.062370  1
  I  I105  1  0.473463  0.708679  0.309262  1
  I  I106  1  0.456774  0.692687  0.559525  1
  I  I107  1  0.460564  0.702504  0.810751  1
  I  I108  1  0.529404  0.294276  0.190033  1
  I  I109  1  0.523350  0.287115  0.438264  1
  I  I110  1  0.538352  0.288201  0.690200  1
  I  I111  1  0.534971  0.298817  0.941037  1
  I  I112  1  0.607188  0.843973  0.247433  1
  I  I113  1  0.599634  0.848065  0.498193  1
  I  I114  1  0.618008  0.862599  0.749938  1
  I  I115  1  0.609188  0.846836  0.000762  1
  I  I116  1  0.658937  0.895473  0.123040  1
  I  I117  1  0.655855  0.895311  0.372158  1
  I  I118  1  0.632168  0.887493  0.619721  1
  I  I119  1  0.624917  0.875355  0.873717  1
  I  I120  1  0.611463  0.107223  0.062420  1
  I  I121  1  0.607223  0.111463  0.312580  1
  I  I122  1  0.603390  0.103451  0.813073  1
  I  I123  1  0.603451  0.103390  0.561927  1
  I  I124  1  0.634521  0.634521  0.438051  1
  I  I125  1  0.653539  0.653539  0.685319  1
  I  I126  1  0.643938  0.643938  0.184397  1
  I  I127  1  0.649787  0.649787  0.936835  1
  I  I128  1  0.706117  0.466815  0.062370  1
  I  I129  1  0.708679  0.473463  0.309262  1
  I  I130  1  0.702504  0.460564  0.810751  1
  I  I131  1  0.692687  0.456774  0.559525  1
  I  I132  1  0.748203  0.252717  0.125177  1
  I  I133  1  0.753378  0.253663  0.374177  1
  I  I134  1  0.743538  0.257424  0.623863  1
  I  I135  1  0.748005  0.236927  0.873981  1
  I  I136  1  0.753663  0.253378  0.000823  1
  I  I137  1  0.752717  0.248203  0.249823  1
  I  I138  1  0.736927  0.248005  0.501019  1
  I  I139  1  0.757424  0.243538  0.751137  1
  I  I140  1  0.858241  0.858241  0.059870  1
  I  I141  1  0.856437  0.856437  0.309705  1
  I  I142  1  0.862056  0.862056  0.559624  1
  I  I143  1  0.829085  0.829085  0.809166  1
  I  I144  1  0.794276  0.029404  0.184967  1
  I  I145  1  0.798817  0.034971  0.433963  1
  I  I146  1  0.788201  0.038352  0.684800  1
  I  I147  1  0.787115  0.023350  0.936736  1
  I  I148  1  0.843973  0.607188  0.247433  1
  I  I149  1  0.862599  0.618008  0.749938  1
  I  I150  1  0.846836  0.609188  0.000762  1
  I  I151  1  0.848065  0.599634  0.498193  1
  I  I152  1  0.895473  0.658937  0.123040  1
  I  I153  1  0.895311  0.655855  0.372158  1
  I  I154  1  0.887493  0.632168  0.619721  1
  I  I155  1  0.875355  0.624917  0.873717  1
  I  I156  1  0.891718  0.391718  0.187500  1
  I  I157  1  0.918214  0.391259  0.434036  1
  I  I158  1  0.917587  0.417587  0.687500  1
  I  I159  1  0.891259  0.418214  0.940964  1
  I  I160  1  0.973463  0.208679  0.065738  1
  I  I161  1  0.966815  0.206117  0.312629  1
  I  I162  1  0.960564  0.202504  0.564249  1
  I  I163  1  0.956774  0.192687  0.815475  1
