# generated using pymatgen
data_FeSNO
_symmetry_space_group_name_H-M   'P 1'
_cell_length_a   10.43503915
_cell_length_b   11.21700443
_cell_length_c   13.37505413
_cell_angle_alpha   103.65801388
_cell_angle_beta   90.00034219
_cell_angle_gamma   89.99913486
_symmetry_Int_Tables_number   1
_chemical_formula_structural   FeSNO
_chemical_formula_sum   'Fe16 S16 N16 O16'
_cell_volume   1521.27855216
_cell_formula_units_Z   16
loop_
 _symmetry_equiv_pos_site_id
 _symmetry_equiv_pos_as_xyz
  1  'x, y, z'
loop_
 _atom_site_type_symbol
 _atom_site_label
 _atom_site_symmetry_multiplicity
 _atom_site_fract_x
 _atom_site_fract_y
 _atom_site_fract_z
 _atom_site_occupancy
  Fe  Fe0  1  0.913946  0.739766  0.955819  1
  Fe  Fe1  1  0.349033  0.361564  0.114223  1
  Fe  Fe2  1  0.180163  0.679689  0.408458  1
  Fe  Fe3  1  0.319844  0.179677  0.908506  1
  Fe  Fe4  1  0.086054  0.260234  0.044181  1
  Fe  Fe5  1  0.787556  0.403887  0.393499  1
  Fe  Fe6  1  0.150982  0.861534  0.614174  1
  Fe  Fe7  1  0.413944  0.760250  0.544192  1
  Fe  Fe8  1  0.586056  0.239750  0.455808  1
  Fe  Fe9  1  0.287527  0.096131  0.106531  1
  Fe  Fe10  1  0.849018  0.138466  0.385826  1
  Fe  Fe11  1  0.819837  0.320311  0.591542  1
  Fe  Fe12  1  0.650967  0.638436  0.885777  1
  Fe  Fe13  1  0.680156  0.820323  0.091494  1
  Fe  Fe14  1  0.212444  0.596113  0.606501  1
  Fe  Fe15  1  0.712473  0.903869  0.893469  1
  S  S16  1  0.771585  0.621355  0.032959  1
  S  S17  1  0.690434  0.220973  0.294333  1
  S  S18  1  0.345155  0.559753  0.457572  1
  S  S19  1  0.728408  0.121339  0.532974  1
  S  S20  1  0.845171  0.940268  0.042441  1
  S  S21  1  0.969595  0.318182  0.457153  1
  S  S22  1  0.271592  0.878661  0.467026  1
  S  S23  1  0.030405  0.681818  0.542847  1
  S  S24  1  0.190414  0.279030  0.205682  1
  S  S25  1  0.228415  0.378645  0.967041  1
  S  S26  1  0.309566  0.779027  0.705667  1
  S  S27  1  0.654845  0.440247  0.542428  1
  S  S28  1  0.154829  0.059732  0.957559  1
  S  S29  1  0.809586  0.720970  0.794318  1
  S  S30  1  0.469571  0.181829  0.042860  1
  S  S31  1  0.530429  0.818171  0.957140  1
  N  N32  1  0.582697  0.788431  0.544479  1
  N  N33  1  0.302024  0.969770  0.166205  1
  N  N34  1  0.372962  0.143918  0.777690  1
  N  N35  1  0.127027  0.643919  0.277671  1
  N  N36  1  0.439219  0.494061  0.176290  1
  N  N37  1  0.060791  0.994037  0.676273  1
  N  N38  1  0.697976  0.030230  0.833795  1
  N  N39  1  0.802033  0.530236  0.333790  1
  N  N40  1  0.197967  0.469764  0.666210  1
  N  N41  1  0.082690  0.711575  0.955521  1
  N  N42  1  0.560781  0.505939  0.823710  1
  N  N43  1  0.872973  0.356081  0.722329  1
  N  N44  1  0.917310  0.288425  0.044479  1
  N  N45  1  0.939209  0.005963  0.323727  1
  N  N46  1  0.417303  0.211569  0.455521  1
  N  N47  1  0.627038  0.856082  0.222310  1
  O  O48  1  0.805968  0.618463  0.300288  1
  O  O49  1  0.092283  0.622726  0.191175  1
  O  O50  1  0.001592  0.082680  0.714287  1
  O  O51  1  0.305968  0.881550  0.199705  1
  O  O52  1  0.498421  0.582697  0.214291  1
  O  O53  1  0.305416  0.196555  0.455017  1
  O  O54  1  0.694032  0.118450  0.800295  1
  O  O55  1  0.194032  0.381537  0.699712  1
  O  O56  1  0.592277  0.877276  0.308835  1
  O  O57  1  0.407723  0.122724  0.691165  1
  O  O58  1  0.805421  0.303446  0.044982  1
  O  O59  1  0.694584  0.803445  0.544983  1
  O  O60  1  0.194579  0.696554  0.955018  1
  O  O61  1  0.501579  0.417303  0.785709  1
  O  O62  1  0.998408  0.917320  0.285713  1
  O  O63  1  0.907717  0.377274  0.808825  1
