# generated using pymatgen
data_Ag3H13SeN4O5
_symmetry_space_group_name_H-M   'P 1'
_cell_length_a   11.89814619
_cell_length_b   14.74610058
_cell_length_c   6.53821947
_cell_angle_alpha   90.00000000
_cell_angle_beta   90.00000000
_cell_angle_gamma   90.00000000
_symmetry_Int_Tables_number   1
_chemical_formula_structural   Ag3H13SeN4O5
_chemical_formula_sum   'Ag12 H52 Se4 N16 O20'
_cell_volume   1147.13884700
_cell_formula_units_Z   4
loop_
 _symmetry_equiv_pos_site_id
 _symmetry_equiv_pos_as_xyz
  1  'x, y, z'
loop_
 _atom_site_type_symbol
 _atom_site_label
 _atom_site_symmetry_multiplicity
 _atom_site_fract_x
 _atom_site_fract_y
 _atom_site_fract_z
 _atom_site_occupancy
  Ag  Ag0  1  0.553046  0.612863  0.719557  1
  Ag  Ag1  1  0.946954  0.387137  0.219557  1
  Ag  Ag2  1  0.053046  0.887137  0.280443  1
  Ag  Ag3  1  0.446954  0.112863  0.780443  1
  Ag  Ag4  1  0.751214  0.498803  0.937759  1
  Ag  Ag5  1  0.748786  0.501197  0.437759  1
  Ag  Ag6  1  0.251214  0.001197  0.062241  1
  Ag  Ag7  1  0.248786  0.998803  0.562241  1
  Ag  Ag8  1  0.542690  0.600005  0.227466  1
  Ag  Ag9  1  0.957310  0.399995  0.727466  1
  Ag  Ag10  1  0.042690  0.899995  0.772534  1
  Ag  Ag11  1  0.457310  0.100005  0.272534  1
  H  H12  1  0.716660  0.874104  0.716483  1
  H  H13  1  0.783340  0.125896  0.216483  1
  H  H14  1  0.216660  0.625896  0.283517  1
  H  H15  1  0.283340  0.374104  0.783517  1
  H  H16  1  0.609743  0.918654  0.805871  1
  H  H17  1  0.890257  0.081346  0.305871  1
  H  H18  1  0.109743  0.581346  0.194129  1
  H  H19  1  0.390257  0.418654  0.694129  1
  H  H20  1  0.921609  0.643878  0.090833  1
  H  H21  1  0.578391  0.356122  0.590833  1
  H  H22  1  0.421609  0.856122  0.909167  1
  H  H23  1  0.078391  0.143878  0.409167  1
  H  H24  1  0.951285  0.627897  0.323346  1
  H  H25  1  0.548715  0.372103  0.823346  1
  H  H26  1  0.451285  0.872103  0.676654  1
  H  H27  1  0.048715  0.127897  0.176654  1
  H  H28  1  0.664158  0.743735  0.341015  1
  H  H29  1  0.835842  0.256265  0.841015  1
  H  H30  1  0.164158  0.756265  0.658985  1
  H  H31  1  0.335842  0.243735  0.158985  1
  H  H32  1  0.569945  0.776004  0.168908  1
  H  H33  1  0.930055  0.223996  0.668908  1
  H  H34  1  0.069945  0.723996  0.831092  1
  H  H35  1  0.430055  0.276004  0.331092  1
  H  H36  1  0.690580  0.727571  0.092784  1
  H  H37  1  0.809420  0.272429  0.592784  1
  H  H38  1  0.190580  0.772429  0.907216  1
  H  H39  1  0.309420  0.227571  0.407216  1
  H  H40  1  0.345467  0.505944  0.213666  1
  H  H41  1  0.154533  0.494056  0.713666  1
  H  H42  1  0.845467  0.994056  0.786334  1
  H  H43  1  0.654533  0.005944  0.286334  1
  H  H44  1  0.427848  0.459412  0.387749  1
  H  H45  1  0.072152  0.540588  0.887749  1
  H  H46  1  0.927848  0.040588  0.612251  1
  H  H47  1  0.572152  0.959412  0.112251  1
  H  H48  1  0.452555  0.437258  0.146435  1
  H  H49  1  0.047445  0.562742  0.646435  1
  H  H50  1  0.952555  0.062742  0.853565  1
  H  H51  1  0.547445  0.937258  0.353565  1
  H  H52  1  0.367072  0.677500  0.890204  1
  H  H53  1  0.132928  0.322500  0.390204  1
  H  H54  1  0.867072  0.822500  0.109796  1
  H  H55  1  0.632928  0.177500  0.609796  1
  H  H56  1  0.340624  0.572551  0.806242  1
  H  H57  1  0.159376  0.427449  0.306242  1
  H  H58  1  0.840624  0.927449  0.193758  1
  H  H59  1  0.659376  0.072551  0.693758  1
  H  H60  1  0.338783  0.659245  0.643124  1
  H  H61  1  0.161217  0.340755  0.143124  1
  H  H62  1  0.838783  0.840755  0.356876  1
  H  H63  1  0.661217  0.159245  0.856876  1
  Se  Se64  1  0.817222  0.687322  0.692328  1
  Se  Se65  1  0.682778  0.312678  0.192328  1
  Se  Se66  1  0.317222  0.812678  0.307672  1
  Se  Se67  1  0.182778  0.187322  0.807672  1
  N  N68  1  0.727523  0.590140  0.689094  1
  N  N69  1  0.772477  0.409860  0.189094  1
  N  N70  1  0.227523  0.909860  0.310906  1
  N  N71  1  0.272477  0.090140  0.810906  1
  N  N72  1  0.628324  0.727304  0.201935  1
  N  N73  1  0.871676  0.272696  0.701935  1
  N  N74  1  0.128324  0.772696  0.798065  1
  N  N75  1  0.371676  0.227304  0.298065  1
  N  N76  1  0.427000  0.487627  0.244803  1
  N  N77  1  0.073000  0.512373  0.744803  1
  N  N78  1  0.927000  0.012373  0.755197  1
  N  N79  1  0.573000  0.987627  0.255197  1
  N  N80  1  0.378414  0.632748  0.771088  1
  N  N81  1  0.121586  0.367252  0.271088  1
  N  N82  1  0.878414  0.867252  0.228912  1
  N  N83  1  0.621586  0.132748  0.728912  1
  O  O84  1  0.755425  0.775807  0.573720  1
  O  O85  1  0.744575  0.224193  0.073720  1
  O  O86  1  0.255425  0.724193  0.426280  1
  O  O87  1  0.244575  0.275807  0.926280  1
  O  O88  1  0.841026  0.718500  0.937679  1
  O  O89  1  0.658974  0.281500  0.437679  1
  O  O90  1  0.341026  0.781500  0.062321  1
  O  O91  1  0.158974  0.218500  0.562321  1
  O  O92  1  0.941766  0.666115  0.580852  1
  O  O93  1  0.558234  0.333885  0.080852  1
  O  O94  1  0.441766  0.833885  0.419148  1
  O  O95  1  0.058234  0.166115  0.919148  1
  O  O96  1  0.690897  0.930702  0.783295  1
  O  O97  1  0.809103  0.069298  0.283295  1
  O  O98  1  0.190897  0.569298  0.216705  1
  O  O99  1  0.309103  0.430702  0.716705  1
  O  O100  1  0.965864  0.604116  0.183277  1
  O  O101  1  0.534136  0.395884  0.683277  1
  O  O102  1  0.465864  0.895884  0.816723  1
  O  O103  1  0.034136  0.104116  0.316723  1
