# generated using pymatgen
data_K10Th3(P5S18)2
_symmetry_space_group_name_H-M   'P 1'
_cell_length_a   9.16855498
_cell_length_b   17.25483622
_cell_length_c   22.90234589
_cell_angle_alpha   85.49261743
_cell_angle_beta   78.45331361
_cell_angle_gamma   74.59259525
_symmetry_Int_Tables_number   1
_chemical_formula_structural   K10Th3(P5S18)2
_chemical_formula_sum   'K20 Th6 P20 S72'
_cell_volume   3421.05172487
_cell_formula_units_Z   2
loop_
 _symmetry_equiv_pos_site_id
 _symmetry_equiv_pos_as_xyz
  1  'x, y, z'
loop_
 _atom_site_type_symbol
 _atom_site_label
 _atom_site_symmetry_multiplicity
 _atom_site_fract_x
 _atom_site_fract_y
 _atom_site_fract_z
 _atom_site_occupancy
  K  K0  1  0.230107  0.059202  0.573329  1
  K  K1  1  0.641831  0.817869  0.126926  1
  K  K2  1  0.137361  0.559202  0.073329  1
  K  K3  1  0.593948  0.541267  0.163477  1
  K  K4  1  0.406052  0.458733  0.836523  1
  K  K5  1  0.358169  0.182131  0.873074  1
  K  K6  1  0.769893  0.940798  0.426671  1
  K  K7  1  0.586625  0.682131  0.373074  1
  K  K8  1  0.298692  0.958733  0.336523  1
  K  K9  1  0.842465  0.689647  0.763658  1
  K  K10  1  0.848807  0.956650  0.899351  1
  K  K11  1  0.157535  0.310353  0.236342  1
  K  K12  1  0.413375  0.317869  0.626926  1
  K  K13  1  0.704231  0.189647  0.263658  1
  K  K14  1  0.862639  0.440798  0.926671  1
  K  K15  1  0.295769  0.810353  0.736342  1
  K  K16  1  0.701308  0.041267  0.663477  1
  K  K17  1  0.295192  0.456650  0.399351  1
  K  K18  1  0.151193  0.043350  0.100649  1
  K  K19  1  0.704808  0.543350  0.600649  1
  Th  Th20  1  0.167357  0.717736  0.555432  1
  Th  Th21  1  0.440526  0.782264  0.944568  1
  Th  Th22  1  0.965409  0.250000  0.750000  1
  Th  Th23  1  0.559474  0.217736  0.055432  1
  Th  Th24  1  0.034591  0.750000  0.250000  1
  Th  Th25  1  0.832643  0.282264  0.444568  1
  P  P26  1  0.122653  0.743840  0.399804  1
  P  P27  1  0.121430  0.741726  0.891118  1
  P  P28  1  0.526535  0.044026  0.151754  1
  P  P29  1  0.266297  0.756160  0.100196  1
  P  P30  1  0.277685  0.544026  0.651754  1
  P  P31  1  0.878570  0.258274  0.108882  1
  P  P32  1  0.240782  0.052545  0.746419  1
  P  P33  1  0.473465  0.955974  0.848246  1
  P  P34  1  0.759218  0.947455  0.253581  1
  P  P35  1  0.558677  0.164731  0.470406  1
  P  P36  1  0.754274  0.758274  0.608882  1
  P  P37  1  0.877347  0.256160  0.600196  1
  P  P38  1  0.722315  0.455974  0.348246  1
  P  P39  1  0.806186  0.664731  0.970406  1
  P  P40  1  0.960255  0.552545  0.246419  1
  P  P41  1  0.733703  0.243840  0.899804  1
  P  P42  1  0.193814  0.335269  0.029594  1
  P  P43  1  0.441323  0.835269  0.529594  1
  P  P44  1  0.245726  0.241726  0.391118  1
  P  P45  1  0.039745  0.447455  0.753581  1
  S  S46  1  0.085581  0.489862  0.662348  1
  S  S47  1  0.510218  0.284104  0.486557  1
  S  S48  1  0.289246  0.162369  0.739065  1
  S  S49  1  0.262308  0.762159  0.320303  1
  S  S50  1  0.001697  0.208308  0.170885  1
  S  S51  1  0.989168  0.924686  0.255608  1
  S  S52  1  0.489782  0.715896  0.513443  1
  S  S53  1  0.688190  0.640698  0.909165  1
  S  S54  1  0.444650  0.476916  0.691173  1
  S  S55  1  0.612740  0.023084  0.808827  1
  S  S56  1  0.694673  0.139914  0.942130  1
  S  S57  1  0.237790  0.010138  0.837652  1
  S  S58  1  0.169461  0.575314  0.244392  1
  S  S59  1  0.761947  0.140698  0.409165  1
  S  S60  1  0.719121  0.784104  0.986557  1
  S  S61  1  0.081304  0.257488  0.623528  1
  S  S62  1  0.885447  0.177407  0.047194  1
  S  S63  1  0.238053  0.859302  0.590835  1
  S  S64  1  0.889952  0.677407  0.547194  1
  S  S65  1  0.807250  0.339297  0.323170  1
  S  S66  1  0.432585  0.914397  0.461313  1
  S  S67  1  0.710754  0.837631  0.260935  1
  S  S68  1  0.384348  0.973905  0.688871  1
  S  S69  1  0.380890  0.291692  0.329115  1
  S  S70  1  0.190679  0.337631  0.760935  1
  S  S71  1  0.373808  0.139383  0.436223  1
  S  S72  1  0.439120  0.953525  0.939203  1
  S  S73  1  0.311810  0.359302  0.090835  1
  S  S74  1  0.387260  0.976916  0.191173  1
  S  S75  1  0.344770  0.737841  0.179697  1
  S  S76  1  0.037680  0.757488  0.123528  1
  S  S77  1  0.949414  0.360617  0.063777  1
  S  S78  1  0.808295  0.585603  0.038687  1
  S  S79  1  0.105189  0.182672  0.363985  1
  S  S80  1  0.737692  0.237841  0.679697  1
  S  S81  1  0.619110  0.708308  0.670885  1
  S  S82  1  0.110048  0.322593  0.452806  1
  S  S83  1  0.615652  0.026095  0.311129  1
  S  S84  1  0.962320  0.242512  0.876472  1
  S  S85  1  0.050586  0.639383  0.936223  1
  S  S86  1  0.280879  0.215896  0.013443  1
  S  S87  1  0.555350  0.523084  0.308827  1
  S  S88  1  0.530283  0.839297  0.823170  1
  S  S89  1  0.348154  0.682672  0.863985  1
  S  S90  1  0.655230  0.262159  0.820303  1
  S  S91  1  0.952876  0.473905  0.188871  1
  S  S92  1  0.114553  0.822593  0.952806  1
  S  S93  1  0.998303  0.791692  0.829115  1
  S  S94  1  0.331849  0.546475  0.560797  1
  S  S95  1  0.047124  0.526095  0.811129  1
  S  S96  1  0.894811  0.817328  0.636015  1
  S  S97  1  0.191705  0.414397  0.961313  1
  S  S98  1  0.010832  0.075314  0.744392  1
  S  S99  1  0.830539  0.424686  0.755608  1
  S  S100  1  0.613191  0.332812  0.958422  1
  S  S101  1  0.776718  0.360086  0.557870  1
  S  S102  1  0.809321  0.662369  0.239065  1
  S  S103  1  0.904425  0.167188  0.541578  1
  S  S104  1  0.192750  0.660703  0.676830  1
  S  S105  1  0.668151  0.453525  0.439203  1
  S  S106  1  0.762210  0.989862  0.162348  1
  S  S107  1  0.469717  0.160703  0.176830  1
  S  S108  1  0.095575  0.832812  0.458422  1
  S  S109  1  0.223282  0.639914  0.442130  1
  S  S110  1  0.560880  0.046475  0.060797  1
  S  S111  1  0.651846  0.317328  0.136015  1
  S  S112  1  0.626192  0.860617  0.563777  1
  S  S113  1  0.918696  0.742512  0.376472  1
  S  S114  1  0.386809  0.667188  0.041578  1
  S  S115  1  0.567415  0.085603  0.538687  1
  S  S116  1  0.914419  0.510138  0.337652  1
  S  S117  1  0.305327  0.860086  0.057870  1
