# generated using pymatgen
data_InP2H4NO8
_symmetry_space_group_name_H-M   'P 1'
_cell_length_a   9.82199365
_cell_length_b   8.44292124
_cell_length_c   9.79640102
_cell_angle_alpha   90.00000000
_cell_angle_beta   116.37809151
_cell_angle_gamma   90.00000000
_symmetry_Int_Tables_number   1
_chemical_formula_structural   InP2H4NO8
_chemical_formula_sum   'In4 P8 H16 N4 O32'
_cell_volume   727.79591368
_cell_formula_units_Z   4
loop_
 _symmetry_equiv_pos_site_id
 _symmetry_equiv_pos_as_xyz
  1  'x, y, z'
loop_
 _atom_site_type_symbol
 _atom_site_label
 _atom_site_symmetry_multiplicity
 _atom_site_fract_x
 _atom_site_fract_y
 _atom_site_fract_z
 _atom_site_occupancy
  In  In0  1  0.742014  0.371082  0.508458  1
  In  In1  1  0.257986  0.871082  0.991542  1
  In  In2  1  0.257986  0.628918  0.491542  1
  In  In3  1  0.742014  0.128918  0.008458  1
  P  P4  1  0.507635  0.323754  0.672474  1
  P  P5  1  0.492365  0.823754  0.827526  1
  P  P6  1  0.492365  0.676246  0.327526  1
  P  P7  1  0.507635  0.176246  0.172474  1
  P  P8  1  0.907024  0.435710  0.270114  1
  P  P9  1  0.092976  0.935710  0.229886  1
  P  P10  1  0.092976  0.564290  0.729886  1
  P  P11  1  0.907024  0.064290  0.770114  1
  H  H12  1  0.814362  0.507550  0.956053  1
  H  H13  1  0.185638  0.007550  0.543947  1
  H  H14  1  0.185638  0.492450  0.043947  1
  H  H15  1  0.814362  0.992450  0.456053  1
  H  H16  1  0.938048  0.617383  0.912985  1
  H  H17  1  0.061952  0.117383  0.587015  1
  H  H18  1  0.061952  0.382617  0.087015  1
  H  H19  1  0.938048  0.882617  0.412985  1
  H  H20  1  0.752314  0.646419  0.816269  1
  H  H21  1  0.247686  0.146419  0.683731  1
  H  H22  1  0.247686  0.353581  0.183731  1
  H  H23  1  0.752314  0.853581  0.316269  1
  H  H24  1  0.841438  0.700070  0.000021  1
  H  H25  1  0.158562  0.200070  0.499979  1
  H  H26  1  0.158562  0.299930  -0.000021  1
  H  H27  1  0.841438  0.799930  0.500021  1
  N  N28  1  0.837203  0.616836  0.921885  1
  N  N29  1  0.162797  0.116836  0.578115  1
  N  N30  1  0.162797  0.383164  0.078115  1
  N  N31  1  0.837203  0.883164  0.421885  1
  O  O32  1  0.630957  0.416398  0.650124  1
  O  O33  1  0.369043  0.916398  0.849876  1
  O  O34  1  0.369043  0.583602  0.349876  1
  O  O35  1  0.630957  0.083602  0.150124  1
  O  O36  1  0.358554  0.417859  0.617336  1
  O  O37  1  0.641446  0.917859  0.882664  1
  O  O38  1  0.641446  0.582141  0.382664  1
  O  O39  1  0.358554  0.082141  0.117336  1
  O  O40  1  0.559758  0.274128  0.841431  1
  O  O41  1  0.440242  0.774128  0.658569  1
  O  O42  1  0.440242  0.725872  0.158569  1
  O  O43  1  0.559758  0.225872  0.341431  1
  O  O44  1  0.476773  0.155218  0.599445  1
  O  O45  1  0.523227  0.655218  0.900555  1
  O  O46  1  0.523227  0.844782  0.400555  1
  O  O47  1  0.476773  0.344782  0.099445  1
  O  O48  1  0.854276  0.348496  0.115320  1
  O  O49  1  0.145724  0.848496  0.384680  1
  O  O50  1  0.145724  0.651504  0.884680  1
  O  O51  1  0.854276  0.151504  0.615320  1
  O  O52  1  0.078656  0.474771  0.325556  1
  O  O53  1  0.921344  0.974771  0.174444  1
  O  O54  1  0.921344  0.525229  0.674444  1
  O  O55  1  0.078656  0.025229  0.825556  1
  O  O56  1  0.876588  0.337083  0.384470  1
  O  O57  1  0.123412  0.837083  0.115530  1
  O  O58  1  0.123412  0.662917  0.615530  1
  O  O59  1  0.876588  0.162917  0.884470  1
  O  O60  1  0.845309  0.608239  0.248139  1
  O  O61  1  0.154691  0.108239  0.251861  1
  O  O62  1  0.154691  0.391761  0.751861  1
  O  O63  1  0.845309  0.891761  0.748139  1
