# generated using pymatgen
data_Yb29S30
_symmetry_space_group_name_H-M   'P 1'
_cell_length_a   8.01581997
_cell_length_b   8.02644088
_cell_length_c   64.26491511
_cell_angle_alpha   59.76663139
_cell_angle_beta   59.86257738
_cell_angle_gamma   60.26875504
_symmetry_Int_Tables_number   1
_chemical_formula_structural   Yb29S30
_chemical_formula_sum   'Yb58 S60'
_cell_volume   2921.29849523
_cell_formula_units_Z   2
loop_
 _symmetry_equiv_pos_site_id
 _symmetry_equiv_pos_as_xyz
  1  'x, y, z'
loop_
 _atom_site_type_symbol
 _atom_site_label
 _atom_site_symmetry_multiplicity
 _atom_site_fract_x
 _atom_site_fract_y
 _atom_site_fract_z
 _atom_site_occupancy
  Yb  Yb0  1  0.984139  0.010133  0.064816  1
  Yb  Yb1  1  0.989185  0.511015  0.001266  1
  Yb  Yb2  1  0.529232  0.004108  0.999400  1
  Yb  Yb3  1  0.972214  0.498755  0.063136  1
  Yb  Yb4  1  0.514169  0.483342  0.998618  1
  Yb  Yb5  1  0.984910  0.507729  0.127409  1
  Yb  Yb6  1  0.513507  0.497051  0.062848  1
  Yb  Yb7  1  0.505152  0.981544  0.128150  1
  Yb  Yb8  1  0.979711  0.516424  0.186144  1
  Yb  Yb9  1  0.494750  0.499063  0.126583  1
  Yb  Yb10  1  0.511493  0.986287  0.061124  1
  Yb  Yb11  1  0.998798  0.998833  0.312612  1
  Yb  Yb12  1  0.996733  0.997583  0.188346  1
  Yb  Yb13  1  0.980724  0.518612  0.253236  1
  Yb  Yb14  1  0.510417  0.509795  0.186494  1
  Yb  Yb15  1  0.518379  0.981027  0.253218  1
  Yb  Yb16  1  0.000878  0.500190  0.313049  1
  Yb  Yb17  1  0.497416  0.497492  0.250765  1
  Yb  Yb18  1  0.500109  0.000932  0.313043  1
  Yb  Yb19  1  0.516922  0.979699  0.186102  1
  Yb  Yb20  1  0.001382  0.499548  0.374918  1
  Yb  Yb21  1  0.498764  0.498803  0.312539  1
  Yb  Yb22  1  0.999938  0.500070  0.437494  1
  Yb  Yb23  1  0.000016  0.000009  0.562542  1
  Yb  Yb24  1  0.499558  0.499552  0.374949  1
  Yb  Yb25  1  0.999761  0.499985  0.500030  1
  Yb  Yb26  1  0.999943  0.999938  0.437498  1
  Yb  Yb27  1  0.499898  0.499892  0.437536  1
  Yb  Yb28  1  0.499991  0.999755  0.500029  1
  Yb  Yb29  1  0.499541  0.001391  0.374919  1
  Yb  Yb30  1  0.000010  0.499663  0.562542  1
  Yb  Yb31  1  0.499673  0.000004  0.562542  1
  Yb  Yb32  1  0.500000  0.500000  0.500028  1
  Yb  Yb33  1  0.500073  0.999933  0.437494  1
  Yb  Yb34  1  0.997840  0.500862  0.625081  1
  Yb  Yb35  1  0.499910  0.499906  0.562536  1
  Yb  Yb36  1  0.500876  0.997802  0.625079  1
  Yb  Yb37  1  0.001789  0.509125  0.685829  1
  Yb  Yb38  1  0.500685  0.500705  0.625089  1
  Yb  Yb39  1  0.003048  0.502353  0.748953  1
  Yb  Yb40  1  0.001987  0.001805  0.685803  1
  Yb  Yb41  1  0.500529  0.500369  0.687286  1
  Yb  Yb42  1  0.002772  0.002629  0.748920  1
  Yb  Yb43  1  0.002082  0.502408  0.811531  1
  Yb  Yb44  1  0.502497  0.502361  0.748958  1
  Yb  Yb45  1  0.509326  0.001648  0.685816  1
  Yb  Yb46  1  0.002465  0.002308  0.811565  1
  Yb  Yb47  1  0.002611  0.500275  0.874068  1
  Yb  Yb48  1  0.502576  0.502494  0.811563  1
  Yb  Yb49  1  0.990379  0.506557  0.936292  1
  Yb  Yb50  1  0.002867  0.003444  0.874162  1
  Yb  Yb51  1  0.502486  0.002923  0.748952  1
  Yb  Yb52  1  0.504325  0.988552  0.936660  1
  Yb  Yb53  1  0.501968  0.501330  0.874407  1
  Yb  Yb54  1  0.502520  0.001936  0.811534  1
  Yb  Yb55  1  0.003140  0.998280  0.938032  1
  Yb  Yb56  1  0.508132  0.512013  0.935737  1
  Yb  Yb57  1  0.500678  0.002825  0.874030  1
  S  S58  1  0.248620  0.248180  0.031154  1
  S  S59  1  0.251454  0.251261  0.155456  1
  S  S60  1  0.257634  0.742916  0.090937  1
  S  S61  1  0.738106  0.259174  0.032316  1
  S  S62  1  0.739973  0.254026  0.093494  1
  S  S63  1  0.747980  0.748232  0.031207  1
  S  S64  1  0.258597  0.740965  0.156629  1
  S  S65  1  0.753877  0.751347  0.092474  1
  S  S66  1  0.251577  0.251346  0.279814  1
  S  S67  1  0.259749  0.744584  0.216663  1
  S  S68  1  0.740058  0.259549  0.156656  1
  S  S69  1  0.254694  0.254643  0.342999  1
  S  S70  1  0.745034  0.259501  0.216701  1
  S  S71  1  0.755290  0.754161  0.155030  1
  S  S72  1  0.260296  0.750753  0.280599  1
  S  S73  1  0.751598  0.751085  0.217780  1
  S  S74  1  0.249843  0.249839  0.406277  1
  S  S75  1  0.256350  0.744475  0.342866  1
  S  S76  1  0.750641  0.260389  0.280625  1
  S  S77  1  0.744660  0.256173  0.342887  1
  S  S78  1  0.255785  0.255798  0.468022  1
  S  S79  1  0.746030  0.745933  0.283008  1
  S  S80  1  0.256960  0.742799  0.407167  1
  S  S81  1  0.750361  0.750332  0.343588  1
  S  S82  1  0.250105  0.250081  0.531215  1
  S  S83  1  0.256864  0.743135  0.467885  1
  S  S84  1  0.742620  0.257144  0.407191  1
  S  S85  1  0.256334  0.256341  0.592953  1
  S  S86  1  0.743314  0.256693  0.467906  1
  S  S87  1  0.743772  0.743764  0.407041  1
  S  S88  1  0.256804  0.743466  0.532029  1
  S  S89  1  0.749970  0.749984  0.468757  1
  S  S90  1  0.249135  0.249171  0.656596  1
  S  S91  1  0.257454  0.742580  0.592818  1
  S  S92  1  0.743305  0.256983  0.532049  1
  S  S93  1  0.742771  0.257266  0.592840  1
  S  S94  1  0.246988  0.247124  0.719622  1
  S  S95  1  0.744419  0.744386  0.531914  1
  S  S96  1  0.256872  0.742683  0.657264  1
  S  S97  1  0.750029  0.750037  0.593741  1
  S  S98  1  0.742465  0.257113  0.657285  1
  S  S99  1  0.247753  0.247936  0.782163  1
  S  S100  1  0.247060  0.749680  0.719603  1
  S  S101  1  0.749530  0.247182  0.719607  1
  S  S102  1  0.247704  0.247596  0.844758  1
  S  S103  1  0.743549  0.743584  0.657142  1
  S  S104  1  0.247854  0.747439  0.782195  1
  S  S105  1  0.748228  0.748362  0.719458  1
  S  S106  1  0.747324  0.248022  0.782190  1
  S  S107  1  0.247100  0.248221  0.907692  1
  S  S108  1  0.247130  0.747522  0.844745  1
  S  S109  1  0.747238  0.247200  0.844750  1
  S  S110  1  0.747540  0.747630  0.782194  1
  S  S111  1  0.243943  0.743710  0.907830  1
  S  S112  1  0.747438  0.747924  0.844761  1
  S  S113  1  0.257006  0.736229  0.969021  1
  S  S114  1  0.743403  0.244989  0.907805  1
  S  S115  1  0.744886  0.257095  0.967492  1
  S  S116  1  0.751195  0.751085  0.906251  1
  S  S117  1  0.740854  0.750117  0.970087  1
