# generated using pymatgen
data_RbBi(MoO4)2
_symmetry_space_group_name_H-M   'P 1'
_cell_length_a   5.37833573
_cell_length_b   11.81863293
_cell_length_c   12.31274801
_cell_angle_alpha   90.00000000
_cell_angle_beta   90.00000000
_cell_angle_gamma   92.21301453
_symmetry_Int_Tables_number   1
_chemical_formula_structural   RbBi(MoO4)2
_chemical_formula_sum   'Rb4 Bi4 Mo8 O32'
_cell_volume   782.07087705
_cell_formula_units_Z   4
loop_
 _symmetry_equiv_pos_site_id
 _symmetry_equiv_pos_as_xyz
  1  'x, y, z'
loop_
 _atom_site_type_symbol
 _atom_site_label
 _atom_site_symmetry_multiplicity
 _atom_site_fract_x
 _atom_site_fract_y
 _atom_site_fract_z
 _atom_site_occupancy
  Rb  Rb0  1  0.983348  0.621608  0.624469  1
  Rb  Rb1  1  0.483348  0.621608  0.875531  1
  Rb  Rb2  1  0.516652  0.378392  0.124469  1
  Rb  Rb3  1  0.016652  0.378392  0.375531  1
  Bi  Bi4  1  0.490970  0.879273  0.124291  1
  Bi  Bi5  1  0.009030  0.120727  0.624291  1
  Bi  Bi6  1  0.509030  0.120727  0.875709  1
  Bi  Bi7  1  0.990970  0.879273  0.375709  1
  Mo  Mo8  1  0.004152  0.341886  0.854230  1
  Mo  Mo9  1  0.976605  0.887437  0.886887  1
  Mo  Mo10  1  0.023395  0.112563  0.113113  1
  Mo  Mo11  1  0.476605  0.887437  0.613113  1
  Mo  Mo12  1  0.995848  0.658114  0.145770  1
  Mo  Mo13  1  0.504152  0.341886  0.645770  1
  Mo  Mo14  1  0.523395  0.112563  0.386887  1
  Mo  Mo15  1  0.495848  0.658114  0.354230  1
  O  O16  1  0.155417  0.001135  0.196004  1
  O  O17  1  0.251612  0.050757  0.459732  1
  O  O18  1  0.242338  0.730513  0.064376  1
  O  O19  1  0.315683  0.777831  0.290071  1
  O  O20  1  0.184477  0.418609  0.948478  1
  O  O21  1  0.257662  0.269487  0.564376  1
  O  O22  1  0.422380  0.222027  0.304315  1
  O  O23  1  0.077620  0.777973  0.804315  1
  O  O24  1  0.315523  0.581391  0.448478  1
  O  O25  1  0.655417  0.001135  0.303996  1
  O  O26  1  0.740992  0.823810  0.975113  1
  O  O27  1  0.742338  0.730513  0.435624  1
  O  O28  1  0.748388  0.949243  0.540268  1
  O  O29  1  0.259008  0.176190  0.024887  1
  O  O30  1  0.684477  0.418609  0.551522  1
  O  O31  1  0.759008  0.176190  0.475113  1
  O  O32  1  0.344583  0.998865  0.696004  1
  O  O33  1  0.157601  0.560337  0.226386  1
  O  O34  1  0.684317  0.222169  0.709929  1
  O  O35  1  0.815683  0.777831  0.209929  1
  O  O36  1  0.657601  0.560337  0.273614  1
  O  O37  1  0.342399  0.439663  0.726386  1
  O  O38  1  0.751612  0.050757  0.040268  1
  O  O39  1  0.922380  0.222027  0.195685  1
  O  O40  1  0.844583  0.998865  0.803996  1
  O  O41  1  0.842399  0.439663  0.773614  1
  O  O42  1  0.577620  0.777973  0.695685  1
  O  O43  1  0.815523  0.581391  0.051522  1
  O  O44  1  0.240992  0.823810  0.524887  1
  O  O45  1  0.757662  0.269487  0.935624  1
  O  O46  1  0.184317  0.222169  0.790071  1
  O  O47  1  0.248388  0.949243  0.959732  1
