# generated using pymatgen
data_RbBiF4
_symmetry_space_group_name_H-M   'P 1'
_cell_length_a   4.60665415
_cell_length_b   4.32026764
_cell_length_c   27.73413257
_cell_angle_alpha   55.76867641
_cell_angle_beta   58.98796926
_cell_angle_gamma   57.69779294
_symmetry_Int_Tables_number   1
_chemical_formula_structural   RbBiF4
_chemical_formula_sum   'Rb3 Bi3 F12'
_cell_volume   367.08596011
_cell_formula_units_Z   3
loop_
 _symmetry_equiv_pos_site_id
 _symmetry_equiv_pos_as_xyz
  1  'x, y, z'
loop_
 _atom_site_type_symbol
 _atom_site_label
 _atom_site_symmetry_multiplicity
 _atom_site_fract_x
 _atom_site_fract_y
 _atom_site_fract_z
 _atom_site_occupancy
  Rb  Rb0  1  0.041305  0.962840  0.156082  1
  Rb  Rb1  1  0.016670  0.006565  0.326438  1
  Rb  Rb2  1  0.958055  0.068270  0.497985  1
  Bi  Bi3  1  0.935679  0.042781  0.996353  1
  Bi  Bi4  1  0.906902  0.919963  0.676519  1
  Bi  Bi5  1  0.917841  0.967886  0.834381  1
  F  F6  1  0.349485  0.240909  0.031374  1
  F  F7  1  0.805519  0.786440  0.100691  1
  F  F8  1  0.768284  0.831395  0.273387  1
  F  F9  1  0.314522  0.230093  0.701067  1
  F  F10  1  0.713945  0.899071  0.442386  1
  F  F11  1  0.083855  0.208511  0.578674  1
  F  F12  1  0.745190  0.661554  0.649539  1
  F  F13  1  0.380095  0.238532  0.887069  1
  F  F14  1  0.615139  0.422733  0.769024  1
  F  F15  1  0.884769  0.663650  0.796772  1
  F  F16  1  0.704037  0.483502  0.914892  1
  F  F17  1  0.794706  0.677307  0.982033  1
