# generated using pymatgen
data_Er(BO2)3
_symmetry_space_group_name_H-M   'P 1'
_cell_length_a   7.41579507
_cell_length_b   12.26217046
_cell_length_c   15.96397277
_cell_angle_alpha   90.00000000
_cell_angle_beta   90.00000000
_cell_angle_gamma   90.00000000
_symmetry_Int_Tables_number   1
_chemical_formula_structural   Er(BO2)3
_chemical_formula_sum   'Er16 B48 O96'
_cell_volume   1451.66380103
_cell_formula_units_Z   16
loop_
 _symmetry_equiv_pos_site_id
 _symmetry_equiv_pos_as_xyz
  1  'x, y, z'
loop_
 _atom_site_type_symbol
 _atom_site_label
 _atom_site_symmetry_multiplicity
 _atom_site_fract_x
 _atom_site_fract_y
 _atom_site_fract_z
 _atom_site_occupancy
  Er  Er0  1  0.750000  0.009530  0.121165  1
  Er  Er1  1  0.750000  0.435330  0.327332  1
  Er  Er2  1  0.250000  0.509530  0.378835  1
  Er  Er3  1  0.750000  0.765497  0.627849  1
  Er  Er4  1  0.250000  0.265497  0.872151  1
  Er  Er5  1  0.750000  0.490470  0.621165  1
  Er  Er6  1  0.250000  0.911414  0.548193  1
  Er  Er7  1  0.750000  0.411414  0.951807  1
  Er  Er8  1  0.250000  0.990470  0.878835  1
  Er  Er9  1  0.750000  0.734503  0.127849  1
  Er  Er10  1  0.750000  0.064670  0.827332  1
  Er  Er11  1  0.750000  0.088586  0.451807  1
  Er  Er12  1  0.250000  0.234503  0.372151  1
  Er  Er13  1  0.250000  0.588586  0.048193  1
  Er  Er14  1  0.250000  0.564670  0.672668  1
  Er  Er15  1  0.250000  0.935330  0.172668  1
  B  B16  1  0.076261  0.142821  0.109628  1
  B  B17  1  0.931096  0.128550  0.258335  1
  B  B18  1  0.421852  0.516556  0.847735  1
  B  B19  1  0.060002  0.676993  0.532135  1
  B  B20  1  0.573434  0.653935  0.943422  1
  B  B21  1  0.431096  0.871450  0.741665  1
  B  B22  1  0.421852  0.983444  0.347735  1
  B  B23  1  0.070310  0.185245  0.717747  1
  B  B24  1  0.060002  0.823007  0.032135  1
  B  B25  1  0.570310  0.814755  0.282253  1
  B  B26  1  0.070310  0.314755  0.217747  1
  B  B27  1  0.073434  0.346065  0.056578  1
  B  B28  1  0.426566  0.346065  0.056578  1
  B  B29  1  0.439998  0.676993  0.532135  1
  B  B30  1  0.429690  0.314755  0.217747  1
  B  B31  1  0.926566  0.846065  0.443422  1
  B  B32  1  0.931096  0.371450  0.758335  1
  B  B33  1  0.423739  0.142821  0.109628  1
  B  B34  1  0.426566  0.153935  0.556578  1
  B  B35  1  0.078148  0.516556  0.847735  1
  B  B36  1  0.078148  0.983444  0.347735  1
  B  B37  1  0.576261  0.642821  0.390372  1
  B  B38  1  0.439998  0.823007  0.032135  1
  B  B39  1  0.929690  0.685245  0.782253  1
  B  B40  1  0.921852  0.483444  0.152265  1
  B  B41  1  0.939998  0.323007  0.467865  1
  B  B42  1  0.560002  0.323007  0.467865  1
  B  B43  1  0.923739  0.642821  0.390372  1
  B  B44  1  0.939998  0.176993  0.967865  1
  B  B45  1  0.431096  0.628550  0.241665  1
  B  B46  1  0.076261  0.357179  0.609628  1
  B  B47  1  0.570310  0.685245  0.782253  1
  B  B48  1  0.068904  0.871450  0.741665  1
  B  B49  1  0.568904  0.371450  0.758335  1
  B  B50  1  0.429690  0.185245  0.717747  1
  B  B51  1  0.573434  0.846065  0.443422  1
  B  B52  1  0.560002  0.176993  0.967865  1
  B  B53  1  0.568904  0.128550  0.258335  1
  B  B54  1  0.578148  0.483444  0.152265  1
  B  B55  1  0.929690  0.814755  0.282253  1
  B  B56  1  0.068904  0.628550  0.241665  1
  B  B57  1  0.578148  0.016556  0.652265  1
  B  B58  1  0.073434  0.153935  0.556578  1
  B  B59  1  0.423739  0.357179  0.609628  1
  B  B60  1  0.923739  0.857179  0.890372  1
  B  B61  1  0.921852  0.016556  0.652265  1
  B  B62  1  0.576261  0.857179  0.890372  1
  B  B63  1  0.926566  0.653935  0.943422  1
  O  O64  1  0.060258  0.568380  0.930996  1
  O  O65  1  0.534254  0.576764  0.314518  1
  O  O66  1  0.250000  0.142874  0.745614  1
  O  O67  1  0.926035  0.765437  0.371096  1
  O  O68  1  0.565867  0.399565  0.218231  1
  O  O69  1  0.933516  0.064619  0.336446  1
  O  O70  1  0.457293  0.120889  0.903760  1
  O  O71  1  0.034254  0.076764  0.185482  1
  O  O72  1  0.065867  0.600435  0.781769  1
  O  O73  1  0.566711  0.377800  0.548536  1
  O  O74  1  0.477970  0.269753  0.777165  1
  O  O75  1  0.976647  0.790335  0.522346  1
  O  O76  1  0.957293  0.879111  0.096240  1
  O  O77  1  0.750000  0.642874  0.754386  1
  O  O78  1  0.934133  0.399565  0.218231  1
  O  O79  1  0.965746  0.576764  0.314518  1
  O  O80  1  0.750000  0.600651  0.951499  1
  O  O81  1  0.542707  0.879111  0.096240  1
  O  O82  1  0.957293  0.620889  0.596240  1
  O  O83  1  0.042707  0.379111  0.403760  1
  O  O84  1  0.939742  0.431620  0.069004  1
  O  O85  1  0.534254  0.923236  0.814518  1
  O  O86  1  0.939742  0.068380  0.569004  1
  O  O87  1  0.522030  0.769753  0.722835  1
  O  O88  1  0.933289  0.377800  0.548536  1
  O  O89  1  0.476647  0.209665  0.477654  1
  O  O90  1  0.934133  0.100435  0.718231  1
  O  O91  1  0.250000  0.399349  0.048501  1
  O  O92  1  0.426035  0.234563  0.628904  1
  O  O93  1  0.022030  0.269753  0.777165  1
  O  O94  1  0.250000  0.357126  0.245614  1
  O  O95  1  0.977970  0.769753  0.722835  1
  O  O96  1  0.523353  0.709665  0.022346  1
  O  O97  1  0.933289  0.122200  0.048536  1
  O  O98  1  0.750000  0.359935  0.723883  1
  O  O99  1  0.566484  0.064619  0.336446  1
  O  O100  1  0.439742  0.568380  0.930996  1
  O  O101  1  0.926035  0.734563  0.871096  1
  O  O102  1  0.250000  0.640065  0.276117  1
  O  O103  1  0.542707  0.620889  0.596240  1
  O  O104  1  0.433516  0.935381  0.663554  1
  O  O105  1  0.523353  0.790335  0.522346  1
  O  O106  1  0.750000  0.899349  0.451499  1
  O  O107  1  0.250000  0.457236  0.841493  1
  O  O108  1  0.023353  0.290335  0.977654  1
  O  O109  1  0.465746  0.423236  0.685482  1
  O  O110  1  0.023353  0.209665  0.477654  1
  O  O111  1  0.250000  0.859935  0.776117  1
  O  O112  1  0.476647  0.290335  0.977654  1
  O  O113  1  0.066711  0.877800  0.951464  1
  O  O114  1  0.933516  0.435381  0.836446  1
  O  O115  1  0.042707  0.120889  0.903760  1
  O  O116  1  0.573965  0.734563  0.871096  1
  O  O117  1  0.965746  0.923236  0.814518  1
  O  O118  1  0.750000  0.196320  0.933425  1
  O  O119  1  0.022030  0.230247  0.277165  1
  O  O120  1  0.560258  0.068380  0.569004  1
  O  O121  1  0.250000  0.042764  0.341493  1
  O  O122  1  0.433289  0.622200  0.451464  1
  O  O123  1  0.065867  0.899565  0.281769  1
  O  O124  1  0.750000  0.895358  0.922320  1
  O  O125  1  0.560258  0.431620  0.069004  1
  O  O126  1  0.465746  0.076764  0.185482  1
  O  O127  1  0.250000  0.696320  0.566575  1
  O  O128  1  0.250000  0.100651  0.548501  1
  O  O129  1  0.439742  0.931620  0.430996  1
  O  O130  1  0.250000  0.395358  0.577680  1
  O  O131  1  0.066484  0.564619  0.163554  1
  O  O132  1  0.477970  0.230247  0.277165  1
  O  O133  1  0.034254  0.423236  0.685482  1
  O  O134  1  0.750000  0.857126  0.254386  1
  O  O135  1  0.426035  0.265437  0.128904  1
  O  O136  1  0.073965  0.234563  0.628904  1
  O  O137  1  0.750000  0.604642  0.422320  1
  O  O138  1  0.073965  0.265437  0.128904  1
  O  O139  1  0.566484  0.435381  0.836446  1
  O  O140  1  0.250000  0.104642  0.077680  1
  O  O141  1  0.066711  0.622200  0.451464  1
  O  O142  1  0.565867  0.100435  0.718231  1
  O  O143  1  0.566711  0.122200  0.048536  1
  O  O144  1  0.250000  0.803680  0.066575  1
  O  O145  1  0.522030  0.730247  0.222835  1
  O  O146  1  0.433289  0.877800  0.951464  1
  O  O147  1  0.750000  0.542764  0.158507  1
  O  O148  1  0.434133  0.600435  0.781769  1
  O  O149  1  0.750000  0.140065  0.223883  1
  O  O150  1  0.750000  0.957236  0.658507  1
  O  O151  1  0.457293  0.379111  0.403760  1
  O  O152  1  0.434133  0.899565  0.281769  1
  O  O153  1  0.976647  0.709665  0.022346  1
  O  O154  1  0.066484  0.935381  0.663554  1
  O  O155  1  0.750000  0.303680  0.433425  1
  O  O156  1  0.433516  0.564619  0.163554  1
  O  O157  1  0.573965  0.765437  0.371096  1
  O  O158  1  0.977970  0.730247  0.222835  1
  O  O159  1  0.060258  0.931620  0.430996  1
