# generated using pymatgen
data_H2O
_symmetry_space_group_name_H-M   'P 1'
_cell_length_a   4.68517813
_cell_length_b   4.73896303
_cell_length_c   7.28519529
_cell_angle_alpha   85.52213846
_cell_angle_beta   99.08736573
_cell_angle_gamma   119.62526607
_symmetry_Int_Tables_number   1
_chemical_formula_structural   H2O
_chemical_formula_sum   'H8 O4'
_cell_volume   138.84279673
_cell_formula_units_Z   4
loop_
 _symmetry_equiv_pos_site_id
 _symmetry_equiv_pos_as_xyz
  1  'x, y, z'
loop_
 _atom_site_type_symbol
 _atom_site_label
 _atom_site_symmetry_multiplicity
 _atom_site_fract_x
 _atom_site_fract_y
 _atom_site_fract_z
 _atom_site_occupancy
  H  H0  1  0.188942  0.579413  0.595893  1
  H  H1  1  0.460839  0.927405  -0.004757  1
  H  H2  1  0.401258  0.600682  0.910947  1
  H  H3  1  0.443715  0.526612  0.502934  1
  H  H4  1  0.609530  0.420587  0.095893  1
  H  H5  1  0.533434  0.072595  0.495243  1
  H  H6  1  0.800578  0.399318  0.410947  1
  H  H7  1  0.917103  0.473388  0.002934  1
  O  O8  1  0.332898  0.663461  0.499517  1
  O  O9  1  0.319360  0.685457  -0.004534  1
  O  O10  1  0.669439  0.336539  0.999517  1
  O  O11  1  0.633905  0.314543  0.495466  1
