# generated using pymatgen
data_YH2C4O9
_symmetry_space_group_name_H-M   'P 1'
_cell_length_a   8.79013613
_cell_length_b   8.79013613
_cell_length_c   12.89031496
_cell_angle_alpha   90.00000000
_cell_angle_beta   90.00000000
_cell_angle_gamma   90.00000000
_symmetry_Int_Tables_number   1
_chemical_formula_structural   YH2C4O9
_chemical_formula_sum   'Y4 H8 C16 O36'
_cell_volume   995.98943300
_cell_formula_units_Z   4
loop_
 _symmetry_equiv_pos_site_id
 _symmetry_equiv_pos_as_xyz
  1  'x, y, z'
loop_
 _atom_site_type_symbol
 _atom_site_label
 _atom_site_symmetry_multiplicity
 _atom_site_fract_x
 _atom_site_fract_y
 _atom_site_fract_z
 _atom_site_occupancy
  Y  Y0  1  0.250000  0.750000  0.210288  1
  Y  Y1  1  0.250000  0.750000  0.710288  1
  Y  Y2  1  0.750000  0.250000  0.789712  1
  Y  Y3  1  0.750000  0.250000  0.289712  1
  H  H4  1  0.339693  0.748258  0.977586  1
  H  H5  1  0.160307  0.751742  0.977586  1
  H  H6  1  0.248258  0.660307  0.477586  1
  H  H7  1  0.251742  0.839693  0.477586  1
  H  H8  1  0.660307  0.251742  0.022414  1
  H  H9  1  0.839693  0.248258  0.022414  1
  H  H10  1  0.751742  0.339693  0.522414  1
  H  H11  1  0.748258  0.160307  0.522414  1
  C  C12  1  0.538083  0.525128  0.196207  1
  C  C13  1  0.961917  0.974872  0.196207  1
  C  C14  1  0.025128  0.461917  0.696207  1
  C  C15  1  0.474872  0.038083  0.696207  1
  C  C16  1  0.461917  0.474872  0.803793  1
  C  C17  1  0.038083  0.025128  0.803793  1
  C  C18  1  0.974872  0.538083  0.303793  1
  C  C19  1  0.525128  0.961917  0.303793  1
  C  C20  1  0.454592  0.474679  0.305298  1
  C  C21  1  0.045408  0.025321  0.305298  1
  C  C22  1  0.974679  0.545408  0.805298  1
  C  C23  1  0.525321  0.954592  0.805298  1
  C  C24  1  0.545408  0.525321  0.694702  1
  C  C25  1  0.954592  0.974679  0.694702  1
  C  C26  1  0.025321  0.454592  0.194702  1
  C  C27  1  0.474679  0.045408  0.194702  1
  O  O28  1  0.470271  0.626881  0.146701  1
  O  O29  1  0.029729  0.873119  0.146701  1
  O  O30  1  0.126881  0.529729  0.646701  1
  O  O31  1  0.373119  0.970271  0.646701  1
  O  O32  1  0.529729  0.373119  0.853299  1
  O  O33  1  0.970271  0.126881  0.853299  1
  O  O34  1  0.873119  0.470271  0.353299  1
  O  O35  1  0.626881  0.029729  0.353299  1
  O  O36  1  0.659310  0.455711  0.177488  1
  O  O37  1  0.840690  0.044289  0.177488  1
  O  O38  1  0.955711  0.340690  0.677488  1
  O  O39  1  0.544289  0.159310  0.677488  1
  O  O40  1  0.340690  0.544289  0.822512  1
  O  O41  1  0.159310  0.955711  0.822512  1
  O  O42  1  0.044289  0.659310  0.322512  1
  O  O43  1  0.455711  0.840690  0.322512  1
  O  O44  1  0.519897  0.367990  0.351530  1
  O  O45  1  0.980103  0.132010  0.351530  1
  O  O46  1  0.867990  0.480103  0.851530  1
  O  O47  1  0.632010  0.019897  0.851530  1
  O  O48  1  0.480103  0.632010  0.648470  1
  O  O49  1  0.019897  0.867990  0.648470  1
  O  O50  1  0.132010  0.519897  0.148470  1
  O  O51  1  0.367990  0.980103  0.148470  1
  O  O52  1  0.337553  0.549111  0.327463  1
  O  O53  1  0.162447  0.950889  0.327463  1
  O  O54  1  0.049111  0.662447  0.827463  1
  O  O55  1  0.450889  0.837553  0.827463  1
  O  O56  1  0.662447  0.450889  0.672537  1
  O  O57  1  0.837553  0.049111  0.672537  1
  O  O58  1  0.950889  0.337553  0.172537  1
  O  O59  1  0.549111  0.162447  0.172537  1
  O  O60  1  0.250000  0.750000  0.022208  1
  O  O61  1  0.250000  0.750000  0.522208  1
  O  O62  1  0.750000  0.250000  0.977792  1
  O  O63  1  0.750000  0.250000  0.477792  1
