# generated using pymatgen
data_CsPbCl3
_symmetry_space_group_name_H-M   'P 1'
_cell_length_a   5.76365402
_cell_length_b   11.43859402
_cell_length_c   8.08559077
_cell_angle_alpha   44.98074627
_cell_angle_beta   90.00000000
_cell_angle_gamma   90.00000000
_symmetry_Int_Tables_number   1
_chemical_formula_structural   CsPbCl3
_chemical_formula_sum   'Cs2 Pb2 Cl6'
_cell_volume   376.80904449
_cell_formula_units_Z   2
loop_
 _symmetry_equiv_pos_site_id
 _symmetry_equiv_pos_as_xyz
  1  'x, y, z'
loop_
 _atom_site_type_symbol
 _atom_site_label
 _atom_site_symmetry_multiplicity
 _atom_site_fract_x
 _atom_site_fract_y
 _atom_site_fract_z
 _atom_site_occupancy
  Cs  Cs0  1  0.500000  0.500979  0.500000  1
  Cs  Cs1  1  0.500000  0.000409  0.500000  1
  Pb  Pb2  1  0.000000  0.997044  -0.001593  1
  Pb  Pb3  1  0.000000  0.495452  0.001593  1
  Cl  Cl4  1  0.000000  0.202885  0.082832  1
  Cl  Cl5  1  0.500000  0.472672  0.000103  1
  Cl  Cl6  1  0.500000  0.972775  0.999897  1
  Cl  Cl7  1  0.000000  0.291018  0.500000  1
  Cl  Cl8  1  0.000000  0.709049  0.500000  1
  Cl  Cl9  1  0.000000  0.785717  0.917168  1
