# generated using pymatgen
data_Cu4Sn15S32
_symmetry_space_group_name_H-M   'P 1'
_cell_length_a   7.44525952
_cell_length_b   7.45520759
_cell_length_c   59.71549152
_cell_angle_alpha   60.04088925
_cell_angle_beta   59.99744250
_cell_angle_gamma   59.95579001
_symmetry_Int_Tables_number   1
_chemical_formula_structural   Cu4Sn15S32
_chemical_formula_sum   'Cu8 Sn30 S64'
_cell_volume   2343.64496633
_cell_formula_units_Z   2
loop_
 _symmetry_equiv_pos_site_id
 _symmetry_equiv_pos_as_xyz
  1  'x, y, z'
loop_
 _atom_site_type_symbol
 _atom_site_label
 _atom_site_symmetry_multiplicity
 _atom_site_fract_x
 _atom_site_fract_y
 _atom_site_fract_z
 _atom_site_occupancy
  Cu  Cu0  1  0.232787  0.231499  0.038027  1
  Cu  Cu1  1  0.270672  0.236752  0.156978  1
  Cu  Cu2  1  0.264474  0.250881  0.279221  1
  Cu  Cu3  1  0.251089  0.250534  0.405980  1
  Cu  Cu4  1  0.250667  0.250060  0.531152  1
  Cu  Cu5  1  0.250463  0.249847  0.656230  1
  Cu  Cu6  1  0.249531  0.249033  0.781550  1
  Cu  Cu7  1  0.248975  0.248649  0.906716  1
  Sn  Sn8  1  0.121669  0.630987  0.077045  1
  Sn  Sn9  1  0.630820  0.122480  0.077035  1
  Sn  Sn10  1  0.630820  0.630418  0.077035  1
  Sn  Sn11  1  0.627963  0.115080  0.203741  1
  Sn  Sn12  1  0.616659  0.631491  0.140045  1
  Sn  Sn13  1  0.627963  0.627031  0.203741  1
  Sn  Sn14  1  0.120675  0.629242  0.327605  1
  Sn  Sn15  1  0.655944  0.635254  0.259194  1
  Sn  Sn16  1  0.628327  0.121455  0.327515  1
  Sn  Sn17  1  0.628327  0.630098  0.327515  1
  Sn  Sn18  1  0.115463  0.628311  0.453489  1
  Sn  Sn19  1  0.628316  0.115426  0.453474  1
  Sn  Sn20  1  0.629399  0.630518  0.388696  1
  Sn  Sn21  1  0.114988  0.628409  0.578524  1
  Sn  Sn22  1  0.628316  0.628465  0.453474  1
  Sn  Sn23  1  0.628428  0.628422  0.514341  1
  Sn  Sn24  1  0.628255  0.114974  0.578531  1
  Sn  Sn25  1  0.115008  0.628226  0.703568  1
  Sn  Sn26  1  0.628255  0.628523  0.578531  1
  Sn  Sn27  1  0.628366  0.628385  0.639358  1
  Sn  Sn28  1  0.628128  0.114961  0.703569  1
  Sn  Sn29  1  0.112024  0.628173  0.828954  1
  Sn  Sn30  1  0.628128  0.628361  0.703569  1
  Sn  Sn31  1  0.628047  0.628118  0.764465  1
  Sn  Sn32  1  0.628112  0.112019  0.828946  1
  Sn  Sn33  1  0.628112  0.628297  0.828946  1
  Sn  Sn34  1  0.095975  0.626393  0.956405  1
  Sn  Sn35  1  0.626155  0.096417  0.956350  1
  Sn  Sn36  1  0.620428  0.620643  0.892286  1
  Sn  Sn37  1  0.626155  0.626630  0.956350  1
  S  S38  1  0.380332  0.380310  0.047060  1
  S  S39  1  0.380332  0.862882  0.047060  1
  S  S40  1  0.378169  0.378692  0.108056  1
  S  S41  1  0.863399  0.380061  0.047060  1
  S  S42  1  0.383875  0.874729  0.108333  1
  S  S43  1  0.380103  0.376261  0.172686  1
  S  S44  1  0.875108  0.876070  0.046594  1
  S  S45  1  0.380103  0.862145  0.172686  1
  S  S46  1  0.869942  0.390825  0.108666  1
  S  S47  1  0.379386  0.379414  0.232723  1
  S  S48  1  0.869681  0.377386  0.171943  1
  S  S49  1  0.869942  0.869906  0.108666  1
  S  S50  1  0.371566  0.872455  0.235441  1
  S  S51  1  0.377650  0.379731  0.297466  1
  S  S52  1  0.853871  0.878400  0.173666  1
  S  S53  1  0.859867  0.370720  0.235120  1
  S  S54  1  0.377650  0.862892  0.297466  1
  S  S55  1  0.378210  0.376715  0.358545  1
  S  S56  1  0.868782  0.376131  0.297370  1
  S  S57  1  0.859867  0.888456  0.235120  1
  S  S58  1  0.381347  0.872853  0.359118  1
  S  S59  1  0.377443  0.377876  0.422100  1
  S  S60  1  0.873029  0.873826  0.297415  1
  S  S61  1  0.871636  0.382825  0.359126  1
  S  S62  1  0.377097  0.376861  0.483648  1
  S  S63  1  0.377443  0.867881  0.422100  1
  S  S64  1  0.867850  0.377816  0.422065  1
  S  S65  1  0.871636  0.872530  0.359126  1
  S  S66  1  0.377048  0.874400  0.484269  1
  S  S67  1  0.376933  0.377119  0.547048  1
  S  S68  1  0.874374  0.377583  0.484261  1
  S  S69  1  0.874066  0.873941  0.422257  1
  S  S70  1  0.376914  0.376729  0.608704  1
  S  S71  1  0.376933  0.869565  0.547048  1
  S  S72  1  0.869417  0.376975  0.547079  1
  S  S73  1  0.874374  0.873954  0.484261  1
  S  S74  1  0.376358  0.874519  0.609325  1
  S  S75  1  0.376769  0.376941  0.672090  1
  S  S76  1  0.376816  0.376575  0.733754  1
  S  S77  1  0.874485  0.377008  0.609308  1
  S  S78  1  0.874372  0.874308  0.547127  1
  S  S79  1  0.376769  0.869572  0.672090  1
  S  S80  1  0.869418  0.376816  0.672119  1
  S  S81  1  0.874485  0.874042  0.609308  1
  S  S82  1  0.376988  0.874259  0.734312  1
  S  S83  1  0.378240  0.378396  0.797042  1
  S  S84  1  0.874371  0.874329  0.672121  1
  S  S85  1  0.378068  0.377936  0.858257  1
  S  S86  1  0.378240  0.867025  0.797042  1
  S  S87  1  0.874199  0.377593  0.734298  1
  S  S88  1  0.866921  0.378268  0.797068  1
  S  S89  1  0.874199  0.873824  0.734298  1
  S  S90  1  0.381950  0.874136  0.858722  1
  S  S91  1  0.379521  0.379659  0.922208  1
  S  S92  1  0.874112  0.382552  0.858704  1
  S  S93  1  0.874473  0.874352  0.797103  1
  S  S94  1  0.378065  0.378140  0.983207  1
  S  S95  1  0.379521  0.863158  0.922208  1
  S  S96  1  0.863093  0.379574  0.922220  1
  S  S97  1  0.874112  0.873706  0.858704  1
  S  S98  1  0.367950  0.887614  0.982103  1
  S  S99  1  0.872548  0.872291  0.922859  1
  S  S100  1  0.887350  0.368597  0.982077  1
  S  S101  1  0.887350  0.887439  0.982077  1
