# generated using pymatgen
data_Gd2O3
_symmetry_space_group_name_H-M   'P 1'
_cell_length_a   3.58113519
_cell_length_b   7.44238990
_cell_length_c   8.82555285
_cell_angle_alpha   100.45719425
_cell_angle_beta   90.00000000
_cell_angle_gamma   103.92138908
_symmetry_Int_Tables_number   1
_chemical_formula_structural   Gd2O3
_chemical_formula_sum   'Gd6 O9'
_cell_volume   224.28409841
_cell_formula_units_Z   3
loop_
 _symmetry_equiv_pos_site_id
 _symmetry_equiv_pos_as_xyz
  1  'x, y, z'
loop_
 _atom_site_type_symbol
 _atom_site_label
 _atom_site_symmetry_multiplicity
 _atom_site_fract_x
 _atom_site_fract_y
 _atom_site_fract_z
 _atom_site_occupancy
  Gd  Gd0  1  0.969107  0.938214  0.185932  1
  Gd  Gd1  1  0.308183  0.616365  0.863050  1
  Gd  Gd2  1  0.691817  0.383635  0.136950  1
  Gd  Gd3  1  0.365231  0.730461  0.508819  1
  Gd  Gd4  1  0.030893  0.061786  0.814068  1
  Gd  Gd5  1  0.634769  0.269539  0.491181  1
  O  O6  1  0.873545  0.747089  0.715828  1
  O  O7  1  0.824668  0.649336  0.029779  1
  O  O8  1  0.470385  0.940770  0.342153  1
  O  O9  1  0.205780  0.411559  0.624144  1
  O  O10  1  0.529615  0.059230  0.657847  1
  O  O11  1  0.126455  0.252911  0.284172  1
  O  O12  1  0.500000  0.000000  0.000000  1
  O  O13  1  0.175332  0.350664  0.970221  1
  O  O14  1  0.794220  0.588441  0.375856  1
