# generated using pymatgen
data_SiO2
_symmetry_space_group_name_H-M   'P 1'
_cell_length_a   5.27925787
_cell_length_b   12.12581789
_cell_length_c   13.02734865
_cell_angle_alpha   108.84074438
_cell_angle_beta   101.69033287
_cell_angle_gamma   90.00000212
_symmetry_Int_Tables_number   1
_chemical_formula_structural   SiO2
_chemical_formula_sum   'Si14 O28'
_cell_volume   770.96617982
_cell_formula_units_Z   14
loop_
 _symmetry_equiv_pos_site_id
 _symmetry_equiv_pos_as_xyz
  1  'x, y, z'
loop_
 _atom_site_type_symbol
 _atom_site_label
 _atom_site_symmetry_multiplicity
 _atom_site_fract_x
 _atom_site_fract_y
 _atom_site_fract_z
 _atom_site_occupancy
  Si  Si0  1  0.630246  0.289271  0.260492  1
  Si  Si1  1  0.281946  0.478347  0.563891  1
  Si  Si2  1  0.718054  0.521653  0.436109  1
  Si  Si3  1  0.279446  0.210396  0.558892  1
  Si  Si4  1  0.062641  0.909359  0.125281  1
  Si  Si5  1  0.369754  0.710729  0.739508  1
  Si  Si6  1  0.619385  0.878799  0.238770  1
  Si  Si7  1  0.380615  0.121201  0.761230  1
  Si  Si8  1  0.929386  0.834648  0.858772  1
  Si  Si9  1  0.937359  0.090641  0.874719  1
  Si  Si10  1  0.708771  0.136858  0.417542  1
  Si  Si11  1  0.291229  0.863142  0.582458  1
  Si  Si12  1  0.720554  0.789604  0.441108  1
  Si  Si13  1  0.070614  0.165352  0.141228  1
  O  O14  1  0.092450  0.052127  0.184899  1
  O  O15  1  0.342345  0.984854  0.684690  1
  O  O16  1  0.907550  0.947873  0.815101  1
  O  O17  1  0.997359  0.143705  0.493043  1
  O  O18  1  0.654270  0.431634  0.308539  1
  O  O19  1  0.003804  0.121244  0.007607  1
  O  O20  1  0.842024  0.243866  0.185249  1
  O  O21  1  0.342100  0.204362  0.684200  1
  O  O22  1  0.683676  0.243710  0.367353  1
  O  O23  1  0.996196  0.878756  0.992393  1
  O  O24  1  0.657655  0.015146  0.315310  1
  O  O25  1  0.656775  0.756134  0.814751  1
  O  O26  1  0.829476  0.851580  0.159842  1
  O  O27  1  0.343225  0.243866  0.185249  1
  O  O28  1  0.157976  0.756134  0.814751  1
  O  O29  1  0.330366  0.851580  0.159842  1
  O  O30  1  0.669634  0.148420  0.840158  1
  O  O31  1  0.000000  0.500000  0.500000  1
  O  O32  1  0.716695  0.653815  0.433390  1
  O  O33  1  0.002641  0.856295  0.506957  1
  O  O34  1  0.504316  0.856295  0.506957  1
  O  O35  1  0.283305  0.346185  0.566610  1
  O  O36  1  0.657900  0.795638  0.315800  1
  O  O37  1  0.500000  0.500000  0.500000  1
  O  O38  1  0.495684  0.143705  0.493043  1
  O  O39  1  0.170524  0.148420  0.840158  1
  O  O40  1  0.316324  0.756290  0.632647  1
  O  O41  1  0.345730  0.568366  0.691461  1
