# generated using pymatgen
data_Gd3Al7Ag2
_symmetry_space_group_name_H-M   'P 1'
_cell_length_a   9.38901410
_cell_length_b   9.39051646
_cell_length_c   9.38937348
_cell_angle_alpha   34.57877706
_cell_angle_beta   34.57612487
_cell_angle_gamma   34.55994933
_symmetry_Int_Tables_number   1
_chemical_formula_structural   Gd3Al7Ag2
_chemical_formula_sum   'Gd3 Al7 Ag2'
_cell_volume   237.82469940
_cell_formula_units_Z   1
loop_
 _symmetry_equiv_pos_site_id
 _symmetry_equiv_pos_as_xyz
  1  'x, y, z'
loop_
 _atom_site_type_symbol
 _atom_site_label
 _atom_site_symmetry_multiplicity
 _atom_site_fract_x
 _atom_site_fract_y
 _atom_site_fract_z
 _atom_site_occupancy
  Gd  Gd0  1  0.142021  0.142067  0.142016  1
  Gd  Gd1  1  0.857979  0.857942  0.857974  1
  Gd  Gd2  1  0.999999  0.999998  0.000003  1
  Al  Al3  1  0.586425  0.586510  0.078396  1
  Al  Al4  1  0.921544  0.413544  0.413575  1
  Al  Al5  1  0.078463  0.586449  0.586425  1
  Al  Al6  1  0.586403  0.078480  0.586445  1
  Al  Al7  1  0.413571  0.413492  0.921606  1
  Al  Al8  1  0.500000  0.500001  0.499999  1
  Al  Al9  1  0.413594  0.921522  0.413556  1
  Ag  Ag10  1  0.335623  0.335607  0.335651  1
  Ag  Ag11  1  0.664377  0.664387  0.664354  1
