# generated using pymatgen
data_CdGePH3O7
_symmetry_space_group_name_H-M   'P 1'
_cell_length_a   8.02848368
_cell_length_b   8.73765469
_cell_length_c   9.25983979
_cell_angle_alpha   87.04530000
_cell_angle_beta   92.65236067
_cell_angle_gamma   111.03374198
_symmetry_Int_Tables_number   1
_chemical_formula_structural   CdGePH3O7
_chemical_formula_sum   'Cd4 Ge4 P4 H12 O28'
_cell_volume   605.22203539
_cell_formula_units_Z   4
loop_
 _symmetry_equiv_pos_site_id
 _symmetry_equiv_pos_as_xyz
  1  'x, y, z'
loop_
 _atom_site_type_symbol
 _atom_site_label
 _atom_site_symmetry_multiplicity
 _atom_site_fract_x
 _atom_site_fract_y
 _atom_site_fract_z
 _atom_site_occupancy
  Cd  Cd0  1  0.727290  0.225113  0.133645  1
  Cd  Cd1  1  0.341858  0.142915  0.791793  1
  Cd  Cd2  1  0.454365  0.163885  0.428669  1
  Cd  Cd3  1  0.734401  0.742820  0.923091  1
  Ge  Ge4  1  0.149319  0.567631  0.992039  1
  Ge  Ge5  1  0.514526  0.861452  0.594036  1
  Ge  Ge6  1  0.367587  0.935910  0.112977  1
  Ge  Ge7  1  0.997079  0.399532  0.545124  1
  P  P8  1  0.111538  0.810346  0.383345  1
  P  P9  1  0.308935  0.532835  0.808111  1
  P  P10  1  0.729427  0.567759  0.283020  1
  P  P11  1  0.912604  0.059179  0.727034  1
  H  H12  1  0.900914  0.080135  0.426669  1
  H  H13  1  0.581965  0.436341  0.895002  1
  H  H14  1  0.360672  0.386909  0.564021  1
  H  H15  1  0.627413  0.711465  0.417402  1
  H  H16  1  0.733927  0.457906  0.588557  1
  H  H17  1  0.764936  0.463699  0.811685  1
  H  H18  1  0.917591  0.921667  0.139701  1
  H  H19  1  0.420892  0.633573  0.148452  1
  H  H20  1  0.041425  0.914792  0.597345  1
  H  H21  1  0.023923  0.115156  0.298863  1
  H  H22  1  0.726017  0.933164  0.143013  1
  H  H23  1  0.016855  0.284221  0.967382  1
  O  O24  1  0.911509  0.037549  0.333155  1
  O  O25  1  0.468959  0.117543  0.001030  1
  O  O26  1  0.209912  0.864514  0.948147  1
  O  O27  1  0.662497  0.614628  0.427934  1
  O  O28  1  0.052856  0.150189  0.838827  1
  O  O29  1  0.238547  0.724258  0.433721  1
  O  O30  1  0.563486  0.969714  0.226070  1
  O  O31  1  0.187646  0.481677  0.672661  1
  O  O32  1  0.315482  0.670027  0.129409  1
  O  O33  1  0.462915  0.697236  0.777383  1
  O  O34  1  0.377039  0.406137  0.880502  1
  O  O35  1  0.059005  0.399992  0.376984  1
  O  O36  1  0.043124  0.719439  0.974330  1
  O  O37  1  0.910323  0.172780  0.590336  1
  O  O38  1  0.201713  0.938019  0.243664  1
  O  O39  1  0.207693  0.290775  0.211043  1
  O  O40  1  0.845187  0.462641  0.641709  1
  O  O41  1  0.625005  0.607278  0.153534  1
  O  O42  1  0.361829  0.284234  0.219835  1
  O  O43  1  0.716665  0.482609  0.903102  1
  O  O44  1  0.721502  -0.021776  0.779878  1
  O  O45  1  0.397839  0.995419  0.621527  1
  O  O46  1  0.698482  0.382553  0.309776  1
  O  O47  1  0.826204  0.942412  0.075867  1
  O  O48  1  0.430986  0.319063  0.594326  1
  O  O49  1  0.986870  0.362873  0.026925  1
  O  O50  1  0.935117  0.666899  0.271551  1
  O  O51  1  0.953149  0.905510  0.672796  1
