# generated using pymatgen
data_CuAg7As4ClO14
_symmetry_space_group_name_H-M   'P 1'
_cell_length_a   6.95063308
_cell_length_b   6.95066885
_cell_length_c   16.77058424
_cell_angle_alpha   86.09049816
_cell_angle_beta   86.09053571
_cell_angle_gamma   82.05284007
_symmetry_Int_Tables_number   1
_chemical_formula_structural   CuAg7As4ClO14
_chemical_formula_sum   'Cu2 Ag14 As8 Cl2 O28'
_cell_volume   799.14782169
_cell_formula_units_Z   2
loop_
 _symmetry_equiv_pos_site_id
 _symmetry_equiv_pos_as_xyz
  1  'x, y, z'
loop_
 _atom_site_type_symbol
 _atom_site_label
 _atom_site_symmetry_multiplicity
 _atom_site_fract_x
 _atom_site_fract_y
 _atom_site_fract_z
 _atom_site_occupancy
  Cu  Cu0  1  0.286576  0.276530  0.840987  1
  Cu  Cu1  1  0.276532  0.286573  0.340988  1
  Ag  Ag2  1  0.504931  0.984022  0.009183  1
  Ag  Ag3  1  0.404335  0.884033  0.516359  1
  Ag  Ag4  1  0.882971  0.668132  0.843067  1
  Ag  Ag5  1  0.146246  0.614175  0.678167  1
  Ag  Ag6  1  0.668131  0.882970  0.343067  1
  Ag  Ag7  1  0.057533  0.942925  -0.000015  1
  Ag  Ag8  1  0.984022  0.504931  0.509183  1
  Ag  Ag9  1  0.485442  0.632150  0.185267  1
  Ag  Ag10  1  0.884033  0.404337  0.016359  1
  Ag  Ag11  1  0.614175  0.146247  0.178167  1
  Ag  Ag12  1  0.942924  0.057534  0.499985  1
  Ag  Ag13  1  0.051210  0.583335  0.180191  1
  Ag  Ag14  1  0.583335  0.051210  0.680191  1
  Ag  Ag15  1  0.632149  0.485443  0.685267  1
  As  As16  1  0.811316  0.159845  0.842925  1
  As  As17  1  0.159842  0.811319  0.342925  1
  As  As18  1  0.377127  0.476069  0.003015  1
  As  As19  1  0.752756  0.386925  0.344773  1
  As  As20  1  0.476068  0.377128  0.503015  1
  As  As21  1  0.099832  0.128370  0.684532  1
  As  As22  1  0.128372  0.099831  0.184533  1
  As  As23  1  0.386926  0.752757  0.844774  1
  Cl  Cl24  1  0.757879  0.824119  0.108224  1
  Cl  Cl25  1  0.824122  0.757875  0.608224  1
  O  O26  1  0.547085  0.418202  0.072664  1
  O  O27  1  0.582345  0.760184  0.778404  1
  O  O28  1  0.974029  0.269136  0.371130  1
  O  O29  1  0.275106  0.356003  0.450938  1
  O  O30  1  0.946526  0.323961  0.876380  1
  O  O31  1  0.231564  0.590497  0.825065  1
  O  O32  1  0.356002  0.275102  0.950938  1
  O  O33  1  0.495206  0.646037  0.936823  1
  O  O34  1  0.027108  0.946482  0.262314  1
  O  O35  1  0.153829  0.586128  0.036065  1
  O  O36  1  0.269138  0.974025  0.871129  1
  O  O37  1  0.230340  0.285131  0.727973  1
  O  O38  1  0.285133  0.230344  0.227974  1
  O  O39  1  0.786598  0.972730  0.912831  1
  O  O40  1  0.604358  0.262809  0.797687  1
  O  O41  1  0.760185  0.582348  0.278403  1
  O  O42  1  0.972735  0.786601  0.412829  1
  O  O43  1  0.262808  0.604358  0.297686  1
  O  O44  1  0.323967  0.946531  0.376381  1
  O  O45  1  0.590500  0.231571  0.325067  1
  O  O46  1  0.252073  0.932443  0.651249  1
  O  O47  1  0.586130  0.153830  0.536064  1
  O  O48  1  0.646036  0.495206  0.436823  1
  O  O49  1  0.251351  0.948739  0.116831  1
  O  O50  1  0.946481  0.027107  0.762313  1
  O  O51  1  0.948741  0.251349  0.616831  1
  O  O52  1  0.932443  0.252072  0.151250  1
  O  O53  1  0.418198  0.547090  0.572665  1
