# generated using pymatgen
data_Rb2Hg(CN)4
_symmetry_space_group_name_H-M   'P 1'
_cell_length_a   16.74094111
_cell_length_b   16.74094101
_cell_length_c   16.74094105
_cell_angle_alpha   31.78691481
_cell_angle_beta   31.78691540
_cell_angle_gamma   31.78691559
_symmetry_Int_Tables_number   1
_chemical_formula_structural   Rb2Hg(CN)4
_chemical_formula_sum   'Rb8 Hg4 C16 N16'
_cell_volume   1156.31766167
_cell_formula_units_Z   4
loop_
 _symmetry_equiv_pos_site_id
 _symmetry_equiv_pos_as_xyz
  1  'x, y, z'
loop_
 _atom_site_type_symbol
 _atom_site_label
 _atom_site_symmetry_multiplicity
 _atom_site_fract_x
 _atom_site_fract_y
 _atom_site_fract_z
 _atom_site_occupancy
  Rb  Rb0  1  0.313716  0.186284  0.750000  1
  Rb  Rb1  1  0.813716  0.250000  0.686284  1
  Rb  Rb2  1  0.250000  0.686284  0.813716  1
  Rb  Rb3  1  0.000000  0.000000  0.000000  1
  Rb  Rb4  1  0.750000  0.313716  0.186284  1
  Rb  Rb5  1  0.686284  0.813716  0.250000  1
  Rb  Rb6  1  0.500000  0.500000  0.500000  1
  Rb  Rb7  1  0.186284  0.750000  0.313716  1
  Hg  Hg8  1  0.312231  0.312231  0.312231  1
  Hg  Hg9  1  0.812231  0.812231  0.812231  1
  Hg  Hg10  1  0.187769  0.187769  0.187769  1
  Hg  Hg11  1  0.687769  0.687769  0.687769  1
  C  C12  1  0.358403  0.358403  0.358403  1
  C  C13  1  0.641597  0.641597  0.641597  1
  C  C14  1  0.553358  0.211623  0.126237  1
  C  C15  1  0.788377  0.873763  0.446642  1
  C  C16  1  0.288377  0.946642  0.373763  1
  C  C17  1  0.141597  0.141597  0.141597  1
  C  C18  1  0.626237  0.711623  0.053358  1
  C  C19  1  0.053358  0.626237  0.711623  1
  C  C20  1  0.711623  0.053358  0.626237  1
  C  C21  1  0.211623  0.126237  0.553358  1
  C  C22  1  0.946642  0.373763  0.288377  1
  C  C23  1  0.373763  0.288377  0.946642  1
  C  C24  1  0.858403  0.858403  0.858403  1
  C  C25  1  0.873763  0.446642  0.788377  1
  C  C26  1  0.446642  0.788377  0.873763  1
  C  C27  1  0.126237  0.553358  0.211623  1
  N  N28  1  0.682086  0.150362  0.033183  1
  N  N29  1  0.033183  0.682086  0.150362  1
  N  N30  1  0.182086  0.533183  0.650362  1
  N  N31  1  0.466817  0.349638  0.817914  1
  N  N32  1  0.616928  0.616928  0.616928  1
  N  N33  1  0.116928  0.116928  0.116928  1
  N  N34  1  0.817914  0.466817  0.349638  1
  N  N35  1  0.150362  0.033183  0.682086  1
  N  N36  1  0.849638  0.966817  0.317914  1
  N  N37  1  0.883072  0.883072  0.883072  1
  N  N38  1  0.533183  0.650362  0.182086  1
  N  N39  1  0.349638  0.817914  0.466817  1
  N  N40  1  0.650362  0.182086  0.533183  1
  N  N41  1  0.317914  0.849638  0.966817  1
  N  N42  1  0.966817  0.317914  0.849638  1
  N  N43  1  0.383072  0.383072  0.383072  1
