# generated using pymatgen
data_KP(HO2)2
_symmetry_space_group_name_H-M   'P 1'
_cell_length_a   7.55230956
_cell_length_b   7.36768888
_cell_length_c   7.54348045
_cell_angle_alpha   90.00000000
_cell_angle_beta   86.14455662
_cell_angle_gamma   90.00000000
_symmetry_Int_Tables_number   1
_chemical_formula_structural   KP(HO2)2
_chemical_formula_sum   'K4 P4 H8 O16'
_cell_volume   418.79245755
_cell_formula_units_Z   4
loop_
 _symmetry_equiv_pos_site_id
 _symmetry_equiv_pos_as_xyz
  1  'x, y, z'
loop_
 _atom_site_type_symbol
 _atom_site_label
 _atom_site_symmetry_multiplicity
 _atom_site_fract_x
 _atom_site_fract_y
 _atom_site_fract_z
 _atom_site_occupancy
  K  K0  1  0.250000  0.967264  0.250000  1
  K  K1  1  0.250000  0.661908  0.750000  1
  K  K2  1  0.750000  0.338092  0.250000  1
  K  K3  1  0.750000  0.032736  0.750000  1
  P  P4  1  0.250000  0.425777  0.250000  1
  P  P5  1  0.250000  0.107094  0.750000  1
  P  P6  1  0.750000  0.892906  0.250000  1
  P  P7  1  0.750000  0.574223  0.750000  1
  H  H8  1  0.054784  0.628080  0.179329  1
  H  H9  1  0.104951  0.277290  0.560826  1
  H  H10  1  0.395049  0.277290  0.939174  1
  H  H11  1  0.445216  0.628080  0.320671  1
  H  H12  1  0.554784  0.371920  0.679329  1
  H  H13  1  0.604951  0.722710  0.060826  1
  H  H14  1  0.895049  0.722710  0.439174  1
  H  H15  1  0.945216  0.371920  0.820671  1
  O  O16  1  0.110261  0.320055  0.360322  1
  O  O17  1  0.155246  0.559164  0.116058  1
  O  O18  1  0.093791  0.247886  0.694947  1
  O  O19  1  0.183896  0.003825  0.911895  1
  O  O20  1  0.344754  0.559164  0.383942  1
  O  O21  1  0.389739  0.320055  0.139678  1
  O  O22  1  0.316104  0.003825  0.588105  1
  O  O23  1  0.406209  0.247886  0.805053  1
  O  O24  1  0.593791  0.752114  0.194947  1
  O  O25  1  0.683896  0.996175  0.411895  1
  O  O26  1  0.610261  0.679945  0.860322  1
  O  O27  1  0.655246  0.440836  0.616058  1
  O  O28  1  0.816104  0.996175  0.088105  1
  O  O29  1  0.906209  0.752114  0.305053  1
  O  O30  1  0.844754  0.440836  0.883942  1
  O  O31  1  0.889739  0.679945  0.639678  1
