# generated using pymatgen
data_K3AlH6
_symmetry_space_group_name_H-M   'P 1'
_cell_length_a   3.23851233
_cell_length_b   13.08575946
_cell_length_c   15.21153108
_cell_angle_alpha   90.00000000
_cell_angle_beta   90.00000000
_cell_angle_gamma   90.00000000
_symmetry_Int_Tables_number   1
_chemical_formula_structural   K3AlH6
_chemical_formula_sum   'K12 Al4 H24'
_cell_volume   644.64024770
_cell_formula_units_Z   4
loop_
 _symmetry_equiv_pos_site_id
 _symmetry_equiv_pos_as_xyz
  1  'x, y, z'
loop_
 _atom_site_type_symbol
 _atom_site_label
 _atom_site_symmetry_multiplicity
 _atom_site_fract_x
 _atom_site_fract_y
 _atom_site_fract_z
 _atom_site_occupancy
  K  K0  1  0.500000  0.471023  0.719732  1
  K  K1  1  0.500000  0.746235  0.117226  1
  K  K2  1  0.500000  0.253765  0.882774  1
  K  K3  1  0.500000  0.700428  0.851903  1
  K  K4  1  0.500000  0.299572  0.148097  1
  K  K5  1  0.000000  0.028977  0.219732  1
  K  K6  1  0.000000  0.799572  0.351903  1
  K  K7  1  0.000000  0.200428  0.648097  1
  K  K8  1  0.500000  0.528977  0.280268  1
  K  K9  1  0.000000  0.246235  0.382774  1
  K  K10  1  0.000000  0.753765  0.617226  1
  K  K11  1  0.000000  0.971023  0.780268  1
  Al  Al12  1  0.500000  0.000000  0.500000  1
  Al  Al13  1  0.000000  0.500000  0.500000  1
  Al  Al14  1  0.500000  0.000000  0.000000  1
  Al  Al15  1  0.000000  0.500000  0.000000  1
  H  H16  1  0.500000  0.094236  0.072408  1
  H  H17  1  0.000000  0.333306  0.775198  1
  H  H18  1  0.000000  0.058548  0.946080  1
  H  H19  1  0.000000  0.666694  0.224802  1
  H  H20  1  0.000000  0.381012  0.254696  1
  H  H21  1  0.000000  0.627436  0.991424  1
  H  H22  1  0.000000  0.005837  0.426611  1
  H  H23  1  0.500000  0.505837  0.073389  1
  H  H24  1  0.500000  0.166694  0.275198  1
  H  H25  1  0.000000  0.594236  0.427592  1
  H  H26  1  0.500000  0.833306  0.724802  1
  H  H27  1  0.500000  0.494163  0.926611  1
  H  H28  1  0.500000  0.127436  0.508576  1
  H  H29  1  0.500000  0.558548  0.553920  1
  H  H30  1  0.000000  0.994163  0.573389  1
  H  H31  1  0.500000  0.118988  0.754696  1
  H  H32  1  0.500000  0.872564  0.491424  1
  H  H33  1  0.000000  0.372564  0.008576  1
  H  H34  1  0.000000  0.941452  0.053920  1
  H  H35  1  0.500000  0.441452  0.446080  1
  H  H36  1  0.000000  0.405764  0.572408  1
  H  H37  1  0.500000  0.881012  0.245304  1
  H  H38  1  0.000000  0.618988  0.745304  1
  H  H39  1  0.500000  0.905764  0.927592  1
