# generated using pymatgen
data_LaSb2Au
_symmetry_space_group_name_H-M   'P 1'
_cell_length_a   5.77503601
_cell_length_b   5.77500016
_cell_length_c   6.50769786
_cell_angle_alpha   89.99587406
_cell_angle_beta   90.00787262
_cell_angle_gamma   90.00724548
_symmetry_Int_Tables_number   1
_chemical_formula_structural   LaSb2Au
_chemical_formula_sum   'La2 Sb4 Au2'
_cell_volume   217.03714556
_cell_formula_units_Z   2
loop_
 _symmetry_equiv_pos_site_id
 _symmetry_equiv_pos_as_xyz
  1  'x, y, z'
loop_
 _atom_site_type_symbol
 _atom_site_label
 _atom_site_symmetry_multiplicity
 _atom_site_fract_x
 _atom_site_fract_y
 _atom_site_fract_z
 _atom_site_occupancy
  La  La0  1  0.249972  0.250006  0.270857  1
  La  La1  1  0.750015  0.749986  0.729152  1
  Sb  Sb2  1  0.250017  0.250001  0.773213  1
  Sb  Sb3  1  0.249991  0.749997  0.499992  1
  Sb  Sb4  1  0.750033  0.750010  0.226803  1
  Sb  Sb5  1  0.749993  0.249996  0.499993  1
  Au  Au6  1  0.250050  0.750054  0.999989  1
  Au  Au7  1  0.749929  0.249950  0.000001  1
