# generated using pymatgen
data_YSeF
_symmetry_space_group_name_H-M   'P 1'
_cell_length_a   10.02729249
_cell_length_b   13.18603888
_cell_length_c   4.12969205
_cell_angle_alpha   90.00000000
_cell_angle_beta   90.00000000
_cell_angle_gamma   104.95529941
_symmetry_Int_Tables_number   1
_chemical_formula_structural   YSeF
_chemical_formula_sum   'Y8 Se8 F8'
_cell_volume   527.53360105
_cell_formula_units_Z   8
loop_
 _symmetry_equiv_pos_site_id
 _symmetry_equiv_pos_as_xyz
  1  'x, y, z'
loop_
 _atom_site_type_symbol
 _atom_site_label
 _atom_site_symmetry_multiplicity
 _atom_site_fract_x
 _atom_site_fract_y
 _atom_site_fract_z
 _atom_site_occupancy
  Y  Y0  1  0.455472  0.126498  0.250000  1
  Y  Y1  1  0.544528  0.873502  0.750000  1
  Y  Y2  1  0.962569  0.121580  0.250000  1
  Y  Y3  1  0.037431  0.878420  0.750000  1
  Y  Y4  1  0.116514  0.636966  0.250000  1
  Y  Y5  1  0.883486  0.363034  0.750000  1
  Y  Y6  1  0.622361  0.614457  0.250000  1
  Y  Y7  1  0.377639  0.385543  0.750000  1
  Se  Se8  1  0.244647  0.235948  0.250000  1
  Se  Se9  1  0.755353  0.764052  0.750000  1
  Se  Se10  1  0.671451  0.018433  0.250000  1
  Se  Se11  1  0.328549  0.981567  0.750000  1
  Se  Se12  1  0.414384  0.731094  0.250000  1
  Se  Se13  1  0.585616  0.268906  0.750000  1
  Se  Se14  1  0.839642  0.512368  0.250000  1
  Se  Se15  1  0.160358  0.487632  0.750000  1
  F  F16  1  0.904836  0.293635  0.250000  1
  F  F17  1  0.095164  0.706365  0.750000  1
  F  F18  1  0.445394  0.457793  0.250000  1
  F  F19  1  0.554606  0.542207  0.750000  1
  F  F20  1  0.063210  0.795020  0.250000  1
  F  F21  1  0.936790  0.204980  0.750000  1
  F  F22  1  0.014388  0.960615  0.250000  1
  F  F23  1  0.985612  0.039385  0.750000  1
