# generated using pymatgen
data_CoI(NO)2
_symmetry_space_group_name_H-M   'P 1'
_cell_length_a   3.89511983
_cell_length_b   10.72000019
_cell_length_c   12.80307444
_cell_angle_alpha   90.00000000
_cell_angle_beta   90.00000000
_cell_angle_gamma   90.00000000
_symmetry_Int_Tables_number   1
_chemical_formula_structural   CoI(NO)2
_chemical_formula_sum   'Co4 I4 N8 O8'
_cell_volume   534.60114742
_cell_formula_units_Z   4
loop_
 _symmetry_equiv_pos_site_id
 _symmetry_equiv_pos_as_xyz
  1  'x, y, z'
loop_
 _atom_site_type_symbol
 _atom_site_label
 _atom_site_symmetry_multiplicity
 _atom_site_fract_x
 _atom_site_fract_y
 _atom_site_fract_z
 _atom_site_occupancy
  Co  Co0  1  0.750000  0.558947  0.289154  1
  Co  Co1  1  0.250000  0.441053  0.710846  1
  Co  Co2  1  0.750000  0.058947  0.210846  1
  Co  Co3  1  0.250000  0.941053  0.789154  1
  I  I4  1  0.250000  0.912056  0.151625  1
  I  I5  1  0.750000  0.087944  0.848375  1
  I  I6  1  0.250000  0.412056  0.348375  1
  I  I7  1  0.750000  0.587944  0.651625  1
  N  N8  1  0.250000  0.815179  0.861689  1
  N  N9  1  0.250000  0.925529  0.662244  1
  N  N10  1  0.250000  0.315179  0.638311  1
  N  N11  1  0.750000  0.684821  0.361689  1
  N  N12  1  0.750000  0.074471  0.337756  1
  N  N13  1  0.250000  0.425529  0.837756  1
  N  N14  1  0.750000  0.184821  0.138311  1
  N  N15  1  0.750000  0.574471  0.162244  1
  O  O16  1  0.250000  0.399077  0.926859  1
  O  O17  1  0.750000  0.286450  0.104190  1
  O  O18  1  0.250000  0.213550  0.604190  1
  O  O19  1  0.750000  0.786450  0.395810  1
  O  O20  1  0.250000  0.899077  0.573141  1
  O  O21  1  0.250000  0.713550  0.895810  1
  O  O22  1  0.750000  0.600923  0.073141  1
  O  O23  1  0.750000  0.100923  0.426859  1
