# generated using pymatgen
data_CsTbZnTe3
_symmetry_space_group_name_H-M   'P 1'
_cell_length_a   4.44044100
_cell_length_b   8.93329534
_cell_length_c   11.78424365
_cell_angle_alpha   90.13294119
_cell_angle_beta   90.00929433
_cell_angle_gamma   104.34273701
_symmetry_Int_Tables_number   1
_chemical_formula_structural   CsTbZnTe3
_chemical_formula_sum   'Cs2 Tb2 Zn2 Te6'
_cell_volume   452.88333736
_cell_formula_units_Z   2
loop_
 _symmetry_equiv_pos_site_id
 _symmetry_equiv_pos_as_xyz
  1  'x, y, z'
loop_
 _atom_site_type_symbol
 _atom_site_label
 _atom_site_symmetry_multiplicity
 _atom_site_fract_x
 _atom_site_fract_y
 _atom_site_fract_z
 _atom_site_occupancy
  Tb  Tb0  1  0.000592  0.999219  0.999138  1
  Tb  Tb1  1  0.996600  0.998297  0.499488  1
  Cs  Cs2  1  0.254226  0.508359  0.248793  1
  Cs  Cs3  1  0.747141  0.488815  0.750402  1
  Zn  Zn4  1  0.539216  0.076560  0.251025  1
  Zn  Zn5  1  0.465356  0.921691  0.748715  1
  Te  Te6  1  0.061015  0.114743  0.749496  1
  Te  Te7  1  0.618241  0.238786  0.442865  1
  Te  Te8  1  0.619976  0.238208  0.058758  1
  Te  Te9  1  0.941788  0.883832  0.249461  1
  Te  Te10  1  0.382053  0.759809  0.940637  1
  Te  Te11  1  0.379771  0.758210  0.557773  1
