# generated using pymatgen
data_Fe3(PO4)2
_symmetry_space_group_name_H-M   'P 1'
_cell_length_a   6.26676332
_cell_length_b   9.00772529
_cell_length_c   11.34747153
_cell_angle_alpha   90.00000000
_cell_angle_beta   90.00000000
_cell_angle_gamma   99.80941313
_symmetry_Int_Tables_number   1
_chemical_formula_structural   Fe3(PO4)2
_chemical_formula_sum   'Fe12 P8 O32'
_cell_volume   631.19163687
_cell_formula_units_Z   4
loop_
 _symmetry_equiv_pos_site_id
 _symmetry_equiv_pos_as_xyz
  1  'x, y, z'
loop_
 _atom_site_type_symbol
 _atom_site_label
 _atom_site_symmetry_multiplicity
 _atom_site_fract_x
 _atom_site_fract_y
 _atom_site_fract_z
 _atom_site_occupancy
  Fe  Fe0  1  0.334987  0.725388  0.082471  1
  Fe  Fe1  1  0.665013  0.274612  0.917529  1
  Fe  Fe2  1  0.882215  0.636785  0.806030  1
  Fe  Fe3  1  0.117785  0.363215  0.193970  1
  Fe  Fe4  1  0.382215  0.636785  0.693970  1
  Fe  Fe5  1  0.876098  0.925505  0.116523  1
  Fe  Fe6  1  0.834987  0.725388  0.417529  1
  Fe  Fe7  1  0.617785  0.363215  0.306030  1
  Fe  Fe8  1  0.165013  0.274612  0.582471  1
  Fe  Fe9  1  0.623902  0.074495  0.616523  1
  Fe  Fe10  1  0.123902  0.074495  0.883477  1
  Fe  Fe11  1  0.376098  0.925505  0.383477  1
  P  P12  1  0.307505  0.603442  0.412843  1
  P  P13  1  0.192495  0.396558  0.912843  1
  P  P14  1  0.807505  0.603442  0.087157  1
  P  P15  1  0.388623  0.095053  0.135120  1
  P  P16  1  0.111377  0.904947  0.635120  1
  P  P17  1  0.888623  0.095053  0.364880  1
  P  P18  1  0.611377  0.904947  0.864880  1
  P  P19  1  0.692495  0.396558  0.587157  1
  O  O20  1  0.235364  0.467369  0.037794  1
  O  O21  1  0.094295  0.132644  0.438850  1
  O  O22  1  0.326280  0.480399  0.320905  1
  O  O23  1  0.981544  0.275568  0.912548  1
  O  O24  1  0.172976  0.073683  0.062511  1
  O  O25  1  0.264636  0.532631  0.537794  1
  O  O26  1  0.866984  0.301759  0.624044  1
  O  O27  1  0.481544  0.275568  0.587452  1
  O  O28  1  0.628078  0.772043  0.778443  1
  O  O29  1  0.672976  0.073683  0.437489  1
  O  O30  1  0.108719  0.053461  0.706224  1
  O  O31  1  0.391281  0.946539  0.206224  1
  O  O32  1  0.735364  0.467369  0.462206  1
  O  O33  1  0.594295  0.132644  0.061150  1
  O  O34  1  0.608719  0.053461  0.793776  1
  O  O35  1  0.891281  0.946539  0.293776  1
  O  O36  1  0.673720  0.519601  0.679095  1
  O  O37  1  0.371922  0.227957  0.221557  1
  O  O38  1  0.764636  0.532631  0.962206  1
  O  O39  1  0.871922  0.227957  0.278443  1
  O  O40  1  0.173720  0.519601  0.820905  1
  O  O41  1  0.366984  0.301759  0.875956  1
  O  O42  1  0.826280  0.480399  0.179095  1
  O  O43  1  0.827024  0.926317  0.937489  1
  O  O44  1  0.018456  0.724432  0.087452  1
  O  O45  1  0.327024  0.926317  0.562511  1
  O  O46  1  0.128078  0.772043  0.721557  1
  O  O47  1  0.133016  0.698241  0.375956  1
  O  O48  1  0.633016  0.698241  0.124044  1
  O  O49  1  0.905705  0.867356  0.561150  1
  O  O50  1  0.518456  0.724432  0.412548  1
  O  O51  1  0.405705  0.867356  0.938850  1
