# generated using pymatgen
data_BaH4(CO2)3
_symmetry_space_group_name_H-M   'P 1'
_cell_length_a   10.71447637
_cell_length_b   10.71447637
_cell_length_c   10.71447637
_cell_angle_alpha   96.37233130
_cell_angle_beta   96.37233130
_cell_angle_gamma   141.07982323
_symmetry_Int_Tables_number   1
_chemical_formula_structural   BaH4(CO2)3
_chemical_formula_sum   'Ba4 H16 C12 O24'
_cell_volume   728.60136538
_cell_formula_units_Z   4
loop_
 _symmetry_equiv_pos_site_id
 _symmetry_equiv_pos_as_xyz
  1  'x, y, z'
loop_
 _atom_site_type_symbol
 _atom_site_label
 _atom_site_symmetry_multiplicity
 _atom_site_fract_x
 _atom_site_fract_y
 _atom_site_fract_z
 _atom_site_occupancy
  Ba  Ba0  1  0.832090  0.635170  0.854203  1
  Ba  Ba1  1  0.780967  0.977886  0.145797  1
  Ba  Ba2  1  0.022114  0.167910  0.803081  1
  Ba  Ba3  1  0.364829  0.219033  0.196919  1
  H  H4  1  0.643807  0.196950  0.996798  1
  H  H5  1  0.200152  0.647009  0.003202  1
  H  H6  1  0.352991  0.356193  0.553143  1
  H  H7  1  0.803050  0.799848  0.446857  1
  H  H8  1  0.887971  0.710156  0.272802  1
  H  H9  1  0.437354  0.615169  0.727198  1
  H  H10  1  0.384831  0.112029  0.822185  1
  H  H11  1  0.289844  0.562646  0.177815  1
  H  H12  1  0.188398  0.618518  0.636159  1
  H  H13  1  0.982359  0.552238  0.363841  1
  H  H14  1  0.447762  0.811602  0.430120  1
  H  H15  1  0.381482  0.017641  0.569880  1
  H  H16  1  0.873980  0.350026  0.775034  1
  H  H17  1  0.574992  0.098946  0.224966  1
  H  H18  1  0.901054  0.126020  0.476046  1
  H  H19  1  0.649974  0.425008  0.523954  1
  C  C20  1  0.728810  0.217327  0.931674  1
  C  C21  1  0.285653  0.797136  0.068326  1
  C  C22  1  0.202864  0.271190  0.488517  1
  C  C23  1  0.782673  0.714347  0.511483  1
  C  C24  1  0.842067  0.682038  0.164974  1
  C  C25  1  0.517064  0.677093  0.835026  1
  C  C26  1  0.322907  0.157933  0.839971  1
  C  C27  1  0.317962  0.482936  0.160029  1
  C  C28  1  0.082465  0.569271  0.692489  1
  C  C29  1  0.876782  0.389976  0.307511  1
  C  C30  1  0.610024  0.917535  0.486806  1
  C  C31  1  0.430729  0.123218  0.513194  1
  O  O32  1  0.784637  0.149610  0.940337  1
  O  O33  1  0.209273  0.844300  0.059663  1
  O  O34  1  0.155700  0.215363  0.364973  1
  O  O35  1  0.850390  0.790727  0.635027  1
  O  O36  1  0.761095  0.314410  0.850748  1
  O  O37  1  0.463662  0.910347  0.149252  1
  O  O38  1  0.089653  0.238905  0.553315  1
  O  O39  1  0.685590  0.536338  0.446685  1
  O  O40  1  0.932969  0.838961  0.126237  1
  O  O41  1  0.712724  0.806732  0.873763  1
  O  O42  1  0.193268  0.067031  0.905992  1
  O  O43  1  0.161039  0.287276  0.094008  1
  O  O44  1  0.704266  0.497004  0.088690  1
  O  O45  1  0.408314  0.615576  0.911310  1
  O  O46  1  0.384424  0.295734  0.792738  1
  O  O47  1  0.502996  0.591686  0.207262  1
  O  O48  1  0.978568  0.395711  0.717718  1
  O  O49  1  0.677993  0.260850  0.282282  1
  O  O50  1  0.739150  0.021432  0.417143  1
  O  O51  1  0.604289  0.322007  0.582857  1
  O  O52  1  0.070299  0.672902  0.725194  1
  O  O53  1  0.947708  0.345105  0.274806  1
  O  O54  1  0.654895  0.929701  0.602603  1
  O  O55  1  0.327098  0.052292  0.397397  1
