# generated using pymatgen
data_Ga2Fe2S5
_symmetry_space_group_name_H-M   'P 1'
_cell_length_a   15.25333232
_cell_length_b   15.25333227
_cell_length_c   15.25333231
_cell_angle_alpha   13.64251712
_cell_angle_beta   13.64251795
_cell_angle_gamma   13.64251702
_symmetry_Int_Tables_number   1
_chemical_formula_structural   Ga2Fe2S5
_chemical_formula_sum   'Ga2 Fe2 S5'
_cell_volume   171.78787438
_cell_formula_units_Z   1
loop_
 _symmetry_equiv_pos_site_id
 _symmetry_equiv_pos_as_xyz
  1  'x, y, z'
loop_
 _atom_site_type_symbol
 _atom_site_label
 _atom_site_symmetry_multiplicity
 _atom_site_fract_x
 _atom_site_fract_y
 _atom_site_fract_z
 _atom_site_occupancy
  Ga  Ga0  1  0.724018  0.724018  0.724018  1
  Ga  Ga1  1  0.275982  0.275982  0.275982  1
  Fe  Fe2  1  0.135339  0.135339  0.135339  1
  Fe  Fe3  1  0.864661  0.864661  0.864661  1
  S  S4  1  0.632501  0.632501  0.632501  1
  S  S5  1  0.226693  0.226693  0.226693  1
  S  S6  1  0.367499  0.367499  0.367499  1
  S  S7  1  0.773307  0.773307  0.773307  1
  S  S8  1  0.500000  0.500000  0.500000  1
