# generated using pymatgen
data_BiH24C6(I2N)3
_symmetry_space_group_name_H-M   'P 1'
_cell_length_a   18.48364183
_cell_length_b   18.48364200
_cell_length_c   18.48364196
_cell_angle_alpha   117.41487599
_cell_angle_beta   117.41487628
_cell_angle_gamma   117.41488049
_symmetry_Int_Tables_number   1
_chemical_formula_structural   BiH24C6(I2N)3
_chemical_formula_sum   'Bi4 H96 C24 I24 N12'
_cell_volume   2594.41735753
_cell_formula_units_Z   4
loop_
 _symmetry_equiv_pos_site_id
 _symmetry_equiv_pos_as_xyz
  1  'x, y, z'
loop_
 _atom_site_type_symbol
 _atom_site_label
 _atom_site_symmetry_multiplicity
 _atom_site_fract_x
 _atom_site_fract_y
 _atom_site_fract_z
 _atom_site_occupancy
  Bi  Bi0  1  0.500000  0.000000  0.000000  1
  Bi  Bi1  1  0.500000  0.500000  0.500000  1
  Bi  Bi2  1  0.000000  0.000000  0.500000  1
  Bi  Bi3  1  0.000000  0.500000  0.000000  1
  H  H4  1  0.457250  0.076158  0.324425  1
  H  H5  1  0.744932  0.786958  0.565134  1
  H  H6  1  0.821624  0.875547  0.560867  1
  H  H7  1  0.301822  0.883127  0.548115  1
  H  H8  1  0.502843  0.663880  0.060633  1
  H  H9  1  0.542750  0.923842  0.675575  1
  H  H10  1  0.818313  0.012199  0.045679  1
  H  H11  1  0.135516  0.758172  0.620066  1
  H  H12  1  0.241828  0.379934  0.864484  1
  H  H13  1  0.352093  0.584985  0.120404  1
  H  H14  1  0.584985  0.120404  0.352093  1
  H  H15  1  0.683658  0.445396  0.080719  1
  H  H16  1  0.895280  0.018318  0.800433  1
  H  H17  1  0.439133  0.178376  0.124453  1
  H  H18  1  0.520702  0.615576  0.807153  1
  H  H19  1  0.420746  0.511073  0.038450  1
  H  H20  1  0.181687  0.987801  0.954321  1
  H  H21  1  0.704622  0.372108  0.564874  1
  H  H22  1  0.199567  0.104720  0.981683  1
  H  H23  1  0.096715  0.483018  0.299938  1
  H  H24  1  0.647907  0.415015  0.879596  1
  H  H25  1  0.116873  0.451885  0.698178  1
  H  H26  1  0.202650  0.021650  0.884056  1
  H  H27  1  0.987801  0.954321  0.181687  1
  H  H28  1  0.213042  0.434866  0.255068  1
  H  H29  1  0.299938  0.096715  0.483018  1
  H  H30  1  0.548115  0.301822  0.883127  1
  H  H31  1  0.928034  0.165690  0.378693  1
  H  H32  1  0.372108  0.564874  0.704622  1
  H  H33  1  0.800433  0.895280  0.018318  1
  H  H34  1  0.165690  0.378693  0.928034  1
  H  H35  1  0.115944  0.797350  0.978350  1
  H  H36  1  0.554604  0.919281  0.316342  1
  H  H37  1  0.497157  0.336120  0.939367  1
  H  H38  1  0.104720  0.981683  0.199567  1
  H  H39  1  0.435126  0.295378  0.627892  1
  H  H40  1  0.434866  0.255068  0.213042  1
  H  H41  1  0.120404  0.352093  0.584985  1
  H  H42  1  0.038450  0.420746  0.511073  1
  H  H43  1  0.012199  0.045679  0.818313  1
  H  H44  1  0.316342  0.554604  0.919281  1
  H  H45  1  0.954321  0.181687  0.987801  1
  H  H46  1  0.758172  0.620066  0.135516  1
  H  H47  1  0.919281  0.316342  0.554604  1
  H  H48  1  0.060633  0.502843  0.663880  1
  H  H49  1  0.451885  0.698178  0.116873  1
  H  H50  1  0.663880  0.060633  0.502843  1
  H  H51  1  0.879596  0.647907  0.415015  1
  H  H52  1  0.978350  0.115944  0.797350  1
  H  H53  1  0.021650  0.884056  0.202650  1
  H  H54  1  0.379934  0.864484  0.241828  1
  H  H55  1  0.516982  0.700062  0.903285  1
  H  H56  1  0.807153  0.520702  0.615576  1
  H  H57  1  0.384424  0.192847  0.479298  1
  H  H58  1  0.045679  0.818313  0.012199  1
  H  H59  1  0.324425  0.457250  0.076158  1
  H  H60  1  0.923842  0.675575  0.542750  1
  H  H61  1  0.080719  0.683658  0.445396  1
  H  H62  1  0.565134  0.744932  0.786958  1
  H  H63  1  0.415015  0.879596  0.647907  1
  H  H64  1  0.479298  0.384424  0.192847  1
  H  H65  1  0.864484  0.241828  0.379934  1
  H  H66  1  0.178376  0.124453  0.439133  1
  H  H67  1  0.883127  0.548115  0.301822  1
  H  H68  1  0.620066  0.135516  0.758172  1
  H  H69  1  0.884056  0.202650  0.021650  1
  H  H70  1  0.511073  0.038450  0.420746  1
  H  H71  1  0.698178  0.116873  0.451885  1
  H  H72  1  0.615576  0.807153  0.520702  1
  H  H73  1  0.295378  0.627892  0.435126  1
  H  H74  1  0.786958  0.565134  0.744932  1
  H  H75  1  0.378693  0.928034  0.165690  1
  H  H76  1  0.797350  0.978350  0.115944  1
  H  H77  1  0.675575  0.542750  0.923842  1
  H  H78  1  0.124453  0.439133  0.178376  1
  H  H79  1  0.875547  0.560867  0.821624  1
  H  H80  1  0.445396  0.080719  0.683658  1
  H  H81  1  0.700062  0.903285  0.516982  1
  H  H82  1  0.627892  0.435126  0.295378  1
  H  H83  1  0.018318  0.800433  0.895280  1
  H  H84  1  0.255068  0.213042  0.434866  1
  H  H85  1  0.076158  0.324425  0.457250  1
  H  H86  1  0.903285  0.516982  0.700062  1
  H  H87  1  0.834310  0.621307  0.071966  1
  H  H88  1  0.336120  0.939367  0.497157  1
  H  H89  1  0.071966  0.834310  0.621307  1
  H  H90  1  0.192847  0.479298  0.384424  1
  H  H91  1  0.621307  0.071966  0.834310  1
  H  H92  1  0.483018  0.299938  0.096715  1
  H  H93  1  0.981683  0.199567  0.104720  1
  H  H94  1  0.939367  0.497157  0.336120  1
  H  H95  1  0.579254  0.488927  0.961550  1
  H  H96  1  0.560867  0.821624  0.875547  1
  H  H97  1  0.488927  0.961550  0.579254  1
  H  H98  1  0.564874  0.704622  0.372108  1
  H  H99  1  0.961550  0.579254  0.488927  1
  C  C100  1  0.407500  0.610283  0.023192  1
  C  C101  1  0.342226  0.180997  0.505724  1
  C  C102  1  0.969057  0.707948  0.523199  1
  C  C103  1  0.657774  0.819003  0.494276  1
  C  C104  1  0.071494  0.975254  0.234795  1
  C  C105  1  0.523199  0.969057  0.707948  1
  C  C106  1  0.030943  0.292052  0.476801  1
  C  C107  1  0.976808  0.592500  0.389717  1
  C  C108  1  0.476801  0.030943  0.292052  1
  C  C109  1  0.292052  0.476801  0.030943  1
  C  C110  1  0.610283  0.023192  0.407500  1
  C  C111  1  0.494276  0.657774  0.819003  1
  C  C112  1  0.707948  0.523199  0.969057  1
  C  C113  1  0.389717  0.976808  0.592500  1
  C  C114  1  0.023192  0.407500  0.610283  1
  C  C115  1  0.180997  0.505724  0.342226  1
  C  C116  1  0.765205  0.928506  0.024746  1
  C  C117  1  0.592500  0.389717  0.976808  1
  C  C118  1  0.024746  0.765205  0.928506  1
  C  C119  1  0.234795  0.071494  0.975254  1
  C  C120  1  0.928506  0.024746  0.765205  1
  C  C121  1  0.505724  0.342226  0.180997  1
  C  C122  1  0.819003  0.494276  0.657774  1
  C  C123  1  0.975254  0.234795  0.071494  1
  I  I124  1  0.704875  0.297152  0.323417  1
  I  I125  1  0.914366  0.104382  0.558972  1
  I  I126  1  0.780968  0.681724  0.616223  1
  I  I127  1  0.802404  0.202719  0.153253  1
  I  I128  1  0.676583  0.295125  0.702848  1
  I  I129  1  0.895618  0.441028  0.085634  1
  I  I130  1  0.295125  0.702848  0.676583  1
  I  I131  1  0.558972  0.914366  0.104382  1
  I  I132  1  0.219032  0.318276  0.383777  1
  I  I133  1  0.104382  0.558972  0.914366  1
  I  I134  1  0.297152  0.323417  0.704875  1
  I  I135  1  0.846747  0.197596  0.797281  1
  I  I136  1  0.202719  0.153253  0.802404  1
  I  I137  1  0.681724  0.616223  0.780968  1
  I  I138  1  0.153253  0.802404  0.202719  1
  I  I139  1  0.702848  0.676583  0.295125  1
  I  I140  1  0.318276  0.383777  0.219032  1
  I  I141  1  0.797281  0.846747  0.197596  1
  I  I142  1  0.616223  0.780968  0.681724  1
  I  I143  1  0.383777  0.219032  0.318276  1
  I  I144  1  0.323417  0.704875  0.297152  1
  I  I145  1  0.441028  0.085634  0.895618  1
  I  I146  1  0.197596  0.797281  0.846747  1
  I  I147  1  0.085634  0.895618  0.441028  1
  N  N148  1  0.407582  0.212301  0.128576  1
  N  N149  1  0.659907  0.511165  0.015001  1
  N  N150  1  0.340093  0.488835  0.984999  1
  N  N151  1  0.488835  0.984999  0.340093  1
  N  N152  1  0.984999  0.340093  0.488835  1
  N  N153  1  0.212301  0.128576  0.407582  1
  N  N154  1  0.787699  0.871424  0.592418  1
  N  N155  1  0.871424  0.592418  0.787699  1
  N  N156  1  0.592418  0.787699  0.871424  1
  N  N157  1  0.128576  0.407582  0.212301  1
  N  N158  1  0.511165  0.015001  0.659907  1
  N  N159  1  0.015001  0.659907  0.511165  1
