# generated using pymatgen
data_H7NO6
_symmetry_space_group_name_H-M   'P 1'
_cell_length_a   9.94509740
_cell_length_b   14.75745110
_cell_length_c   3.69815629
_cell_angle_alpha   90.00000000
_cell_angle_beta   89.26697263
_cell_angle_gamma   90.00000000
_symmetry_Int_Tables_number   1
_chemical_formula_structural   H7NO6
_chemical_formula_sum   'H28 N4 O24'
_cell_volume   542.71285874
_cell_formula_units_Z   4
loop_
 _symmetry_equiv_pos_site_id
 _symmetry_equiv_pos_as_xyz
  1  'x, y, z'
loop_
 _atom_site_type_symbol
 _atom_site_label
 _atom_site_symmetry_multiplicity
 _atom_site_fract_x
 _atom_site_fract_y
 _atom_site_fract_z
 _atom_site_occupancy
  H  H0  1  0.713389  0.620201  0.930371  1
  H  H1  1  0.789941  0.677886  0.221544  1
  H  H2  1  0.687956  0.281898  0.688350  1
  H  H3  1  0.789580  0.345500  0.464624  1
  H  H4  1  0.312044  0.781898  0.811650  1
  H  H5  1  0.210420  0.845500  0.035376  1
  H  H6  1  0.286611  0.120201  0.569629  1
  H  H7  1  0.210059  0.177886  0.278456  1
  H  H8  1  0.752502  0.894559  0.084972  1
  H  H9  1  0.646963  0.972645  0.103207  1
  H  H10  1  0.790159  0.999251  0.680773  1
  H  H11  1  0.905301  0.003840  0.363797  1
  H  H12  1  0.912186  0.094506  0.691760  1
  H  H13  1  0.094699  0.503840  0.136203  1
  H  H14  1  0.087814  0.594506  0.808240  1
  H  H15  1  0.247498  0.394559  0.415028  1
  H  H16  1  0.209841  0.499251  0.819227  1
  H  H17  1  0.353037  0.472645  0.396793  1
  H  H18  1  0.513716  0.822494  0.474431  1
  H  H19  1  0.398757  0.895152  0.588790  1
  H  H20  1  0.400462  0.865614  0.171664  1
  H  H21  1  0.961446  0.197625  0.959504  1
  H  H22  1  0.077724  0.142823  0.702730  1
  H  H23  1  0.038554  0.697625  0.540496  1
  H  H24  1  0.922276  0.642823  0.797270  1
  H  H25  1  0.486284  0.322494  0.025569  1
  H  H26  1  0.601243  0.395152  0.911210  1
  H  H27  1  0.599538  0.365614  0.328336  1
  N  N28  1  0.985873  0.847675  0.269571  1
  N  N29  1  0.505538  0.172309  0.809971  1
  N  N30  1  0.494462  0.672309  0.690029  1
  N  N31  1  0.014127  0.347675  0.230429  1
  O  O32  1  0.866847  0.824228  0.346327  1
  O  O33  1  0.631970  0.180838  0.838709  1
  O  O34  1  0.368030  0.680838  0.661291  1
  O  O35  1  0.133153  0.324228  0.153673  1
  O  O36  1  0.082938  0.791364  0.308487  1
  O  O37  1  0.427193  0.241308  0.861304  1
  O  O38  1  0.572807  0.741308  0.638696  1
  O  O39  1  0.917062  0.291364  0.191513  1
  O  O40  1  0.013572  0.925953  0.151883  1
  O  O41  1  0.454061  0.097743  0.729564  1
  O  O42  1  0.545939  0.597743  0.770436  1
  O  O43  1  0.986428  0.425953  0.348117  1
  O  O44  1  0.800886  0.628242  0.048875  1
  O  O45  1  0.701088  0.345299  0.594866  1
  O  O46  1  0.298912  0.845299  0.905134  1
  O  O47  1  0.199114  0.128242  0.451125  1
  O  O48  1  0.697783  0.935349  0.932656  1
  O  O49  1  0.842977  0.041612  0.514245  1
  O  O50  1  0.157023  0.541612  0.985755  1
  O  O51  1  0.302217  0.435349  0.567344  1
  O  O52  1  0.465153  0.882906  0.386140  1
  O  O53  1  0.989966  0.138582  0.854309  1
  O  O54  1  0.010034  0.638582  0.645691  1
  O  O55  1  0.534847  0.382906  0.113860  1
