# generated using pymatgen
data_Sc29S42
_symmetry_space_group_name_H-M   'P 1'
_cell_length_a   6.37649885
_cell_length_b   6.37649898
_cell_length_c   133.48409558
_cell_angle_alpha   33.83779457
_cell_angle_beta   33.83779282
_cell_angle_gamma   33.83933445
_symmetry_Int_Tables_number   1
_chemical_formula_structural   Sc29S42
_chemical_formula_sum   'Sc29 S42'
_cell_volume   1499.74221515
_cell_formula_units_Z   1
loop_
 _symmetry_equiv_pos_site_id
 _symmetry_equiv_pos_as_xyz
  1  'x, y, z'
loop_
 _atom_site_type_symbol
 _atom_site_label
 _atom_site_symmetry_multiplicity
 _atom_site_fract_x
 _atom_site_fract_y
 _atom_site_fract_z
 _atom_site_occupancy
  Sc  Sc0  1  0.995681  0.995681  0.000653  1
  Sc  Sc1  1  0.006306  0.006306  0.046851  1
  Sc  Sc2  1  0.497353  0.497353  0.072084  1
  Sc  Sc3  1  0.971097  0.971097  0.098247  1
  Sc  Sc4  1  0.983132  0.983132  0.144645  1
  Sc  Sc5  1  0.002646  0.002646  0.190165  1
  Sc  Sc6  1  0.999319  0.999319  0.238187  1
  Sc  Sc7  1  0.999599  0.999599  0.285751  1
  Sc  Sc8  1  0.000099  0.000099  0.333324  1
  Sc  Sc9  1  0.000438  0.000438  0.380918  1
  Sc  Sc10  1  0.000383  0.000383  0.428509  1
  Sc  Sc11  1  0.016771  0.016771  0.522017  1
  Sc  Sc12  1  0.997120  0.997120  0.476523  1
  Sc  Sc13  1  0.993965  0.993965  0.619784  1
  Sc  Sc14  1  0.029028  0.029028  0.568407  1
  Sc  Sc15  1  0.503137  0.503137  0.594543  1
  Sc  Sc16  1  0.003775  0.003775  0.666069  1
  Sc  Sc17  1  0.504477  0.504477  0.689996  1
  Sc  Sc18  1  0.999031  0.999031  0.714362  1
  Sc  Sc19  1  0.493731  0.493731  0.738788  1
  Sc  Sc20  1  0.994639  0.994639  0.762666  1
  Sc  Sc21  1  0.005854  0.005854  0.808730  1
  Sc  Sc22  1  0.504775  0.504775  0.832700  1
  Sc  Sc23  1  0.002702  0.002702  0.857009  1
  Sc  Sc24  1  0.498725  0.498725  0.880914  1
  Sc  Sc25  1  0.000095  0.000095  0.904735  1
  Sc  Sc26  1  0.501449  0.501449  0.928579  1
  Sc  Sc27  1  0.998387  0.998387  0.952459  1
  Sc  Sc28  1  0.496070  0.496070  0.976695  1
  S  S29  1  0.262635  0.262635  0.011095  1
  S  S30  1  0.252398  0.252398  0.059230  1
  S  S31  1  0.741313  0.741313  0.035987  1
  S  S32  1  0.266072  0.266072  0.105504  1
  S  S33  1  0.764333  0.764333  0.081880  1
  S  S34  1  0.258968  0.258968  0.154707  1
  S  S35  1  0.749474  0.749474  0.130178  1
  S  S36  1  0.257029  0.257029  0.202663  1
  S  S37  1  0.738559  0.738559  0.178977  1
  S  S38  1  0.259567  0.259567  0.249961  1
  S  S39  1  0.739699  0.739699  0.226211  1
  S  S40  1  0.258561  0.258561  0.297668  1
  S  S41  1  0.741019  0.741019  0.273781  1
  S  S42  1  0.258034  0.258034  0.345329  1
  S  S43  1  0.741824  0.741824  0.321357  1
  S  S44  1  0.258874  0.258874  0.392904  1
  S  S45  1  0.741470  0.741470  0.368996  1
  S  S46  1  0.260244  0.260244  0.440462  1
  S  S47  1  0.740268  0.740268  0.416716  1
  S  S48  1  0.261624  0.261624  0.487667  1
  S  S49  1  0.743048  0.743048  0.464000  1
  S  S50  1  0.250540  0.250540  0.536481  1
  S  S51  1  0.741021  0.741021  0.511952  1
  S  S52  1  0.236204  0.236204  0.584732  1
  S  S53  1  0.734265  0.734265  0.561126  1
  S  S54  1  0.259205  0.259205  0.630627  1
  S  S55  1  0.747968  0.747968  0.607399  1
  S  S56  1  0.249658  0.249658  0.678439  1
  S  S57  1  0.736862  0.736862  0.655597  1
  S  S58  1  0.248334  0.248334  0.726365  1
  S  S59  1  0.749711  0.749711  0.702424  1
  S  S60  1  0.258994  0.258994  0.773365  1
  S  S61  1  0.749199  0.749199  0.750226  1
  S  S62  1  0.248917  0.248917  0.821405  1
  S  S63  1  0.740906  0.740906  0.798097  1
  S  S64  1  0.251244  0.251244  0.868860  1
  S  S65  1  0.752100  0.752100  0.844935  1
  S  S66  1  0.251416  0.251416  0.916527  1
  S  S67  1  0.748581  0.748581  0.892995  1
  S  S68  1  0.249052  0.249052  0.964474  1
  S  S69  1  0.749389  0.749389  0.940587  1
  S  S70  1  0.751630  0.751630  0.988092  1
