# generated using pymatgen
data_In4As3Se
_symmetry_space_group_name_H-M   'P 1'
_cell_length_a   8.92618162
_cell_length_b   11.76697368
_cell_length_c   7.68726629
_cell_angle_alpha   29.25226316
_cell_angle_beta   54.75051021
_cell_angle_gamma   40.87318623
_symmetry_Int_Tables_number   1
_chemical_formula_structural   In4As3Se
_chemical_formula_sum   'In4 As3 Se1'
_cell_volume   249.42921357
_cell_formula_units_Z   1
loop_
 _symmetry_equiv_pos_site_id
 _symmetry_equiv_pos_as_xyz
  1  'x, y, z'
loop_
 _atom_site_type_symbol
 _atom_site_label
 _atom_site_symmetry_multiplicity
 _atom_site_fract_x
 _atom_site_fract_y
 _atom_site_fract_z
 _atom_site_occupancy
  In  In0  1  0.996185  0.001994  0.994250  1
  In  In1  1  0.506003  0.004200  0.990843  1
  In  In2  1  0.254493  0.484506  0.024738  1
  In  In3  1  0.745072  0.509698  0.996438  1
  As  As4  1  0.626179  0.998952  0.251461  1
  As  As5  1  0.376564  0.503271  0.246260  1
  As  As6  1  0.874598  0.502942  0.249218  1
  Se  Se7  1  0.127262  0.996979  0.255231  1
