# generated using pymatgen
data_ReTe5O6F25
_symmetry_space_group_name_H-M   'P 1'
_cell_length_a   9.18399064
_cell_length_b   14.30592345
_cell_length_c   18.68257178
_cell_angle_alpha   90.00000000
_cell_angle_beta   90.00000000
_cell_angle_gamma   107.45534625
_symmetry_Int_Tables_number   1
_chemical_formula_structural   ReTe5O6F25
_chemical_formula_sum   'Re4 Te20 O24 F100'
_cell_volume   2341.58573743
_cell_formula_units_Z   4
loop_
 _symmetry_equiv_pos_site_id
 _symmetry_equiv_pos_as_xyz
  1  'x, y, z'
loop_
 _atom_site_type_symbol
 _atom_site_label
 _atom_site_symmetry_multiplicity
 _atom_site_fract_x
 _atom_site_fract_y
 _atom_site_fract_z
 _atom_site_occupancy
  Re  Re0  1  0.913051  0.309244  0.537401  1
  Re  Re1  1  0.913051  0.809244  0.962599  1
  Re  Re2  1  0.086949  0.690756  0.462599  1
  Re  Re3  1  0.086949  0.190756  0.037401  1
  Te  Te4  1  0.048488  0.421553  0.115038  1
  Te  Te5  1  0.350284  0.345056  0.910443  1
  Te  Te6  1  0.417629  0.742843  0.340341  1
  Te  Te7  1  0.178149  0.949653  0.825978  1
  Te  Te8  1  0.649716  0.154944  0.410443  1
  Te  Te9  1  0.244177  0.847909  0.075489  1
  Te  Te10  1  0.821851  0.050347  0.174022  1
  Te  Te11  1  0.951512  0.578447  0.884962  1
  Te  Te12  1  0.417629  0.242843  0.159659  1
  Te  Te13  1  0.048488  0.921553  0.384962  1
  Te  Te14  1  0.755823  0.152091  0.924511  1
  Te  Te15  1  0.821851  0.550347  0.325978  1
  Te  Te16  1  0.178149  0.449653  0.674022  1
  Te  Te17  1  0.244177  0.347909  0.424511  1
  Te  Te18  1  0.582371  0.257157  0.659659  1
  Te  Te19  1  0.951512  0.078447  0.615038  1
  Te  Te20  1  0.649716  0.654944  0.089557  1
  Te  Te21  1  0.350284  0.845056  0.589557  1
  Te  Te22  1  0.582371  0.757157  0.840341  1
  Te  Te23  1  0.755823  0.652091  0.575489  1
  O  O24  1  0.279959  0.198351  0.079841  1
  O  O25  1  0.100467  0.106546  0.974155  1
  O  O26  1  0.988860  0.095634  0.107768  1
  O  O27  1  0.899533  0.893454  0.025845  1
  O  O28  1  0.069446  0.293890  0.107295  1
  O  O29  1  0.110932  0.804264  0.994143  1
  O  O30  1  0.720041  0.301649  0.579841  1
  O  O31  1  0.100467  0.606546  0.525845  1
  O  O32  1  0.899533  0.393454  0.474155  1
  O  O33  1  0.930554  0.706110  0.892705  1
  O  O34  1  0.889068  0.195736  0.005857  1
  O  O35  1  0.182075  0.801392  0.523521  1
  O  O36  1  0.817925  0.198608  0.476479  1
  O  O37  1  0.930554  0.206110  0.607295  1
  O  O38  1  0.182075  0.301392  0.976479  1
  O  O39  1  0.011140  0.904366  0.892232  1
  O  O40  1  0.279959  0.698351  0.420159  1
  O  O41  1  0.069446  0.793890  0.392705  1
  O  O42  1  0.889068  0.695736  0.494143  1
  O  O43  1  0.817925  0.698608  0.023521  1
  O  O44  1  0.110932  0.304264  0.505857  1
  O  O45  1  0.011140  0.404366  0.607768  1
  O  O46  1  0.988860  0.595634  0.392232  1
  O  O47  1  0.720041  0.801649  0.920159  1
  F  F48  1  0.729464  0.776230  0.581614  1
  F  F49  1  0.129556  0.066694  0.817858  1
  F  F50  1  0.047662  0.897217  0.750106  1
  F  F51  1  0.229997  0.833263  0.833629  1
  F  F52  1  0.576112  0.385624  0.671606  1
  F  F53  1  0.660033  0.503066  0.262036  1
  F  F54  1  0.129556  0.566694  0.682142  1
  F  F55  1  0.745382  0.282032  0.724144  1
  F  F56  1  0.586533  0.628037  0.850943  1
  F  F57  1  0.446064  0.717673  0.764204  1
  F  F58  1  0.309047  0.501383  0.597483  1
  F  F59  1  0.921801  0.190634  0.861532  1
  F  F60  1  0.778255  0.700794  0.167728  1
  F  F61  1  0.078199  0.809366  0.138468  1
  F  F62  1  0.254618  0.217968  0.224144  1
  F  F63  1  0.218407  0.973080  0.070031  1
  F  F64  1  0.410807  0.887923  0.013329  1
  F  F65  1  0.514402  0.889812  0.652647  1
  F  F66  1  0.254618  0.717968  0.275856  1
  F  F67  1  0.485598  0.110188  0.347353  1
  F  F68  1  0.132559  0.624280  0.832107  1
  F  F69  1  0.410807  0.387923  0.486671  1
  F  F70  1  0.952338  0.602783  0.250106  1
  F  F71  1  0.423888  0.114376  0.171606  1
  F  F72  1  0.770003  0.166737  0.166371  1
  F  F73  1  0.607891  0.275482  0.415800  1
  F  F74  1  0.687879  0.034236  0.403932  1
  F  F75  1  0.729464  0.276230  0.918386  1
  F  F76  1  0.589193  0.612077  0.513329  1
  F  F77  1  0.419863  0.232593  0.595460  1
  F  F78  1  0.514402  0.389812  0.847353  1
  F  F79  1  0.687879  0.534236  0.096068  1
  F  F80  1  0.867441  0.375720  0.167893  1
  F  F81  1  0.745382  0.782032  0.775856  1
  F  F82  1  0.423888  0.614376  0.328394  1
  F  F83  1  0.229781  0.476549  0.063669  1
  F  F84  1  0.229997  0.333263  0.666371  1
  F  F85  1  0.067455  0.596580  0.969487  1
  F  F86  1  0.030356  0.048233  0.378565  1
  F  F87  1  0.030356  0.548233  0.121435  1
  F  F88  1  0.624020  0.110390  0.846871  1
  F  F89  1  0.870444  0.433306  0.317858  1
  F  F90  1  0.778255  0.200794  0.332272  1
  F  F91  1  0.312121  0.465764  0.903932  1
  F  F92  1  0.078199  0.309366  0.361532  1
  F  F93  1  0.586533  0.128037  0.649057  1
  F  F94  1  0.339967  0.496934  0.737964  1
  F  F95  1  0.969644  0.451767  0.878565  1
  F  F96  1  0.580137  0.767407  0.404540  1
  F  F97  1  0.690953  0.498617  0.402517  1
  F  F98  1  0.607891  0.775482  0.084200  1
  F  F99  1  0.270536  0.723770  0.081614  1
  F  F100  1  0.781593  0.526920  0.570031  1
  F  F101  1  0.518687  0.110030  0.488074  1
  F  F102  1  0.413467  0.371963  0.149057  1
  F  F103  1  0.580137  0.267407  0.095460  1
  F  F104  1  0.969644  0.951767  0.621435  1
  F  F105  1  0.781593  0.026920  0.929969  1
  F  F106  1  0.485598  0.610188  0.152647  1
  F  F107  1  0.413467  0.871963  0.350943  1
  F  F108  1  0.932545  0.903420  0.469487  1
  F  F109  1  0.446064  0.217673  0.735796  1
  F  F110  1  0.047662  0.397217  0.749894  1
  F  F111  1  0.952338  0.102783  0.249894  1
  F  F112  1  0.589193  0.112077  0.986671  1
  F  F113  1  0.867441  0.875720  0.332107  1
  F  F114  1  0.132559  0.124280  0.667893  1
  F  F115  1  0.218407  0.473080  0.429969  1
  F  F116  1  0.157496  0.943911  0.298478  1
  F  F117  1  0.690953  0.998617  0.097483  1
  F  F118  1  0.932545  0.403420  0.030513  1
  F  F119  1  0.842504  0.556089  0.798478  1
  F  F120  1  0.309047  0.001383  0.902517  1
  F  F121  1  0.770003  0.666737  0.333629  1
  F  F122  1  0.067455  0.096580  0.530513  1
  F  F123  1  0.770219  0.023451  0.563669  1
  F  F124  1  0.312121  0.965764  0.596068  1
  F  F125  1  0.375980  0.389610  0.346871  1
  F  F126  1  0.270536  0.223770  0.418386  1
  F  F127  1  0.518687  0.610030  0.011926  1
  F  F128  1  0.221745  0.799206  0.667728  1
  F  F129  1  0.553936  0.782327  0.264204  1
  F  F130  1  0.392109  0.224518  0.915800  1
  F  F131  1  0.481313  0.889970  0.511926  1
  F  F132  1  0.842504  0.056089  0.701522  1
  F  F133  1  0.221745  0.299206  0.832272  1
  F  F134  1  0.392109  0.724518  0.584200  1
  F  F135  1  0.375980  0.889610  0.153129  1
  F  F136  1  0.660033  0.003066  0.237964  1
  F  F137  1  0.419863  0.732593  0.904540  1
  F  F138  1  0.921801  0.690634  0.638468  1
  F  F139  1  0.624020  0.610390  0.653129  1
  F  F140  1  0.229781  0.976549  0.436331  1
  F  F141  1  0.339967  0.996934  0.762036  1
  F  F142  1  0.157496  0.443911  0.201522  1
  F  F143  1  0.553936  0.282327  0.235796  1
  F  F144  1  0.481313  0.389970  0.988074  1
  F  F145  1  0.576112  0.885624  0.828394  1
  F  F146  1  0.770219  0.523451  0.936331  1
  F  F147  1  0.870444  0.933306  0.182142  1
