# generated using pymatgen
data_NbTeCl9
_symmetry_space_group_name_H-M   'P 1'
_cell_length_a   6.66918927
_cell_length_b   11.81085406
_cell_length_c   20.07569955
_cell_angle_alpha   106.45929865
_cell_angle_beta   90.00000000
_cell_angle_gamma   106.39949886
_symmetry_Int_Tables_number   1
_chemical_formula_structural   NbTeCl9
_chemical_formula_sum   'Nb4 Te4 Cl36'
_cell_volume   1449.32975708
_cell_formula_units_Z   4
loop_
 _symmetry_equiv_pos_site_id
 _symmetry_equiv_pos_as_xyz
  1  'x, y, z'
loop_
 _atom_site_type_symbol
 _atom_site_label
 _atom_site_symmetry_multiplicity
 _atom_site_fract_x
 _atom_site_fract_y
 _atom_site_fract_z
 _atom_site_occupancy
  Nb  Nb0  1  0.850368  0.291343  0.375108  1
  Nb  Nb1  1  0.149632  0.708657  0.624892  1
  Nb  Nb2  1  0.559025  0.708657  0.124892  1
  Nb  Nb3  1  0.440975  0.291343  0.875108  1
  Te  Te4  1  0.886286  0.164031  0.161221  1
  Te  Te5  1  0.113714  0.835969  0.838779  1
  Te  Te6  1  0.722255  0.835969  0.338779  1
  Te  Te7  1  0.277745  0.164031  0.661221  1
  Cl  Cl8  1  0.056414  0.172847  0.294008  1
  Cl  Cl9  1  0.401857  0.909202  0.640235  1
  Cl  Cl10  1  0.376435  0.608222  0.565625  1
  Cl  Cl11  1  0.136797  0.355347  0.175017  1
  Cl  Cl12  1  0.883567  0.827153  0.205992  1
  Cl  Cl13  1  0.698350  0.177189  0.064569  1
  Cl  Cl14  1  0.984031  0.724266  0.528661  1
  Cl  Cl15  1  0.598143  0.090798  0.359765  1
  Cl  Cl16  1  0.943586  0.827153  0.705992  1
  Cl  Cl17  1  0.740235  0.724266  0.028661  1
  Cl  Cl18  1  0.104115  0.052763  0.096783  1
  Cl  Cl19  1  0.301650  0.822811  0.935431  1
  Cl  Cl20  1  0.521161  0.822811  0.435431  1
  Cl  Cl21  1  0.116433  0.172847  0.794008  1
  Cl  Cl22  1  0.507345  0.909202  0.140235  1
  Cl  Cl23  1  0.328407  0.708112  0.736226  1
  Cl  Cl24  1  0.218551  0.355347  0.675017  1
  Cl  Cl25  1  0.379705  0.708112  0.236226  1
  Cl  Cl26  1  0.863203  0.644653  0.824983  1
  Cl  Cl27  1  0.671593  0.291888  0.263774  1
  Cl  Cl28  1  0.015969  0.275734  0.471339  1
  Cl  Cl29  1  0.231787  0.608222  0.065625  1
  Cl  Cl30  1  0.051352  0.947237  0.403217  1
  Cl  Cl31  1  0.492655  0.090798  0.859765  1
  Cl  Cl32  1  0.620295  0.291888  0.763774  1
  Cl  Cl33  1  0.259765  0.275734  0.971339  1
  Cl  Cl34  1  0.948648  0.052763  0.596783  1
  Cl  Cl35  1  0.892376  0.530535  0.627699  1
  Cl  Cl36  1  0.638159  0.530535  0.127699  1
  Cl  Cl37  1  0.895885  0.947237  0.903217  1
  Cl  Cl38  1  0.768213  0.391778  0.934375  1
  Cl  Cl39  1  0.478839  0.177189  0.564569  1
  Cl  Cl40  1  0.107624  0.469465  0.372301  1
  Cl  Cl41  1  0.781449  0.644653  0.324983  1
  Cl  Cl42  1  0.623565  0.391778  0.434375  1
  Cl  Cl43  1  0.361841  0.469465  0.872301  1
