# generated using pymatgen
data_Sr6Nb7O21
_symmetry_space_group_name_H-M   'P 1'
_cell_length_a   28.49663844
_cell_length_b   12.87322495
_cell_length_c   9.10262190
_cell_angle_alpha   31.94693187
_cell_angle_beta   26.56065347
_cell_angle_gamma   18.43158672
_symmetry_Int_Tables_number   1
_chemical_formula_structural   Sr6Nb7O21
_chemical_formula_sum   'Sr6 Nb7 O21'
_cell_volume   472.08406450
_cell_formula_units_Z   1
loop_
 _symmetry_equiv_pos_site_id
 _symmetry_equiv_pos_as_xyz
  1  'x, y, z'
loop_
 _atom_site_type_symbol
 _atom_site_label
 _atom_site_symmetry_multiplicity
 _atom_site_fract_x
 _atom_site_fract_y
 _atom_site_fract_z
 _atom_site_occupancy
  Sr  Sr0  1  0.141375  0.000115  0.997246  1
  Sr  Sr1  1  0.288083  0.994650  0.000736  1
  Sr  Sr2  1  0.428549  0.001382  0.996497  1
  Sr  Sr3  1  0.574251  0.995118  -0.000109  1
  Sr  Sr4  1  0.718943  0.991251  0.992369  1
  Sr  Sr5  1  0.857092  0.997634  0.004500  1
  Nb  Nb6  1  0.141711  0.501555  0.498822  1
  Nb  Nb7  1  0.281411  0.505378  0.508033  1
  Nb  Nb8  1  0.423904  0.503948  0.506926  1
  Nb  Nb9  1  0.575092  0.493787  0.497938  1
  Nb  Nb10  1  0.716857  0.494430  0.496705  1
  Nb  Nb11  1  0.857130  0.497514  0.506115  1
  Nb  Nb12  1  0.000021  0.499263  0.500224  1
  O  O13  1  0.147276  0.483787  0.001769  1
  O  O14  1  0.073395  0.484738  0.515890  1
  O  O15  1  0.295975  0.477909  0.003257  1
  O  O16  1  0.213557  0.500444  0.501427  1
  O  O17  1  0.430624  0.493448  0.002989  1
  O  O18  1  0.071622  0.001061  0.489796  1
  O  O19  1  0.364929  0.487098  0.491083  1
  O  O20  1  0.569889  0.501641  0.002158  1
  O  O21  1  0.217804  0.998822  0.494428  1
  O  O22  1  0.497544  0.503202  0.503128  1
  O  O23  1  0.354476  0.998751  0.513389  1
  O  O24  1  0.703155  0.519547  0.002275  1
  O  O25  1  0.634861  0.508732  0.514411  1
  O  O26  1  0.498224  0.999641  0.503857  1
  O  O27  1  0.850880  0.517140  0.002106  1
  O  O28  1  0.782021  0.506652  0.502145  1
  O  O29  1  0.997111  0.504824  0.002279  1
  O  O30  1  0.643120  0.001032  0.497598  1
  O  O31  1  0.925182  0.515156  0.488266  1
  O  O32  1  0.780739  0.000071  0.510252  1
  O  O33  1  0.928509  0.999460  0.508816  1
