# generated using pymatgen
data_ZrCo3B2
_symmetry_space_group_name_H-M   'P 1'
_cell_length_a   5.72744552
_cell_length_b   5.72752342
_cell_length_c   5.72732187
_cell_angle_alpha   94.75637843
_cell_angle_beta   94.76348364
_cell_angle_gamma   94.75933934
_symmetry_Int_Tables_number   1
_chemical_formula_structural   ZrCo3B2
_chemical_formula_sum   'Zr3 Co9 B6'
_cell_volume   185.82049109
_cell_formula_units_Z   3
loop_
 _symmetry_equiv_pos_site_id
 _symmetry_equiv_pos_as_xyz
  1  'x, y, z'
loop_
 _atom_site_type_symbol
 _atom_site_label
 _atom_site_symmetry_multiplicity
 _atom_site_fract_x
 _atom_site_fract_y
 _atom_site_fract_z
 _atom_site_occupancy
  Zr  Zr0  1  0.330387  0.330401  0.330372  1
  Zr  Zr1  1  0.669631  0.669599  0.669622  1
  Zr  Zr2  1  -0.000042  -0.000017  -0.000010  1
  Co  Co3  1  0.694886  0.694666  0.196958  1
  Co  Co4  1  0.305144  0.305346  0.803049  1
  Co  Co5  1  0.305320  0.803014  0.305176  1
  Co  Co6  1  0.196947  0.694809  0.694740  1
  Co  Co7  1  0.694711  0.196987  0.694831  1
  Co  Co8  1  -0.000022  -0.000006  0.500003  1
  Co  Co9  1  0.803037  0.305207  0.305271  1
  Co  Co10  1  -0.000023  0.500005  -0.000002  1
  Co  Co11  1  0.500013  -0.000013  -0.000008  1
  B  B12  1  0.378908  0.621459  0.999431  1
  B  B13  1  0.000490  0.621062  0.378506  1
  B  B14  1  0.999468  0.378934  0.621486  1
  B  B15  1  0.621121  0.378555  0.000570  1
  B  B16  1  0.621499  0.999461  0.378905  1
  B  B17  1  0.378526  0.000530  0.621100  1
