# generated using pymatgen
data_Ba5Na2Ru3O14
_symmetry_space_group_name_H-M   'P 1'
_cell_length_a   5.98070965
_cell_length_b   5.95439787
_cell_length_c   24.51998012
_cell_angle_alpha   90.00000000
_cell_angle_beta   90.00000000
_cell_angle_gamma   120.14628347
_symmetry_Int_Tables_number   1
_chemical_formula_structural   Ba5Na2Ru3O14
_chemical_formula_sum   'Ba10 Na4 Ru6 O28'
_cell_volume   755.09093116
_cell_formula_units_Z   2
loop_
 _symmetry_equiv_pos_site_id
 _symmetry_equiv_pos_as_xyz
  1  'x, y, z'
loop_
 _atom_site_type_symbol
 _atom_site_label
 _atom_site_symmetry_multiplicity
 _atom_site_fract_x
 _atom_site_fract_y
 _atom_site_fract_z
 _atom_site_occupancy
  Ba  Ba0  1  -0.005572  -0.011144  0.151095  1
  Ba  Ba1  1  0.329811  0.659623  0.935720  1
  Ba  Ba2  1  0.670189  0.340377  0.435720  1
  Ba  Ba3  1  0.005572  0.011144  0.651095  1
  Ba  Ba4  1  0.005902  0.011804  0.328926  1
  Ba  Ba5  1  0.338660  0.677321  0.544485  1
  Ba  Ba6  1  0.336151  0.672302  0.242770  1
  Ba  Ba7  1  0.663849  0.327698  0.742770  1
  Ba  Ba8  1  0.661340  0.322679  0.044485  1
  Ba  Ba9  1  0.994098  0.988196  0.828926  1
  Na  Na10  1  0.661624  0.323247  0.895654  1
  Na  Na11  1  0.344395  0.688790  0.094411  1
  Na  Na12  1  0.338376  0.676753  0.395654  1
  Na  Na13  1  0.655605  0.311210  0.594411  1
  Ru  Ru14  1  0.993372  0.986745  0.991587  1
  Ru  Ru15  1  0.667885  0.335771  0.186103  1
  Ru  Ru16  1  0.672983  0.345967  0.299063  1
  Ru  Ru17  1  0.332115  0.664229  0.686103  1
  Ru  Ru18  1  0.327017  0.654033  0.799063  1
  Ru  Ru19  1  0.006627  0.013255  0.491587  1
  O  O20  1  0.672663  0.785760  0.460913  1
  O  O21  1  0.823203  0.194034  0.243933  1
  O  O22  1  0.984721  0.504450  0.339706  1
  O  O23  1  0.502126  0.477837  0.143832  1
  O  O24  1  0.165842  0.887530  0.044102  1
  O  O25  1  0.506882  0.013763  0.150584  1
  O  O26  1  0.176797  0.805966  0.743933  1
  O  O27  1  0.823187  0.646374  0.241223  1
  O  O28  1  0.493118  0.986237  0.650584  1
  O  O29  1  0.854251  0.708502  0.945429  1
  O  O30  1  0.886903  0.214240  0.960913  1
  O  O31  1  0.278312  0.112470  0.544102  1
  O  O32  1  0.975711  0.477837  0.143832  1
  O  O33  1  0.721688  0.887530  0.044102  1
  O  O34  1  0.480270  0.495550  0.839706  1
  O  O35  1  0.113097  0.785760  0.460913  1
  O  O36  1  0.497874  0.522163  0.643832  1
  O  O37  1  0.834158  0.112470  0.544102  1
  O  O38  1  0.519730  0.504450  0.339706  1
  O  O39  1  0.024289  0.522163  0.643832  1
  O  O40  1  0.481355  0.962710  0.841489  1
  O  O41  1  0.327337  0.214240  0.960913  1
  O  O42  1  0.145749  0.291498  0.445429  1
  O  O43  1  0.370831  0.194034  0.243933  1
  O  O44  1  0.629169  0.805966  0.743933  1
  O  O45  1  0.518645  0.037290  0.341489  1
  O  O46  1  0.176813  0.353626  0.741223  1
  O  O47  1  0.015279  0.495550  0.839706  1
