# generated using pymatgen
data_Yb(PrS2)2
_symmetry_space_group_name_H-M   'P 1'
_cell_length_a   7.43830871
_cell_length_b   7.43830924
_cell_length_c   7.43830869
_cell_angle_alpha   109.56020965
_cell_angle_beta   109.29339408
_cell_angle_gamma   109.56020806
_symmetry_Int_Tables_number   1
_chemical_formula_structural   Yb(PrS2)2
_chemical_formula_sum   'Yb2 Pr4 S8'
_cell_volume   316.80904977
_cell_formula_units_Z   2
loop_
 _symmetry_equiv_pos_site_id
 _symmetry_equiv_pos_as_xyz
  1  'x, y, z'
loop_
 _atom_site_type_symbol
 _atom_site_label
 _atom_site_symmetry_multiplicity
 _atom_site_fract_x
 _atom_site_fract_y
 _atom_site_fract_z
 _atom_site_occupancy
  Yb  Yb0  1  0.125000  0.750000  0.875000  1
  Yb  Yb1  1  0.375000  0.250000  0.625000  1
  Pr  Pr2  1  0.250000  0.629044  0.379044  1
  Pr  Pr3  1  0.620956  0.370956  0.250000  1
  Pr  Pr4  1  0.750000  0.870956  0.120956  1
  Pr  Pr5  1  0.879044  0.129044  0.750000  1
  S  S6  1  0.002204  0.855188  0.500197  1
  S  S7  1  0.147016  0.144812  0.145010  1
  S  S8  1  0.352984  0.497994  0.997796  1
  S  S9  1  0.645010  0.644812  0.647016  1
  S  S10  1  0.497796  0.997994  0.852984  1
  S  S11  1  0.499803  0.002006  0.354990  1
  S  S12  1  0.854990  0.502006  0.999803  1
  S  S13  1  0.000197  0.355188  0.502204  1
