# generated using pymatgen
data_Rb5(W4O15)2
_symmetry_space_group_name_H-M   'P 1'
_cell_length_a   7.45378044
_cell_length_b   37.16335194
_cell_length_c   12.91436087
_cell_angle_alpha   30.37034858
_cell_angle_beta   55.06800589
_cell_angle_gamma   60.29597716
_symmetry_Int_Tables_number   1
_chemical_formula_structural   Rb5(W4O15)2
_chemical_formula_sum   'Rb10 W16 O60'
_cell_volume   1482.80065578
_cell_formula_units_Z   2
loop_
 _symmetry_equiv_pos_site_id
 _symmetry_equiv_pos_as_xyz
  1  'x, y, z'
loop_
 _atom_site_type_symbol
 _atom_site_label
 _atom_site_symmetry_multiplicity
 _atom_site_fract_x
 _atom_site_fract_y
 _atom_site_fract_z
 _atom_site_occupancy
  Rb  Rb0  1  0.376683  0.998749  0.373054  1
  Rb  Rb1  1  0.623317  0.001251  0.626946  1
  Rb  Rb2  1  0.380703  0.194355  0.390758  1
  Rb  Rb3  1  0.367722  0.404471  0.373116  1
  Rb  Rb4  1  0.638181  0.186968  0.650160  1
  Rb  Rb5  1  0.610222  0.401836  0.626087  1
  Rb  Rb6  1  0.389778  0.598164  0.373913  1
  Rb  Rb7  1  0.361819  0.813032  0.349840  1
  Rb  Rb8  1  0.632278  0.595529  0.626884  1
  Rb  Rb9  1  0.619297  0.805645  0.609242  1
  W  W10  1  0.000000  0.000000  0.000000  1
  W  W11  1  0.991404  0.092514  0.029628  1
  W  W12  1  0.500000  0.000000  0.000000  1
  W  W13  1  0.008076  0.292040  0.032208  1
  W  W14  1  0.490093  0.193162  0.020528  1
  W  W15  1  0.000000  0.500000  0.000000  1
  W  W16  1  0.989950  0.200101  0.010409  1
  W  W17  1  0.521643  0.397276  0.012549  1
  W  W18  1  0.478357  0.602724  0.987451  1
  W  W19  1  0.991969  0.292502  0.523510  1
  W  W20  1  0.509907  0.806838  0.979472  1
  W  W21  1  0.000000  0.500000  0.500000  1
  W  W22  1  0.991924  0.707960  0.967792  1
  W  W23  1  0.010050  0.799899  0.989591  1
  W  W24  1  0.008031  0.707498  0.476490  1
  W  W25  1  0.008596  0.907486  0.970372  1
  O  O26  1  0.073442  0.140429  0.008497  1
  O  O27  1  0.698845  0.012873  0.019402  1
  O  O28  1  0.101020  0.078264  0.694534  1
  O  O29  1  0.118390  0.325890  0.034043  1
  O  O30  1  0.375796  0.120312  0.306629  1
  O  O31  1  0.698921  0.134997  0.019253  1
  O  O32  1  0.705033  0.215573  0.001004  1
  O  O33  1  0.907474  0.013357  0.315728  1
  O  O34  1  0.301155  0.987127  0.980598  1
  O  O35  1  0.065261  0.203282  0.669116  1
  O  O36  1  0.297011  0.068959  0.961152  1
  O  O37  1  0.299978  0.325888  0.290580  1
  O  O38  1  0.080793  0.283474  0.653942  1
  O  O39  1  0.117062  0.503745  0.087388  1
  O  O40  1  0.628145  0.076390  0.697240  1
  O  O41  1  0.699864  0.330766  0.046851  1
  O  O42  1  0.898564  0.125343  0.296527  1
  O  O43  1  0.915274  0.208976  0.319413  1
  O  O44  1  0.618978  0.394817  0.116068  1
  O  O45  1  0.302411  0.194338  0.956457  1
  O  O46  1  0.074696  0.399844  0.704647  1
  O  O47  1  0.306298  0.268483  0.947730  1
  O  O48  1  0.301650  0.524773  0.295000  1
  O  O49  1  0.085431  0.506356  0.596049  1
  O  O50  1  0.057855  0.726734  0.055338  1
  O  O51  1  0.699164  0.524590  0.081814  1
  O  O52  1  0.935249  0.066379  0.969192  1
  O  O53  1  0.996396  0.338961  0.263138  1
  O  O54  1  0.693880  0.279787  0.660813  1
  O  O55  1  0.656237  0.573465  0.134210  1
  O  O56  1  0.940561  0.400605  0.295260  1
  O  O57  1  0.343763  0.426535  0.865790  1
  O  O58  1  0.059439  0.599395  0.704740  1
  O  O59  1  0.300836  0.475410  0.918186  1
  O  O60  1  0.306120  0.720213  0.339187  1
  O  O61  1  0.003604  0.661039  0.736862  1
  O  O62  1  0.064751  0.933621  0.030808  1
  O  O63  1  0.942145  0.273266  0.944662  1
  O  O64  1  0.698349  0.475227  0.705000  1
  O  O65  1  0.914569  0.493644  0.403951  1
  O  O66  1  0.693702  0.731517  0.052270  1
  O  O67  1  0.925304  0.600156  0.295353  1
  O  O68  1  0.697589  0.805662  0.043543  1
  O  O69  1  0.381022  0.605183  0.883932  1
  O  O70  1  0.084726  0.791024  0.680587  1
  O  O71  1  0.300136  0.669234  0.953149  1
  O  O72  1  0.371855  0.923610  0.302760  1
  O  O73  1  0.101436  0.874657  0.703473  1
  O  O74  1  0.882938  0.496255  0.912612  1
  O  O75  1  0.700022  0.674112  0.709420  1
  O  O76  1  0.702989  0.931041  0.038848  1
  O  O77  1  0.919207  0.716526  0.346058  1
  O  O78  1  0.934739  0.796718  0.330884  1
  O  O79  1  0.294967  0.784427  0.998996  1
  O  O80  1  0.092526  0.986643  0.684272  1
  O  O81  1  0.301079  0.865003  0.980747  1
  O  O82  1  0.624204  0.879688  0.693371  1
  O  O83  1  0.881610  0.674110  0.965957  1
  O  O84  1  0.898980  0.921736  0.305466  1
  O  O85  1  0.926558  0.859571  0.991503  1
