# generated using pymatgen
data_Al2RhC4Cl7O4
_symmetry_space_group_name_H-M   'P 1'
_cell_length_a   9.82398082
_cell_length_b   9.88263816
_cell_length_c   10.35704196
_cell_angle_alpha   76.48075877
_cell_angle_beta   76.07331066
_cell_angle_gamma   66.15696745
_symmetry_Int_Tables_number   1
_chemical_formula_structural   Al2RhC4Cl7O4
_chemical_formula_sum   'Al4 Rh2 C8 Cl14 O8'
_cell_volume   882.06907385
_cell_formula_units_Z   2
loop_
 _symmetry_equiv_pos_site_id
 _symmetry_equiv_pos_as_xyz
  1  'x, y, z'
loop_
 _atom_site_type_symbol
 _atom_site_label
 _atom_site_symmetry_multiplicity
 _atom_site_fract_x
 _atom_site_fract_y
 _atom_site_fract_z
 _atom_site_occupancy
  Al  Al0  1  0.830546  0.196466  0.823164  1
  Al  Al1  1  0.299566  0.433159  0.418822  1
  Al  Al2  1  0.700434  0.566841  0.581178  1
  Al  Al3  1  0.169454  0.803534  0.176836  1
  Rh  Rh4  1  0.500000  0.000000  0.500000  1
  Rh  Rh5  1  0.000000  0.500000  0.000000  1
  C  C6  1  0.210047  0.358261  0.977943  1
  C  C7  1  0.938755  0.354454  0.142086  1
  C  C8  1  0.534224  0.022256  0.302089  1
  C  C9  1  0.699661  0.007210  0.487808  1
  C  C10  1  0.061245  0.645546  0.857914  1
  C  C11  1  0.789953  0.641739  0.022057  1
  C  C12  1  0.300339  0.992790  0.512192  1
  C  C13  1  0.465776  0.977744  0.697911  1
  Cl  Cl14  1  0.737236  0.634225  0.368366  1
  Cl  Cl15  1  0.180013  0.684898  0.395934  1
  Cl  Cl16  1  0.062623  0.121414  0.840584  1
  Cl  Cl17  1  0.937377  0.878586  0.159416  1
  Cl  Cl18  1  0.314784  0.646734  0.047082  1
  Cl  Cl19  1  0.188343  0.348172  0.321294  1
  Cl  Cl20  1  0.532269  0.380740  0.336631  1
  Cl  Cl21  1  0.811657  0.651828  0.678706  1
  Cl  Cl22  1  0.244816  0.978458  0.174769  1
  Cl  Cl23  1  0.819987  0.315102  0.604066  1
  Cl  Cl24  1  0.685216  0.353266  0.952918  1
  Cl  Cl25  1  0.755184  0.021542  0.825231  1
  Cl  Cl26  1  0.467731  0.619260  0.663369  1
  Cl  Cl27  1  0.262764  0.365775  0.631634  1
  O  O28  1  0.184494  0.986847  0.521556  1
  O  O29  1  0.095885  0.729377  0.774282  1
  O  O30  1  0.554584  0.038363  0.187237  1
  O  O31  1  0.332929  0.277329  0.964852  1
  O  O32  1  0.815506  0.013153  0.478444  1
  O  O33  1  0.667071  0.722671  0.035148  1
  O  O34  1  0.445416  0.961637  0.812763  1
  O  O35  1  0.904115  0.270623  0.225718  1
