# generated using pymatgen
data_NaCS(OF)3
_symmetry_space_group_name_H-M   'P 1'
_cell_length_a   10.22097815
_cell_length_b   11.03350670
_cell_length_c   11.33079770
_cell_angle_alpha   101.24553845
_cell_angle_beta   105.05377102
_cell_angle_gamma   110.72370341
_symmetry_Int_Tables_number   1
_chemical_formula_structural   NaCS(OF)3
_chemical_formula_sum   'Na8 C8 S8 O24 F24'
_cell_volume   1094.33709222
_cell_formula_units_Z   8
loop_
 _symmetry_equiv_pos_site_id
 _symmetry_equiv_pos_as_xyz
  1  'x, y, z'
loop_
 _atom_site_type_symbol
 _atom_site_label
 _atom_site_symmetry_multiplicity
 _atom_site_fract_x
 _atom_site_fract_y
 _atom_site_fract_z
 _atom_site_occupancy
  Na  Na0  1  0.268034  0.838190  0.538064  1
  Na  Na1  1  0.345490  0.367361  0.528714  1
  Na  Na2  1  0.255232  0.005486  0.321198  1
  Na  Na3  1  0.745647  0.999339  0.686785  1
  Na  Na4  1  0.652631  0.627559  0.473524  1
  Na  Na5  1  0.927171  0.961858  0.474154  1
  Na  Na6  1  0.731550  0.167532  0.465280  1
  Na  Na7  1  0.000693  0.499602  0.501031  1
  C  C8  1  0.055003  0.849997  0.852701  1
  C  C9  1  0.105606  0.366838  0.860858  1
  C  C10  1  0.516951  0.728560  0.841677  1
  C  C11  1  0.486183  0.816952  0.182684  1
  C  C12  1  0.513847  0.183104  0.816869  1
  C  C13  1  0.482824  0.271310  0.157917  1
  C  C14  1  0.894036  0.631629  0.138027  1
  C  C15  1  0.944971  0.151179  0.146641  1
  S  S16  1  0.055999  0.287109  0.683526  1
  S  S17  1  0.023446  0.201976  0.327151  1
  S  S18  1  0.444439  0.696350  0.663240  1
  S  S19  1  0.492962  0.817151  0.349752  1
  S  S20  1  0.508820  0.182870  0.650107  1
  S  S21  1  0.554975  0.303469  0.336191  1
  S  S22  1  0.976448  0.798968  0.671816  1
  S  S23  1  0.946086  0.711925  0.315730  1
  O  O24  1  0.097803  0.879850  0.635486  1
  O  O25  1  0.035086  0.858227  0.339042  1
  O  O26  1  0.036116  0.646887  0.374926  1
  O  O27  1  0.072979  0.349506  0.373501  1
  O  O28  1  0.281113  0.638300  0.621522  1
  O  O29  1  0.196177  0.318800  0.661669  1
  O  O30  1  0.375731  0.858811  0.364670  1
  O  O31  1  0.147474  0.161478  0.353661  1
  O  O32  1  0.508910  0.833012  0.650754  1
  O  O33  1  0.504365  0.604180  0.612943  1
  O  O34  1  0.465415  0.678656  0.349588  1
  O  O35  1  0.357963  0.079860  0.565557  1
  O  O36  1  0.646407  0.919906  0.433000  1
  O  O37  1  0.537081  0.321685  0.650712  1
  O  O38  1  0.493734  0.394480  0.386337  1
  O  O39  1  0.491648  0.166604  0.348531  1
  O  O40  1  0.849871  0.837721  0.643777  1
  O  O41  1  0.628627  0.143014  0.637735  1
  O  O42  1  0.807822  0.686359  0.341242  1
  O  O43  1  0.718382  0.362963  0.378443  1
  O  O44  1  0.927619  0.651586  0.626794  1
  O  O45  1  0.963661  0.350437  0.623908  1
  O  O46  1  0.966935  0.140374  0.659531  1
  O  O47  1  0.898312  0.121652  0.360839  1
  F  F48  1  0.085196  0.982674  0.905271  1
  F  F49  1  0.182903  0.834402  0.892426  1
  F  F50  1  0.020362  0.671639  0.108980  1
  F  F51  1  0.168494  0.504080  0.892857  1
  F  F52  1  0.201548  0.327734  0.931799  1
  F  F53  1  0.044767  0.228010  0.102796  1
  F  F54  1  0.462430  0.807027  0.901334  1
  F  F55  1  0.478633  0.610593  0.869670  1
  F  F56  1  0.350576  0.725434  0.096473  1
  F  F57  1  0.407678  0.216290  0.844151  1
  F  F58  1  0.508896  0.942175  0.170289  1
  F  F59  1  0.668635  0.796809  0.887567  1
  F  F60  1  0.331289  0.203278  0.112012  1
  F  F61  1  0.490955  0.057610  0.829393  1
  F  F62  1  0.592836  0.783894  0.155589  1
  F  F63  1  0.649685  0.274296  0.903561  1
  F  F64  1  0.521561  0.389546  0.130242  1
  F  F65  1  0.537563  0.192957  0.098503  1
  F  F66  1  0.955095  0.772282  0.895962  1
  F  F67  1  0.798416  0.672059  0.068647  1
  F  F68  1  0.830803  0.494622  0.105805  1
  F  F69  1  0.978994  0.326975  0.889698  1
  F  F70  1  0.816891  0.166285  0.106041  1
  F  F71  1  0.914918  0.018124  0.094947  1
