# generated using pymatgen
data_AlPO4
_symmetry_space_group_name_H-M   'P 1'
_cell_length_a   14.18972374
_cell_length_b   15.36385148
_cell_length_c   17.65133728
_cell_angle_alpha   90.00000000
_cell_angle_beta   90.00000000
_cell_angle_gamma   90.00000000
_symmetry_Int_Tables_number   1
_chemical_formula_structural   AlPO4
_chemical_formula_sum   'Al32 P32 O128'
_cell_volume   3848.14700149
_cell_formula_units_Z   32
loop_
 _symmetry_equiv_pos_site_id
 _symmetry_equiv_pos_as_xyz
  1  'x, y, z'
loop_
 _atom_site_type_symbol
 _atom_site_label
 _atom_site_symmetry_multiplicity
 _atom_site_fract_x
 _atom_site_fract_y
 _atom_site_fract_z
 _atom_site_occupancy
  Al  Al0  1  0.077955  0.599441  0.426535  1
  Al  Al1  1  0.422045  0.099441  0.426535  1
  Al  Al2  1  0.077955  0.900559  0.926535  1
  Al  Al3  1  0.214285  0.339636  0.539475  1
  Al  Al4  1  0.922045  0.400559  0.573465  1
  Al  Al5  1  0.554613  0.097528  0.934078  1
  Al  Al6  1  0.785715  0.839636  0.960525  1
  Al  Al7  1  0.577955  0.900559  0.573465  1
  Al  Al8  1  0.785715  0.660364  0.460525  1
  Al  Al9  1  0.445387  0.902472  0.065922  1
  Al  Al10  1  0.922045  0.099441  0.073465  1
  Al  Al11  1  0.285715  0.660364  0.039475  1
  Al  Al12  1  0.054613  0.402472  0.065922  1
  Al  Al13  1  0.555365  0.226732  0.159904  1
  Al  Al14  1  0.944635  0.773268  0.659904  1
  Al  Al15  1  0.944635  0.726732  0.159904  1
  Al  Al16  1  0.214285  0.160364  0.039475  1
  Al  Al17  1  0.444635  0.773268  0.840096  1
  Al  Al18  1  0.445387  0.597528  0.565922  1
  Al  Al19  1  0.444635  0.726732  0.340096  1
  Al  Al20  1  0.714285  0.160364  0.460525  1
  Al  Al21  1  0.577955  0.599441  0.073465  1
  Al  Al22  1  0.554613  0.402472  0.434078  1
  Al  Al23  1  0.945387  0.902472  0.434078  1
  Al  Al24  1  0.055365  0.273268  0.840096  1
  Al  Al25  1  0.555365  0.273268  0.659904  1
  Al  Al26  1  0.945387  0.597528  0.934078  1
  Al  Al27  1  0.055365  0.226732  0.340096  1
  Al  Al28  1  0.422045  0.400559  0.926535  1
  Al  Al29  1  0.714285  0.339636  0.960525  1
  Al  Al30  1  0.054613  0.097528  0.565922  1
  Al  Al31  1  0.285715  0.839636  0.539475  1
  P  P32  1  0.059907  0.226714  0.157802  1
  P  P33  1  0.059907  0.273286  0.657802  1
  P  P34  1  0.080445  0.900396  0.575802  1
  P  P35  1  0.919555  0.099604  0.424198  1
  P  P36  1  0.919555  0.400396  0.924198  1
  P  P37  1  0.947405  0.596337  0.571272  1
  P  P38  1  0.052595  0.403664  0.428728  1
  P  P39  1  0.440093  0.726714  0.157802  1
  P  P40  1  0.552595  0.096337  0.571272  1
  P  P41  1  0.559907  0.226714  0.342198  1
  P  P42  1  0.052595  0.096337  0.928728  1
  P  P43  1  0.215263  0.338707  0.955826  1
  P  P44  1  0.580445  0.599604  0.424198  1
  P  P45  1  0.715263  0.338707  0.544174  1
  P  P46  1  0.715263  0.161293  0.044174  1
  P  P47  1  0.784737  0.661293  0.044174  1
  P  P48  1  0.284737  0.838707  0.955826  1
  P  P49  1  0.447405  0.596337  0.928728  1
  P  P50  1  0.080445  0.599604  0.075802  1
  P  P51  1  0.447405  0.903663  0.428728  1
  P  P52  1  0.284737  0.661293  0.455826  1
  P  P53  1  0.947405  0.903663  0.071272  1
  P  P54  1  0.215263  0.161293  0.455826  1
  P  P55  1  0.940093  0.773286  0.842198  1
  P  P56  1  0.552595  0.403664  0.071272  1
  P  P57  1  0.580445  0.900396  0.924198  1
  P  P58  1  0.784737  0.838707  0.544174  1
  P  P59  1  0.419555  0.099604  0.075802  1
  P  P60  1  0.440093  0.773286  0.657802  1
  P  P61  1  0.559907  0.273286  0.842198  1
  P  P62  1  0.419555  0.400396  0.575802  1
  P  P63  1  0.940093  0.726714  0.342198  1
  O  O64  1  0.950839  0.008513  0.396626  1
  O  O65  1  0.470199  0.177711  0.366258  1
  O  O66  1  0.146243  0.102293  0.973489  1
  O  O67  1  0.646243  0.397707  0.026511  1
  O  O68  1  0.346732  0.684420  0.387623  1
  O  O69  1  0.454419  0.995328  0.393904  1
  O  O70  1  0.549161  0.991487  0.896626  1
  O  O71  1  0.045581  0.004672  0.893904  1
  O  O72  1  0.646625  0.313100  0.881218  1
  O  O73  1  0.031688  0.613541  0.518053  1
  O  O74  1  0.031688  0.886459  0.018053  1
  O  O75  1  0.841044  0.893930  0.487170  1
  O  O76  1  0.470199  0.322289  0.866258  1
  O  O77  1  0.299581  0.391383  0.927063  1
  O  O78  1  0.073618  0.218612  0.243174  1
  O  O79  1  0.346732  0.815580  0.887623  1
  O  O80  1  0.549070  0.337118  0.135550  1
  O  O81  1  0.049328  0.176283  0.637094  1
  O  O82  1  0.549328  0.176283  0.862906  1
  O  O83  1  0.950672  0.676283  0.862906  1
  O  O84  1  0.153268  0.315580  0.887623  1
  O  O85  1  0.353757  0.602293  0.973489  1
  O  O86  1  0.450930  0.837118  0.364450  1
  O  O87  1  0.950930  0.662882  0.635550  1
  O  O88  1  0.538985  0.618241  0.503315  1
  O  O89  1  0.653268  0.184420  0.112377  1
  O  O90  1  0.549161  0.508513  0.396626  1
  O  O91  1  0.961015  0.381759  0.003315  1
  O  O92  1  0.747294  0.756170  0.504637  1
  O  O93  1  0.538985  0.881759  0.003315  1
  O  O94  1  0.968312  0.386459  0.481947  1
  O  O95  1  0.450672  0.676283  0.637094  1
  O  O96  1  0.700419  0.608617  0.072937  1
  O  O97  1  0.158956  0.393930  0.012830  1
  O  O98  1  0.426382  0.781388  0.743174  1
  O  O99  1  0.049070  0.337118  0.364450  1
  O  O100  1  0.341044  0.606070  0.512830  1
  O  O101  1  0.461015  0.118241  0.996685  1
  O  O102  1  0.799581  0.108617  0.072937  1
  O  O103  1  0.453008  0.331081  0.632856  1
  O  O104  1  0.073618  0.281388  0.743174  1
  O  O105  1  0.954419  0.504672  0.606096  1
  O  O106  1  0.200419  0.891383  0.927063  1
  O  O107  1  0.970199  0.177711  0.133742  1
  O  O108  1  0.953008  0.331081  0.867144  1
  O  O109  1  0.247294  0.756170  0.995363  1
  O  O110  1  0.653268  0.315580  0.612377  1
  O  O111  1  0.954419  0.995328  0.106096  1
  O  O112  1  0.950672  0.823717  0.362906  1
  O  O113  1  0.450839  0.491487  0.603374  1
  O  O114  1  0.752706  0.256170  0.504637  1
  O  O115  1  0.200419  0.608617  0.427063  1
  O  O116  1  0.450672  0.823717  0.137094  1
  O  O117  1  0.188430  0.601101  0.069941  1
  O  O118  1  0.752706  0.243830  0.004637  1
  O  O119  1  0.045581  0.495328  0.393904  1
  O  O120  1  0.841044  0.606070  0.987170  1
  O  O121  1  0.953008  0.168919  0.367144  1
  O  O122  1  0.700419  0.891383  0.572937  1
  O  O123  1  0.252706  0.243830  0.495363  1
  O  O124  1  0.573618  0.281388  0.756826  1
  O  O125  1  0.046992  0.668919  0.132856  1
  O  O126  1  0.153268  0.184420  0.387623  1
  O  O127  1  0.049328  0.323717  0.137094  1
  O  O128  1  0.029801  0.677711  0.366258  1
  O  O129  1  0.573618  0.218612  0.256826  1
  O  O130  1  0.146243  0.397707  0.473489  1
  O  O131  1  0.646243  0.102293  0.526511  1
  O  O132  1  0.454419  0.504672  0.893904  1
  O  O133  1  0.453008  0.168919  0.132856  1
  O  O134  1  0.049161  0.991487  0.603374  1
  O  O135  1  0.252706  0.256170  0.995363  1
  O  O136  1  0.426382  0.718612  0.243174  1
  O  O137  1  0.688430  0.898899  0.930059  1
  O  O138  1  0.811570  0.101101  0.430059  1
  O  O139  1  0.529801  0.677711  0.133742  1
  O  O140  1  0.450839  0.008513  0.103374  1
  O  O141  1  0.158956  0.106070  0.512830  1
  O  O142  1  0.546992  0.831081  0.867144  1
  O  O143  1  0.853375  0.813100  0.881218  1
  O  O144  1  0.646625  0.186900  0.381218  1
  O  O145  1  0.146625  0.313100  0.618782  1
  O  O146  1  0.658956  0.106070  0.987170  1
  O  O147  1  0.950930  0.837118  0.135550  1
  O  O148  1  0.049161  0.508513  0.103374  1
  O  O149  1  0.468312  0.386459  0.018053  1
  O  O150  1  0.961015  0.118241  0.503315  1
  O  O151  1  0.926382  0.781388  0.756826  1
  O  O152  1  0.311570  0.398899  0.569941  1
  O  O153  1  0.468312  0.113541  0.518053  1
  O  O154  1  0.531688  0.613541  0.981947  1
  O  O155  1  0.545581  0.004672  0.606096  1
  O  O156  1  0.549328  0.323717  0.362906  1
  O  O157  1  0.853757  0.897707  0.026511  1
  O  O158  1  0.311570  0.101101  0.069941  1
  O  O159  1  0.747294  0.743830  0.004637  1
  O  O160  1  0.549070  0.162882  0.635550  1
  O  O161  1  0.038985  0.881759  0.496685  1
  O  O162  1  0.038985  0.618241  0.996685  1
  O  O163  1  0.658956  0.393930  0.487170  1
  O  O164  1  0.146625  0.186900  0.118782  1
  O  O165  1  0.299581  0.108617  0.427063  1
  O  O166  1  0.529801  0.822289  0.633742  1
  O  O167  1  0.853375  0.686900  0.381218  1
  O  O168  1  0.188430  0.898899  0.569941  1
  O  O169  1  0.799581  0.391383  0.572937  1
  O  O170  1  0.341044  0.893930  0.012830  1
  O  O171  1  0.353375  0.686900  0.118782  1
  O  O172  1  0.531688  0.886459  0.481947  1
  O  O173  1  0.846732  0.815580  0.612377  1
  O  O174  1  0.545581  0.495328  0.106096  1
  O  O175  1  0.688430  0.601101  0.430059  1
  O  O176  1  0.811570  0.398899  0.930059  1
  O  O177  1  0.450930  0.662882  0.864450  1
  O  O178  1  0.046992  0.831081  0.632856  1
  O  O179  1  0.461015  0.381759  0.496685  1
  O  O180  1  0.950839  0.491487  0.896626  1
  O  O181  1  0.853757  0.602293  0.526511  1
  O  O182  1  0.353375  0.813100  0.618782  1
  O  O183  1  0.926382  0.718612  0.256826  1
  O  O184  1  0.353757  0.897707  0.473489  1
  O  O185  1  0.029801  0.822289  0.866258  1
  O  O186  1  0.546992  0.668919  0.367144  1
  O  O187  1  0.247294  0.743830  0.495363  1
  O  O188  1  0.846732  0.684420  0.112377  1
  O  O189  1  0.970199  0.322289  0.633742  1
  O  O190  1  0.049070  0.162882  0.864450  1
  O  O191  1  0.968312  0.113541  0.981947  1
