# generated using pymatgen
data_LiFeP2O7
_symmetry_space_group_name_H-M   'P 1'
_cell_length_a   5.44948598
_cell_length_b   8.05604033
_cell_length_c   8.31034135
_cell_angle_alpha   117.19053475
_cell_angle_beta   90.00000007
_cell_angle_gamma   70.23131275
_symmetry_Int_Tables_number   1
_chemical_formula_structural   LiFeP2O7
_chemical_formula_sum   'Li2 Fe2 P4 O14'
_cell_volume   300.14173145
_cell_formula_units_Z   2
loop_
 _symmetry_equiv_pos_site_id
 _symmetry_equiv_pos_as_xyz
  1  'x, y, z'
loop_
 _atom_site_type_symbol
 _atom_site_label
 _atom_site_symmetry_multiplicity
 _atom_site_fract_x
 _atom_site_fract_y
 _atom_site_fract_z
 _atom_site_occupancy
  Li  Li0  1  0.593709  0.459458  0.820523  1
  Li  Li1  1  0.946833  0.459458  0.320523  1
  Fe  Fe2  1  0.990128  0.997700  0.499488  1
  Fe  Fe3  1  0.012171  0.997700  0.999488  1
  P  P4  1  0.534107  0.215662  0.350725  1
  P  P5  1  0.250231  0.215662  0.850725  1
  P  P6  1  0.750200  0.782959  0.144265  1
  P  P7  1  0.466841  0.782959  0.644265  1
  O  O8  1  0.913245  0.789058  0.299205  1
  O  O9  1  0.491140  0.999218  0.244833  1
  O  O10  1  0.354017  0.376097  0.901412  1
  O  O11  1  0.902546  0.798312  0.997509  1
  O  O12  1  0.655589  0.614424  0.067221  1
  O  O13  1  0.269886  0.376097  0.401412  1
  O  O14  1  0.299142  0.798312  0.497509  1
  O  O15  1  0.118412  0.210749  0.014884  1
  O  O16  1  0.297697  0.789058  0.799205  1
  O  O17  1  0.509642  0.999218  0.744833  1
  O  O18  1  0.049172  0.205285  0.715315  1
  O  O19  1  0.670839  0.210749  0.514884  1
  O  O20  1  0.745543  0.205285  0.215315  1
  O  O21  1  0.729987  0.614424  0.567221  1
