# generated using pymatgen
data_AlTlSiO4
_symmetry_space_group_name_H-M   'P 1'
_cell_length_a   5.57802516
_cell_length_b   7.32554244
_cell_length_c   9.13818991
_cell_angle_alpha   90.00000000
_cell_angle_beta   90.00000000
_cell_angle_gamma   89.74037541
_symmetry_Int_Tables_number   1
_chemical_formula_structural   AlTlSiO4
_chemical_formula_sum   'Al4 Tl4 Si4 O16'
_cell_volume   373.40143099
_cell_formula_units_Z   4
loop_
 _symmetry_equiv_pos_site_id
 _symmetry_equiv_pos_as_xyz
  1  'x, y, z'
loop_
 _atom_site_type_symbol
 _atom_site_label
 _atom_site_symmetry_multiplicity
 _atom_site_fract_x
 _atom_site_fract_y
 _atom_site_fract_z
 _atom_site_occupancy
  Al  Al0  1  0.250569  -0.001434  0.567449  1
  Al  Al1  1  0.249431  0.501434  0.067449  1
  Al  Al2  1  0.750569  0.498566  0.932551  1
  Al  Al3  1  0.749431  0.001434  0.432551  1
  Tl  Tl4  1  0.250208  0.626676  0.749458  1
  Tl  Tl5  1  0.750208  0.126676  0.750542  1
  Tl  Tl6  1  0.749792  0.373324  0.250542  1
  Tl  Tl7  1  0.249792  0.873324  0.249458  1
  Si  Si8  1  0.748996  0.815118  0.086517  1
  Si  Si9  1  0.751004  0.684882  0.586517  1
  Si  Si10  1  0.248996  0.315118  0.413483  1
  Si  Si11  1  0.251004  0.184882  0.913483  1
  O  O12  1  0.031368  0.150053  0.443302  1
  O  O13  1  0.250350  0.107090  0.743463  1
  O  O14  1  0.750350  0.607090  0.756537  1
  O  O15  1  0.748795  0.539207  0.462162  1
  O  O16  1  0.248795  0.039207  0.037838  1
  O  O17  1  0.966164  0.647032  0.058894  1
  O  O18  1  0.468632  0.349947  0.943302  1
  O  O19  1  0.466164  0.147032  0.441106  1
  O  O20  1  0.249650  0.392910  0.243463  1
  O  O21  1  0.751205  0.960793  0.962162  1
  O  O22  1  0.251205  0.460793  0.537838  1
  O  O23  1  0.531368  0.650053  0.056698  1
  O  O24  1  0.533836  0.852968  0.558894  1
  O  O25  1  0.033836  0.352968  0.941106  1
  O  O26  1  0.749650  0.892910  0.256537  1
  O  O27  1  0.968632  0.849947  0.556698  1
