# generated using pymatgen
data_Eu(ClO4)3
_symmetry_space_group_name_H-M   'P 1'
_cell_length_a   9.62345537
_cell_length_b   9.62345582
_cell_length_c   5.98430810
_cell_angle_alpha   90.00000000
_cell_angle_beta   90.00000000
_cell_angle_gamma   119.99999846
_symmetry_Int_Tables_number   1
_chemical_formula_structural   Eu(ClO4)3
_chemical_formula_sum   'Eu2 Cl6 O24'
_cell_volume   479.96180365
_cell_formula_units_Z   2
loop_
 _symmetry_equiv_pos_site_id
 _symmetry_equiv_pos_as_xyz
  1  'x, y, z'
loop_
 _atom_site_type_symbol
 _atom_site_label
 _atom_site_symmetry_multiplicity
 _atom_site_fract_x
 _atom_site_fract_y
 _atom_site_fract_z
 _atom_site_occupancy
  Eu  Eu0  1  0.666667  0.333333  0.750000  1
  Eu  Eu1  1  0.333333  0.666667  0.250000  1
  Cl  Cl2  1  0.094199  0.386514  0.750000  1
  Cl  Cl3  1  0.292315  0.905801  0.750000  1
  Cl  Cl4  1  0.386514  0.292315  0.250000  1
  Cl  Cl5  1  0.905801  0.613486  0.250000  1
  Cl  Cl6  1  0.613486  0.707685  0.750000  1
  Cl  Cl7  1  0.707685  0.094199  0.250000  1
  O  O8  1  0.805963  0.021898  0.250000  1
  O  O9  1  0.463828  0.023779  0.750000  1
  O  O10  1  0.215935  0.194037  0.250000  1
  O  O11  1  0.976221  0.440049  0.750000  1
  O  O12  1  0.802923  0.546856  0.448691  1
  O  O13  1  0.197077  0.453144  0.551309  1
  O  O14  1  0.021898  0.215935  0.750000  1
  O  O15  1  0.453144  0.256067  0.448691  1
  O  O16  1  0.256067  0.802923  0.551309  1
  O  O17  1  0.536172  0.976221  0.250000  1
  O  O18  1  0.194037  0.978102  0.750000  1
  O  O19  1  0.743933  0.197077  0.051309  1
  O  O20  1  0.559951  0.536172  0.750000  1
  O  O21  1  0.546856  0.743933  0.551309  1
  O  O22  1  0.784065  0.805963  0.750000  1
  O  O23  1  0.440049  0.463828  0.250000  1
  O  O24  1  0.023779  0.559951  0.250000  1
  O  O25  1  0.197077  0.453144  0.948691  1
  O  O26  1  0.978102  0.784065  0.250000  1
  O  O27  1  0.546856  0.743933  0.948691  1
  O  O28  1  0.256067  0.802923  0.948691  1
  O  O29  1  0.453144  0.256067  0.051309  1
  O  O30  1  0.743933  0.197077  0.448691  1
  O  O31  1  0.802923  0.546856  0.051309  1
