# generated using pymatgen
data_FeH24C8(NCl2)2
_symmetry_space_group_name_H-M   'P 1'
_cell_length_a   9.16587139
_cell_length_b   12.54309249
_cell_length_c   15.63704584
_cell_angle_alpha   90.00000000
_cell_angle_beta   90.00000000
_cell_angle_gamma   90.00000000
_symmetry_Int_Tables_number   1
_chemical_formula_structural   FeH24C8(NCl2)2
_chemical_formula_sum   'Fe4 H96 C32 N8 Cl16'
_cell_volume   1797.76571244
_cell_formula_units_Z   4
loop_
 _symmetry_equiv_pos_site_id
 _symmetry_equiv_pos_as_xyz
  1  'x, y, z'
loop_
 _atom_site_type_symbol
 _atom_site_label
 _atom_site_symmetry_multiplicity
 _atom_site_fract_x
 _atom_site_fract_y
 _atom_site_fract_z
 _atom_site_occupancy
  Fe  Fe0  1  0.750000  0.255633  0.906960  1
  Fe  Fe1  1  0.250000  0.244367  0.406960  1
  Fe  Fe2  1  0.250000  0.744367  0.093040  1
  Fe  Fe3  1  0.750000  0.755633  0.593040  1
  H  H4  1  0.652361  0.604865  0.267781  1
  H  H5  1  0.848552  0.859925  0.023706  1
  H  H6  1  0.520411  0.857398  0.887452  1
  H  H7  1  0.884357  0.977112  0.857108  1
  H  H8  1  0.623018  0.361510  0.710673  1
  H  H9  1  0.652361  0.104865  0.232219  1
  H  H10  1  0.384357  0.022888  0.142892  1
  H  H11  1  0.123018  0.138490  0.210673  1
  H  H12  1  0.609803  0.880362  0.292254  1
  H  H13  1  0.125212  0.593871  0.904917  1
  H  H14  1  0.348188  0.795856  0.434422  1
  H  H15  1  0.348188  0.295856  0.065578  1
  H  H16  1  0.152361  0.895135  0.767781  1
  H  H17  1  0.376982  0.638490  0.289327  1
  H  H18  1  0.874788  0.906129  0.404917  1
  H  H19  1  0.020411  0.642602  0.387452  1
  H  H20  1  0.518920  0.493016  0.161639  1
  H  H21  1  0.151448  0.140075  0.976294  1
  H  H22  1  0.847827  0.148601  0.378833  1
  H  H23  1  0.374788  0.093871  0.595083  1
  H  H24  1  0.750000  0.203578  0.665540  1
  H  H25  1  0.884357  0.477112  0.642892  1
  H  H26  1  0.750000  0.066215  0.454995  1
  H  H27  1  0.151448  0.640075  0.523706  1
  H  H28  1  0.750000  0.991282  0.191006  1
  H  H29  1  0.125212  0.093871  0.595083  1
  H  H30  1  0.874788  0.406129  0.095083  1
  H  H31  1  0.348552  0.640075  0.523706  1
  H  H32  1  0.848552  0.359925  0.476294  1
  H  H33  1  0.652173  0.148601  0.378833  1
  H  H34  1  0.250000  0.796422  0.334460  1
  H  H35  1  0.115643  0.522888  0.357108  1
  H  H36  1  0.652173  0.648601  0.121167  1
  H  H37  1  0.347827  0.351399  0.878833  1
  H  H38  1  0.750000  0.703578  0.834460  1
  H  H39  1  0.981080  0.993016  0.338361  1
  H  H40  1  0.250000  0.433785  0.954995  1
  H  H41  1  0.981080  0.493016  0.161639  1
  H  H42  1  0.609803  0.380362  0.207746  1
  H  H43  1  0.250000  0.296422  0.165540  1
  H  H44  1  0.651812  0.704144  0.934422  1
  H  H45  1  0.152173  0.351399  0.878833  1
  H  H46  1  0.347639  0.395135  0.732219  1
  H  H47  1  0.481080  0.006984  0.661639  1
  H  H48  1  0.020411  0.142602  0.112548  1
  H  H49  1  0.347639  0.895135  0.767781  1
  H  H50  1  0.152361  0.395135  0.732219  1
  H  H51  1  0.109803  0.619638  0.792254  1
  H  H52  1  0.890197  0.880362  0.292254  1
  H  H53  1  0.615643  0.977112  0.857108  1
  H  H54  1  0.623018  0.861510  0.789327  1
  H  H55  1  0.250000  0.522453  0.492338  1
  H  H56  1  0.520411  0.357398  0.612548  1
  H  H57  1  0.876982  0.861510  0.789327  1
  H  H58  1  0.250000  0.933785  0.545005  1
  H  H59  1  0.250000  0.008718  0.808994  1
  H  H60  1  0.615643  0.477112  0.642892  1
  H  H61  1  0.018920  0.506984  0.838361  1
  H  H62  1  0.651448  0.859925  0.023706  1
  H  H63  1  0.651812  0.204144  0.565578  1
  H  H64  1  0.481080  0.506984  0.838361  1
  H  H65  1  0.848188  0.204144  0.565578  1
  H  H66  1  0.979589  0.357398  0.612548  1
  H  H67  1  0.123018  0.638490  0.289327  1
  H  H68  1  0.518920  0.993016  0.338361  1
  H  H69  1  0.376982  0.138490  0.210673  1
  H  H70  1  0.651448  0.359925  0.476294  1
  H  H71  1  0.750000  0.566215  0.045005  1
  H  H72  1  0.847639  0.104865  0.232219  1
  H  H73  1  0.479589  0.142602  0.112548  1
  H  H74  1  0.847827  0.648601  0.121167  1
  H  H75  1  0.625212  0.406129  0.095083  1
  H  H76  1  0.390197  0.119638  0.707746  1
  H  H77  1  0.109803  0.119638  0.707746  1
  H  H78  1  0.750000  0.491282  0.308994  1
  H  H79  1  0.018920  0.006984  0.661639  1
  H  H80  1  0.151812  0.795856  0.434422  1
  H  H81  1  0.847639  0.604865  0.267781  1
  H  H82  1  0.479589  0.642602  0.387452  1
  H  H83  1  0.151812  0.295856  0.065578  1
  H  H84  1  0.348552  0.140075  0.976294  1
  H  H85  1  0.890197  0.380362  0.207746  1
  H  H86  1  0.876982  0.361510  0.710673  1
  H  H87  1  0.625212  0.906129  0.404917  1
  H  H88  1  0.250000  0.508718  0.691006  1
  H  H89  1  0.250000  0.022453  0.007662  1
  H  H90  1  0.390197  0.619638  0.792254  1
  H  H91  1  0.152173  0.851399  0.621167  1
  H  H92  1  0.848188  0.704144  0.934422  1
  H  H93  1  0.115643  0.022888  0.142892  1
  H  H94  1  0.979589  0.857398  0.887452  1
  H  H95  1  0.750000  0.477547  0.507662  1
  H  H96  1  0.347827  0.851399  0.621167  1
  H  H97  1  0.750000  0.977547  0.992338  1
  H  H98  1  0.374788  0.593871  0.904917  1
  H  H99  1  0.384357  0.522888  0.357108  1
  C  C100  1  0.616218  0.442387  0.158450  1
  C  C101  1  0.382837  0.610202  0.355496  1
  C  C102  1  0.883782  0.942387  0.341550  1
  C  C103  1  0.383782  0.557613  0.841550  1
  C  C104  1  0.250000  0.444893  0.738687  1
  C  C105  1  0.250000  0.109719  0.007979  1
  C  C106  1  0.750000  0.555107  0.261313  1
  C  C107  1  0.250000  0.268793  0.098875  1
  C  C108  1  0.750000  0.055107  0.238687  1
  C  C109  1  0.250000  0.899804  0.609771  1
  C  C110  1  0.617163  0.889798  0.855496  1
  C  C111  1  0.117163  0.610202  0.355496  1
  C  C112  1  0.250000  0.609719  0.492021  1
  C  C113  1  0.750000  0.100196  0.390229  1
  C  C114  1  0.882837  0.389798  0.644504  1
  C  C115  1  0.250000  0.768793  0.401125  1
  C  C116  1  0.117163  0.110202  0.144504  1
  C  C117  1  0.616218  0.942387  0.341550  1
  C  C118  1  0.750000  0.890281  0.992021  1
  C  C119  1  0.750000  0.600196  0.109771  1
  C  C120  1  0.750000  0.731207  0.901125  1
  C  C121  1  0.250000  0.399804  0.890229  1
  C  C122  1  0.883782  0.442387  0.158450  1
  C  C123  1  0.882837  0.889798  0.855496  1
  C  C124  1  0.382837  0.110202  0.144504  1
  C  C125  1  0.750000  0.231207  0.598875  1
  C  C126  1  0.116218  0.057613  0.658450  1
  C  C127  1  0.116218  0.557613  0.841550  1
  C  C128  1  0.750000  0.390281  0.507979  1
  C  C129  1  0.617163  0.389798  0.644504  1
  C  C130  1  0.383782  0.057613  0.658450  1
  C  C131  1  0.250000  0.944893  0.761313  1
  N  N132  1  0.750000  0.850743  0.901338  1
  N  N133  1  0.750000  0.509363  0.172533  1
  N  N134  1  0.250000  0.149257  0.098662  1
  N  N135  1  0.750000  0.009363  0.327467  1
  N  N136  1  0.250000  0.990637  0.672533  1
  N  N137  1  0.250000  0.649257  0.401338  1
  N  N138  1  0.750000  0.350743  0.598662  1
  N  N139  1  0.250000  0.490637  0.827467  1
  Cl  Cl140  1  0.250000  0.314584  0.540106  1
  Cl  Cl141  1  0.456869  0.800236  0.158485  1
  Cl  Cl142  1  0.043131  0.300236  0.341515  1
  Cl  Cl143  1  0.250000  0.564660  0.096975  1
  Cl  Cl144  1  0.956869  0.699764  0.658485  1
  Cl  Cl145  1  0.543131  0.699764  0.658485  1
  Cl  Cl146  1  0.750000  0.685416  0.459894  1
  Cl  Cl147  1  0.456869  0.300236  0.341515  1
  Cl  Cl148  1  0.043131  0.800236  0.158485  1
  Cl  Cl149  1  0.750000  0.935340  0.596975  1
  Cl  Cl150  1  0.750000  0.185416  0.040106  1
  Cl  Cl151  1  0.250000  0.064660  0.403025  1
  Cl  Cl152  1  0.956869  0.199764  0.841515  1
  Cl  Cl153  1  0.543131  0.199764  0.841515  1
  Cl  Cl154  1  0.750000  0.435340  0.903025  1
  Cl  Cl155  1  0.250000  0.814584  0.959894  1
