# generated using pymatgen
data_Ca5B3O9F
_symmetry_space_group_name_H-M   'P 1'
_cell_length_a   3.57233585
_cell_length_b   8.19806959
_cell_length_c   9.09264057
_cell_angle_alpha   63.20446610
_cell_angle_beta   85.18017148
_cell_angle_gamma   79.25825646
_symmetry_Int_Tables_number   1
_chemical_formula_structural   Ca5B3O9F
_chemical_formula_sum   'Ca5 B3 O9 F1'
_cell_volume   233.53043989
_cell_formula_units_Z   1
loop_
 _symmetry_equiv_pos_site_id
 _symmetry_equiv_pos_as_xyz
  1  'x, y, z'
loop_
 _atom_site_type_symbol
 _atom_site_label
 _atom_site_symmetry_multiplicity
 _atom_site_fract_x
 _atom_site_fract_y
 _atom_site_fract_z
 _atom_site_occupancy
  B  B0  1  0.593190  0.319611  0.607166  1
  B  B1  1  0.964324  0.559479  0.000000  1
  B  B2  1  0.593190  0.926777  0.392834  1
  O  O3  1  0.051136  0.387531  0.000000  1
  O  O4  1  0.578774  0.406357  0.708593  1
  O  O5  1  0.920133  0.719952  0.851877  1
  O  O6  1  0.794506  0.141353  0.653446  1
  O  O7  1  0.920133  0.571830  0.148123  1
  O  O8  1  0.794506  0.794800  0.346554  1
  O  O9  1  0.409967  0.407781  0.455227  1
  O  O10  1  0.409967  0.863008  0.544773  1
  O  O11  1  0.578774  0.114950  0.291407  1
  F  F12  1  0.248644  0.000214  0.000000  1
  Ca  Ca13  1  0.003954  0.261979  0.355705  1
  Ca  Ca14  1  0.347852  0.934843  0.763665  1
  Ca  Ca15  1  0.347852  0.698508  0.236335  1
  Ca  Ca16  1  0.003954  0.617684  0.644295  1
  Ca  Ca17  1  0.636745  0.206943  0.000000  1
