# generated using pymatgen
data_CsNiC3(SN)3
_symmetry_space_group_name_H-M   'P 1'
_cell_length_a   5.54089848
_cell_length_b   12.58640407
_cell_length_c   13.29920592
_cell_angle_alpha   90.00000000
_cell_angle_beta   90.00000000
_cell_angle_gamma   96.46306027
_symmetry_Int_Tables_number   1
_chemical_formula_structural   CsNiC3(SN)3
_chemical_formula_sum   'Cs4 Ni4 C12 S12 N12'
_cell_volume   921.59193351
_cell_formula_units_Z   4
loop_
 _symmetry_equiv_pos_site_id
 _symmetry_equiv_pos_as_xyz
  1  'x, y, z'
loop_
 _atom_site_type_symbol
 _atom_site_label
 _atom_site_symmetry_multiplicity
 _atom_site_fract_x
 _atom_site_fract_y
 _atom_site_fract_z
 _atom_site_occupancy
  Cs  Cs0  1  0.346644  0.282504  0.729121  1
  Cs  Cs1  1  0.653356  0.717496  0.270879  1
  Cs  Cs2  1  0.846644  0.782504  0.770879  1
  Cs  Cs3  1  0.153356  0.217496  0.229121  1
  Ni  Ni4  1  0.000000  0.500000  0.000000  1
  Ni  Ni5  1  0.000000  0.000000  0.000000  1
  Ni  Ni6  1  0.500000  0.000000  0.500000  1
  Ni  Ni7  1  0.500000  0.500000  0.500000  1
  C  C8  1  0.463769  0.425853  0.094148  1
  C  C9  1  0.581619  0.262419  0.449817  1
  C  C10  1  0.918381  0.237581  0.949817  1
  C  C11  1  0.036231  0.074147  0.594148  1
  C  C12  1  0.963769  0.925853  0.405852  1
  C  C13  1  0.490560  0.009535  0.117988  1
  C  C14  1  0.081619  0.762419  0.050183  1
  C  C15  1  0.536231  0.574147  0.905852  1
  C  C16  1  0.009440  0.490465  0.617988  1
  C  C17  1  0.990560  0.509535  0.382012  1
  C  C18  1  0.418381  0.737581  0.550183  1
  C  C19  1  0.509440  0.990465  0.882012  1
  S  S20  1  0.855878  0.345989  0.891230  1
  S  S21  1  0.253694  0.484495  0.339596  1
  S  S22  1  0.767556  0.077262  0.643244  1
  S  S23  1  0.144122  0.654011  0.108770  1
  S  S24  1  0.355878  0.845989  0.608770  1
  S  S25  1  0.232444  0.922738  0.356756  1
  S  S26  1  0.267556  0.577262  0.856756  1
  S  S27  1  0.732444  0.422738  0.143244  1
  S  S28  1  0.746306  0.515505  0.660404  1
  S  S29  1  0.644122  0.154011  0.391230  1
  S  S30  1  0.246306  0.015505  0.839596  1
  S  S31  1  0.753694  0.984495  0.160404  1
  N  N32  1  0.534387  0.341468  0.489432  1
  N  N33  1  0.301039  0.028238  0.085940  1
  N  N34  1  0.034387  0.841468  0.010568  1
  N  N35  1  0.231360  0.069833  0.558701  1
  N  N36  1  0.768640  0.930167  0.441299  1
  N  N37  1  0.198961  0.471762  0.585940  1
  N  N38  1  0.801039  0.528238  0.414060  1
  N  N39  1  0.268640  0.430167  0.058701  1
  N  N40  1  0.465613  0.658532  0.510568  1
  N  N41  1  0.731360  0.569833  0.941299  1
  N  N42  1  0.698961  0.971762  0.914060  1
  N  N43  1  0.965613  0.158532  0.989432  1
