# generated using pymatgen
data_Ru(SCl3)4
_symmetry_space_group_name_H-M   'P 1'
_cell_length_a   11.03007260
_cell_length_b   12.60919173
_cell_length_c   16.96775850
_cell_angle_alpha   90.00000000
_cell_angle_beta   106.68758572
_cell_angle_gamma   90.00000000
_symmetry_Int_Tables_number   1
_chemical_formula_structural   Ru(SCl3)4
_chemical_formula_sum   'Ru4 S16 Cl48'
_cell_volume   2260.49393443
_cell_formula_units_Z   4
loop_
 _symmetry_equiv_pos_site_id
 _symmetry_equiv_pos_as_xyz
  1  'x, y, z'
loop_
 _atom_site_type_symbol
 _atom_site_label
 _atom_site_symmetry_multiplicity
 _atom_site_fract_x
 _atom_site_fract_y
 _atom_site_fract_z
 _atom_site_occupancy
  Ru  Ru0  1  0.703324  0.730119  0.791072  1
  Ru  Ru1  1  0.296676  0.230119  0.708928  1
  Ru  Ru2  1  0.703324  0.769881  0.291072  1
  Ru  Ru3  1  0.296676  0.269881  0.208928  1
  S  S4  1  0.505015  0.220339  0.217234  1
  S  S5  1  0.011216  0.418582  0.016335  1
  S  S6  1  0.494985  0.720339  0.282766  1
  S  S7  1  0.011216  0.081418  0.516335  1
  S  S8  1  0.988784  0.581418  0.983665  1
  S  S9  1  0.988784  0.918582  0.483665  1
  S  S10  1  0.656740  0.928004  0.226195  1
  S  S11  1  0.656740  0.571996  0.726195  1
  S  S12  1  0.494985  0.779661  0.782766  1
  S  S13  1  0.698767  0.685246  0.174431  1
  S  S14  1  0.301233  0.185246  0.325569  1
  S  S15  1  0.505015  0.279661  0.717234  1
  S  S16  1  0.343261  0.428004  0.273805  1
  S  S17  1  0.343261  0.071996  0.773805  1
  S  S18  1  0.301233  0.314754  0.825569  1
  S  S19  1  0.698767  0.814754  0.674431  1
  Cl  Cl20  1  0.634960  0.175288  0.791047  1
  Cl  Cl21  1  0.712264  0.890796  0.403298  1
  Cl  Cl22  1  0.531791  0.901349  0.627742  1
  Cl  Cl23  1  0.543243  0.250267  0.608184  1
  Cl  Cl24  1  0.456757  0.750267  0.891816  1
  Cl  Cl25  1  0.073855  0.280136  0.175677  1
  Cl  Cl26  1  0.980388  0.937614  0.069100  1
  Cl  Cl27  1  0.172213  0.879412  0.505836  1
  Cl  Cl28  1  0.712264  0.609204  0.903298  1
  Cl  Cl29  1  0.172335  0.439095  0.807299  1
  Cl  Cl30  1  0.029904  0.292346  0.385236  1
  Cl  Cl31  1  0.704744  0.610459  0.368234  1
  Cl  Cl32  1  0.365040  0.824712  0.208953  1
  Cl  Cl33  1  0.295256  0.110459  0.131766  1
  Cl  Cl34  1  0.468209  0.098651  0.372258  1
  Cl  Cl35  1  0.810689  0.031656  0.242510  1
  Cl  Cl36  1  0.827787  0.379412  0.994164  1
  Cl  Cl37  1  0.531791  0.598651  0.127742  1
  Cl  Cl38  1  0.295256  0.389541  0.631766  1
  Cl  Cl39  1  0.827665  0.939095  0.692701  1
  Cl  Cl40  1  0.456757  0.749733  0.391816  1
  Cl  Cl41  1  0.073855  0.219864  0.675677  1
  Cl  Cl42  1  0.029904  0.207654  0.885236  1
  Cl  Cl43  1  0.827787  0.120588  0.494164  1
  Cl  Cl44  1  0.827665  0.560905  0.192701  1
  Cl  Cl45  1  0.172213  0.620588  0.005836  1
  Cl  Cl46  1  0.926145  0.719864  0.824323  1
  Cl  Cl47  1  0.390610  0.411869  0.400561  1
  Cl  Cl48  1  0.189311  0.531656  0.257490  1
  Cl  Cl49  1  0.810689  0.468344  0.742510  1
  Cl  Cl50  1  0.634960  0.324712  0.291047  1
  Cl  Cl51  1  0.019612  0.062386  0.930900  1
  Cl  Cl52  1  0.468209  0.401349  0.872258  1
  Cl  Cl53  1  0.189311  0.968344  0.757490  1
  Cl  Cl54  1  0.970096  0.792346  0.114764  1
  Cl  Cl55  1  0.365040  0.675288  0.708953  1
  Cl  Cl56  1  0.926145  0.780136  0.324323  1
  Cl  Cl57  1  0.609390  0.588131  0.599439  1
  Cl  Cl58  1  0.543243  0.249733  0.108184  1
  Cl  Cl59  1  0.287736  0.109204  0.596702  1
  Cl  Cl60  1  0.019612  0.437614  0.430900  1
  Cl  Cl61  1  0.287736  0.390796  0.096702  1
  Cl  Cl62  1  0.390610  0.088131  0.900561  1
  Cl  Cl63  1  0.970096  0.707654  0.614764  1
  Cl  Cl64  1  0.172335  0.060905  0.307299  1
  Cl  Cl65  1  0.980388  0.562386  0.569100  1
  Cl  Cl66  1  0.609390  0.911869  0.099439  1
  Cl  Cl67  1  0.704744  0.889541  0.868234  1
