# generated using pymatgen
data_Rb3Pb4Au
_symmetry_space_group_name_H-M   'P 1'
_cell_length_a   6.98171712
_cell_length_b   7.17215392
_cell_length_c   15.67187776
_cell_angle_alpha   90.00032835
_cell_angle_beta   89.99914023
_cell_angle_gamma   89.99895621
_symmetry_Int_Tables_number   1
_chemical_formula_structural   Rb3Pb4Au
_chemical_formula_sum   'Rb6 Pb8 Au2'
_cell_volume   784.75282028
_cell_formula_units_Z   2
loop_
 _symmetry_equiv_pos_site_id
 _symmetry_equiv_pos_as_xyz
  1  'x, y, z'
loop_
 _atom_site_type_symbol
 _atom_site_label
 _atom_site_symmetry_multiplicity
 _atom_site_fract_x
 _atom_site_fract_y
 _atom_site_fract_z
 _atom_site_occupancy
  Rb  Rb0  1  0.493811  0.750012  0.749993  1
  Rb  Rb1  1  0.104139  0.749977  0.944062  1
  Rb  Rb2  1  0.506197  0.249983  0.250005  1
  Rb  Rb3  1  0.895869  0.250008  0.055935  1
  Rb  Rb4  1  0.895888  0.250025  0.444062  1
  Rb  Rb5  1  0.104099  0.750020  0.555934  1
  Pb  Pb6  1  0.051279  0.979620  0.250001  1
  Pb  Pb7  1  0.640123  0.250002  0.854344  1
  Pb  Pb8  1  0.948722  0.020377  0.750004  1
  Pb  Pb9  1  0.051282  0.520374  0.249999  1
  Pb  Pb10  1  0.359872  0.749995  0.145658  1
  Pb  Pb11  1  0.359869  0.749991  0.354344  1
  Pb  Pb12  1  0.948717  0.479622  0.750001  1
  Pb  Pb13  1  0.640135  0.249999  0.645659  1
  Au  Au14  1  0.292751  0.250001  0.749999  1
  Au  Au15  1  0.707248  0.749995  0.250001  1
