# generated using pymatgen
data_DyGaCo
_symmetry_space_group_name_H-M   'P 1'
_cell_length_a   4.39394970
_cell_length_b   6.90190359
_cell_length_c   7.01129964
_cell_angle_alpha   89.99157625
_cell_angle_beta   89.99517653
_cell_angle_gamma   89.99917778
_symmetry_Int_Tables_number   1
_chemical_formula_structural   DyGaCo
_chemical_formula_sum   'Dy4 Ga4 Co4'
_cell_volume   212.62899756
_cell_formula_units_Z   4
loop_
 _symmetry_equiv_pos_site_id
 _symmetry_equiv_pos_as_xyz
  1  'x, y, z'
loop_
 _atom_site_type_symbol
 _atom_site_label
 _atom_site_symmetry_multiplicity
 _atom_site_fract_x
 _atom_site_fract_y
 _atom_site_fract_z
 _atom_site_occupancy
  Dy  Dy0  1  0.249999  0.196626  0.019151  1
  Dy  Dy1  1  0.249986  0.303731  0.519303  1
  Dy  Dy2  1  0.750005  0.696306  0.480770  1
  Dy  Dy3  1  0.750026  0.803365  0.980661  1
  Ga  Ga4  1  0.250021  0.895812  0.694587  1
  Ga  Ga5  1  0.750000  0.396177  0.805622  1
  Ga  Ga6  1  0.250016  0.603988  0.194326  1
  Ga  Ga7  1  0.749977  0.103991  0.305442  1
  Co  Co8  1  0.249978  0.934096  0.342423  1
  Co  Co9  1  0.250018  0.565852  0.842520  1
  Co  Co10  1  0.749994  0.065925  0.657636  1
  Co  Co11  1  0.749980  0.434130  0.157558  1
