# generated using pymatgen
data_Lu(BO2)3
_symmetry_space_group_name_H-M   'P 1'
_cell_length_a   7.37937215
_cell_length_b   12.18230752
_cell_length_c   15.84999228
_cell_angle_alpha   90.00000000
_cell_angle_beta   90.00000000
_cell_angle_gamma   90.00000000
_symmetry_Int_Tables_number   1
_chemical_formula_structural   Lu(BO2)3
_chemical_formula_sum   'Lu16 B48 O96'
_cell_volume   1424.87913224
_cell_formula_units_Z   16
loop_
 _symmetry_equiv_pos_site_id
 _symmetry_equiv_pos_as_xyz
  1  'x, y, z'
loop_
 _atom_site_type_symbol
 _atom_site_label
 _atom_site_symmetry_multiplicity
 _atom_site_fract_x
 _atom_site_fract_y
 _atom_site_fract_z
 _atom_site_occupancy
  Lu  Lu0  1  0.250000  0.911322  0.548729  1
  Lu  Lu1  1  0.750000  0.411322  0.951271  1
  Lu  Lu2  1  0.750000  0.063316  0.826532  1
  Lu  Lu3  1  0.250000  0.510367  0.378978  1
  Lu  Lu4  1  0.750000  0.088678  0.451271  1
  Lu  Lu5  1  0.250000  0.588678  0.048729  1
  Lu  Lu6  1  0.250000  0.236675  0.371671  1
  Lu  Lu7  1  0.750000  0.489633  0.621022  1
  Lu  Lu8  1  0.750000  0.763325  0.628329  1
  Lu  Lu9  1  0.250000  0.989633  0.878978  1
  Lu  Lu10  1  0.250000  0.563316  0.673468  1
  Lu  Lu11  1  0.750000  0.736675  0.128329  1
  Lu  Lu12  1  0.250000  0.936684  0.173468  1
  Lu  Lu13  1  0.250000  0.263325  0.871671  1
  Lu  Lu14  1  0.750000  0.436684  0.326532  1
  Lu  Lu15  1  0.750000  0.010367  0.121022  1
  B  B16  1  0.576239  0.642153  0.390259  1
  B  B17  1  0.570126  0.815686  0.281969  1
  B  B18  1  0.423761  0.142153  0.109741  1
  B  B19  1  0.929874  0.815686  0.281969  1
  B  B20  1  0.421099  0.516140  0.848905  1
  B  B21  1  0.076239  0.357847  0.609741  1
  B  B22  1  0.426556  0.154030  0.555599  1
  B  B23  1  0.926556  0.654030  0.944401  1
  B  B24  1  0.070126  0.315686  0.218031  1
  B  B25  1  0.941043  0.175516  0.966806  1
  B  B26  1  0.078901  0.983860  0.348905  1
  B  B27  1  0.070126  0.184314  0.718031  1
  B  B28  1  0.921099  0.016140  0.651095  1
  B  B29  1  0.431514  0.871585  0.741028  1
  B  B30  1  0.926556  0.845970  0.444401  1
  B  B31  1  0.578901  0.016140  0.651095  1
  B  B32  1  0.429874  0.315686  0.218031  1
  B  B33  1  0.423761  0.357847  0.609741  1
  B  B34  1  0.426556  0.345970  0.055599  1
  B  B35  1  0.923761  0.642153  0.390259  1
  B  B36  1  0.568486  0.128415  0.258972  1
  B  B37  1  0.558957  0.324484  0.466806  1
  B  B38  1  0.421099  0.983860  0.348905  1
  B  B39  1  0.073444  0.154030  0.555599  1
  B  B40  1  0.573444  0.845970  0.444401  1
  B  B41  1  0.573444  0.654030  0.944401  1
  B  B42  1  0.078901  0.516140  0.848905  1
  B  B43  1  0.068486  0.628415  0.241028  1
  B  B44  1  0.058957  0.675516  0.533194  1
  B  B45  1  0.921099  0.483860  0.151095  1
  B  B46  1  0.441043  0.675516  0.533194  1
  B  B47  1  0.429874  0.184314  0.718031  1
  B  B48  1  0.431514  0.628415  0.241028  1
  B  B49  1  0.441043  0.824484  0.033194  1
  B  B50  1  0.931514  0.371585  0.758972  1
  B  B51  1  0.578901  0.483860  0.151095  1
  B  B52  1  0.073444  0.345970  0.055599  1
  B  B53  1  0.576239  0.857847  0.890259  1
  B  B54  1  0.068486  0.871585  0.741028  1
  B  B55  1  0.941043  0.324484  0.466806  1
  B  B56  1  0.929874  0.684314  0.781969  1
  B  B57  1  0.076239  0.142153  0.109741  1
  B  B58  1  0.570126  0.684314  0.781969  1
  B  B59  1  0.558957  0.175516  0.966806  1
  B  B60  1  0.931514  0.128415  0.258972  1
  B  B61  1  0.923761  0.857847  0.890259  1
  B  B62  1  0.568486  0.371585  0.758972  1
  B  B63  1  0.058957  0.824484  0.033194  1
  O  O64  1  0.045159  0.380828  0.402718  1
  O  O65  1  0.926089  0.765388  0.371161  1
  O  O66  1  0.454841  0.380828  0.402718  1
  O  O67  1  0.476018  0.269607  0.778087  1
  O  O68  1  0.526247  0.789138  0.523849  1
  O  O69  1  0.932668  0.121185  0.048425  1
  O  O70  1  0.062798  0.569353  0.932465  1
  O  O71  1  0.567332  0.121185  0.048425  1
  O  O72  1  0.426089  0.265388  0.128839  1
  O  O73  1  0.473753  0.210862  0.476151  1
  O  O74  1  0.535145  0.575789  0.313938  1
  O  O75  1  0.250000  0.455210  0.843148  1
  O  O76  1  0.067332  0.621185  0.451575  1
  O  O77  1  0.431308  0.600376  0.781854  1
  O  O78  1  0.250000  0.396608  0.577702  1
  O  O79  1  0.523982  0.730393  0.221913  1
  O  O80  1  0.023982  0.269607  0.778087  1
  O  O81  1  0.973753  0.710862  0.023849  1
  O  O82  1  0.931308  0.100376  0.718146  1
  O  O83  1  0.035145  0.075789  0.186062  1
  O  O84  1  0.073911  0.234612  0.628839  1
  O  O85  1  0.976018  0.769607  0.721913  1
  O  O86  1  0.432668  0.621185  0.451575  1
  O  O87  1  0.562798  0.430647  0.067535  1
  O  O88  1  0.068692  0.600376  0.781854  1
  O  O89  1  0.750000  0.900772  0.452065  1
  O  O90  1  0.062798  0.930647  0.432465  1
  O  O91  1  0.473753  0.289138  0.976151  1
  O  O92  1  0.750000  0.360480  0.723913  1
  O  O93  1  0.426089  0.234612  0.628839  1
  O  O94  1  0.045159  0.119172  0.902718  1
  O  O95  1  0.750000  0.640529  0.754374  1
  O  O96  1  0.523982  0.769607  0.721913  1
  O  O97  1  0.573911  0.734612  0.871161  1
  O  O98  1  0.250000  0.044790  0.343148  1
  O  O99  1  0.954841  0.619172  0.597282  1
  O  O100  1  0.937202  0.069353  0.567535  1
  O  O101  1  0.932668  0.378815  0.548425  1
  O  O102  1  0.568147  0.064136  0.337661  1
  O  O103  1  0.250000  0.103392  0.077702  1
  O  O104  1  0.068147  0.564136  0.162339  1
  O  O105  1  0.568692  0.399624  0.218146  1
  O  O106  1  0.035145  0.424211  0.686062  1
  O  O107  1  0.026247  0.210862  0.476151  1
  O  O108  1  0.250000  0.099228  0.547935  1
  O  O109  1  0.931853  0.064136  0.337661  1
  O  O110  1  0.964855  0.924211  0.813938  1
  O  O111  1  0.068692  0.899624  0.281854  1
  O  O112  1  0.454841  0.119172  0.902718  1
  O  O113  1  0.954841  0.880828  0.097282  1
  O  O114  1  0.562798  0.069353  0.567535  1
  O  O115  1  0.750000  0.305031  0.431797  1
  O  O116  1  0.431853  0.935864  0.662339  1
  O  O117  1  0.068147  0.935864  0.662339  1
  O  O118  1  0.976018  0.730393  0.221913  1
  O  O119  1  0.026247  0.289138  0.976151  1
  O  O120  1  0.931853  0.435864  0.837661  1
  O  O121  1  0.250000  0.639520  0.276087  1
  O  O122  1  0.750000  0.139520  0.223913  1
  O  O123  1  0.931308  0.399624  0.218146  1
  O  O124  1  0.545159  0.619172  0.597282  1
  O  O125  1  0.250000  0.694969  0.568203  1
  O  O126  1  0.568147  0.435864  0.837661  1
  O  O127  1  0.964855  0.575789  0.313938  1
  O  O128  1  0.750000  0.544790  0.156852  1
  O  O129  1  0.250000  0.140529  0.745626  1
  O  O130  1  0.750000  0.603392  0.422298  1
  O  O131  1  0.535145  0.924211  0.813938  1
  O  O132  1  0.464855  0.424211  0.686062  1
  O  O133  1  0.437202  0.930647  0.432465  1
  O  O134  1  0.250000  0.400772  0.047935  1
  O  O135  1  0.568692  0.100376  0.718146  1
  O  O136  1  0.023982  0.230393  0.278087  1
  O  O137  1  0.476018  0.230393  0.278087  1
  O  O138  1  0.926089  0.734612  0.871161  1
  O  O139  1  0.750000  0.859471  0.254374  1
  O  O140  1  0.437202  0.569353  0.932465  1
  O  O141  1  0.567332  0.378815  0.548425  1
  O  O142  1  0.250000  0.805031  0.068203  1
  O  O143  1  0.431853  0.564136  0.162339  1
  O  O144  1  0.432668  0.878815  0.951575  1
  O  O145  1  0.526247  0.710862  0.023849  1
  O  O146  1  0.573911  0.765388  0.371161  1
  O  O147  1  0.750000  0.194969  0.931797  1
  O  O148  1  0.750000  0.599228  0.952065  1
  O  O149  1  0.545159  0.880828  0.097282  1
  O  O150  1  0.073911  0.265388  0.128839  1
  O  O151  1  0.067332  0.878815  0.951575  1
  O  O152  1  0.750000  0.955210  0.656852  1
  O  O153  1  0.937202  0.430647  0.067535  1
  O  O154  1  0.250000  0.359471  0.245626  1
  O  O155  1  0.750000  0.896608  0.922298  1
  O  O156  1  0.464855  0.075789  0.186062  1
  O  O157  1  0.973753  0.789138  0.523849  1
  O  O158  1  0.250000  0.860480  0.776087  1
  O  O159  1  0.431308  0.899624  0.281854  1
