# generated using pymatgen
data_GdGa2Co
_symmetry_space_group_name_H-M   'P 1'
_cell_length_a   3.98294751
_cell_length_b   4.13695830
_cell_length_c   9.21440860
_cell_angle_alpha   103.01970609
_cell_angle_beta   90.02325731
_cell_angle_gamma   89.99567098
_symmetry_Int_Tables_number   1
_chemical_formula_structural   GdGa2Co
_chemical_formula_sum   'Gd2 Ga4 Co2'
_cell_volume   147.92534071
_cell_formula_units_Z   2
loop_
 _symmetry_equiv_pos_site_id
 _symmetry_equiv_pos_as_xyz
  1  'x, y, z'
loop_
 _atom_site_type_symbol
 _atom_site_label
 _atom_site_symmetry_multiplicity
 _atom_site_fract_x
 _atom_site_fract_y
 _atom_site_fract_z
 _atom_site_occupancy
  Gd  Gd0  1  0.001535  0.138468  0.281923  1
  Gd  Gd1  1  0.002002  0.860888  0.717744  1
  Ga  Ga2  1  0.502441  0.292026  0.582863  1
  Ga  Ga3  1  0.502864  0.708102  0.416911  1
  Ga  Ga4  1  0.001762  0.500630  -0.000019  1
  Ga  Ga5  1  0.501039  0.003353  0.999807  1
  Co  Co6  1  0.501690  0.428780  0.850152  1
  Co  Co7  1  0.502130  0.579264  0.149796  1
