# generated using pymatgen
data_Rb5Tc3S7
_symmetry_space_group_name_H-M   'P 1'
_cell_length_a   10.81302305
_cell_length_b   10.79156265
_cell_length_c   10.79434398
_cell_angle_alpha   60.00852431
_cell_angle_beta   61.36723282
_cell_angle_gamma   60.06563007
_symmetry_Int_Tables_number   1
_chemical_formula_structural   Rb5Tc3S7
_chemical_formula_sum   'Rb10 Tc6 S14'
_cell_volume   900.01182991
_cell_formula_units_Z   2
loop_
 _symmetry_equiv_pos_site_id
 _symmetry_equiv_pos_as_xyz
  1  'x, y, z'
loop_
 _atom_site_type_symbol
 _atom_site_label
 _atom_site_symmetry_multiplicity
 _atom_site_fract_x
 _atom_site_fract_y
 _atom_site_fract_z
 _atom_site_occupancy
  Rb  Rb0  1  0.009727  0.989890  0.010493  1
  Rb  Rb1  1  0.998202  0.015733  0.404246  1
  Rb  Rb2  1  0.405657  0.006241  0.994589  1
  Rb  Rb3  1  0.143575  0.144655  0.567116  1
  Rb  Rb4  1  0.571607  0.161530  0.105333  1
  Rb  Rb5  1  0.405657  0.593513  0.994589  1
  Rb  Rb6  1  0.570569  0.964144  0.501143  1
  Rb  Rb7  1  0.998202  0.581818  0.404246  1
  Rb  Rb8  1  0.881705  0.418668  0.881478  1
  Rb  Rb9  1  0.881705  0.818149  0.881478  1
  Tc  Tc10  1  0.380029  0.377753  0.618593  1
  Tc  Tc11  1  0.376133  0.623789  0.376290  1
  Tc  Tc12  1  0.618226  0.377761  0.378741  1
  Tc  Tc13  1  0.380029  0.623625  0.618593  1
  Tc  Tc14  1  0.625504  0.376735  0.621025  1
  Tc  Tc15  1  0.618226  0.625272  0.378741  1
  S  S16  1  0.212156  0.785211  0.217422  1
  S  S17  1  0.224194  0.217168  0.765367  1
  S  S18  1  0.167474  0.613236  0.606053  1
  S  S19  1  0.385865  0.389680  0.385778  1
  S  S20  1  0.394514  0.386831  0.831824  1
  S  S21  1  0.758277  0.212728  0.225663  1
  S  S22  1  0.607533  0.613480  0.165507  1
  S  S23  1  0.615083  0.162749  0.614984  1
  S  S24  1  0.385865  0.838676  0.385778  1
  S  S25  1  0.224194  0.793271  0.765367  1
  S  S26  1  0.615083  0.607183  0.614984  1
  S  S27  1  0.832062  0.389493  0.388952  1
  S  S28  1  0.799867  0.212885  0.774363  1
  S  S29  1  0.758277  0.803332  0.225663  1
