# generated using pymatgen
data_Zn(Bi25O38)2
_symmetry_space_group_name_H-M   'P 1'
_cell_length_a   9.03749806
_cell_length_b   8.95415029
_cell_length_c   36.17113887
_cell_angle_alpha   109.32020878
_cell_angle_beta   109.67247821
_cell_angle_gamma   109.32117213
_symmetry_Int_Tables_number   1
_chemical_formula_structural   Zn(Bi25O38)2
_chemical_formula_sum   'Zn1 Bi50 O76'
_cell_volume   2256.01799829
_cell_formula_units_Z   1
loop_
 _symmetry_equiv_pos_site_id
 _symmetry_equiv_pos_as_xyz
  1  'x, y, z'
loop_
 _atom_site_type_symbol
 _atom_site_label
 _atom_site_symmetry_multiplicity
 _atom_site_fract_x
 _atom_site_fract_y
 _atom_site_fract_z
 _atom_site_occupancy
  Zn  Zn0  1  0.999465  0.932316  0.750710  1
  Bi  Bi1  1  0.156098  0.860988  0.920737  1
  Bi  Bi2  1  0.155076  0.323632  0.949794  1
  Bi  Bi3  1  0.201703  0.521123  0.839110  1
  Bi  Bi4  1  0.155115  0.870172  0.672434  1
  Bi  Bi5  1  0.308339  0.805669  0.783111  1
  Bi  Bi6  1  0.525156  0.709671  0.962489  1
  Bi  Bi7  1  0.308987  0.178335  0.866726  1
  Bi  Bi8  1  0.158950  0.325377  0.700315  1
  Bi  Bi9  1  0.200072  0.527117  0.589574  1
  Bi  Bi10  1  0.697174  0.835774  0.874230  1
  Bi  Bi11  1  0.486990  0.323729  0.797465  1
  Bi  Bi12  1  0.146498  0.852667  0.417650  1
  Bi  Bi13  1  0.297059  0.800334  0.532922  1
  Bi  Bi14  1  0.642051  0.166973  0.961295  1
  Bi  Bi15  1  0.537339  0.713288  0.710508  1
  Bi  Bi16  1  0.318327  0.180782  0.618822  1
  Bi  Bi17  1  0.829632  0.500699  0.925471  1
  Bi  Bi18  1  0.153951  0.316947  0.450094  1
  Bi  Bi19  1  0.862646  0.667640  0.793605  1
  Bi  Bi20  1  0.700173  0.841155  0.626807  1
  Bi  Bi21  1  0.202266  0.520543  0.336676  1
  Bi  Bi22  1  0.502870  0.341827  0.549903  1
  Bi  Bi23  1  0.174374  0.874438  0.176525  1
  Bi  Bi24  1  0.304623  0.818472  0.281107  1
  Bi  Bi25  1  0.808238  0.142002  0.824990  1
  Bi  Bi26  1  0.644184  0.162473  0.710826  1
  Bi  Bi27  1  0.516137  0.695379  0.459302  1
  Bi  Bi28  1  0.292181  0.166883  0.364206  1
  Bi  Bi29  1  0.829190  0.497091  0.673034  1
  Bi  Bi30  1  0.154655  0.330053  0.200151  1
  Bi  Bi31  1  0.867941  0.664810  0.539998  1
  Bi  Bi32  1  0.684022  0.833755  0.371186  1
  Bi  Bi33  1  0.193636  0.522663  0.090128  1
  Bi  Bi34  1  0.995290  0.029043  0.498377  1
  Bi  Bi35  1  0.492559  0.321476  0.297467  1
  Bi  Bi36  1  0.306212  0.796378  0.036154  1
  Bi  Bi37  1  0.800705  0.134167  0.574273  1
  Bi  Bi38  1  0.635210  0.165672  0.459347  1
  Bi  Bi39  1  0.538212  0.706857  0.209131  1
  Bi  Bi40  1  0.822336  0.484691  0.420937  1
  Bi  Bi41  1  0.327479  0.181210  0.121102  1
  Bi  Bi42  1  0.864894  0.681842  0.293537  1
  Bi  Bi43  1  0.712744  0.839487  0.132483  1
  Bi  Bi44  1  0.497817  0.343145  0.049617  1
  Bi  Bi45  1  0.820217  0.135437  0.323562  1
  Bi  Bi46  1  0.656418  0.174136  0.213021  1
  Bi  Bi47  1  0.833069  0.522878  0.176184  1
  Bi  Bi48  1  0.869765  0.670250  0.042262  1
  Bi  Bi49  1  0.794900  0.142251  0.079028  1
  Bi  Bi50  1  0.002964  0.036205  0.001662  1
  O  O51  1  0.999383  0.999369  0.907347  1
  O  O52  1  0.118031  0.752052  0.846320  1
  O  O53  1  0.267177  0.635036  0.971194  1
  O  O54  1  0.233194  0.354306  0.901670  1
  O  O55  1  0.388001  0.741465  0.906871  1
  O  O56  1  0.352358  0.620490  0.810454  1
  O  O57  1  0.118298  0.752632  0.596034  1
  O  O58  1  0.263559  0.632181  0.719604  1
  O  O59  1  0.368898  0.114337  0.939953  1
  O  O60  1  0.377120  0.379185  0.843938  1
  O  O61  1  0.001423  0.004743  0.656062  1
  O  O62  1  0.002709  0.605464  0.500525  1
  O  O63  1  0.220693  0.002044  0.747611  1
  O  O64  1  0.236599  0.353887  0.652299  1
  O  O65  1  0.610235  0.367548  0.932986  1
  O  O66  1  0.776870  0.775289  0.946865  1
  O  O67  1  0.010305  0.998764  0.555903  1
  O  O68  1  0.393759  0.749225  0.657195  1
  O  O69  1  0.647216  0.882513  0.815245  1
  O  O70  1  0.737058  0.617843  0.843492  1
  O  O71  1  0.355783  0.620167  0.561708  1
  O  O72  1  0.117732  0.758863  0.347074  1
  O  O73  1  0.612262  0.229773  0.837393  1
  O  O74  1  0.266402  0.636487  0.470653  1
  O  O75  1  0.375615  0.120322  0.691520  1
  O  O76  1  0.370183  0.370360  0.592973  1
  O  O77  1  0.000963  0.004575  0.411475  1
  O  O78  1  0.007570  0.003122  0.161029  1
  O  O79  1  0.212672  0.985571  0.498538  1
  O  O80  1  0.237561  0.357430  0.403647  1
  O  O81  1  0.887943  0.264484  0.911005  1
  O  O82  1  0.614859  0.367513  0.683024  1
  O  O83  1  0.768420  0.779370  0.695018  1
  O  O84  1  0.995178  0.002186  0.318542  1
  O  O85  1  0.764601  0.376684  0.777419  1
  O  O86  1  0.384250  0.737860  0.406034  1
  O  O87  1  0.644149  0.879913  0.566100  1
  O  O88  1  0.623475  0.002620  0.749789  1
  O  O89  1  0.739435  0.620387  0.597638  1
  O  O90  1  0.366054  0.627639  0.312418  1
  O  O91  1  0.124214  0.753482  0.094577  1
  O  O92  1  0.260051  0.634186  0.218437  1
  O  O93  1  0.620839  0.238941  0.589290  1
  O  O94  1  0.365912  0.113307  0.441296  1
  O  O95  1  0.001188  0.638934  0.750234  1
  O  O96  1  0.359148  0.365713  0.341285  1
  O  O97  1  0.283784  0.005399  0.250779  1
  O  O98  1  0.890597  0.268383  0.664010  1
  O  O99  1  0.240827  0.353091  0.152837  1
  O  O100  1  0.617486  0.369663  0.435231  1
  O  O101  1  0.772232  0.767767  0.446991  1
  O  O102  1  0.008193  0.012413  0.808341  1
  O  O103  1  0.013255  0.989063  0.055731  1
  O  O104  1  0.752090  0.373766  0.527122  1
  O  O105  1  0.391789  0.748482  0.156763  1
  O  O106  1  0.640205  0.882902  0.313416  1
  O  O107  1  0.631966  0.996134  0.499865  1
  O  O108  1  0.745691  0.630371  0.344895  1
  O  O109  1  0.335162  0.597724  0.057193  1
  O  O110  1  0.627013  0.250485  0.343011  1
  O  O111  1  0.381973  0.121466  0.190355  1
  O  O112  1  0.353262  0.356263  0.089259  1
  O  O113  1  0.211135  0.986627  0.995915  1
  O  O114  1  0.887341  0.259252  0.412356  1
  O  O115  1  0.617479  0.374277  0.183602  1
  O  O116  1  0.728052  0.727662  0.181440  1
  O  O117  1  0.758558  0.377737  0.278686  1
  O  O118  1  0.626687  0.879428  0.064829  1
  O  O119  1  0.645335  0.001957  0.248738  1
  O  O120  1  0.738866  0.618499  0.095653  1
  O  O121  1  0.608754  0.237150  0.088749  1
  O  O122  1  0.001371  0.632788  0.250448  1
  O  O123  1  0.888526  0.263751  0.158648  1
  O  O124  1  0.754671  0.375295  0.027547  1
  O  O125  1  0.629214  0.001776  0.999273  1
  O  O126  1  0.993233  0.601383  0.998583  1
