# generated using pymatgen
data_NaH3(SeO3)2
_symmetry_space_group_name_H-M   'P 1'
_cell_length_a   10.63773029
_cell_length_b   5.71518901
_cell_length_c   4.78921694
_cell_angle_alpha   90.00000000
_cell_angle_beta   94.11368366
_cell_angle_gamma   90.00000000
_symmetry_Int_Tables_number   1
_chemical_formula_structural   NaH3(SeO3)2
_chemical_formula_sum   'Na2 H6 Se4 O12'
_cell_volume   290.41815184
_cell_formula_units_Z   2
loop_
 _symmetry_equiv_pos_site_id
 _symmetry_equiv_pos_as_xyz
  1  'x, y, z'
loop_
 _atom_site_type_symbol
 _atom_site_label
 _atom_site_symmetry_multiplicity
 _atom_site_fract_x
 _atom_site_fract_y
 _atom_site_fract_z
 _atom_site_occupancy
  Na  Na0  1  0.500000  0.500000  0.500000  1
  Na  Na1  1  0.000000  0.000000  0.000000  1
  H  H2  1  0.500000  0.000000  0.500000  1
  H  H3  1  0.000000  0.500000  0.000000  1
  H  H4  1  0.305930  0.494590  0.105655  1
  H  H5  1  0.805930  0.005410  0.605655  1
  H  H6  1  0.694070  0.505410  0.894345  1
  H  H7  1  0.194070  0.994590  0.394345  1
  Se  Se8  1  0.342146  0.932382  0.042257  1
  Se  Se9  1  0.842146  0.567618  0.542257  1
  Se  Se10  1  0.657854  0.067618  0.957743  1
  Se  Se11  1  0.157854  0.432382  0.457743  1
  O  O12  1  0.963562  0.623182  0.803952  1
  O  O13  1  0.463562  0.876818  0.303952  1
  O  O14  1  0.036438  0.376818  0.196048  1
  O  O15  1  0.536438  0.123182  0.696048  1
  O  O16  1  0.840881  0.829453  0.378555  1
  O  O17  1  0.340881  0.670547  0.878555  1
  O  O18  1  0.159119  0.170547  0.621445  1
  O  O19  1  0.659119  0.329453  0.121445  1
  O  O20  1  0.201654  0.877411  0.230390  1
  O  O21  1  0.701654  0.622589  0.730390  1
  O  O22  1  0.798346  0.122589  0.769610  1
  O  O23  1  0.298346  0.377411  0.269610  1
