# generated using pymatgen
data_NaTi(SiO3)2
_symmetry_space_group_name_H-M   'P 1'
_cell_length_a   5.31239760
_cell_length_b   6.64663304
_cell_length_c   6.64794640
_cell_angle_alpha   83.30063085
_cell_angle_beta   77.98073765
_cell_angle_gamma   77.99793566
_symmetry_Int_Tables_number   1
_chemical_formula_structural   NaTi(SiO3)2
_chemical_formula_sum   'Na2 Ti2 Si4 O12'
_cell_volume   223.91012028
_cell_formula_units_Z   2
loop_
 _symmetry_equiv_pos_site_id
 _symmetry_equiv_pos_as_xyz
  1  'x, y, z'
loop_
 _atom_site_type_symbol
 _atom_site_label
 _atom_site_symmetry_multiplicity
 _atom_site_fract_x
 _atom_site_fract_y
 _atom_site_fract_z
 _atom_site_occupancy
  O  O0  1  0.691492  0.121951  0.108361  1
  O  O1  1  0.308508  0.878049  0.891639  1
  O  O2  1  0.849582  0.706431  0.033681  1
  O  O3  1  0.150418  0.293569  0.966319  1
  O  O4  1  0.986774  0.859657  0.341781  1
  O  O5  1  0.013226  0.140343  0.658219  1
  O  O6  1  0.486729  0.841341  0.360057  1
  O  O7  1  0.513271  0.158659  0.639943  1
  O  O8  1  0.808457  0.392397  0.377910  1
  O  O9  1  0.191543  0.607603  0.622090  1
  O  O10  1  0.650477  0.466464  0.793657  1
  O  O11  1  0.349523  0.533536  0.206343  1
  Na  Na12  1  0.750175  0.805561  0.695006  1
  Na  Na13  1  0.249825  0.194439  0.304994  1
  Si  Si14  1  0.241217  0.114837  0.800461  1
  Si  Si15  1  0.741212  0.300989  0.614566  1
  Si  Si16  1  0.758783  0.885163  0.199539  1
  Si  Si17  1  0.258788  0.699011  0.385434  1
  Ti  Ti18  1  0.250028  0.588777  0.911250  1
  Ti  Ti19  1  0.749972  0.411223  0.088750  1
