# generated using pymatgen
data_H3ClO5
_symmetry_space_group_name_H-M   'P 1'
_cell_length_a   9.29533213
_cell_length_b   5.85680798
_cell_length_c   6.95079023
_cell_angle_alpha   90.00000000
_cell_angle_beta   91.76936462
_cell_angle_gamma   90.00000000
_symmetry_Int_Tables_number   1
_chemical_formula_structural   H3ClO5
_chemical_formula_sum   'H12 Cl4 O20'
_cell_volume   378.22738003
_cell_formula_units_Z   4
loop_
 _symmetry_equiv_pos_site_id
 _symmetry_equiv_pos_as_xyz
  1  'x, y, z'
loop_
 _atom_site_type_symbol
 _atom_site_label
 _atom_site_symmetry_multiplicity
 _atom_site_fract_x
 _atom_site_fract_y
 _atom_site_fract_z
 _atom_site_occupancy
  H  H0  1  0.145631  0.887165  0.091338  1
  H  H1  1  0.145631  0.612835  0.091338  1
  H  H2  1  0.242073  0.750000  0.263365  1
  H  H3  1  0.592812  0.750000  0.390371  1
  H  H4  1  0.679583  0.750000  0.164129  1
  H  H5  1  0.771798  0.750000  0.394980  1
  H  H6  1  0.915930  0.250000  0.886626  1
  H  H7  1  0.821373  0.250000  0.665827  1
  H  H8  1  0.736081  0.250000  0.891919  1
  H  H9  1  0.413419  0.250000  0.619806  1
  H  H10  1  0.232848  0.250000  0.600737  1
  H  H11  1  0.316888  0.250000  0.832234  1
  Cl  Cl12  1  0.935408  0.250000  0.318662  1
  Cl  Cl13  1  0.422398  0.250000  0.186408  1
  Cl  Cl14  1  0.074810  0.750000  0.703257  1
  Cl  Cl15  1  0.571748  0.750000  0.816255  1
  O  O16  1  0.816909  0.250000  0.457682  1
  O  O17  1  0.298978  0.250000  0.042253  1
  O  O18  1  0.193252  0.750000  0.573456  1
  O  O19  1  0.693313  0.750000  0.962986  1
  O  O20  1  0.074229  0.250000  0.421074  1
  O  O21  1  0.556915  0.250000  0.087539  1
  O  O22  1  0.937682  0.750000  0.597858  1
  O  O23  1  0.436583  0.750000  0.912232  1
  O  O24  1  0.920259  0.048200  0.198566  1
  O  O25  1  0.408533  0.452625  0.305934  1
  O  O26  1  0.084113  0.546139  0.828615  1
  O  O27  1  0.587711  0.952179  0.696424  1
  O  O28  1  0.084113  0.953861  0.828615  1
  O  O29  1  0.587711  0.547821  0.696424  1
  O  O30  1  0.920259  0.451800  0.198566  1
  O  O31  1  0.408533  0.047375  0.305934  1
  O  O32  1  0.156501  0.750000  0.175506  1
  O  O33  1  0.681187  0.750000  0.318285  1
  O  O34  1  0.823208  0.250000  0.816738  1
  O  O35  1  0.320965  0.250000  0.682728  1
