# generated using pymatgen
data_ZrCuF3
_symmetry_space_group_name_H-M   'P 1'
_cell_length_a   5.49797942
_cell_length_b   5.58241612
_cell_length_c   23.27513709
_cell_angle_alpha   57.75456423
_cell_angle_beta   58.14588473
_cell_angle_gamma   36.28199632
_symmetry_Int_Tables_number   1
_chemical_formula_structural   ZrCuF3
_chemical_formula_sum   'Zr4 Cu4 F12'
_cell_volume   350.66021752
_cell_formula_units_Z   4
loop_
 _symmetry_equiv_pos_site_id
 _symmetry_equiv_pos_as_xyz
  1  'x, y, z'
loop_
 _atom_site_type_symbol
 _atom_site_label
 _atom_site_symmetry_multiplicity
 _atom_site_fract_x
 _atom_site_fract_y
 _atom_site_fract_z
 _atom_site_occupancy
  Zr  Zr0  1  0.470757  0.531007  0.111328  1
  Zr  Zr1  1  0.557787  0.452874  0.361293  1
  Zr  Zr2  1  0.576400  0.428739  0.609706  1
  Zr  Zr3  1  0.585434  0.417157  0.860058  1
  Cu  Cu4  1  0.986728  0.002772  0.025555  1
  Cu  Cu5  1  0.025199  0.006996  0.269094  1
  Cu  Cu6  1  0.006568  0.974231  0.524622  1
  Cu  Cu7  1  0.019204  0.974838  0.774244  1
  F  F8  1  0.391215  0.173236  0.171499  1
  F  F9  1  0.126690  0.859559  0.185492  1
  F  F10  1  0.149233  0.446358  0.427021  1
  F  F11  1  0.856048  0.576004  0.063754  1
  F  F12  1  0.221866  0.347697  0.670691  1
  F  F13  1  0.912932  0.095852  0.434511  1
  F  F14  1  0.573047  0.849201  0.323563  1
  F  F15  1  0.234451  0.328272  0.916813  1
  F  F16  1  0.742761  0.253643  0.694578  1
  F  F17  1  0.609419  0.820016  0.567302  1
  F  F18  1  0.690668  0.751758  0.813232  1
  F  F19  1  0.764794  0.208589  0.946243  1
