# generated using pymatgen
data_Ce10Si10BrN17O9
_symmetry_space_group_name_H-M   'P 1'
_cell_length_a   10.63975678
_cell_length_b   11.29615659
_cell_length_c   11.62768170
_cell_angle_alpha   90.01795123
_cell_angle_beta   90.03245740
_cell_angle_gamma   90.08379010
_symmetry_Int_Tables_number   1
_chemical_formula_structural   Ce10Si10BrN17O9
_chemical_formula_sum   'Ce20 Si20 Br2 N34 O18'
_cell_volume   1397.51019073
_cell_formula_units_Z   2
loop_
 _symmetry_equiv_pos_site_id
 _symmetry_equiv_pos_as_xyz
  1  'x, y, z'
loop_
 _atom_site_type_symbol
 _atom_site_label
 _atom_site_symmetry_multiplicity
 _atom_site_fract_x
 _atom_site_fract_y
 _atom_site_fract_z
 _atom_site_occupancy
  Ce  Ce0  1  0.992106  -0.000243  0.832838  1
  Ce  Ce1  1  0.109780  0.628444  -0.000135  1
  Ce  Ce2  1  0.127240  0.880481  0.500001  1
  Ce  Ce3  1  0.137435  0.398262  0.756844  1
  Ce  Ce4  1  0.139209  0.397843  0.242604  1
  Ce  Ce5  1  0.358410  0.904080  0.242037  1
  Ce  Ce6  1  0.361662  0.899442  0.758960  1
  Ce  Ce7  1  0.373112  0.378606  0.498339  1
  Ce  Ce8  1  0.382143  0.127842  0.003653  1
  Ce  Ce9  1  0.500513  0.500158  0.171526  1
  Ce  Ce10  1  0.501250  0.501783  0.828673  1
  Ce  Ce11  1  0.634857  0.872677  0.995219  1
  Ce  Ce12  1  0.622918  0.623720  0.501040  1
  Ce  Ce13  1  0.642362  0.102116  0.237472  1
  Ce  Ce14  1  0.644658  0.098011  0.762673  1
  Ce  Ce15  1  0.857744  0.597577  0.232479  1
  Ce  Ce16  1  0.857076  0.598529  0.767875  1
  Ce  Ce17  1  0.878095  0.124590  0.500037  1
  Ce  Ce18  1  0.880311  0.373896  0.000149  1
  Ce  Ce19  1  0.991667  -0.000840  0.166855  1
  Si  Si20  1  0.116467  0.744819  0.247208  1
  Si  Si21  1  0.116796  0.744554  0.752914  1
  Si  Si22  1  0.149779  0.142610  0.637192  1
  Si  Si23  1  0.149817  0.143147  0.363890  1
  Si  Si24  1  0.212593  0.887418  -0.000055  1
  Si  Si25  1  0.286702  0.388383  -0.000527  1
  Si  Si26  1  0.349207  0.643740  0.635786  1
  Si  Si27  1  0.349303  0.644687  0.364403  1
  Si  Si28  1  0.384788  0.238648  0.245141  1
  Si  Si29  1  0.383228  0.244147  0.753498  1
  Si  Si30  1  0.616327  0.756205  0.246352  1
  Si  Si31  1  0.614979  0.761289  0.754385  1
  Si  Si32  1  0.650844  0.355106  0.635513  1
  Si  Si33  1  0.650570  0.355923  0.364810  1
  Si  Si34  1  0.718380  0.611290  0.000197  1
  Si  Si35  1  0.788076  0.108331  -0.000241  1
  Si  Si36  1  0.849580  0.854974  0.365014  1
  Si  Si37  1  0.849670  0.854875  0.635327  1
  Si  Si38  1  0.884563  0.261481  0.245230  1
  Si  Si39  1  0.884906  0.261406  0.754653  1
  Br  Br40  1  0.040297  0.472329  0.500455  1
  Br  Br41  1  0.461095  0.972054  0.500070  1
  N  N42  1  0.019908  0.191261  0.288671  1
  N  N43  1  0.020391  0.191328  0.712069  1
  N  N44  1  0.103787  0.107677  0.500291  1
  N  N45  1  0.167531  0.814897  0.121878  1
  N  N46  1  0.168355  0.813405  0.878673  1
  N  N47  1  0.231558  0.747659  0.649238  1
  N  N48  1  0.230788  0.747630  0.351285  1
  N  N49  1  0.268078  0.247275  0.650156  1
  N  N50  1  0.268607  0.247332  0.349741  1
  N  N51  1  0.331440  0.315640  0.877727  1
  N  N52  1  0.331058  0.317210  0.122308  1
  N  N53  1  0.396197  0.607911  0.499889  1
  N  N54  1  0.422136  0.099354  0.197815  1
  N  N55  1  0.478847  0.692906  0.288631  1
  N  N56  1  0.479494  0.690861  0.711000  1
  N  N57  1  0.520307  0.308279  0.289245  1
  N  N58  1  0.521347  0.306539  0.711464  1
  N  N59  1  0.579247  0.900918  0.801230  1
  N  N60  1  0.603319  0.392797  0.500202  1
  N  N61  1  0.666039  0.680976  0.877036  1
  N  N62  1  0.665360  0.682921  0.122356  1
  N  N63  1  0.730817  0.751375  0.648950  1
  N  N64  1  0.730470  0.751823  0.351224  1
  N  N65  1  0.769042  0.251290  0.648471  1
  N  N66  1  0.768236  0.251642  0.350924  1
  N  N67  1  0.828809  0.183043  0.123665  1
  N  N68  1  0.829302  0.182832  0.876089  1
  N  N69  1  0.847292  0.966779  0.999521  1
  N  N70  1  0.879460  0.591100  0.000856  1
  N  N71  1  0.897499  0.891752  0.500160  1
  N  N72  1  0.922188  0.401255  0.199845  1
  N  N73  1  0.923511  0.401038  0.799728  1
  N  N74  1  0.978451  0.806151  0.288607  1
  N  N75  1  0.978542  0.806388  0.712329  1
  O  O76  1  0.084129  0.606491  0.204541  1
  O  O77  1  0.084282  0.606238  0.794924  1
  O  O78  1  0.130329  0.409534  0.998489  1
  O  O79  1  0.153490  0.024688  0.999394  1
  O  O80  1  0.181793  0.009695  0.693649  1
  O  O81  1  0.180334  0.009129  0.308424  1
  O  O82  1  0.318855  0.511591  0.306339  1
  O  O83  1  0.317896  0.510972  0.693416  1
  O  O84  1  0.346781  0.525542  0.999154  1
  O  O85  1  0.368763  0.909215  0.000363  1
  O  O86  1  0.417754  0.106363  0.795587  1
  O  O87  1  0.582851  0.894013  0.204077  1
  O  O88  1  0.626855  0.095491  0.999510  1
  O  O89  1  0.649971  0.475309  0.000347  1
  O  O90  1  0.681355  0.490004  0.308444  1
  O  O91  1  0.680979  0.489003  0.692472  1
  O  O92  1  0.816788  0.988060  0.308375  1
  O  O93  1  0.818864  0.989025  0.690869  1
