# generated using pymatgen
data_Gd2Al6Si4Pt
_symmetry_space_group_name_H-M   'P 1'
_cell_length_a   17.18022262
_cell_length_b   17.18022258
_cell_length_c   17.18022249
_cell_angle_alpha   13.91258569
_cell_angle_beta   13.91258630
_cell_angle_gamma   13.91258498
_symmetry_Int_Tables_number   1
_chemical_formula_structural   Gd2Al6Si4Pt
_chemical_formula_sum   'Gd2 Al6 Si4 Pt1'
_cell_volume   255.13117845
_cell_formula_units_Z   1
loop_
 _symmetry_equiv_pos_site_id
 _symmetry_equiv_pos_as_xyz
  1  'x, y, z'
loop_
 _atom_site_type_symbol
 _atom_site_label
 _atom_site_symmetry_multiplicity
 _atom_site_fract_x
 _atom_site_fract_y
 _atom_site_fract_z
 _atom_site_occupancy
  Gd  Gd0  1  0.433625  0.433625  0.433625  1
  Gd  Gd1  1  0.566375  0.566375  0.566375  1
  Al  Al2  1  0.681626  0.681626  0.681626  1
  Al  Al3  1  0.950353  0.950353  0.950353  1
  Al  Al4  1  0.049647  0.049647  0.049647  1
  Al  Al5  1  0.318374  0.318374  0.318374  1
  Al  Al6  1  0.185132  0.185132  0.185132  1
  Al  Al7  1  0.814868  0.814868  0.814868  1
  Si  Si8  1  0.135240  0.135240  0.135240  1
  Si  Si9  1  0.733479  0.733479  0.733479  1
  Si  Si10  1  0.864760  0.864760  0.864760  1
  Si  Si11  1  0.266521  0.266521  0.266521  1
  Pt  Pt12  1  0.000000  0.000000  0.000000  1
