# generated using pymatgen
data_Na2V2ZnO7
_symmetry_space_group_name_H-M   'P 1'
_cell_length_a   5.19202495
_cell_length_b   8.40488345
_cell_length_c   8.40488345
_cell_angle_alpha   90.00000000
_cell_angle_beta   90.00000000
_cell_angle_gamma   90.00000000
_symmetry_Int_Tables_number   1
_chemical_formula_structural   Na2V2ZnO7
_chemical_formula_sum   'Na4 V4 Zn2 O14'
_cell_volume   366.77536820
_cell_formula_units_Z   2
loop_
 _symmetry_equiv_pos_site_id
 _symmetry_equiv_pos_as_xyz
  1  'x, y, z'
loop_
 _atom_site_type_symbol
 _atom_site_label
 _atom_site_symmetry_multiplicity
 _atom_site_fract_x
 _atom_site_fract_y
 _atom_site_fract_z
 _atom_site_occupancy
  Na  Na0  1  0.491948  0.164817  0.664817  1
  Na  Na1  1  0.508052  0.335183  0.164817  1
  Na  Na2  1  0.508052  0.664817  0.835183  1
  Na  Na3  1  0.491948  0.835183  0.335183  1
  V  V4  1  0.923288  0.144969  0.355031  1
  V  V5  1  0.076712  0.644969  0.144969  1
  V  V6  1  0.076712  0.355031  0.855031  1
  V  V7  1  0.923288  0.855031  0.644969  1
  Zn  Zn8  1  0.000000  0.000000  0.000000  1
  Zn  Zn9  1  0.000000  0.500000  0.500000  1
  O  O10  1  0.753625  0.647580  0.147580  1
  O  O11  1  0.798436  0.000000  0.500000  1
  O  O12  1  0.205930  0.829193  0.095348  1
  O  O13  1  0.205930  0.404652  0.670807  1
  O  O14  1  0.246375  0.147580  0.352420  1
  O  O15  1  0.205930  0.170807  0.904652  1
  O  O16  1  0.246375  0.852420  0.647580  1
  O  O17  1  0.201564  0.500000  0.000000  1
  O  O18  1  0.205930  0.595348  0.329193  1
  O  O19  1  0.794070  0.670807  0.595348  1
  O  O20  1  0.794070  0.904652  0.829193  1
  O  O21  1  0.753625  0.352420  0.852420  1
  O  O22  1  0.794070  0.329193  0.404652  1
  O  O23  1  0.794070  0.095348  0.170807  1
