# generated using pymatgen
data_MnSiO3
_symmetry_space_group_name_H-M   'P 1'
_cell_length_a   6.48035153
_cell_length_b   8.12797646
_cell_length_c   13.21346293
_cell_angle_alpha   113.76396109
_cell_angle_beta   84.11423803
_cell_angle_gamma   100.14448859
_symmetry_Int_Tables_number   1
_chemical_formula_structural   MnSiO3
_chemical_formula_sum   'Mn10 Si10 O30'
_cell_volume   626.62842389
_cell_formula_units_Z   10
loop_
 _symmetry_equiv_pos_site_id
 _symmetry_equiv_pos_as_xyz
  1  'x, y, z'
loop_
 _atom_site_type_symbol
 _atom_site_label
 _atom_site_symmetry_multiplicity
 _atom_site_fract_x
 _atom_site_fract_y
 _atom_site_fract_z
 _atom_site_occupancy
  Mn  Mn0  1  0.930767  0.086411  0.247693  1
  Mn  Mn1  1  0.822624  0.390105  0.189244  1
  Mn  Mn2  1  0.177376  0.609895  0.810756  1
  Mn  Mn3  1  0.151305  0.343941  0.492420  1
  Mn  Mn4  1  0.390087  0.231222  0.650362  1
  Mn  Mn5  1  0.848695  0.656059  0.507580  1
  Mn  Mn6  1  0.609913  0.768778  0.349638  1
  Mn  Mn7  1  0.000000  0.000000  0.000000  1
  Mn  Mn8  1  0.069233  0.913589  0.752307  1
  Mn  Mn9  1  0.500000  0.000000  0.000000  1
  Si  Si10  1  0.771941  0.663365  0.070838  1
  Si  Si11  1  0.581920  0.298334  0.879831  1
  Si  Si12  1  0.659648  0.203390  0.453127  1
  Si  Si13  1  0.340352  0.796610  0.546873  1
  Si  Si14  1  0.855590  0.141409  0.647961  1
  Si  Si15  1  0.228059  0.336635  0.929162  1
  Si  Si16  1  0.686789  0.639767  0.832282  1
  Si  Si17  1  0.144410  0.858591  0.352039  1
  Si  Si18  1  0.313211  0.360233  0.167718  1
  Si  Si19  1  0.418080  0.701666  0.120169  1
  O  O20  1  0.789797  0.129801  0.122811  1
  O  O21  1  0.704150  0.858515  0.903438  1
  O  O22  1  0.621839  0.204881  0.960340  1
  O  O23  1  0.117802  0.053336  0.352267  1
  O  O24  1  0.077153  0.268571  0.639635  1
  O  O25  1  0.302832  0.756563  0.242599  1
  O  O26  1  0.109476  0.451420  0.887069  1
  O  O27  1  0.095712  0.384118  0.241319  1
  O  O28  1  0.295850  0.141485  0.096562  1
  O  O29  1  0.940513  0.838001  0.074929  1
  O  O30  1  0.445723  0.289346  0.505111  1
  O  O31  1  0.693880  0.537146  0.929559  1
  O  O32  1  0.059487  0.161999  0.925071  1
  O  O33  1  0.657968  0.024460  0.335497  1
  O  O34  1  0.697168  0.243437  0.757401  1
  O  O35  1  0.306120  0.462854  0.070441  1
  O  O36  1  0.850939  0.358342  0.443024  1
  O  O37  1  0.554277  0.710654  0.494889  1
  O  O38  1  0.904288  0.615882  0.758681  1
  O  O39  1  0.378161  0.795119  0.039660  1
  O  O40  1  0.882198  0.946664  0.647733  1
  O  O41  1  0.210203  0.870199  0.877189  1
  O  O42  1  0.149061  0.641658  0.556976  1
  O  O43  1  0.890524  0.548580  0.112931  1
  O  O44  1  0.342032  0.975540  0.664503  1
  O  O45  1  0.293940  0.873976  0.451172  1
  O  O46  1  0.922847  0.731429  0.360365  1
  O  O47  1  0.706060  0.126024  0.548828  1
  O  O48  1  0.531299  0.455871  0.232394  1
  O  O49  1  0.468701  0.544129  0.767606  1
