# generated using pymatgen
data_Te2WCl6
_symmetry_space_group_name_H-M   'P 1'
_cell_length_a   6.97941770
_cell_length_b   13.03381115
_cell_length_c   13.31520901
_cell_angle_alpha   90.00000000
_cell_angle_beta   90.00000000
_cell_angle_gamma   95.47522330
_symmetry_Int_Tables_number   1
_chemical_formula_structural   Te2WCl6
_chemical_formula_sum   'Te8 W4 Cl24'
_cell_volume   1205.73709649
_cell_formula_units_Z   4
loop_
 _symmetry_equiv_pos_site_id
 _symmetry_equiv_pos_as_xyz
  1  'x, y, z'
loop_
 _atom_site_type_symbol
 _atom_site_label
 _atom_site_symmetry_multiplicity
 _atom_site_fract_x
 _atom_site_fract_y
 _atom_site_fract_z
 _atom_site_occupancy
  Te  Te0  1  0.161048  0.621184  0.546329  1
  Te  Te1  1  0.838952  0.378816  0.453671  1
  Te  Te2  1  0.161048  0.121184  0.953671  1
  Te  Te3  1  0.856629  0.496853  0.625639  1
  Te  Te4  1  0.856629  0.996853  0.874361  1
  Te  Te5  1  0.143371  0.003147  0.125639  1
  Te  Te6  1  0.838952  0.878816  0.046329  1
  Te  Te7  1  0.143371  0.503147  0.374361  1
  W  W8  1  0.642776  0.330783  0.134376  1
  W  W9  1  0.642776  0.830783  0.365624  1
  W  W10  1  0.357224  0.669217  0.865624  1
  W  W11  1  0.357224  0.169217  0.634376  1
  Cl  Cl12  1  0.532402  0.217004  0.779119  1
  Cl  Cl13  1  0.364111  0.866472  0.446720  1
  Cl  Cl14  1  0.921905  0.790806  0.275819  1
  Cl  Cl15  1  0.411909  0.343307  0.579723  1
  Cl  Cl16  1  0.078095  0.209194  0.724181  1
  Cl  Cl17  1  0.695433  0.498598  0.189584  1
  Cl  Cl18  1  0.467598  0.782996  0.220881  1
  Cl  Cl19  1  0.304567  0.001402  0.689584  1
  Cl  Cl20  1  0.172259  0.133857  0.493514  1
  Cl  Cl21  1  0.467598  0.282996  0.279119  1
  Cl  Cl22  1  0.304567  0.501402  0.810416  1
  Cl  Cl23  1  0.635889  0.633528  0.946720  1
  Cl  Cl24  1  0.172259  0.633857  0.006486  1
  Cl  Cl25  1  0.078095  0.709194  0.775819  1
  Cl  Cl26  1  0.827741  0.366143  0.993514  1
  Cl  Cl27  1  0.364111  0.366472  0.053280  1
  Cl  Cl28  1  0.921905  0.290806  0.224181  1
  Cl  Cl29  1  0.695433  0.998598  0.310416  1
  Cl  Cl30  1  0.588091  0.656693  0.420277  1
  Cl  Cl31  1  0.827741  0.866143  0.506486  1
  Cl  Cl32  1  0.635889  0.133528  0.553280  1
  Cl  Cl33  1  0.588091  0.156693  0.079723  1
  Cl  Cl34  1  0.532402  0.717004  0.720881  1
  Cl  Cl35  1  0.411909  0.843307  0.920277  1
