# generated using pymatgen
data_Mo2NCl8
_symmetry_space_group_name_H-M   'P 1'
_cell_length_a   6.57931134
_cell_length_b   10.28599835
_cell_length_c   18.33184200
_cell_angle_alpha   101.59904984
_cell_angle_beta   90.00000000
_cell_angle_gamma   90.00000000
_symmetry_Int_Tables_number   1
_chemical_formula_structural   Mo2NCl8
_chemical_formula_sum   'Mo8 N4 Cl32'
_cell_volume   1215.26859676
_cell_formula_units_Z   4
loop_
 _symmetry_equiv_pos_site_id
 _symmetry_equiv_pos_as_xyz
  1  'x, y, z'
loop_
 _atom_site_type_symbol
 _atom_site_label
 _atom_site_symmetry_multiplicity
 _atom_site_fract_x
 _atom_site_fract_y
 _atom_site_fract_z
 _atom_site_occupancy
  Mo  Mo0  1  0.544587  0.618767  0.532803  1
  Mo  Mo1  1  0.677262  0.166998  0.244839  1
  Mo  Mo2  1  0.456594  0.490646  0.208193  1
  Mo  Mo3  1  0.323066  0.942533  0.496128  1
  Mo  Mo4  1  0.322738  0.166998  0.744839  1
  Mo  Mo5  1  0.676934  0.942533  0.996128  1
  Mo  Mo6  1  0.455413  0.618767  0.032803  1
  Mo  Mo7  1  0.543406  0.490646  0.708193  1
  N  N8  1  0.558817  0.759410  0.013291  1
  N  N9  1  0.559692  0.349397  0.227533  1
  N  N10  1  0.440308  0.349397  0.727533  1
  N  N11  1  0.441183  0.759410  0.513291  1
  Cl  Cl12  1  0.184047  0.270624  0.854910  1
  Cl  Cl13  1  0.358528  0.139886  0.289478  1
  Cl  Cl14  1  0.804956  0.965213  0.256097  1
  Cl  Cl15  1  0.152477  0.608570  0.972827  1
  Cl  Cl16  1  0.065547  0.899183  0.570670  1
  Cl  Cl17  1  0.817244  0.839465  0.886235  1
  Cl  Cl18  1  0.641719  0.968898  0.450386  1
  Cl  Cl19  1  0.277101  0.554465  0.620376  1
  Cl  Cl20  1  0.686943  0.719277  0.649269  1
  Cl  Cl21  1  0.313057  0.719277  0.149269  1
  Cl  Cl22  1  0.641472  0.139886  0.789478  1
  Cl  Cl23  1  0.358281  0.968898  0.950386  1
  Cl  Cl24  1  0.503055  0.054480  0.120503  1
  Cl  Cl25  1  0.200717  0.145449  0.483857  1
  Cl  Cl26  1  0.496945  0.054480  0.620503  1
  Cl  Cl27  1  0.686650  0.390994  0.590714  1
  Cl  Cl28  1  0.066608  0.210866  0.670258  1
  Cl  Cl29  1  0.847523  0.608570  0.472827  1
  Cl  Cl30  1  0.617825  0.648600  0.294778  1
  Cl  Cl31  1  0.722899  0.554465  0.120376  1
  Cl  Cl32  1  0.815953  0.270624  0.354910  1
  Cl  Cl33  1  0.382175  0.648600  0.794778  1
  Cl  Cl34  1  0.384449  0.461263  0.445958  1
  Cl  Cl35  1  0.799283  0.145449  0.983857  1
  Cl  Cl36  1  0.153587  0.501586  0.268188  1
  Cl  Cl37  1  0.933392  0.210866  0.170258  1
  Cl  Cl38  1  0.195044  0.965213  0.756097  1
  Cl  Cl39  1  0.313350  0.390994  0.090714  1
  Cl  Cl40  1  0.182756  0.839465  0.386235  1
  Cl  Cl41  1  0.846413  0.501586  0.768188  1
  Cl  Cl42  1  0.934453  0.899183  0.070670  1
  Cl  Cl43  1  0.615551  0.461263  0.945958  1
