# generated using pymatgen
data_AsXe2F9
_symmetry_space_group_name_H-M   'P 1'
_cell_length_a   8.91444722
_cell_length_b   14.03716697
_cell_length_c   13.99113818
_cell_angle_alpha   68.29670880
_cell_angle_beta   71.47059780
_cell_angle_gamma   71.50201301
_symmetry_Int_Tables_number   1
_chemical_formula_structural   AsXe2F9
_chemical_formula_sum   'As6 Xe12 F54'
_cell_volume   1502.15567182
_cell_formula_units_Z   6
loop_
 _symmetry_equiv_pos_site_id
 _symmetry_equiv_pos_as_xyz
  1  'x, y, z'
loop_
 _atom_site_type_symbol
 _atom_site_label
 _atom_site_symmetry_multiplicity
 _atom_site_fract_x
 _atom_site_fract_y
 _atom_site_fract_z
 _atom_site_occupancy
  As  As0  1  0.823025  0.338278  0.489187  1
  As  As1  1  0.654484  0.161001  0.010004  1
  As  As2  1  0.177682  0.661637  0.509535  1
  As  As3  1  0.347121  0.836959  0.992201  1
  As  As4  1  0.496663  0.002097  0.497345  1
  As  As5  1  0.000361  0.497562  0.001782  1
  Xe  Xe6  1  0.144729  0.195422  0.918805  1
  Xe  Xe7  1  0.721984  0.051083  0.730655  1
  Xe  Xe8  1  0.504840  0.449135  0.768859  1
  Xe  Xe9  1  0.276514  0.949760  0.270633  1
  Xe  Xe10  1  0.731461  0.672708  0.769826  1
  Xe  Xe11  1  0.265830  0.324695  0.232980  1
  Xe  Xe12  1  0.173461  0.827014  0.730474  1
  Xe  Xe13  1  0.824832  0.173618  0.268971  1
  Xe  Xe14  1  0.853413  0.803252  0.083166  1
  Xe  Xe15  1  0.494607  0.548478  0.231493  1
  Xe  Xe16  1  0.264043  0.302776  0.582276  1
  Xe  Xe17  1  0.739759  0.694553  0.418737  1
  F  F18  1  0.626886  0.046958  0.996582  1
  F  F19  1  0.764699  0.193214  0.876396  1
  F  F20  1  0.455527  0.867885  0.857894  1
  F  F21  1  0.359713  0.946026  0.477781  1
  F  F22  1  0.184228  0.630591  0.643530  1
  F  F23  1  0.531612  0.763376  0.032129  1
  F  F24  1  0.988685  0.451411  0.902585  1
  F  F25  1  0.169639  0.694005  0.375629  1
  F  F26  1  0.653385  0.954363  0.399319  1
  F  F27  1  0.683721  0.275362  0.021777  1
  F  F28  1  0.633131  0.058332  0.517296  1
  F  F29  1  0.327968  0.735990  0.469452  1
  F  F30  1  0.364790  0.351376  0.427388  1
  F  F31  1  0.026867  0.587301  0.550498  1
  F  F32  1  0.805977  0.801185  0.748153  1
  F  F33  1  0.976195  0.410791  0.448665  1
  F  F34  1  0.508439  0.868186  0.253188  1
  F  F35  1  0.023356  0.775907  0.520843  1
  F  F36  1  0.212041  0.440285  0.982536  1
  F  F37  1  0.334945  0.474573  0.201513  1
  F  F38  1  0.189861  0.196897  0.254035  1
  F  F39  1  0.961951  0.378038  0.099076  1
  F  F40  1  0.544793  0.128965  0.143885  1
  F  F41  1  0.238092  0.805713  0.126291  1
  F  F42  1  0.637882  0.648413  0.573739  1
  F  F43  1  0.984814  0.977419  0.700143  1
  F  F44  1  0.013550  0.024610  0.301230  1
  F  F45  1  0.815294  0.371671  0.354980  1
  F  F46  1  0.357030  0.699921  0.751672  1
  F  F47  1  0.627491  0.629705  0.249592  1
  F  F48  1  0.831219  0.304882  0.623193  1
  F  F49  1  0.012493  0.543804  0.100769  1
  F  F50  1  0.318917  0.721418  0.982381  1
  F  F51  1  0.162639  0.909900  0.951610  1
  F  F52  1  0.873260  0.744563  0.251217  1
  F  F53  1  0.470879  0.235624  0.969112  1
  F  F54  1  0.038853  0.616987  0.904560  1
  F  F55  1  0.489274  0.131356  0.749203  1
  F  F56  1  0.640812  0.300186  0.245480  1
  F  F57  1  0.838356  0.086783  0.051165  1
  F  F58  1  0.438116  0.121440  0.399056  1
  F  F59  1  0.374816  0.951933  0.003559  1
  F  F60  1  0.339797  0.049381  0.595561  1
  F  F61  1  0.858927  0.854935  0.928057  1
  F  F62  1  0.332165  0.547312  0.497200  1
  F  F63  1  0.788476  0.554556  0.021051  1
  F  F64  1  0.554674  0.882952  0.595370  1
  F  F65  1  0.670511  0.453046  0.502794  1
  F  F66  1  0.371352  0.368448  0.750414  1
  F  F67  1  0.975827  0.223480  0.476984  1
  F  F68  1  0.671214  0.264891  0.528903  1
  F  F69  1  0.665316  0.522420  0.798984  1
  F  F70  1  0.134860  0.147817  0.074318  1
  F  F71  1  0.132881  0.247436  0.750105  1
