# generated using pymatgen
data_MgH12SO10
_symmetry_space_group_name_H-M   'P 1'
_cell_length_a   6.72552258
_cell_length_b   6.72552258
_cell_length_c   26.65524551
_cell_angle_alpha   95.49170106
_cell_angle_beta   84.50829894
_cell_angle_gamma   112.22479974
_symmetry_Int_Tables_number   1
_chemical_formula_structural   MgH12SO10
_chemical_formula_sum   'Mg4 H48 S4 O40'
_cell_volume   1108.67161407
_cell_formula_units_Z   4
loop_
 _symmetry_equiv_pos_site_id
 _symmetry_equiv_pos_as_xyz
  1  'x, y, z'
loop_
 _atom_site_type_symbol
 _atom_site_label
 _atom_site_symmetry_multiplicity
 _atom_site_fract_x
 _atom_site_fract_y
 _atom_site_fract_z
 _atom_site_occupancy
  Mg  Mg0  1  0.000000  0.000000  0.500000  1
  Mg  Mg1  1  0.000000  0.000000  0.000000  1
  Mg  Mg2  1  0.055231  0.055231  0.750000  1
  Mg  Mg3  1  0.944769  0.944769  0.250000  1
  H  H4  1  0.043117  0.835233  0.583085  1
  H  H5  1  0.835233  0.043117  0.916915  1
  H  H6  1  0.956883  0.164767  0.416915  1
  H  H7  1  0.164767  0.956883  0.083085  1
  H  H8  1  0.659491  0.664914  0.529961  1
  H  H9  1  0.664914  0.659491  0.970039  1
  H  H10  1  0.340509  0.335086  0.470039  1
  H  H11  1  0.335086  0.340509  0.029961  1
  H  H12  1  0.259295  0.413564  0.523197  1
  H  H13  1  0.413564  0.259295  0.976803  1
  H  H14  1  0.740705  0.586436  0.476803  1
  H  H15  1  0.586436  0.740705  0.023197  1
  H  H16  1  0.246548  0.035450  0.577916  1
  H  H17  1  0.035450  0.246548  0.922084  1
  H  H18  1  0.753452  0.964550  0.422084  1
  H  H19  1  0.964550  0.753452  0.077916  1
  H  H20  1  0.715525  0.082161  0.541817  1
  H  H21  1  0.082161  0.715525  0.958183  1
  H  H22  1  0.284475  0.917839  0.458183  1
  H  H23  1  0.917839  0.284475  0.041817  1
  H  H24  1  0.386119  0.453309  0.250768  1
  H  H25  1  0.453309  0.386119  0.249232  1
  H  H26  1  0.613881  0.546691  0.749232  1
  H  H27  1  0.546691  0.613881  0.750768  1
  H  H28  1  0.740912  0.105850  0.823619  1
  H  H29  1  0.105850  0.740912  0.676381  1
  H  H30  1  0.259088  0.894150  0.176381  1
  H  H31  1  0.894150  0.259088  0.323619  1
  H  H32  1  0.551740  0.683131  0.835049  1
  H  H33  1  0.683131  0.551740  0.664951  1
  H  H34  1  0.448260  0.316869  0.164951  1
  H  H35  1  0.316869  0.448260  0.335049  1
  H  H36  1  0.333043  0.351193  0.814939  1
  H  H37  1  0.351193  0.333043  0.685061  1
  H  H38  1  0.666957  0.648807  0.185061  1
  H  H39  1  0.648807  0.666957  0.314939  1
  H  H40  1  0.063547  0.668795  0.733940  1
  H  H41  1  0.668795  0.063547  0.766060  1
  H  H42  1  0.936453  0.331205  0.266060  1
  H  H43  1  0.331205  0.936453  0.233940  1
  H  H44  1  0.107707  0.283286  0.673210  1
  H  H45  1  0.283286  0.107707  0.826790  1
  H  H46  1  0.892293  0.716714  0.326790  1
  H  H47  1  0.716714  0.892293  0.173210  1
  H  H48  1  0.652159  0.309908  0.649575  1
  H  H49  1  0.309908  0.652159  0.850425  1
  H  H50  1  0.347841  0.690092  0.350425  1
  H  H51  1  0.690092  0.347841  0.149575  1
  S  S52  1  0.392428  0.745495  0.609587  1
  S  S53  1  0.745495  0.392428  0.890413  1
  S  S54  1  0.607572  0.254505  0.390413  1
  S  S55  1  0.254505  0.607572  0.109587  1
  O  O56  1  0.146000  0.663805  0.624367  1
  O  O57  1  0.663805  0.146000  0.875633  1
  O  O58  1  0.854000  0.336195  0.375633  1
  O  O59  1  0.336195  0.854000  0.124367  1
  O  O60  1  0.577994  0.411339  0.655463  1
  O  O61  1  0.411339  0.577994  0.844537  1
  O  O62  1  0.422006  0.588661  0.344537  1
  O  O63  1  0.588661  0.422006  0.155463  1
  O  O64  1  0.420563  0.609906  0.562361  1
  O  O65  1  0.609906  0.420563  0.937639  1
  O  O66  1  0.579437  0.390094  0.437639  1
  O  O67  1  0.390094  0.579437  0.062361  1
  O  O68  1  0.462989  0.979948  0.596762  1
  O  O69  1  0.979948  0.462989  0.903238  1
  O  O70  1  0.537011  0.020052  0.403238  1
  O  O71  1  0.020052  0.537011  0.096762  1
  O  O72  1  0.789981  0.694688  0.505542  1
  O  O73  1  0.694688  0.789981  0.994458  1
  O  O74  1  0.210019  0.305312  0.494458  1
  O  O75  1  0.305312  0.210019  0.005542  1
  O  O76  1  0.092235  0.979252  0.569819  1
  O  O77  1  0.979252  0.092235  0.930181  1
  O  O78  1  0.907765  0.020748  0.430181  1
  O  O79  1  0.020748  0.907765  0.069819  1
  O  O80  1  -0.021625  0.758353  0.816840  1
  O  O81  1  0.758353  -0.021625  0.683160  1
  O  O82  1  0.021625  0.241647  0.183160  1
  O  O83  1  0.241647  0.021625  0.316840  1
  O  O84  1  0.784822  0.070626  0.785993  1
  O  O85  1  0.070626  0.784822  0.714007  1
  O  O86  1  0.215178  0.929374  0.214007  1
  O  O87  1  0.929374  0.215178  0.285993  1
  O  O88  1  0.283104  0.196763  0.799634  1
  O  O89  1  0.196763  0.283104  0.700366  1
  O  O90  1  0.716896  0.803237  0.200366  1
  O  O91  1  0.803237  0.716896  0.299634  1
  O  O92  1  0.817094  0.148573  0.658647  1
  O  O93  1  0.148573  0.817094  0.841353  1
  O  O94  1  0.182906  0.851427  0.341353  1
  O  O95  1  0.851427  0.182906  0.158647  1
