# generated using pymatgen
data_Al12Si12Ag16S5O48
_symmetry_space_group_name_H-M   'P 1'
_cell_length_a   9.03001871
_cell_length_b   8.98361123
_cell_length_c   17.95618869
_cell_angle_alpha   90.17567189
_cell_angle_beta   89.93642134
_cell_angle_gamma   89.91241249
_symmetry_Int_Tables_number   1
_chemical_formula_structural   Al12Si12Ag16S5O48
_chemical_formula_sum   'Al12 Si12 Ag16 S5 O48'
_cell_volume   1456.63567280
_cell_formula_units_Z   1
loop_
 _symmetry_equiv_pos_site_id
 _symmetry_equiv_pos_as_xyz
  1  'x, y, z'
loop_
 _atom_site_type_symbol
 _atom_site_label
 _atom_site_symmetry_multiplicity
 _atom_site_fract_x
 _atom_site_fract_y
 _atom_site_fract_z
 _atom_site_occupancy
  Al  Al0  1  0.997756  0.750018  0.246932  1
  Al  Al1  1  0.996635  0.250169  0.751174  1
  Al  Al2  1  0.998615  0.750091  0.750831  1
  Al  Al3  1  0.246846  0.499954  0.998969  1
  Al  Al4  1  0.250339  0.501794  0.500379  1
  Al  Al5  1  0.498776  -0.000322  0.372633  1
  Al  Al6  1  0.499966  0.998041  0.123293  1
  Al  Al7  1  0.499063  0.000972  0.625998  1
  Al  Al8  1  0.499721  0.002809  0.874536  1
  Al  Al9  1  0.745720  0.499069  0.998942  1
  Al  Al10  1  0.748803  0.498624  0.500475  1
  Al  Al11  1  0.998190  0.250845  0.246728  1
  Si  Si12  1  0.995782  0.500493  0.123065  1
  Si  Si13  1  0.248612  -0.000581  0.247316  1
  Si  Si14  1  0.247873  0.000970  0.750278  1
  Si  Si15  1  0.498133  0.749336  0.999438  1
  Si  Si16  1  0.499023  0.749119  0.500237  1
  Si  Si17  1  0.499214  0.250843  0.998591  1
  Si  Si18  1  0.500250  0.251324  0.500216  1
  Si  Si19  1  0.748792  0.999778  0.247024  1
  Si  Si20  1  0.748485  0.000804  0.750685  1
  Si  Si21  1  0.999462  0.500271  0.373547  1
  Si  Si22  1  0.999379  0.499563  0.625971  1
  Si  Si23  1  0.995361  0.499276  0.874862  1
  Ag  Ag24  1  0.166314  0.160662  0.076581  1
  Ag  Ag25  1  0.178868  0.181630  0.590510  1
  Ag  Ag26  1  0.180733  0.817182  0.407625  1
  Ag  Ag27  1  0.165779  0.835694  0.918873  1
  Ag  Ag28  1  0.339166  0.339021  0.327291  1
  Ag  Ag29  1  0.349875  0.645198  0.171658  1
  Ag  Ag30  1  0.345344  0.346498  0.828596  1
  Ag  Ag31  1  0.343565  0.659577  0.676768  1
  Ag  Ag32  1  0.642944  0.350824  0.171251  1
  Ag  Ag33  1  0.658973  0.661051  0.326706  1
  Ag  Ag34  1  0.657317  0.343351  0.677589  1
  Ag  Ag35  1  0.652459  0.653211  0.827728  1
  Ag  Ag36  1  0.817572  0.182432  0.407445  1
  Ag  Ag37  1  0.846295  0.838124  0.069533  1
  Ag  Ag38  1  0.846752  0.150442  0.922616  1
  Ag  Ag39  1  0.819127  0.818341  0.590905  1
  S  S40  1  0.107056  0.002409  0.497653  1
  S  S41  1  0.497269  0.499671  0.750562  1
  S  S42  1  0.497559  0.499781  0.256981  1
  S  S43  1  0.005283  0.004797  0.001430  1
  S  S44  1  0.888916  0.997396  0.497409  1
  O  O45  1  0.062426  0.636785  0.174152  1
  O  O46  1  0.058339  0.360100  0.323225  1
  O  O47  1  0.060178  0.639397  0.675676  1
  O  O48  1  0.061406  0.363212  0.823564  1
  O  O49  1  0.132570  0.435803  0.071975  1
  O  O50  1  0.136720  0.437742  0.573859  1
  O  O51  1  0.136780  0.561195  0.425937  1
  O  O52  1  0.132015  0.564247  0.926022  1
  O  O53  1  0.146543  0.137365  0.216881  1
  O  O54  1  0.144788  0.138666  0.718705  1
  O  O55  1  0.146099  0.861639  0.279356  1
  O  O56  1  0.144627  0.864235  0.781616  1
  O  O57  1  0.349579  0.060790  0.317607  1
  O  O58  1  0.351820  0.934768  0.179663  1
  O  O59  1  0.350251  0.063263  0.818167  1
  O  O60  1  0.348539  0.939410  0.680169  1
  O  O61  1  0.363326  0.354644  0.470715  1
  O  O62  1  0.358621  0.648996  0.029784  1
  O  O63  1  0.360451  0.352367  0.968319  1
  O  O64  1  0.358052  0.651755  0.531107  1
  O  O65  1  0.437271  0.143979  0.066010  1
  O  O66  1  0.439092  0.148517  0.568998  1
  O  O67  1  0.441322  0.851469  0.430335  1
  O  O68  1  0.437344  0.856487  0.932017  1
  O  O69  1  0.556916  0.148553  0.429919  1
  O  O70  1  0.564157  0.153156  0.928531  1
  O  O71  1  0.564146  0.848201  0.068915  1
  O  O72  1  0.559317  0.852549  0.569190  1
  O  O73  1  0.633702  0.353252  0.032122  1
  O  O74  1  0.636508  0.646332  0.470801  1
  O  O75  1  0.633083  0.645523  0.966540  1
  O  O76  1  0.641155  0.348317  0.530936  1
  O  O77  1  0.645261  0.065194  0.179931  1
  O  O78  1  0.647913  0.938030  0.317355  1
  O  O79  1  0.648551  0.062520  0.680587  1
  O  O80  1  0.645612  0.935465  0.817701  1
  O  O81  1  0.850942  0.137973  0.279235  1
  O  O82  1  0.849918  0.137698  0.782771  1
  O  O83  1  0.850930  0.862867  0.215834  1
  O  O84  1  0.852144  0.863330  0.718445  1
  O  O85  1  0.862879  0.438572  0.426106  1
  O  O86  1  0.857163  0.434693  0.924806  1
  O  O87  1  0.858515  0.565500  0.072304  1
  O  O88  1  0.863033  0.561988  0.573747  1
  O  O89  1  0.937189  0.360268  0.675429  1
  O  O90  1  0.931369  0.364083  0.174635  1
  O  O91  1  0.939955  0.640669  0.323874  1
  O  O92  1  0.933516  0.637884  0.823596  1
