# generated using pymatgen
data_Nd2Pb5F16
_symmetry_space_group_name_H-M   'P 1'
_cell_length_a   4.22119973
_cell_length_b   4.22119969
_cell_length_c   31.76429965
_cell_angle_alpha   56.70073560
_cell_angle_beta   56.70073592
_cell_angle_gamma   58.29411813
_symmetry_Int_Tables_number   1
_chemical_formula_structural   Nd2Pb5F16
_chemical_formula_sum   'Nd2 Pb5 F16'
_cell_volume   374.48947847
_cell_formula_units_Z   1
loop_
 _symmetry_equiv_pos_site_id
 _symmetry_equiv_pos_as_xyz
  1  'x, y, z'
loop_
 _atom_site_type_symbol
 _atom_site_label
 _atom_site_symmetry_multiplicity
 _atom_site_fract_x
 _atom_site_fract_y
 _atom_site_fract_z
 _atom_site_occupancy
  Nd  Nd0  1  0.978038  0.978038  0.692049  1
  Nd  Nd1  1  0.123054  0.123054  0.840069  1
  Pb  Pb2  1  0.084875  0.084875  0.983039  1
  Pb  Pb3  1  0.045360  0.045360  0.128014  1
  Pb  Pb4  1  0.005012  0.005012  0.268794  1
  Pb  Pb5  1  0.027406  0.027406  0.550074  1
  Pb  Pb6  1  0.069327  0.069327  0.412603  1
  F  F7  1  0.278782  0.278782  0.165846  1
  F  F8  1  0.804886  0.804886  0.093037  1
  F  F9  1  0.279822  0.279822  0.301164  1
  F  F10  1  0.796655  0.796655  0.230047  1
  F  F11  1  0.527852  0.527852  0.377121  1
  F  F12  1  0.665590  0.665590  0.450176  1
  F  F13  1  0.244743  0.244743  0.592610  1
  F  F14  1  0.785748  0.785748  0.519405  1
  F  F15  1  0.439706  0.439706  0.746336  1
  F  F16  1  0.301079  0.301079  0.690131  1
  F  F17  1  0.765761  0.765761  0.645931  1
  F  F18  1  0.344577  0.344577  0.884985  1
  F  F19  1  0.661041  0.661041  0.785228  1
  F  F20  1  0.800357  0.800357  0.841375  1
  F  F21  1  0.324257  0.324257  0.017118  1
  F  F22  1  0.864071  0.864071  0.940561  1
