# generated using pymatgen
data_Na2CrFeF7
_symmetry_space_group_name_H-M   'P 1'
_cell_length_a   7.44705749
_cell_length_b   7.44705751
_cell_length_c   25.06917490
_cell_angle_alpha   89.71974024
_cell_angle_beta   98.88737083
_cell_angle_gamma   119.76175308
_symmetry_Int_Tables_number   1
_chemical_formula_structural   Na2CrFeF7
_chemical_formula_sum   'Na16 Cr8 Fe8 F56'
_cell_volume   1188.24207857
_cell_formula_units_Z   8
loop_
 _symmetry_equiv_pos_site_id
 _symmetry_equiv_pos_as_xyz
  1  'x, y, z'
loop_
 _atom_site_type_symbol
 _atom_site_label
 _atom_site_symmetry_multiplicity
 _atom_site_fract_x
 _atom_site_fract_y
 _atom_site_fract_z
 _atom_site_occupancy
  Na  Na0  1  0.743137  0.115756  0.878388  1
  Na  Na1  1  0.961722  0.211722  0.750000  1
  Na  Na2  1  0.455476  0.207312  0.752468  1
  Na  Na3  1  0.500000  0.000000  0.500000  1
  Na  Na4  1  0.256863  0.884244  0.121612  1
  Na  Na5  1  0.000000  0.000000  0.000000  1
  Na  Na6  1  0.737368  0.864749  0.621612  1
  Na  Na7  1  0.954844  0.703008  0.747532  1
  Na  Na8  1  0.262632  0.135251  0.378388  1
  Na  Na9  1  0.500000  0.500000  0.000000  1
  Na  Na10  1  0.000000  0.500000  0.500000  1
  Na  Na11  1  0.544524  0.792688  0.247532  1
  Na  Na12  1  0.500000  0.000000  0.000000  1
  Na  Na13  1  0.045156  0.296992  0.252468  1
  Na  Na14  1  0.500000  0.500000  0.500000  1
  Na  Na15  1  0.038278  0.788278  0.250000  1
  Cr  Cr16  1  0.263693  0.636852  0.374053  1
  Cr  Cr17  1  0.237201  0.110360  0.874053  1
  Cr  Cr18  1  0.736307  0.363148  0.625947  1
  Cr  Cr19  1  0.762799  0.889640  0.125947  1
  Cr  Cr20  1  0.498820  0.248820  0.250000  1
  Cr  Cr21  1  0.000000  0.000000  0.500000  1
  Cr  Cr22  1  0.000000  0.500000  0.000000  1
  Cr  Cr23  1  0.501180  0.751180  0.750000  1
  Fe  Fe24  1  0.759576  0.386875  0.127821  1
  Fe  Fe25  1  0.240424  0.613125  0.872179  1
  Fe  Fe26  1  0.762105  0.134851  0.373845  1
  Fe  Fe27  1  0.237895  0.865149  0.626155  1
  Fe  Fe28  1  0.759054  0.631755  0.372179  1
  Fe  Fe29  1  0.240946  0.368245  0.627821  1
  Fe  Fe30  1  0.261006  0.388259  0.126155  1
  Fe  Fe31  1  0.738994  0.611741  0.873845  1
  F  F32  1  0.058387  0.341361  0.357246  1
  F  F33  1  0.208692  0.583704  0.953889  1
  F  F34  1  0.061306  0.469421  0.155576  1
  F  F35  1  0.348527  0.977832  0.209230  1
  F  F36  1  0.345013  0.363706  0.207141  1
  F  F37  1  0.267270  0.636550  0.789895  1
  F  F38  1  0.268603  0.139297  0.290770  1
  F  F39  1  0.126751  0.294849  0.857948  1
  F  F40  1  0.846099  0.973656  0.204234  1
  F  F41  1  0.269423  0.641865  0.295766  1
  F  F42  1  0.343435  0.862128  0.707141  1
  F  F43  1  0.653346  0.522626  0.289895  1
  F  F44  1  0.681710  0.810656  0.047105  1
  F  F45  1  0.704935  0.361070  0.402292  1
  F  F46  1  0.731397  0.860703  0.709230  1
  F  F47  1  0.063098  0.731197  0.357948  1
  F  F48  1  0.351984  0.929190  0.889808  1
  F  F49  1  0.532971  0.067399  0.608471  1
  F  F50  1  0.259309  0.129217  0.468206  1
  F  F51  1  0.460618  0.537824  0.389808  1
  F  F52  1  0.938694  0.530579  0.844424  1
  F  F53  1  0.263551  0.634605  0.452895  1
  F  F54  1  0.656565  0.137872  0.292859  1
  F  F55  1  0.186155  0.094270  0.655576  1
  F  F56  1  0.648016  0.070810  0.110192  1
  F  F57  1  0.736449  0.365395  0.547105  1
  F  F58  1  0.870184  0.745197  0.453889  1
  F  F59  1  0.129816  0.254803  0.546111  1
  F  F60  1  0.515884  0.298859  0.857246  1
  F  F61  1  0.651473  0.022168  0.790770  1
  F  F62  1  0.161012  0.791104  0.031794  1
  F  F63  1  0.791308  0.416296  0.046111  1
  F  F64  1  0.539382  0.462176  0.610192  1
  F  F65  1  0.153901  0.026344  0.795766  1
  F  F66  1  0.484116  0.701141  0.142754  1
  F  F67  1  0.654987  0.636294  0.792859  1
  F  F68  1  0.958929  0.924501  0.891529  1
  F  F69  1  0.730577  0.358135  0.704234  1
  F  F70  1  0.318290  0.189344  0.952895  1
  F  F71  1  0.458778  0.302643  0.097708  1
  F  F72  1  0.181079  0.419331  0.045033  1
  F  F73  1  0.874299  0.136046  0.454967  1
  F  F74  1  0.936902  0.268803  0.642052  1
  F  F75  1  0.295065  0.638930  0.597708  1
  F  F76  1  0.813845  0.905730  0.344424  1
  F  F77  1  0.125701  0.863954  0.545033  1
  F  F78  1  0.346654  0.477374  0.710105  1
  F  F79  1  0.541222  0.697357  0.902292  1
  F  F80  1  0.873249  0.705151  0.142052  1
  F  F81  1  0.467029  0.932601  0.391529  1
  F  F82  1  0.838988  0.208896  0.968206  1
  F  F83  1  0.941613  0.658639  0.642754  1
  F  F84  1  0.740691  0.870783  0.531794  1
  F  F85  1  0.818921  0.580669  0.954967  1
  F  F86  1  0.732730  0.363450  0.210105  1
  F  F87  1  0.041071  0.075499  0.108471  1
