# generated using pymatgen
data_Al(HO)3
_symmetry_space_group_name_H-M   'P 1'
_cell_length_a   8.98640940
_cell_length_b   4.95247814
_cell_length_c   9.70981661
_cell_angle_alpha   90.46076728
_cell_angle_beta   88.50276931
_cell_angle_gamma   88.51468692
_symmetry_Int_Tables_number   1
_chemical_formula_structural   Al(HO)3
_chemical_formula_sum   'Al8 H24 O24'
_cell_volume   431.82623080
_cell_formula_units_Z   8
loop_
 _symmetry_equiv_pos_site_id
 _symmetry_equiv_pos_as_xyz
  1  'x, y, z'
loop_
 _atom_site_type_symbol
 _atom_site_label
 _atom_site_symmetry_multiplicity
 _atom_site_fract_x
 _atom_site_fract_y
 _atom_site_fract_z
 _atom_site_occupancy
  Al  Al0  1  0.335541  0.000492  0.502398  1
  Al  Al1  1  0.834930  0.496294  0.999223  1
  Al  Al2  1  0.668603  0.002652  0.501901  1
  Al  Al3  1  0.166242  0.507232  0.000343  1
  Al  Al4  1  0.164132  0.509110  0.498537  1
  Al  Al5  1  0.659997  0.997945  0.998621  1
  Al  Al6  1  0.839487  0.493582  0.498646  1
  Al  Al7  1  0.339939  0.999374  0.000211  1
  H  H8  1  0.392073  0.553404  0.619276  1
  H  H9  1  0.890565  0.938519  0.118991  1
  H  H10  1  0.696915  0.307212  0.294401  1
  H  H11  1  0.107996  0.065938  0.882743  1
  H  H12  1  0.807047  0.186440  0.706697  1
  H  H13  1  0.305526  0.318050  0.205431  1
  H  H14  1  0.198782  0.819593  0.294635  1
  H  H15  1  0.695681  0.687122  0.793212  1
  H  H16  1  0.982376  0.849361  0.597956  1
  H  H17  1  0.498653  0.898076  0.202650  1
  H  H18  1  0.015803  0.149863  0.402032  1
  H  H19  1  0.500310  0.340490  0.893735  1
  H  H20  1  0.497130  0.128931  0.705370  1
  H  H21  1  0.996369  0.375464  0.204641  1
  H  H22  1  0.531740  0.676416  0.380430  1
  H  H23  1  0.003601  0.628195  0.795458  1
  H  H24  1  0.194689  0.210303  0.704251  1
  H  H25  1  0.585859  0.436925  0.104992  1
  H  H26  1  0.802142  0.797745  0.294881  1
  H  H27  1  0.304112  0.708013  0.796478  1
  H  H28  1  0.606709  0.544303  0.611867  1
  H  H29  1  0.104240  0.970229  0.113675  1
  H  H30  1  0.423166  0.381338  0.384027  1
  H  H31  1  0.897964  0.024878  0.890232  1
  O  O32  1  0.311205  0.688285  0.613327  1
  O  O33  1  0.806257  0.817988  0.113856  1
  O  O34  1  0.683638  0.323217  0.395956  1
  O  O35  1  0.191547  0.187894  0.885940  1
  O  O36  1  0.815686  0.174768  0.605023  1
  O  O37  1  0.309373  0.321016  0.103344  1
  O  O38  1  0.191447  0.822907  0.396388  1
  O  O39  1  0.688913  0.676141  0.895340  1
  O  O40  1  0.995534  0.652193  0.604185  1
  O  O41  1  0.499525  0.861847  0.102661  1
  O  O42  1  0.007505  0.347190  0.393048  1
  O  O43  1  0.502819  0.142220  0.888820  1
  O  O44  1  0.498181  0.158188  0.604006  1
  O  O45  1  0.996657  0.353538  0.102394  1
  O  O46  1  0.508555  0.868867  0.394059  1
  O  O47  1  0.000811  0.652127  0.897615  1
  O  O48  1  0.185247  0.194061  0.603191  1
  O  O49  1  0.677599  0.323759  0.105393  1
  O  O50  1  0.817914  0.811362  0.395177  1
  O  O51  1  0.317454  0.682694  0.896390  1
  O  O52  1  0.685607  0.677779  0.613436  1
  O  O53  1  0.182341  0.828633  0.112657  1
  O  O54  1  0.322516  0.311475  0.387166  1
  O  O55  1  0.820114  0.167586  0.892708  1
