# generated using pymatgen
data_BaNa4Ti2Si10(BO15)2
_symmetry_space_group_name_H-M   'P 1'
_cell_length_a   7.56758436
_cell_length_b   9.76121520
_cell_length_c   10.19223252
_cell_angle_alpha   121.51299540
_cell_angle_beta   91.06703475
_cell_angle_gamma   94.10742574
_symmetry_Int_Tables_number   1
_chemical_formula_structural   BaNa4Ti2Si10(BO15)2
_chemical_formula_sum   'Ba1 Na4 Ti2 Si10 B2 O30'
_cell_volume   638.81201731
_cell_formula_units_Z   1
loop_
 _symmetry_equiv_pos_site_id
 _symmetry_equiv_pos_as_xyz
  1  'x, y, z'
loop_
 _atom_site_type_symbol
 _atom_site_label
 _atom_site_symmetry_multiplicity
 _atom_site_fract_x
 _atom_site_fract_y
 _atom_site_fract_z
 _atom_site_occupancy
  Ba  Ba0  1  0.000000  0.000000  0.000000  1
  Na  Na1  1  0.573343  0.799035  0.734692  1
  Na  Na2  1  0.564100  0.650350  0.265566  1
  Na  Na3  1  0.435900  0.349650  0.734434  1
  Na  Na4  1  0.426657  0.200965  0.265308  1
  Ti  Ti5  1  0.425189  0.163569  0.893189  1
  Ti  Ti6  1  0.574811  0.836431  0.106811  1
  Si  Si7  1  0.183753  0.562434  0.398329  1
  Si  Si8  1  0.103476  0.057741  0.410597  1
  Si  Si9  1  0.171660  0.348695  0.055003  1
  Si  Si10  1  0.226482  0.785728  0.098424  1
  Si  Si11  1  0.285509  0.922445  0.622763  1
  Si  Si12  1  0.714491  0.077555  0.377237  1
  Si  Si13  1  0.773518  0.214272  0.901576  1
  Si  Si14  1  0.828340  0.651305  0.944997  1
  Si  Si15  1  0.896524  0.942259  0.589403  1
  Si  Si16  1  0.816247  0.437566  0.601671  1
  B  B17  1  0.139858  0.313282  0.457819  1
  B  B18  1  0.860142  0.686718  0.542181  1
  O  O19  1  0.979226  0.589725  0.427663  1
  O  O20  1  0.046088  0.708299  0.976087  1
  O  O21  1  0.113899  0.968148  0.549059  1
  O  O22  1  0.259221  0.320119  0.900611  1
  O  O23  1  0.153165  0.882212  0.271133  1
  O  O24  1  0.208159  0.520407  0.219862  1
  O  O25  1  0.244041  0.223880  0.519169  1
  O  O26  1  0.052963  0.161210  0.320815  1
  O  O27  1  0.253069  0.417007  0.418424  1
  O  O28  1  0.319577  0.731104  0.503488  1
  O  O29  1  0.350610  0.917487  0.074250  1
  O  O30  1  0.286522  0.222067  0.076228  1
  O  O31  1  0.279404  0.953850  0.797254  1
  O  O32  1  0.442207  0.065706  0.665923  1
  O  O33  1  0.380606  0.667896  0.072424  1
  O  O34  1  0.619394  0.332104  0.927576  1
  O  O35  1  0.557793  0.934294  0.334077  1
  O  O36  1  0.720596  0.046150  0.202746  1
  O  O37  1  0.713478  0.777933  0.923772  1
  O  O38  1  0.649390  0.082513  0.925750  1
  O  O39  1  0.680423  0.268896  0.496512  1
  O  O40  1  0.746931  0.582993  0.581576  1
  O  O41  1  0.947037  0.838790  0.679185  1
  O  O42  1  0.755959  0.776120  0.480831  1
  O  O43  1  0.791841  0.479593  0.780138  1
  O  O44  1  0.846835  0.117788  0.728867  1
  O  O45  1  0.740779  0.679881  0.099389  1
  O  O46  1  0.886101  0.031852  0.450941  1
  O  O47  1  0.953912  0.291701  0.023913  1
  O  O48  1  0.020774  0.410275  0.572337  1
