# generated using pymatgen
data_BaLaMnRuO6
_symmetry_space_group_name_H-M   'P 1'
_cell_length_a   5.77729715
_cell_length_b   5.78197619
_cell_length_c   8.11191810
_cell_angle_alpha   90.63588299
_cell_angle_beta   90.00000000
_cell_angle_gamma   90.00000000
_symmetry_Int_Tables_number   1
_chemical_formula_structural   BaLaMnRuO6
_chemical_formula_sum   'Ba2 La2 Mn2 Ru2 O12'
_cell_volume   270.95540268
_cell_formula_units_Z   2
loop_
 _symmetry_equiv_pos_site_id
 _symmetry_equiv_pos_as_xyz
  1  'x, y, z'
loop_
 _atom_site_type_symbol
 _atom_site_label
 _atom_site_symmetry_multiplicity
 _atom_site_fract_x
 _atom_site_fract_y
 _atom_site_fract_z
 _atom_site_occupancy
  Ba  Ba0  1  0.501461  0.500339  0.750898  1
  Ba  Ba1  1  0.998539  0.000339  0.250898  1
  La  La2  1  0.010800  0.018155  0.750860  1
  La  La3  1  0.489200  0.518155  0.250860  1
  Mn  Mn4  1  0.997425  0.504524  0.502957  1
  Mn  Mn5  1  0.502575  0.004524  0.002957  1
  Ru  Ru6  1  0.999554  0.499383  0.000981  1
  Ru  Ru7  1  0.500446  -0.000617  0.500981  1
  O  O8  1  0.009609  0.453235  0.240419  1
  O  O9  1  0.269410  0.745994  0.458340  1
  O  O10  1  0.257957  0.724838  0.037333  1
  O  O11  1  0.242043  0.224838  0.537333  1
  O  O12  1  0.230590  0.245994  0.958340  1
  O  O13  1  0.490391  0.953235  0.740419  1
  O  O14  1  0.501008  0.097269  0.260976  1
  O  O15  1  0.736076  0.716554  0.040870  1
  O  O16  1  0.723800  0.739710  0.456366  1
  O  O17  1  0.776200  0.239710  0.956366  1
  O  O18  1  0.763924  0.216554  0.540870  1
  O  O19  1  0.998992  0.597269  0.760976  1
