# generated using pymatgen
data_H24C8S(NO2)2
_symmetry_space_group_name_H-M   'P 1'
_cell_length_a   10.90208350
_cell_length_b   11.02999304
_cell_length_c   11.08410511
_cell_angle_alpha   89.93272744
_cell_angle_beta   90.05427963
_cell_angle_gamma   90.31973858
_symmetry_Int_Tables_number   1
_chemical_formula_structural   H24C8S(NO2)2
_chemical_formula_sum   'H96 C32 S4 N8 O16'
_cell_volume   1332.84032503
_cell_formula_units_Z   4
loop_
 _symmetry_equiv_pos_site_id
 _symmetry_equiv_pos_as_xyz
  1  'x, y, z'
loop_
 _atom_site_type_symbol
 _atom_site_label
 _atom_site_symmetry_multiplicity
 _atom_site_fract_x
 _atom_site_fract_y
 _atom_site_fract_z
 _atom_site_occupancy
  H  H0  1  0.114401  0.145978  0.796533  1
  H  H1  1  0.115200  0.203950  0.146863  1
  H  H2  1  0.115684  0.353582  0.296211  1
  H  H3  1  0.115210  0.295377  0.646992  1
  H  H4  1  0.115531  0.703727  0.353216  1
  H  H5  1  0.114837  0.645749  0.703810  1
  H  H6  1  0.115196  0.795556  0.853240  1
  H  H7  1  0.115304  0.853428  0.203918  1
  H  H8  1  0.114386  0.083771  0.258870  1
  H  H9  1  0.115097  0.240688  0.415180  1
  H  H10  1  0.114969  0.740611  0.084984  1
  H  H11  1  0.115663  0.415196  0.758830  1
  H  H12  1  0.114564  0.583888  0.241223  1
  H  H13  1  0.115317  0.758915  0.584869  1
  H  H14  1  0.114836  0.258894  0.915417  1
  H  H15  1  0.115294  0.915372  0.740957  1
  H  H16  1  0.231480  0.088433  0.143161  1
  H  H17  1  0.231539  0.142901  0.911809  1
  H  H18  1  0.232525  0.857124  0.088756  1
  H  H19  1  0.232374  0.911748  0.856570  1
  H  H20  1  0.233103  0.356878  0.411709  1
  H  H21  1  0.233377  0.410605  0.642782  1
  H  H22  1  0.232232  0.588031  0.356390  1
  H  H23  1  0.232044  0.642829  0.588838  1
  H  H24  1  0.272806  0.145100  0.647547  1
  H  H25  1  0.269874  0.584831  0.084573  1
  H  H26  1  0.273353  0.646082  0.853562  1
  H  H27  1  0.270632  0.915426  0.584873  1
  H  H28  1  0.269875  0.084328  0.415265  1
  H  H29  1  0.273507  0.353648  0.146288  1
  H  H30  1  0.270733  0.415296  0.915112  1
  H  H31  1  0.273840  0.853639  0.353383  1
  H  H32  1  0.390079  0.237171  0.147324  1
  H  H33  1  0.389318  0.262821  0.648090  1
  H  H34  1  0.390180  0.354502  0.262283  1
  H  H35  1  0.389625  0.146336  0.763941  1
  H  H36  1  0.389982  0.648603  0.736246  1
  H  H37  1  0.389865  0.736428  0.352339  1
  H  H38  1  0.391013  0.851931  0.236495  1
  H  H39  1  0.390525  0.763942  0.851579  1
  H  H40  1  0.387611  0.085665  0.300236  1
  H  H41  1  0.387080  0.201483  0.414889  1
  H  H42  1  0.387692  0.585516  0.200837  1
  H  H43  1  0.388188  0.299199  0.914363  1
  H  H44  1  0.387842  0.414703  0.799226  1
  H  H45  1  0.388025  0.701496  0.085923  1
  H  H46  1  0.388054  0.799144  0.585911  1
  H  H47  1  0.389188  0.914832  0.700489  1
  H  H48  1  0.612890  0.201131  0.585548  1
  H  H49  1  0.613182  0.298582  0.085643  1
  H  H50  1  0.612723  0.414982  0.200831  1
  H  H51  1  0.612685  0.084406  0.700749  1
  H  H52  1  0.612076  0.585386  0.799533  1
  H  H53  1  0.612629  0.798581  0.415131  1
  H  H54  1  0.613302  0.913317  0.298876  1
  H  H55  1  0.613418  0.701008  0.913979  1
  H  H56  1  0.610741  0.147851  0.236019  1
  H  H57  1  0.611423  0.263434  0.352040  1
  H  H58  1  0.611323  0.644326  0.263687  1
  H  H59  1  0.610839  0.237479  0.852179  1
  H  H60  1  0.611545  0.352350  0.735297  1
  H  H61  1  0.612830  0.735504  0.646053  1
  H  H62  1  0.611514  0.761724  0.148514  1
  H  H63  1  0.613036  0.852858  0.761742  1
  H  H64  1  0.729452  0.085000  0.584568  1
  H  H65  1  0.728090  0.644914  0.148225  1
  H  H66  1  0.729242  0.584339  0.915277  1
  H  H67  1  0.729424  0.853203  0.646220  1
  H  H68  1  0.726571  0.146269  0.353429  1
  H  H69  1  0.730308  0.415903  0.085155  1
  H  H70  1  0.727370  0.354596  0.852497  1
  H  H71  1  0.729912  0.915545  0.415105  1
  H  H72  1  0.768863  0.087876  0.858107  1
  H  H73  1  0.769010  0.141903  0.088508  1
  H  H74  1  0.769511  0.357616  0.588177  1
  H  H75  1  0.768785  0.411560  0.358186  1
  H  H76  1  0.768256  0.587190  0.642121  1
  H  H77  1  0.768533  0.641119  0.412587  1
  H  H78  1  0.769822  0.858052  0.911166  1
  H  H79  1  0.769245  0.911000  0.142499  1
  H  H80  1  0.884589  0.084859  0.740590  1
  H  H81  1  0.885233  0.260273  0.085305  1
  H  H82  1  0.885861  0.240615  0.585252  1
  H  H83  1  0.885763  0.416054  0.240736  1
  H  H84  1  0.885327  0.583462  0.758557  1
  H  H85  1  0.885282  0.759080  0.416249  1
  H  H86  1  0.885455  0.740624  0.915345  1
  H  H87  1  0.885964  0.915408  0.259486  1
  H  H88  1  0.884771  0.795591  0.147450  1
  H  H89  1  0.884892  0.147272  0.204188  1
  H  H90  1  0.884978  0.296263  0.353018  1
  H  H91  1  0.886333  0.353455  0.704079  1
  H  H92  1  0.884601  0.646244  0.297219  1
  H  H93  1  0.884796  0.703564  0.646567  1
  H  H94  1  0.885529  0.853769  0.796153  1
  H  H95  1  0.884583  0.204455  0.852909  1
  C  C96  1  0.172199  0.299061  0.357414  1
  C  C97  1  0.171890  0.798971  0.142878  1
  C  C98  1  0.172215  0.357133  0.701031  1
  C  C99  1  0.171741  0.642266  0.298794  1
  C  C100  1  0.171755  0.700675  0.642868  1
  C  C101  1  0.171988  0.857148  0.798746  1
  C  C102  1  0.171439  0.142367  0.201323  1
  C  C103  1  0.171297  0.200781  0.857571  1
  C  C104  1  0.330477  0.640963  0.140872  1
  C  C105  1  0.331055  0.859420  0.640912  1
  C  C106  1  0.329971  0.141253  0.359200  1
  C  C107  1  0.330600  0.358871  0.859038  1
  C  C108  1  0.333310  0.297440  0.202854  1
  C  C109  1  0.332747  0.201934  0.703820  1
  C  C110  1  0.333289  0.797091  0.297000  1
  C  C111  1  0.332944  0.703055  0.797003  1
  C  C112  1  0.667753  0.203107  0.296617  1
  C  C113  1  0.668121  0.297262  0.796075  1
  C  C114  1  0.668171  0.701273  0.204164  1
  C  C115  1  0.669250  0.796242  0.701819  1
  C  C116  1  0.669714  0.141008  0.640993  1
  C  C117  1  0.670235  0.641116  0.858531  1
  C  C118  1  0.669979  0.359331  0.141212  1
  C  C119  1  0.670257  0.858168  0.359126  1
  C  C120  1  0.828042  0.142444  0.798777  1
  C  C121  1  0.828771  0.358324  0.299080  1
  C  C122  1  0.828336  0.700456  0.358718  1
  C  C123  1  0.829059  0.798700  0.857295  1
  C  C124  1  0.828365  0.201544  0.142733  1
  C  C125  1  0.829447  0.299328  0.642460  1
  C  C126  1  0.828447  0.641393  0.700827  1
  C  C127  1  0.828765  0.857174  0.201853  1
  S  S128  1  0.002064  0.999919  0.499707  1
  S  S129  1  0.002062  0.500062  0.999918  1
  S  S130  1  0.552036  0.998601  0.981331  1
  S  S131  1  0.521976  0.500486  0.481485  1
  N  N132  1  0.251665  0.219622  0.280374  1
  N  N133  1  0.251614  0.279952  0.780627  1
  N  N134  1  0.251717  0.719517  0.219411  1
  N  N135  1  0.251811  0.780488  0.719603  1
  N  N136  1  0.749209  0.219668  0.719226  1
  N  N137  1  0.749172  0.280967  0.219523  1
  N  N138  1  0.749717  0.718931  0.779880  1
  N  N139  1  0.749229  0.779648  0.281391  1
  O  O140  1  0.082058  0.078707  0.577834  1
  O  O141  1  0.081695  0.421335  0.077898  1
  O  O142  1  0.082118  0.578942  0.921798  1
  O  O143  1  0.081845  0.921894  0.421344  1
  O  O144  1  0.437771  0.412602  0.542768  1
  O  O145  1  0.492385  0.505063  0.349250  1
  O  O146  1  0.508487  0.624026  0.535523  1
  O  O147  1  0.501084  0.120127  0.013155  1
  O  O148  1  0.525837  0.972367  0.851571  1
  O  O149  1  0.496538  0.902088  0.059343  1
  O  O150  1  0.688922  0.999827  0.999740  1
  O  O151  1  0.652303  0.460495  0.495978  1
  O  O152  1  0.922610  0.078350  0.421562  1
  O  O153  1  0.922275  0.421588  0.921608  1
  O  O154  1  0.923232  0.578483  0.078266  1
  O  O155  1  0.922982  0.920603  0.577723  1
