# generated using pymatgen
data_Nd4CuTe5(ClO5)3
_symmetry_space_group_name_H-M   'P 1'
_cell_length_a   5.73125199
_cell_length_b   11.97953835
_cell_length_c   15.01527882
_cell_angle_alpha   82.37271473
_cell_angle_beta   78.99776664
_cell_angle_gamma   76.16007972
_symmetry_Int_Tables_number   1
_chemical_formula_structural   Nd4CuTe5(ClO5)3
_chemical_formula_sum   'Nd8 Cu2 Te10 Cl6 O30'
_cell_volume   978.47812154
_cell_formula_units_Z   2
loop_
 _symmetry_equiv_pos_site_id
 _symmetry_equiv_pos_as_xyz
  1  'x, y, z'
loop_
 _atom_site_type_symbol
 _atom_site_label
 _atom_site_symmetry_multiplicity
 _atom_site_fract_x
 _atom_site_fract_y
 _atom_site_fract_z
 _atom_site_occupancy
  Nd  Nd0  1  0.770116  0.500000  0.500000  1
  Nd  Nd1  1  0.222809  0.754788  0.426564  1
  Nd  Nd2  1  0.036184  0.210164  0.371092  1
  Nd  Nd3  1  0.249588  0.962039  0.198810  1
  Nd  Nd4  1  0.822614  1.000000  1.000000  1
  Nd  Nd5  1  0.617440  0.789836  0.628908  1
  Nd  Nd6  1  0.404161  0.245212  0.573436  1
  Nd  Nd7  1  0.410437  0.037961  0.801190  1
  Cu  Cu8  1  0.332909  0.500960  0.913383  1
  Cu  Cu9  1  0.747252  0.499040  0.086617  1
  Te  Te10  1  0.201782  0.570404  0.647784  1
  Te  Te11  1  0.519480  0.995845  0.411737  1
  Te  Te12  1  0.853454  0.276041  0.733343  1
  Te  Te13  1  0.927061  0.004155  0.588264  1
  Te  Te14  1  0.356923  0.787473  0.022495  1
  Te  Te15  1  0.419970  0.429596  0.352216  1
  Te  Te16  1  0.057792  0.802768  0.812789  1
  Te  Te17  1  0.166890  0.212527  0.977505  1
  Te  Te18  1  0.862838  0.723959  0.266657  1
  Te  Te19  1  0.673349  0.197232  0.187211  1
  Cl  Cl20  1  0.946149  0.398217  0.221548  1
  Cl  Cl21  1  0.626115  0.388146  0.998564  1
  Cl  Cl22  1  0.012825  0.611854  0.001436  1
  Cl  Cl23  1  0.240491  0.377375  0.821658  1
  Cl  Cl24  1  0.439524  0.622625  0.178342  1
  Cl  Cl25  1  0.565914  0.601783  0.778452  1
  O  O26  1  0.967341  0.623810  0.565324  1
  O  O27  1  0.433978  0.872058  0.495490  1
  O  O28  1  0.654046  0.340341  0.425955  1
  O  O29  1  0.483295  0.122164  0.935552  1
  O  O30  1  0.408218  0.437185  0.593531  1
  O  O31  1  0.801527  0.127942  0.504510  1
  O  O32  1  0.655049  0.187153  0.698572  1
  O  O33  1  0.933232  0.360218  0.618345  1
  O  O34  1  0.070273  0.853285  0.103414  1
  O  O35  1  0.315177  0.117608  0.482064  1
  O  O36  1  0.018925  0.835402  0.297782  1
  O  O37  1  0.911795  0.639782  0.381655  1
  O  O38  1  0.608048  0.991380  0.648665  1
  O  O39  1  0.540775  0.812847  0.301428  1
  O  O40  1  0.578125  0.068335  0.151751  1
  O  O41  1  0.156476  0.376190  0.434676  1
  O  O42  1  0.436881  0.224925  0.295266  1
  O  O43  1  0.290405  0.883149  0.740741  1
  O  O44  1  0.026972  0.146715  0.896586  1
  O  O45  1  0.798211  0.931665  0.848249  1
  O  O46  1  0.248094  0.008620  0.351335  1
  O  O47  1  0.420343  0.659659  0.574045  1
  O  O48  1  0.152109  0.164598  0.702218  1
  O  O49  1  0.541010  0.877836  0.064448  1
  O  O50  1  0.914849  0.882392  0.517936  1
  O  O51  1  0.914294  0.116851  0.259259  1
  O  O52  1  0.058953  0.101554  0.075036  1
  O  O53  1  0.235543  0.898446  0.924964  1
  O  O54  1  0.957072  0.775075  0.704734  1
  O  O55  1  0.438935  0.562815  0.406469  1
