# generated using pymatgen
data_H2CO2
_symmetry_space_group_name_H-M   'P 1'
_cell_length_a   9.80011576
_cell_length_b   3.89668061
_cell_length_c   5.97549838
_cell_angle_alpha   90.00000000
_cell_angle_beta   90.00000000
_cell_angle_gamma   90.00000000
_symmetry_Int_Tables_number   1
_chemical_formula_structural   H2CO2
_chemical_formula_sum   'H8 C4 O8'
_cell_volume   228.19186042
_cell_formula_units_Z   4
loop_
 _symmetry_equiv_pos_site_id
 _symmetry_equiv_pos_as_xyz
  1  'x, y, z'
loop_
 _atom_site_type_symbol
 _atom_site_label
 _atom_site_symmetry_multiplicity
 _atom_site_fract_x
 _atom_site_fract_y
 _atom_site_fract_z
 _atom_site_occupancy
  H  H0  1  0.522598  0.358639  0.916693  1
  H  H1  1  0.477402  0.641361  0.416693  1
  H  H2  1  0.977402  0.858639  0.416693  1
  H  H3  1  0.022598  0.141361  0.916693  1
  H  H4  1  0.816487  0.197525  0.093905  1
  H  H5  1  0.183513  0.802475  0.593905  1
  H  H6  1  0.683513  0.697525  0.593905  1
  H  H7  1  0.316487  0.302475  0.093905  1
  C  C8  1  0.629139  0.254045  0.187209  1
  C  C9  1  0.370861  0.745955  0.687209  1
  C  C10  1  0.870861  0.754045  0.687209  1
  C  C11  1  0.129139  0.245955  0.187209  1
  O  O12  1  0.511196  0.328212  0.082310  1
  O  O13  1  0.488804  0.671788  0.582310  1
  O  O14  1  0.988804  0.828212  0.582310  1
  O  O15  1  0.011196  0.171788  0.082310  1
  O  O16  1  0.724567  0.240977  0.030895  1
  O  O17  1  0.275433  0.759023  0.530895  1
  O  O18  1  0.775433  0.740977  0.530895  1
  O  O19  1  0.224567  0.259023  0.030895  1
