# generated using pymatgen
data_Cu3SbS3
_symmetry_space_group_name_H-M   'P 1'
_cell_length_a   8.73589322
_cell_length_b   8.73596141
_cell_length_c   8.73594612
_cell_angle_alpha   109.47021739
_cell_angle_beta   109.47162913
_cell_angle_gamma   109.47354663
_symmetry_Int_Tables_number   1
_chemical_formula_structural   Cu3SbS3
_chemical_formula_sum   'Cu12 Sb4 S12'
_cell_volume   513.21199732
_cell_formula_units_Z   4
loop_
 _symmetry_equiv_pos_site_id
 _symmetry_equiv_pos_as_xyz
  1  'x, y, z'
loop_
 _atom_site_type_symbol
 _atom_site_label
 _atom_site_symmetry_multiplicity
 _atom_site_fract_x
 _atom_site_fract_y
 _atom_site_fract_z
 _atom_site_occupancy
  Cu  Cu0  1  0.999963  0.815882  0.815899  1
  Cu  Cu1  1  0.500099  0.750109  0.250178  1
  Cu  Cu2  1  0.750176  0.499922  0.249805  1
  Cu  Cu3  1  0.250081  0.750111  0.500116  1
  Cu  Cu4  1  0.183874  0.999983  0.183991  1
  Cu  Cu5  1  0.000005  0.184099  0.184021  1
  Cu  Cu6  1  0.183875  0.183779  0.999940  1
  Cu  Cu7  1  0.499837  0.249797  0.749946  1
  Cu  Cu8  1  0.815995  0.815979  0.999828  1
  Cu  Cu9  1  0.749950  0.250238  0.500232  1
  Cu  Cu10  1  0.250064  0.499982  0.749912  1
  Cu  Cu11  1  0.815962  0.999981  0.815986  1
  Sb  Sb12  1  0.000069  0.000011  0.449982  1
  Sb  Sb13  1  0.999955  0.449935  -0.000003  1
  Sb  Sb14  1  0.550051  0.550054  0.550088  1
  Sb  Sb15  1  0.449938  0.000018  0.999951  1
  S  S16  1  0.470768  0.225704  0.471136  1
  S  S17  1  0.528931  0.000087  0.754687  1
  S  S18  1  0.244991  0.774378  0.245337  1
  S  S19  1  0.225695  0.471057  0.470825  1
  S  S20  1  0.245397  0.245194  0.774315  1
  S  S21  1  0.470873  0.470588  0.225629  1
  S  S22  1  0.755041  0.000171  0.529458  1
  S  S23  1  0.000066  0.754760  0.529060  1
  S  S24  1  0.529258  0.754863  0.999872  1
  S  S25  1  0.774385  0.245185  0.245175  1
  S  S26  1  0.000168  0.529331  0.754952  1
  S  S27  1  0.754531  0.528803  0.999684  1
