# generated using pymatgen
data_Tb4F15
_symmetry_space_group_name_H-M   'P 1'
_cell_length_a   8.60701081
_cell_length_b   8.60568065
_cell_length_c   8.60781837
_cell_angle_alpha   99.00207401
_cell_angle_beta   98.89454990
_cell_angle_gamma   98.87373616
_symmetry_Int_Tables_number   1
_chemical_formula_structural   Tb4F15
_chemical_formula_sum   'Tb8 F30'
_cell_volume   611.65644303
_cell_formula_units_Z   2
loop_
 _symmetry_equiv_pos_site_id
 _symmetry_equiv_pos_as_xyz
  1  'x, y, z'
loop_
 _atom_site_type_symbol
 _atom_site_label
 _atom_site_symmetry_multiplicity
 _atom_site_fract_x
 _atom_site_fract_y
 _atom_site_fract_z
 _atom_site_occupancy
  Tb  Tb0  1  0.749999  0.750059  0.749927  1
  Tb  Tb1  1  0.250002  0.683446  0.816679  1
  Tb  Tb2  1  0.183612  0.750257  0.316542  1
  Tb  Tb3  1  0.316360  0.183418  0.749682  1
  Tb  Tb4  1  0.250009  0.249986  0.250015  1
  Tb  Tb5  1  0.683533  0.816744  0.250146  1
  Tb  Tb6  1  0.816404  0.249773  0.683336  1
  Tb  Tb7  1  0.750069  0.316382  0.183597  1
  F  F8  1  0.038346  0.461477  0.749827  1
  F  F9  1  0.843315  0.315806  0.952955  1
  F  F10  1  0.227574  0.987396  0.226853  1
  F  F11  1  0.952864  0.843415  0.315701  1
  F  F12  1  0.273043  0.512663  0.272553  1
  F  F13  1  0.538269  0.249907  0.961590  1
  F  F14  1  0.343402  0.452860  0.815749  1
  F  F15  1  0.727436  0.726872  0.487358  1
  F  F16  1  0.512830  0.272479  0.273183  1
  F  F17  1  0.452961  0.815730  0.343292  1
  F  F18  1  0.773054  0.772466  0.012528  1
  F  F19  1  0.315723  0.953066  0.843435  1
  F  F20  1  0.750062  0.038628  0.461424  1
  F  F21  1  0.012758  0.773214  0.772412  1
  F  F22  1  0.184386  0.656635  0.547047  1
  F  F23  1  0.815644  0.343376  0.453042  1
  F  F24  1  0.987237  0.226689  0.227521  1
  F  F25  1  0.249921  0.961268  0.538540  1
  F  F26  1  0.684271  0.046987  0.156539  1
  F  F27  1  0.227135  0.227496  0.987409  1
  F  F28  1  0.547021  0.184215  0.656694  1
  F  F29  1  0.487235  0.727553  0.726895  1
  F  F30  1  0.272467  0.273149  0.512518  1
  F  F31  1  0.656522  0.547044  0.184239  1
  F  F32  1  0.461695  0.750126  0.038414  1
  F  F33  1  0.726961  0.487383  0.727492  1
  F  F34  1  0.047088  0.156648  0.684359  1
  F  F35  1  0.772529  0.012651  0.773190  1
  F  F36  1  0.156607  0.684218  0.047123  1
  F  F37  1  0.961656  0.538517  0.250195  1
