# generated using pymatgen
data_Na7Al10Si14(AgO16)3
_symmetry_space_group_name_H-M   'P 1'
_cell_length_a   12.62723453
_cell_length_b   12.37242409
_cell_length_c   12.18496690
_cell_angle_alpha   89.98587996
_cell_angle_beta   90.12215351
_cell_angle_gamma   89.43940126
_symmetry_Int_Tables_number   1
_chemical_formula_structural   Na7Al10Si14(AgO16)3
_chemical_formula_sum   'Na7 Al10 Si14 Ag3 O48'
_cell_volume   1903.55577983
_cell_formula_units_Z   1
loop_
 _symmetry_equiv_pos_site_id
 _symmetry_equiv_pos_as_xyz
  1  'x, y, z'
loop_
 _atom_site_type_symbol
 _atom_site_label
 _atom_site_symmetry_multiplicity
 _atom_site_fract_x
 _atom_site_fract_y
 _atom_site_fract_z
 _atom_site_occupancy
  Na  Na0  1  0.561172  0.390535  0.998120  1
  Na  Na1  1  0.586853  0.610511  0.999319  1
  Na  Na2  1  0.637279  0.001613  0.504748  1
  Na  Na3  1  0.786104  0.198270  0.196568  1
  Na  Na4  1  0.782388  0.197913  0.811392  1
  Na  Na5  1  0.790345  0.802045  0.193946  1
  Na  Na6  1  0.784680  0.804618  0.817089  1
  Al  Al7  1  0.178681  0.999019  0.375064  1
  Al  Al8  1  0.372527  0.811472  0.998650  1
  Al  Al9  1  0.619714  0.176107  0.999474  1
  Al  Al10  1  0.620158  0.001881  0.197604  1
  Al  Al11  1  0.623186  0.827606  0.000853  1
  Al  Al12  1  0.612169  0.002811  0.798874  1
  Al  Al13  1  0.813344  0.372688  0.998043  1
  Al  Al14  1  0.820846  0.630523  0.998886  1
  Al  Al15  1  0.826835  0.998600  0.365283  1
  Al  Al16  1  0.829182  0.999380  0.642308  1
  Si  Si17  1  0.181450  0.622467  0.003461  1
  Si  Si18  1  0.177711  0.367784  0.001181  1
  Si  Si19  1  0.177618  0.001551  0.629194  1
  Si  Si20  1  0.366708  0.185730  0.995720  1
  Si  Si21  1  0.364710  0.002407  0.181996  1
  Si  Si22  1  0.365734  0.003264  0.810221  1
  Si  Si23  1  0.995714  0.184604  0.633154  1
  Si  Si24  1  0.992720  0.187680  0.374019  1
  Si  Si25  1  0.998039  0.368931  0.185381  1
  Si  Si26  1  0.001115  0.370222  0.814250  1
  Si  Si27  1  0.001137  0.626326  0.188045  1
  Si  Si28  1  0.004242  0.624211  0.812486  1
  Si  Si29  1  0.000280  0.811566  0.370852  1
  Si  Si30  1  0.002085  0.815564  0.634758  1
  Ag  Ag31  1  0.195723  0.808030  0.813539  1
  Ag  Ag32  1  0.193762  0.813555  0.190570  1
  Ag  Ag33  1  0.189399  0.185348  0.201992  1
  O  O34  1  0.003599  0.300316  0.299824  1
  O  O35  1  0.013261  0.295579  0.704940  1
  O  O36  1  0.008380  0.694765  0.302817  1
  O  O37  1  0.004303  0.497522  0.775579  1
  O  O38  1  0.993882  0.785377  0.503768  1
  O  O39  1  0.020097  0.701297  0.704052  1
  O  O40  1  0.100462  0.106843  0.643769  1
  O  O41  1  0.110283  0.651469  0.114645  1
  O  O42  1  0.102023  0.118491  0.355244  1
  O  O43  1  0.109258  0.339138  0.114256  1
  O  O44  1  0.105673  0.349574  0.892834  1
  O  O45  1  0.109500  0.877323  0.344443  1
  O  O46  1  0.111123  0.645148  0.890649  1
  O  O47  1  0.110738  0.887724  0.659182  1
  O  O48  1  0.216734  0.494002  0.008483  1
  O  O49  1  0.223584  0.991575  0.508198  1
  O  O50  1  0.279514  0.012784  0.280954  1
  O  O51  1  0.281162  0.289156  0.997951  1
  O  O52  1  0.270861  0.008435  0.718325  1
  O  O53  1  0.281124  0.701102  0.999531  1
  O  O54  1  0.336274  0.113465  0.105136  1
  O  O55  1  0.347389  0.111505  0.888269  1
  O  O56  1  0.332815  0.894596  0.110185  1
  O  O57  1  0.341134  0.891931  0.881066  1
  O  O58  1  0.498806  0.760293  0.007483  1
  O  O59  1  0.483031  0.002673  0.224275  1
  O  O60  1  0.484653  0.234852  0.004511  1
  O  O61  1  0.478799  0.003088  0.752417  1
  O  O62  1  0.648649  0.118488  0.123863  1
  O  O63  1  0.635737  0.120084  0.872453  1
  O  O64  1  0.654493  0.887483  0.124056  1
  O  O65  1  0.638607  0.888893  0.875670  1
  O  O66  1  0.697297  0.001866  0.317769  1
  O  O67  1  0.700303  0.001395  0.688465  1
  O  O68  1  0.703399  0.290838  0.993453  1
  O  O69  1  0.718266  0.721147  0.991296  1
  O  O70  1  0.759760  0.503769  0.004219  1
  O  O71  1  0.820305  0.993955  0.503799  1
  O  O72  1  0.894869  0.121244  0.683240  1
  O  O73  1  0.892770  0.121023  0.325886  1
  O  O74  1  0.893897  0.338175  0.115192  1
  O  O75  1  0.897859  0.661746  0.118025  1
  O  O76  1  0.893357  0.342590  0.880210  1
  O  O77  1  0.899713  0.657510  0.880348  1
  O  O78  1  0.900970  0.879253  0.685302  1
  O  O79  1  0.898681  0.878402  0.323678  1
  O  O80  1  0.980574  0.221933  0.503924  1
  O  O81  1  0.002224  0.497349  0.215526  1
