# generated using pymatgen
data_Ba2ErCl7
_symmetry_space_group_name_H-M   'P 1'
_cell_length_a   6.91802171
_cell_length_b   10.66440073
_cell_length_c   15.74459393
_cell_angle_alpha   90.00000000
_cell_angle_beta   90.00000000
_cell_angle_gamma   90.69204506
_symmetry_Int_Tables_number   1
_chemical_formula_structural   Ba2ErCl7
_chemical_formula_sum   'Ba8 Er4 Cl28'
_cell_volume   1161.49718308
_cell_formula_units_Z   4
loop_
 _symmetry_equiv_pos_site_id
 _symmetry_equiv_pos_as_xyz
  1  'x, y, z'
loop_
 _atom_site_type_symbol
 _atom_site_label
 _atom_site_symmetry_multiplicity
 _atom_site_fract_x
 _atom_site_fract_y
 _atom_site_fract_z
 _atom_site_occupancy
  Ba  Ba0  1  0.734574  0.823639  0.439179  1
  Ba  Ba1  1  0.264790  0.549128  0.279821  1
  Ba  Ba2  1  0.265426  0.176361  0.560821  1
  Ba  Ba3  1  0.735210  0.450872  0.720179  1
  Ba  Ba4  1  0.265426  0.676361  0.939179  1
  Ba  Ba5  1  0.735210  0.950872  0.779821  1
  Ba  Ba6  1  0.264790  0.049128  0.220179  1
  Ba  Ba7  1  0.734574  0.323639  0.060821  1
  Er  Er8  1  0.783224  0.282037  0.373147  1
  Er  Er9  1  0.783224  0.782037  0.126853  1
  Er  Er10  1  0.216776  0.217963  0.873147  1
  Er  Er11  1  0.216776  0.717963  0.626853  1
  Cl  Cl12  1  0.998035  0.794789  0.271635  1
  Cl  Cl13  1  0.000658  0.927936  0.604471  1
  Cl  Cl14  1  0.127567  0.876120  0.070825  1
  Cl  Cl15  1  0.290142  0.972907  0.860449  1
  Cl  Cl16  1  0.487604  0.198273  0.743217  1
  Cl  Cl17  1  0.512396  0.301727  0.243217  1
  Cl  Cl18  1  0.706319  0.286916  0.539477  1
  Cl  Cl19  1  0.513863  0.586636  0.104977  1
  Cl  Cl20  1  0.293681  0.213084  0.039477  1
  Cl  Cl21  1  0.001965  0.205211  0.728365  1
  Cl  Cl22  1  0.290142  0.472907  0.639551  1
  Cl  Cl23  1  0.709858  0.527093  0.360449  1
  Cl  Cl24  1  0.486137  0.413364  0.895023  1
  Cl  Cl25  1  0.998035  0.294789  0.228365  1
  Cl  Cl26  1  0.127567  0.376120  0.429175  1
  Cl  Cl27  1  0.999342  0.572064  0.104471  1
  Cl  Cl28  1  0.706319  0.786916  0.960523  1
  Cl  Cl29  1  0.872433  0.623880  0.570825  1
  Cl  Cl30  1  0.999342  0.072064  0.395529  1
  Cl  Cl31  1  0.709858  0.027093  0.139551  1
  Cl  Cl32  1  0.513863  0.086636  0.395023  1
  Cl  Cl33  1  0.512396  0.801727  0.256783  1
  Cl  Cl34  1  0.293681  0.713084  0.460523  1
  Cl  Cl35  1  0.000658  0.427936  0.895529  1
  Cl  Cl36  1  0.486137  0.913364  0.604977  1
  Cl  Cl37  1  0.872433  0.123880  0.929175  1
  Cl  Cl38  1  0.001965  0.705211  0.771635  1
  Cl  Cl39  1  0.487604  0.698273  0.756783  1
