# generated using pymatgen
data_Na2UI6
_symmetry_space_group_name_H-M   'P 1'
_cell_length_a   9.13890740
_cell_length_b   9.18623847
_cell_length_c   34.76501940
_cell_angle_alpha   51.45269539
_cell_angle_beta   53.27952008
_cell_angle_gamma   54.11757606
_symmetry_Int_Tables_number   1
_chemical_formula_structural   Na2UI6
_chemical_formula_sum   'Na8 U4 I24'
_cell_volume   1720.25363091
_cell_formula_units_Z   4
loop_
 _symmetry_equiv_pos_site_id
 _symmetry_equiv_pos_as_xyz
  1  'x, y, z'
loop_
 _atom_site_type_symbol
 _atom_site_label
 _atom_site_symmetry_multiplicity
 _atom_site_fract_x
 _atom_site_fract_y
 _atom_site_fract_z
 _atom_site_occupancy
  Na  Na0  1  0.496397  0.498129  0.124508  1
  Na  Na1  1  0.681151  0.675150  0.171323  1
  Na  Na2  1  0.496249  0.496586  0.374972  1
  Na  Na3  1  0.680226  0.674496  0.421688  1
  Na  Na4  1  0.494840  0.501009  0.623648  1
  Na  Na5  1  0.317309  0.326773  0.830367  1
  Na  Na6  1  0.682984  0.679281  0.670282  1
  Na  Na7  1  0.678117  0.669622  0.921417  1
  U  U8  1  0.995125  0.002283  0.000452  1
  U  U9  1  0.001105  0.002482  0.248596  1
  U  U10  1  0.000897  0.002411  0.498852  1
  U  U11  1  0.008718  0.996984  0.748865  1
  I  I12  1  0.091052  0.371654  0.191510  1
  I  I13  1  0.363296  0.775177  0.023388  1
  I  I14  1  0.766689  0.086354  0.098384  1
  I  I15  1  0.247617  0.901932  0.153324  1
  I  I16  1  0.641297  0.238947  0.224278  1
  I  I17  1  0.090370  0.372424  0.441492  1
  I  I18  1  0.896539  0.634603  0.060934  1
  I  I19  1  0.363470  0.776064  0.273256  1
  I  I20  1  0.766592  0.085258  0.347818  1
  I  I21  1  0.247090  0.903116  0.403733  1
  I  I22  1  0.641338  0.240828  0.473874  1
  I  I23  1  0.091195  0.371703  0.691758  1
  I  I24  1  0.895719  0.638106  0.310501  1
  I  I25  1  0.363607  0.775449  0.523335  1
  I  I26  1  0.767064  0.086279  0.597251  1
  I  I27  1  0.247520  0.904286  0.652816  1
  I  I28  1  0.631524  0.242625  0.724748  1
  I  I29  1  0.091119  0.371488  0.940606  1
  I  I30  1  0.897154  0.636798  0.560639  1
  I  I31  1  0.366544  0.759687  0.775001  1
  I  I32  1  0.758240  0.083588  0.846717  1
  I  I33  1  0.242976  0.910655  0.903326  1
  I  I34  1  0.645553  0.232446  0.975531  1
  I  I35  1  0.908320  0.630326  0.809561  1
