# generated using pymatgen
data_CeBC
_symmetry_space_group_name_H-M   'P 1'
_cell_length_a   8.30860887
_cell_length_b   8.33146875
_cell_length_c   12.13935777
_cell_angle_alpha   90.00334486
_cell_angle_beta   90.00281491
_cell_angle_gamma   90.00058517
_symmetry_Int_Tables_number   1
_chemical_formula_structural   CeBC
_chemical_formula_sum   'Ce20 B20 C20'
_cell_volume   840.32173103
_cell_formula_units_Z   20
loop_
 _symmetry_equiv_pos_site_id
 _symmetry_equiv_pos_as_xyz
  1  'x, y, z'
loop_
 _atom_site_type_symbol
 _atom_site_label
 _atom_site_symmetry_multiplicity
 _atom_site_fract_x
 _atom_site_fract_y
 _atom_site_fract_z
 _atom_site_occupancy
  Ce  Ce0  1  0.947819  0.598893  0.861472  1
  Ce  Ce1  1  0.438815  0.302635  0.633448  1
  Ce  Ce2  1  0.842852  0.090628  0.096680  1
  Ce  Ce3  1  0.160080  0.992253  0.917713  1
  Ce  Ce4  1  0.342933  0.409395  0.903207  1
  Ce  Ce5  1  0.052105  0.098905  0.638496  1
  Ce  Ce6  1  0.339873  0.007801  0.417754  1
  Ce  Ce7  1  0.754655  0.790624  0.328423  1
  Ce  Ce8  1  0.254724  0.709486  0.671596  1
  Ce  Ce9  1  0.561187  0.802717  0.866524  1
  Ce  Ce10  1  0.552164  0.401071  0.361526  1
  Ce  Ce11  1  0.839814  0.492159  0.582268  1
  Ce  Ce12  1  0.061115  0.697400  0.133431  1
  Ce  Ce13  1  0.245320  0.290509  0.171607  1
  Ce  Ce14  1  0.938741  0.197268  0.366552  1
  Ce  Ce15  1  0.657114  0.909404  0.596695  1
  Ce  Ce16  1  0.660158  0.507762  0.082269  1
  Ce  Ce17  1  0.745343  0.209402  0.828453  1
  Ce  Ce18  1  0.447942  0.901095  0.138541  1
  Ce  Ce19  1  0.157145  0.590591  0.403333  1
  B  B20  1  0.561640  0.205363  0.180332  1
  B  B21  1  0.438473  0.705308  0.319670  1
  B  B22  1  0.899414  0.480599  0.260513  1
  B  B23  1  0.061489  0.294615  0.819659  1
  B  B24  1  0.478911  0.107487  0.959558  1
  B  B25  1  0.379906  0.596110  0.213616  1
  B  B26  1  0.978816  0.392528  0.040447  1
  B  B27  1  0.120158  0.403860  0.713600  1
  B  B28  1  0.600557  0.519381  0.760501  1
  B  B29  1  0.315374  0.698648  0.991945  1
  B  B30  1  0.684617  0.198720  0.508060  1
  B  B31  1  0.399444  0.019371  0.739479  1
  B  B32  1  0.879848  0.903933  0.786378  1
  B  B33  1  0.620186  0.096137  0.286379  1
  B  B34  1  0.938466  0.794705  0.680315  1
  B  B35  1  0.100509  0.980602  0.239466  1
  B  B36  1  0.521098  0.607423  0.540425  1
  B  B37  1  0.021160  0.892608  0.459559  1
  B  B38  1  0.815323  0.801341  0.008044  1
  B  B39  1  0.184640  0.301205  0.491945  1
  C  C40  1  0.556396  0.616403  0.661150  1
  C  C41  1  0.647406  0.097150  0.408374  1
  C  C42  1  0.472436  0.699058  0.439908  1
  C  C43  1  0.354577  0.006361  0.621315  1
  C  C44  1  0.748243  0.197909  0.623179  1
  C  C45  1  0.852562  0.902895  0.908365  1
  C  C46  1  0.443627  0.116383  0.838843  1
  C  C47  1  0.352572  0.597158  0.091661  1
  C  C48  1  0.027590  0.300933  0.939883  1
  C  C49  1  0.972426  0.800987  0.560111  1
  C  C50  1  0.751825  0.802103  0.123165  1
  C  C51  1  0.943594  0.383600  0.161134  1
  C  C52  1  0.645407  0.506319  0.878658  1
  C  C53  1  0.527659  0.199051  0.060099  1
  C  C54  1  0.854568  0.493673  0.378663  1
  C  C55  1  0.251781  0.697944  0.876867  1
  C  C56  1  0.145302  0.993670  0.121349  1
  C  C57  1  0.147427  0.402824  0.591629  1
  C  C58  1  0.248253  0.302010  0.376901  1
  C  C59  1  0.056423  0.883628  0.338868  1
