# generated using pymatgen
data_ScRe2Si3
_symmetry_space_group_name_H-M   'P 1'
_cell_length_a   5.21757339
_cell_length_b   9.96838295
_cell_length_c   14.66090930
_cell_angle_alpha   90.00015347
_cell_angle_beta   90.00170970
_cell_angle_gamma   105.17781474
_symmetry_Int_Tables_number   1
_chemical_formula_structural   ScRe2Si3
_chemical_formula_sum   'Sc8 Re16 Si24'
_cell_volume   735.92672910
_cell_formula_units_Z   8
loop_
 _symmetry_equiv_pos_site_id
 _symmetry_equiv_pos_as_xyz
  1  'x, y, z'
loop_
 _atom_site_type_symbol
 _atom_site_label
 _atom_site_symmetry_multiplicity
 _atom_site_fract_x
 _atom_site_fract_y
 _atom_site_fract_z
 _atom_site_occupancy
  Sc  Sc0  1  0.643295  0.267369  0.175976  1
  Sc  Sc1  1  0.375165  0.730771  0.175989  1
  Sc  Sc2  1  0.642749  0.267284  0.824425  1
  Sc  Sc3  1  0.141681  0.265969  0.324686  1
  Sc  Sc4  1  0.141594  0.266225  0.675811  1
  Sc  Sc5  1  0.874296  0.731618  0.675863  1
  Sc  Sc6  1  0.874407  0.731632  0.324611  1
  Sc  Sc7  1  0.374683  0.730720  0.824435  1
  Re  Re8  1  0.163601  0.825831  0.500296  1
  Re  Re9  1  0.218054  0.405335  0.883620  1
  Re  Re10  1  0.812105  0.592589  0.116827  1
  Re  Re11  1  0.311974  0.595243  0.389316  1
  Re  Re12  1  0.218398  0.405528  0.116861  1
  Re  Re13  1  0.668506  0.822895  0.000277  1
  Re  Re14  1  0.715236  0.402420  0.611181  1
  Re  Re15  1  0.780933  0.998900  0.268105  1
  Re  Re16  1  0.282369  0.998914  0.768973  1
  Re  Re17  1  0.780106  0.998811  0.732449  1
  Re  Re18  1  0.811882  0.592533  0.883658  1
  Re  Re19  1  0.283057  0.999068  0.231479  1
  Re  Re20  1  0.844498  0.175104  0.000241  1
  Re  Re21  1  0.311841  0.595000  0.611144  1
  Re  Re22  1  0.715445  0.402490  0.389267  1
  Re  Re23  1  0.336200  0.171515  0.500233  1
  Si  Si24  1  0.080715  0.149262  0.144090  1
  Si  Si25  1  0.930477  0.849046  0.144027  1
  Si  Si26  1  0.870739  0.237429  0.500327  1
  Si  Si27  1  0.577189  0.147696  0.356808  1
  Si  Si28  1  0.576047  0.147540  0.643793  1
  Si  Si29  1  0.449333  0.574223  0.000246  1
  Si  Si30  1  0.086552  0.998780  0.610656  1
  Si  Si31  1  0.632621  0.759622  0.500294  1
  Si  Si32  1  0.511726  0.498875  0.747394  1
  Si  Si33  1  0.939392  0.579056  0.500231  1
  Si  Si34  1  0.511972  0.498763  0.253152  1
  Si  Si35  1  0.428292  0.850443  0.356947  1
  Si  Si36  1  0.873600  0.423595  0.000267  1
  Si  Si37  1  0.358658  0.418245  0.500105  1
  Si  Si38  1  0.592479  0.999138  0.109392  1
  Si  Si39  1  0.372663  0.242745  0.000107  1
  Si  Si40  1  0.427659  0.850045  0.643682  1
  Si  Si41  1  0.088017  0.998600  0.389709  1
  Si  Si42  1  0.079252  0.148960  0.856226  1
  Si  Si43  1  0.929757  0.849004  0.856447  1
  Si  Si44  1  0.011809  0.499050  0.747308  1
  Si  Si45  1  0.129452  0.755096  0.000129  1
  Si  Si46  1  0.012257  0.499181  0.253157  1
  Si  Si47  1  0.591167  0.998991  0.891289  1
