# generated using pymatgen
data_CsMnF4
_symmetry_space_group_name_H-M   'P 1'
_cell_length_a   6.44718697
_cell_length_b   8.08189886
_cell_length_c   8.08189886
_cell_angle_alpha   90.00000000
_cell_angle_beta   90.00000000
_cell_angle_gamma   90.00000000
_symmetry_Int_Tables_number   1
_chemical_formula_structural   CsMnF4
_chemical_formula_sum   'Cs4 Mn4 F16'
_cell_volume   421.11148630
_cell_formula_units_Z   4
loop_
 _symmetry_equiv_pos_site_id
 _symmetry_equiv_pos_as_xyz
  1  'x, y, z'
loop_
 _atom_site_type_symbol
 _atom_site_label
 _atom_site_symmetry_multiplicity
 _atom_site_fract_x
 _atom_site_fract_y
 _atom_site_fract_z
 _atom_site_occupancy
  Mn  Mn0  1  0.000000  0.000000  0.000000  1
  Mn  Mn1  1  0.000000  0.500000  0.000000  1
  Mn  Mn2  1  0.000000  0.000000  0.500000  1
  Mn  Mn3  1  0.000000  0.500000  0.500000  1
  Cs  Cs4  1  0.500000  0.750000  0.250000  1
  Cs  Cs5  1  0.500000  0.250000  0.750000  1
  Cs  Cs6  1  0.443523  0.250000  0.250000  1
  Cs  Cs7  1  0.556477  0.750000  0.750000  1
  F  F8  1  0.049030  0.250000  0.997593  1
  F  F9  1  0.049030  0.502407  0.250000  1
  F  F10  1  0.049030  0.997593  0.250000  1
  F  F11  1  0.049030  0.250000  0.502407  1
  F  F12  1  0.950970  0.750000  0.002407  1
  F  F13  1  0.950970  0.750000  0.497593  1
  F  F14  1  0.950970  0.497593  0.750000  1
  F  F15  1  0.950970  0.002407  0.750000  1
  F  F16  1  0.282831  0.972045  0.972045  1
  F  F17  1  0.282831  0.527955  0.972045  1
  F  F18  1  0.282831  0.972045  0.527955  1
  F  F19  1  0.282831  0.527955  0.527955  1
  F  F20  1  0.717169  0.472045  0.027955  1
  F  F21  1  0.717169  0.027955  0.472045  1
  F  F22  1  0.717169  0.472045  0.472045  1
  F  F23  1  0.717169  0.027955  0.027955  1
