# generated using pymatgen
data_La(CuSn)2
_symmetry_space_group_name_H-M   'P 1'
_cell_length_a   4.54087588
_cell_length_b   4.54086595
_cell_length_c   10.55881734
_cell_angle_alpha   89.99988041
_cell_angle_beta   90.00022879
_cell_angle_gamma   90.00002246
_symmetry_Int_Tables_number   1
_chemical_formula_structural   La(CuSn)2
_chemical_formula_sum   'La2 Cu4 Sn4'
_cell_volume   217.71762565
_cell_formula_units_Z   2
loop_
 _symmetry_equiv_pos_site_id
 _symmetry_equiv_pos_as_xyz
  1  'x, y, z'
loop_
 _atom_site_type_symbol
 _atom_site_label
 _atom_site_symmetry_multiplicity
 _atom_site_fract_x
 _atom_site_fract_y
 _atom_site_fract_z
 _atom_site_occupancy
  La  La0  1  0.749996  0.749999  0.760612  1
  La  La1  1  0.250003  0.250000  0.239381  1
  Cu  Cu2  1  0.249999  0.249998  0.633209  1
  Cu  Cu3  1  0.750001  0.750000  0.366816  1
  Cu  Cu4  1  0.249999  0.750000  0.999996  1
  Cu  Cu5  1  0.750000  0.250001  0.999997  1
  Sn  Sn6  1  0.749999  0.250000  0.499998  1
  Sn  Sn7  1  0.249999  0.250000  0.874707  1
  Sn  Sn8  1  0.750000  0.750001  0.125285  1
  Sn  Sn9  1  0.250001  0.750000  0.499998  1
