# generated using pymatgen
data_NpH16C4N8ClO6
_symmetry_space_group_name_H-M   'P 1'
_cell_length_a   8.10593249
_cell_length_b   8.10593249
_cell_length_c   11.79594838
_cell_angle_alpha   84.10904631
_cell_angle_beta   95.89095369
_cell_angle_gamma   82.07351388
_symmetry_Int_Tables_number   1
_chemical_formula_structural   NpH16C4N8ClO6
_chemical_formula_sum   'Np2 H32 C8 N16 Cl2 O12'
_cell_volume   758.22299630
_cell_formula_units_Z   2
loop_
 _symmetry_equiv_pos_site_id
 _symmetry_equiv_pos_as_xyz
  1  'x, y, z'
loop_
 _atom_site_type_symbol
 _atom_site_label
 _atom_site_symmetry_multiplicity
 _atom_site_fract_x
 _atom_site_fract_y
 _atom_site_fract_z
 _atom_site_occupancy
  Np  Np0  1  0.779717  0.779717  0.250000  1
  Np  Np1  1  0.220283  0.220283  0.750000  1
  H  H2  1  0.163251  0.819994  0.335359  1
  H  H3  1  0.819994  0.163251  0.164641  1
  H  H4  1  0.836749  0.180006  0.664641  1
  H  H5  1  0.180006  0.836749  0.835359  1
  H  H6  1  0.352941  0.875446  0.294185  1
  H  H7  1  0.875446  0.352941  0.205815  1
  H  H8  1  0.647059  0.124554  0.705815  1
  H  H9  1  0.124554  0.647059  0.794185  1
  H  H10  1  0.173724  0.012535  0.007102  1
  H  H11  1  0.012535  0.173724  0.492898  1
  H  H12  1  0.826276  0.987465  0.992898  1
  H  H13  1  0.987465  0.826276  0.507102  1
  H  H14  1  0.358810  0.985304  0.105901  1
  H  H15  1  0.985304  0.358810  0.394099  1
  H  H16  1  0.641190  0.014696  0.894099  1
  H  H17  1  0.014696  0.641190  0.605901  1
  H  H18  1  0.915376  0.420481  0.940044  1
  H  H19  1  0.420481  0.915376  0.559956  1
  H  H20  1  0.084624  0.579519  0.059956  1
  H  H21  1  0.579519  0.084624  0.440044  1
  H  H22  1  0.716473  0.455941  0.857981  1
  H  H23  1  0.455941  0.716473  0.642019  1
  H  H24  1  0.283527  0.544059  0.142019  1
  H  H25  1  0.544059  0.283527  0.357981  1
  H  H26  1  0.537599  0.765008  0.012941  1
  H  H27  1  0.765008  0.537599  0.487059  1
  H  H28  1  0.462401  0.234992  0.987059  1
  H  H29  1  0.234992  0.462401  0.512941  1
  H  H30  1  0.509496  0.652238  0.893533  1
  H  H31  1  0.652238  0.509496  0.606467  1
  H  H32  1  0.490504  0.347762  0.106467  1
  H  H33  1  0.347762  0.490504  0.393533  1
  C  C34  1  0.149715  0.909241  0.167658  1
  C  C35  1  0.909241  0.149715  0.332342  1
  C  C36  1  0.850285  0.090759  0.832342  1
  C  C37  1  0.090759  0.850285  0.667658  1
  C  C38  1  0.737569  0.593875  0.993512  1
  C  C39  1  0.593875  0.737569  0.506488  1
  C  C40  1  0.262431  0.406125  0.006488  1
  C  C41  1  0.406125  0.262431  0.493512  1
  N  N42  1  0.228399  0.870717  0.275489  1
  N  N43  1  0.870717  0.228399  0.224511  1
  N  N44  1  0.771601  0.129283  0.724511  1
  N  N45  1  0.129283  0.771601  0.775489  1
  N  N46  1  0.237799  0.966552  0.085360  1
  N  N47  1  0.966552  0.237799  0.414640  1
  N  N48  1  0.762201  0.033448  0.914640  1
  N  N49  1  0.033448  0.762201  0.585360  1
  N  N50  1  0.793354  0.476633  0.927608  1
  N  N51  1  0.476633  0.793354  0.572392  1
  N  N52  1  0.206646  0.523367  0.072392  1
  N  N53  1  0.523367  0.206646  0.427608  1
  N  N54  1  0.584489  0.683747  0.960282  1
  N  N55  1  0.683747  0.584489  0.539718  1
  N  N56  1  0.415511  0.316253  0.039718  1
  N  N57  1  0.316253  0.415511  0.460282  1
  Cl  Cl58  1  0.543169  0.543169  0.250000  1
  Cl  Cl59  1  0.456831  0.456831  0.750000  1
  O  O60  1  0.937929  0.621863  0.342256  1
  O  O61  1  0.621863  0.937929  0.157744  1
  O  O62  1  0.062071  0.378137  0.657744  1
  O  O63  1  0.378137  0.062071  0.842256  1
  O  O64  1  0.996649  0.891368  0.143772  1
  O  O65  1  0.891368  0.996649  0.356228  1
  O  O66  1  0.003351  0.108632  0.856228  1
  O  O67  1  0.108632  0.003351  0.643772  1
  O  O68  1  0.827785  0.618419  0.083734  1
  O  O69  1  0.618419  0.827785  0.416266  1
  O  O70  1  0.172215  0.381581  0.916266  1
  O  O71  1  0.381581  0.172215  0.583734  1
