# generated using pymatgen
data_CoSiO3
_symmetry_space_group_name_H-M   'P 1'
_cell_length_a   5.26525350
_cell_length_b   9.05063384
_cell_length_c   18.39869492
_cell_angle_alpha   90.00000000
_cell_angle_beta   90.00000000
_cell_angle_gamma   90.00000000
_symmetry_Int_Tables_number   1
_chemical_formula_structural   CoSiO3
_chemical_formula_sum   'Co16 Si16 O48'
_cell_volume   876.76922753
_cell_formula_units_Z   16
loop_
 _symmetry_equiv_pos_site_id
 _symmetry_equiv_pos_as_xyz
  1  'x, y, z'
loop_
 _atom_site_type_symbol
 _atom_site_label
 _atom_site_symmetry_multiplicity
 _atom_site_fract_x
 _atom_site_fract_y
 _atom_site_fract_z
 _atom_site_occupancy
  Co  Co0  1  0.626642  0.151613  0.623310  1
  Co  Co1  1  0.859684  0.005777  0.377678  1
  Co  Co2  1  0.640316  0.005777  0.877678  1
  Co  Co3  1  0.140316  0.494223  0.877678  1
  Co  Co4  1  0.140316  0.994223  0.622322  1
  Co  Co5  1  0.373358  0.348387  0.123310  1
  Co  Co6  1  0.373358  0.848387  0.376690  1
  Co  Co7  1  0.359684  0.994223  0.122322  1
  Co  Co8  1  0.859684  0.505777  0.122322  1
  Co  Co9  1  0.626642  0.651613  0.876690  1
  Co  Co10  1  0.873358  0.651613  0.376690  1
  Co  Co11  1  0.640316  0.505777  0.622322  1
  Co  Co12  1  0.873358  0.151613  0.123310  1
  Co  Co13  1  0.126642  0.348387  0.623310  1
  Co  Co14  1  0.359684  0.494223  0.377678  1
  Co  Co15  1  0.126642  0.848387  0.876690  1
  Si  Si16  1  0.556040  0.160371  0.271538  1
  Si  Si17  1  0.291659  0.666400  0.028778  1
  Si  Si18  1  0.708341  0.333600  0.971222  1
  Si  Si19  1  0.056040  0.839629  0.228462  1
  Si  Si20  1  0.791659  0.333600  0.471222  1
  Si  Si21  1  0.556040  0.660371  0.228462  1
  Si  Si22  1  0.943960  0.160371  0.771538  1
  Si  Si23  1  0.208341  0.166400  0.971222  1
  Si  Si24  1  0.443960  0.339629  0.771538  1
  Si  Si25  1  0.056040  0.339629  0.271538  1
  Si  Si26  1  0.791659  0.833600  0.028778  1
  Si  Si27  1  0.708341  0.833600  0.528778  1
  Si  Si28  1  0.291659  0.166400  0.471222  1
  Si  Si29  1  0.943960  0.660371  0.728462  1
  Si  Si30  1  0.443960  0.839629  0.728462  1
  Si  Si31  1  0.208341  0.666400  0.528778  1
  O  O32  1  0.791419  0.836065  0.939448  1
  O  O33  1  0.042494  0.836064  0.317255  1
  O  O34  1  0.906879  0.197652  0.945951  1
  O  O35  1  0.042494  0.336064  0.182745  1
  O  O36  1  0.542494  0.163936  0.182745  1
  O  O37  1  0.708581  0.836065  0.439448  1
  O  O38  1  0.826366  0.732590  0.197504  1
  O  O39  1  0.093121  0.802348  0.054049  1
  O  O40  1  0.457506  0.336064  0.682745  1
  O  O41  1  0.593121  0.197652  0.445951  1
  O  O42  1  0.937386  0.498432  0.690928  1
  O  O43  1  0.689361  0.481367  0.431363  1
  O  O44  1  0.406879  0.802348  0.554049  1
  O  O45  1  0.291419  0.663935  0.939448  1
  O  O46  1  0.673634  0.232590  0.802496  1
  O  O47  1  0.173634  0.267410  0.802496  1
  O  O48  1  0.437386  0.001568  0.690928  1
  O  O49  1  0.310639  0.518633  0.568637  1
  O  O50  1  0.562614  0.498432  0.190928  1
  O  O51  1  0.673634  0.732590  0.697504  1
  O  O52  1  0.810639  0.481367  0.931363  1
  O  O53  1  0.937386  0.998432  0.809072  1
  O  O54  1  0.593121  0.697652  0.054049  1
  O  O55  1  0.906879  0.697652  0.554049  1
  O  O56  1  0.957506  0.663936  0.817255  1
  O  O57  1  0.708581  0.336065  0.060552  1
  O  O58  1  0.810639  0.981367  0.568637  1
  O  O59  1  0.062614  0.501568  0.309072  1
  O  O60  1  0.562614  0.998432  0.309072  1
  O  O61  1  0.173634  0.767410  0.697504  1
  O  O62  1  0.208581  0.163935  0.060552  1
  O  O63  1  0.542494  0.663936  0.317255  1
  O  O64  1  0.437386  0.501568  0.809072  1
  O  O65  1  0.406879  0.302348  0.945951  1
  O  O66  1  0.291419  0.163935  0.560552  1
  O  O67  1  0.826366  0.232590  0.302496  1
  O  O68  1  0.189361  0.018633  0.431363  1
  O  O69  1  0.062614  0.001568  0.190928  1
  O  O70  1  0.457506  0.836064  0.817255  1
  O  O71  1  0.326366  0.767410  0.197504  1
  O  O72  1  0.791419  0.336065  0.560552  1
  O  O73  1  0.326366  0.267410  0.302496  1
  O  O74  1  0.689361  0.981367  0.068637  1
  O  O75  1  0.189361  0.518633  0.068637  1
  O  O76  1  0.957506  0.163936  0.682745  1
  O  O77  1  0.093121  0.302348  0.445951  1
  O  O78  1  0.208581  0.663935  0.439448  1
  O  O79  1  0.310639  0.018633  0.931363  1
