# generated using pymatgen
data_Sb2Te(SeF5)2
_symmetry_space_group_name_H-M   'P 1'
_cell_length_a   15.60949402
_cell_length_b   17.59037016
_cell_length_c   17.69492763
_cell_angle_alpha   90.00000000
_cell_angle_beta   90.00000000
_cell_angle_gamma   90.00000000
_symmetry_Int_Tables_number   1
_chemical_formula_structural   Sb2Te(SeF5)2
_chemical_formula_sum   'Sb32 Te16 Se32 F160'
_cell_volume   4858.61621244
_cell_formula_units_Z   16
loop_
 _symmetry_equiv_pos_site_id
 _symmetry_equiv_pos_as_xyz
  1  'x, y, z'
loop_
 _atom_site_type_symbol
 _atom_site_label
 _atom_site_symmetry_multiplicity
 _atom_site_fract_x
 _atom_site_fract_y
 _atom_site_fract_z
 _atom_site_occupancy
  F  F0  1  0.223984  0.965615  0.404110  1
  F  F1  1  0.723984  0.534385  0.595890  1
  F  F2  1  0.776016  0.465615  0.095890  1
  F  F3  1  0.276016  0.034385  0.904110  1
  F  F4  1  0.776016  0.034385  0.595890  1
  F  F5  1  0.276016  0.465615  0.404110  1
  F  F6  1  0.223984  0.534385  0.904110  1
  F  F7  1  0.723984  0.965615  0.095890  1
  F  F8  1  0.234896  0.971075  0.182132  1
  F  F9  1  0.734896  0.528925  0.817868  1
  F  F10  1  0.765104  0.471075  0.317868  1
  F  F11  1  0.265104  0.028925  0.682132  1
  F  F12  1  0.765104  0.028925  0.817868  1
  F  F13  1  0.265104  0.471075  0.182132  1
  F  F14  1  0.234896  0.528925  0.682132  1
  F  F15  1  0.734896  0.971075  0.317868  1
  F  F16  1  0.249097  0.861741  0.290280  1
  F  F17  1  0.749097  0.638259  0.709720  1
  F  F18  1  0.750903  0.361741  0.209720  1
  F  F19  1  0.250903  0.138259  0.790280  1
  F  F20  1  0.750903  0.138259  0.709720  1
  F  F21  1  0.250903  0.361741  0.290280  1
  F  F22  1  0.249097  0.638259  0.790280  1
  F  F23  1  0.749097  0.861741  0.209720  1
  F  F24  1  0.348638  0.987784  0.293686  1
  F  F25  1  0.848638  0.512216  0.706314  1
  F  F26  1  0.651362  0.487784  0.206314  1
  F  F27  1  0.151362  0.012216  0.793686  1
  F  F28  1  0.651362  0.012216  0.706314  1
  F  F29  1  0.151362  0.487784  0.293686  1
  F  F30  1  0.348638  0.512216  0.793686  1
  F  F31  1  0.848638  0.987784  0.206314  1
  F  F32  1  0.108470  0.949626  0.281590  1
  F  F33  1  0.608470  0.550374  0.718410  1
  F  F34  1  0.891530  0.449626  0.218410  1
  F  F35  1  0.391530  0.050374  0.781590  1
  F  F36  1  0.891530  0.050374  0.718410  1
  F  F37  1  0.391530  0.449626  0.281590  1
  F  F38  1  0.108470  0.550374  0.781590  1
  F  F39  1  0.608470  0.949626  0.218410  1
  F  F40  1  0.204183  0.075087  0.294798  1
  F  F41  1  0.704183  0.424913  0.705202  1
  F  F42  1  0.795817  0.575087  0.205202  1
  F  F43  1  0.295817  0.924913  0.794798  1
  F  F44  1  0.795817  0.924913  0.705202  1
  F  F45  1  0.295817  0.575087  0.294798  1
  F  F46  1  0.204183  0.424913  0.794798  1
  F  F47  1  0.704183  0.075087  0.205202  1
  F  F48  1  0.333148  0.094820  0.144798  1
  F  F49  1  0.833148  0.405180  0.855202  1
  F  F50  1  0.666852  0.594820  0.355202  1
  F  F51  1  0.166852  0.905180  0.644798  1
  F  F52  1  0.666852  0.905180  0.855202  1
  F  F53  1  0.166852  0.594820  0.144798  1
  F  F54  1  0.333148  0.405180  0.644798  1
  F  F55  1  0.833148  0.094820  0.355202  1
  F  F56  1  0.156525  0.107763  0.137301  1
  F  F57  1  0.656525  0.392237  0.862699  1
  F  F58  1  0.843475  0.607763  0.362699  1
  F  F59  1  0.343475  0.892237  0.637301  1
  F  F60  1  0.843475  0.892237  0.862699  1
  F  F61  1  0.343475  0.607763  0.137301  1
  F  F62  1  0.156525  0.392237  0.637301  1
  F  F63  1  0.656525  0.107763  0.362699  1
  F  F64  1  0.263960  0.382460  0.038522  1
  F  F65  1  0.763960  0.117540  0.961478  1
  F  F66  1  0.736040  0.882460  0.461478  1
  F  F67  1  0.236040  0.617540  0.538522  1
  F  F68  1  0.736040  0.617540  0.961478  1
  F  F69  1  0.236040  0.882460  0.038522  1
  F  F70  1  0.263960  0.117540  0.538522  1
  F  F71  1  0.763960  0.382460  0.461478  1
  F  F72  1  0.258824  0.161723  0.019769  1
  F  F73  1  0.758824  0.338277  0.980231  1
  F  F74  1  0.741176  0.661723  0.480231  1
  F  F75  1  0.241176  0.838277  0.519769  1
  F  F76  1  0.741176  0.838277  0.980231  1
  F  F77  1  0.241176  0.661723  0.019769  1
  F  F78  1  0.258824  0.338277  0.519769  1
  F  F79  1  0.758824  0.161723  0.480231  1
  F  F80  1  0.255254  0.278124  0.923506  1
  F  F81  1  0.755254  0.221876  0.076494  1
  F  F82  1  0.744746  0.778124  0.576494  1
  F  F83  1  0.244746  0.721876  0.423506  1
  F  F84  1  0.744746  0.721876  0.076494  1
  F  F85  1  0.244746  0.778124  0.923506  1
  F  F86  1  0.255254  0.221876  0.423506  1
  F  F87  1  0.755254  0.278124  0.576494  1
  F  F88  1  0.267417  0.262063  0.137851  1
  F  F89  1  0.767417  0.237937  0.862149  1
  F  F90  1  0.732583  0.762063  0.362149  1
  F  F91  1  0.232583  0.737937  0.637851  1
  F  F92  1  0.732583  0.737937  0.862149  1
  F  F93  1  0.232583  0.762063  0.137851  1
  F  F94  1  0.267417  0.237937  0.637851  1
  F  F95  1  0.767417  0.262063  0.362149  1
  F  F96  1  0.384912  0.268923  0.024779  1
  F  F97  1  0.884912  0.231077  0.975221  1
  F  F98  1  0.615088  0.768923  0.475221  1
  F  F99  1  0.115088  0.731077  0.524779  1
  F  F100  1  0.615088  0.731077  0.975221  1
  F  F101  1  0.115088  0.768923  0.024779  1
  F  F102  1  0.384912  0.231077  0.524779  1
  F  F103  1  0.884912  0.268923  0.475221  1
  F  F104  1  0.138803  0.271960  0.036543  1
  F  F105  1  0.638803  0.228040  0.963457  1
  F  F106  1  0.861197  0.771960  0.463457  1
  F  F107  1  0.361197  0.728040  0.536543  1
  F  F108  1  0.861197  0.728040  0.963457  1
  F  F109  1  0.361197  0.771960  0.036543  1
  F  F110  1  0.138803  0.228040  0.536543  1
  F  F111  1  0.638803  0.271960  0.463457  1
  F  F112  1  0.054187  0.928830  0.932429  1
  F  F113  1  0.554187  0.571170  0.067571  1
  F  F114  1  0.945813  0.428830  0.567571  1
  F  F115  1  0.445813  0.071170  0.432429  1
  F  F116  1  0.945813  0.071170  0.067571  1
  F  F117  1  0.445813  0.428830  0.932429  1
  F  F118  1  0.054187  0.571170  0.432429  1
  F  F119  1  0.554187  0.928830  0.567571  1
  F  F120  1  0.912334  0.926013  0.020597  1
  F  F121  1  0.412334  0.573987  0.979403  1
  F  F122  1  0.087666  0.426013  0.479403  1
  F  F123  1  0.587666  0.073987  0.520597  1
  F  F124  1  0.087666  0.073987  0.979403  1
  F  F125  1  0.587666  0.426013  0.020597  1
  F  F126  1  0.912334  0.573987  0.520597  1
  F  F127  1  0.412334  0.926013  0.479403  1
  F  F128  1  0.930944  0.036754  0.917657  1
  F  F129  1  0.430944  0.463246  0.082343  1
  F  F130  1  0.069056  0.536754  0.582343  1
  F  F131  1  0.569056  0.963246  0.417657  1
  F  F132  1  0.069056  0.963246  0.082343  1
  F  F133  1  0.569056  0.536754  0.917657  1
  F  F134  1  0.930944  0.463246  0.417657  1
  F  F135  1  0.430944  0.036754  0.582343  1
  F  F136  1  0.892849  0.971980  0.452317  1
  F  F137  1  0.392849  0.528020  0.547683  1
  F  F138  1  0.107151  0.471980  0.047683  1
  F  F139  1  0.607151  0.028020  0.952317  1
  F  F140  1  0.107151  0.028020  0.547683  1
  F  F141  1  0.607151  0.471980  0.452317  1
  F  F142  1  0.892849  0.528020  0.952317  1
  F  F143  1  0.392849  0.971980  0.047683  1
  F  F144  1  0.038461  0.042246  0.405564  1
  F  F145  1  0.538461  0.457754  0.594436  1
  F  F146  1  0.961539  0.542246  0.094436  1
  F  F147  1  0.461539  0.957754  0.905564  1
  F  F148  1  0.961539  0.957754  0.594436  1
  F  F149  1  0.461539  0.542246  0.405564  1
  F  F150  1  0.038461  0.457754  0.905564  1
  F  F151  1  0.538461  0.042246  0.094436  1
  F  F152  1  0.952765  0.096801  0.526357  1
  F  F153  1  0.452765  0.403199  0.473643  1
  F  F154  1  0.047235  0.596801  0.973643  1
  F  F155  1  0.547235  0.903199  0.026357  1
  F  F156  1  0.047235  0.903199  0.473643  1
  F  F157  1  0.547235  0.596801  0.526357  1
  F  F158  1  0.952765  0.403199  0.026357  1
  F  F159  1  0.452765  0.096801  0.973643  1
  Se  Se160  1  0.868259  0.204746  0.219022  1
  Se  Se161  1  0.368259  0.295254  0.780978  1
  Se  Se162  1  0.131741  0.704746  0.280978  1
  Se  Se163  1  0.631741  0.795254  0.719022  1
  Se  Se164  1  0.131741  0.795254  0.780978  1
  Se  Se165  1  0.631741  0.704746  0.219022  1
  Se  Se166  1  0.868259  0.295254  0.719022  1
  Se  Se167  1  0.368259  0.204746  0.280978  1
  Se  Se168  1  0.001352  0.323466  0.313887  1
  Se  Se169  1  0.501352  0.176534  0.686113  1
  Se  Se170  1  0.998648  0.823466  0.186113  1
  Se  Se171  1  0.498648  0.676534  0.813887  1
  Se  Se172  1  0.998648  0.676534  0.686113  1
  Se  Se173  1  0.498648  0.823466  0.313887  1
  Se  Se174  1  0.001352  0.176534  0.813887  1
  Se  Se175  1  0.501352  0.323466  0.186113  1
  Se  Se176  1  0.073473  0.213121  0.346876  1
  Se  Se177  1  0.573473  0.286879  0.653124  1
  Se  Se178  1  0.926527  0.713121  0.153124  1
  Se  Se179  1  0.426527  0.786879  0.846876  1
  Se  Se180  1  0.926527  0.786879  0.653124  1
  Se  Se181  1  0.426527  0.713121  0.346876  1
  Se  Se182  1  0.073473  0.286879  0.846876  1
  Se  Se183  1  0.573473  0.213121  0.153124  1
  Se  Se184  1  0.066286  0.338510  0.196069  1
  Se  Se185  1  0.566286  0.161490  0.803931  1
  Se  Se186  1  0.933714  0.838510  0.303931  1
  Se  Se187  1  0.433714  0.661490  0.696069  1
  Se  Se188  1  0.933714  0.661490  0.803931  1
  Se  Se189  1  0.433714  0.838510  0.196069  1
  Se  Se190  1  0.066286  0.161490  0.696069  1
  Se  Se191  1  0.566286  0.338510  0.303931  1
  Sb  Sb192  1  0.227996  0.968368  0.296705  1
  Sb  Sb193  1  0.727996  0.531632  0.703295  1
  Sb  Sb194  1  0.772004  0.468368  0.203295  1
  Sb  Sb195  1  0.272004  0.031632  0.796705  1
  Sb  Sb196  1  0.772004  0.031632  0.703295  1
  Sb  Sb197  1  0.272004  0.468368  0.296705  1
  Sb  Sb198  1  0.227996  0.531632  0.796705  1
  Sb  Sb199  1  0.727996  0.968368  0.203295  1
  Sb  Sb200  1  0.243222  0.049757  0.083447  1
  Sb  Sb201  1  0.743222  0.450243  0.916553  1
  Sb  Sb202  1  0.756778  0.549757  0.416553  1
  Sb  Sb203  1  0.256778  0.950243  0.583447  1
  Sb  Sb204  1  0.756778  0.950243  0.916553  1
  Sb  Sb205  1  0.256778  0.549757  0.083447  1
  Sb  Sb206  1  0.243222  0.450243  0.583447  1
  Sb  Sb207  1  0.743222  0.049757  0.416553  1
  Sb  Sb208  1  0.262526  0.274492  0.031098  1
  Sb  Sb209  1  0.762526  0.225508  0.968902  1
  Sb  Sb210  1  0.737474  0.774492  0.468902  1
  Sb  Sb211  1  0.237474  0.725508  0.531098  1
  Sb  Sb212  1  0.737474  0.725508  0.968902  1
  Sb  Sb213  1  0.237474  0.774492  0.031098  1
  Sb  Sb214  1  0.262526  0.225508  0.531098  1
  Sb  Sb215  1  0.762526  0.274492  0.468902  1
  Sb  Sb216  1  0.500000  0.000000  0.500000  1
  Sb  Sb217  1  0.000000  0.500000  0.500000  1
  Sb  Sb218  1  0.500000  0.500000  0.000000  1
  Sb  Sb219  1  0.000000  0.000000  0.000000  1
  Sb  Sb220  1  0.000000  0.500000  0.000000  1
  Sb  Sb221  1  0.500000  0.000000  0.000000  1
  Sb  Sb222  1  0.000000  0.000000  0.500000  1
  Sb  Sb223  1  0.500000  0.500000  0.500000  1
  Te  Te224  1  0.994646  0.122199  0.254299  1
  Te  Te225  1  0.494646  0.377801  0.745701  1
  Te  Te226  1  0.005354  0.622199  0.245701  1
  Te  Te227  1  0.505354  0.877801  0.754299  1
  Te  Te228  1  0.005354  0.877801  0.745701  1
  Te  Te229  1  0.505354  0.622199  0.254299  1
  Te  Te230  1  0.994646  0.377801  0.754299  1
  Te  Te231  1  0.494646  0.122199  0.245701  1
  Te  Te232  1  0.992696  0.226139  0.128339  1
  Te  Te233  1  0.492696  0.273861  0.871661  1
  Te  Te234  1  0.007304  0.726139  0.371661  1
  Te  Te235  1  0.507304  0.773861  0.628339  1
  Te  Te236  1  0.007304  0.773861  0.871661  1
  Te  Te237  1  0.507304  0.726139  0.128339  1
  Te  Te238  1  0.992696  0.273861  0.628339  1
  Te  Te239  1  0.492696  0.226139  0.371661  1
