# generated using pymatgen
data_Na25Zr11Sc5Si12(PO8)12
_symmetry_space_group_name_H-M   'P 1'
_cell_length_a   9.11973515
_cell_length_b   9.12563805
_cell_length_c   37.15219592
_cell_angle_alpha   61.16548330
_cell_angle_beta   60.84160157
_cell_angle_gamma   60.39066071
_symmetry_Int_Tables_number   1
_chemical_formula_structural   Na25Zr11Sc5Si12(PO8)12
_chemical_formula_sum   'Na25 Zr11 Sc5 Si12 P12 O96'
_cell_volume   2225.53945786
_cell_formula_units_Z   1
loop_
 _symmetry_equiv_pos_site_id
 _symmetry_equiv_pos_as_xyz
  1  'x, y, z'
loop_
 _atom_site_type_symbol
 _atom_site_label
 _atom_site_symmetry_multiplicity
 _atom_site_fract_x
 _atom_site_fract_y
 _atom_site_fract_z
 _atom_site_occupancy
  Na  Na0  1  0.225325  0.102926  0.076901  1
  Na  Na1  1  0.486147  0.039520  0.123207  1
  Na  Na2  1  0.392708  0.606235  0.187932  1
  Na  Na3  1  0.082439  0.257926  0.461175  1
  Na  Na4  1  0.455498  0.024452  0.370665  1
  Na  Na5  1  0.991155  0.494738  0.004725  1
  Na  Na6  1  0.916136  0.758612  0.047693  1
  Na  Na7  1  0.605443  0.389754  0.316015  1
  Na  Na8  1  0.772975  0.916893  0.170864  1
  Na  Na9  1  0.376875  0.597185  0.442278  1
  Na  Na10  1  0.081477  0.256891  0.711510  1
  Na  Na11  1  0.455987  0.023112  0.621879  1
  Na  Na12  1  0.023383  0.462921  0.248239  1
  Na  Na13  1  0.907369  0.758191  0.296293  1
  Na  Na14  1  0.615487  0.387914  0.565626  1
  Na  Na15  1  0.767390  0.914235  0.422256  1
  Na  Na16  1  0.378007  0.595856  0.692411  1
  Na  Na17  1  0.106209  0.218150  0.951872  1
  Na  Na18  1  0.454220  0.019053  0.875164  1
  Na  Na19  1  0.916647  0.732059  0.539804  1
  Na  Na20  1  0.616194  0.386563  0.815984  1
  Na  Na21  1  0.768573  0.915237  0.671990  1
  Na  Na22  1  0.387859  0.606213  0.941214  1
  Na  Na23  1  0.915850  0.731228  0.790287  1
  Na  Na24  1  0.757903  0.917248  0.922892  1
  Zr  Zr25  1  0.159896  0.636579  0.138232  1
  Zr  Zr26  1  0.644698  0.159149  0.012876  1
  Zr  Zr27  1  0.156813  0.647618  0.388449  1
  Zr  Zr28  1  0.341479  0.856560  0.235052  1
  Zr  Zr29  1  0.644683  0.157042  0.262234  1
  Zr  Zr30  1  0.154417  0.645398  0.639566  1
  Zr  Zr31  1  0.347905  0.846989  0.487101  1
  Zr  Zr32  1  0.641805  0.153701  0.512825  1
  Zr  Zr33  1  0.156060  0.644521  0.889733  1
  Zr  Zr34  1  0.347951  0.846646  0.737177  1
  Zr  Zr35  1  0.641400  0.153083  0.763175  1
  Sc  Sc36  1  0.846799  0.346496  0.112028  1
  Sc  Sc37  1  0.861915  0.341923  0.360508  1
  Sc  Sc38  1  0.864147  0.340329  0.610035  1
  Sc  Sc39  1  0.353961  0.840387  0.986908  1
  Sc  Sc40  1  0.863334  0.337049  0.861024  1
  Si  Si41  1  0.249737  0.458326  0.058883  1
  Si  Si42  1  0.045998  0.955025  0.186529  1
  Si  Si43  1  0.467016  0.247526  0.184490  1
  Si  Si44  1  0.249311  0.460703  0.309737  1
  Si  Si45  1  0.045720  0.961759  0.436811  1
  Si  Si46  1  0.471800  0.248954  0.432186  1
  Si  Si47  1  0.252351  0.459731  0.561228  1
  Si  Si48  1  0.045119  0.961262  0.687058  1
  Si  Si49  1  0.471932  0.247966  0.682438  1
  Si  Si50  1  0.252255  0.458284  0.811535  1
  Si  Si51  1  0.044107  0.952282  0.938721  1
  Si  Si52  1  0.464162  0.248485  0.934127  1
  P  P53  1  0.541034  0.751187  0.063370  1
  P  P54  1  0.957104  0.042882  0.062261  1
  P  P55  1  0.749728  0.537109  0.189603  1
  P  P56  1  0.539074  0.751334  0.313859  1
  P  P57  1  0.949750  0.045999  0.313287  1
  P  P58  1  0.749186  0.536720  0.437483  1
  P  P59  1  0.533538  0.751904  0.565853  1
  P  P60  1  0.948555  0.042422  0.563617  1
  P  P61  1  0.747935  0.535731  0.687605  1
  P  P62  1  0.533377  0.752171  0.815831  1
  P  P63  1  0.948733  0.040692  0.814043  1
  P  P64  1  0.752590  0.536971  0.937319  1
  O  O65  1  0.110590  0.999782  0.021334  1
  O  O66  1  0.006236  0.119096  0.143854  1
  O  O67  1  0.068337  0.432337  0.067580  1
  O  O68  1  0.280619  0.619791  0.013184  1
  O  O69  1  0.107676  0.994172  0.273570  1
  O  O70  1  0.414217  0.265976  0.059748  1
  O  O71  1  0.223628  0.517949  0.097689  1
  O  O72  1  0.057124  0.769273  0.186007  1
  O  O73  1  0.002657  0.134839  0.396167  1
  O  O74  1  0.284824  0.421225  0.181599  1
  O  O75  1  0.441210  0.063257  0.195796  1
  O  O76  1  0.064989  0.445726  0.317607  1
  O  O77  1  0.490581  0.774839  0.026829  1
  O  O78  1  0.780129  0.052623  0.062972  1
  O  O79  1  0.382773  0.725772  0.107536  1
  O  O80  1  0.639069  0.258054  0.141229  1
  O  O81  1  0.239954  0.919977  0.187845  1
  O  O82  1  0.506230  0.242228  0.224273  1
  O  O83  1  0.282107  0.624190  0.263800  1
  O  O84  1  0.559085  0.926688  0.056089  1
  O  O85  1  0.107277  0.999428  0.522236  1
  O  O86  1  0.718497  0.598968  0.066494  1
  O  O87  1  0.426749  0.278895  0.309010  1
  O  O88  1  0.233279  0.520753  0.347288  1
  O  O89  1  0.946649  0.216713  0.062347  1
  O  O90  1  0.064361  0.781039  0.432828  1
  O  O91  1  0.754286  0.493313  0.154109  1
  O  O92  1  0.001798  0.132641  0.646283  1
  O  O93  1  0.589150  0.713181  0.193975  1
  O  O94  1  0.286293  0.418784  0.428918  1
  O  O95  1  0.433731  0.066873  0.446755  1
  O  O96  1  0.721915  0.385669  0.234020  1
  O  O97  1  0.064936  0.443894  0.572942  1
  O  O98  1  0.481057  0.772563  0.278422  1
  O  O99  1  0.775752  0.054897  0.312454  1
  O  O100  1  0.387267  0.722615  0.358457  1
  O  O101  1  0.639083  0.258669  0.387375  1
  O  O102  1  0.234485  0.931759  0.439701  1
  O  O103  1  0.518095  0.245706  0.470455  1
  O  O104  1  0.916661  0.573007  0.179762  1
  O  O105  1  0.282515  0.621759  0.514142  1
  O  O106  1  0.571979  0.918956  0.305422  1
  O  O107  1  0.107773  0.999084  0.772608  1
  O  O108  1  0.713428  0.590943  0.315080  1
  O  O109  1  0.430687  0.279347  0.558152  1
  O  O110  1  0.998319  0.887163  0.103615  1
  O  O111  1  0.251879  0.518549  0.596625  1
  O  O112  1  0.927963  0.228150  0.311005  1
  O  O113  1  0.062465  0.780608  0.683234  1
  O  O114  1  0.741134  0.500409  0.402517  1
  O  O115  1  0.995368  0.120481  0.897467  1
  O  O116  1  0.591613  0.710384  0.444732  1
  O  O117  1  0.285994  0.417958  0.679534  1
  O  O118  1  0.879919  0.995265  0.230865  1
  O  O119  1  0.433144  0.066353  0.696840  1
  O  O120  1  0.737440  0.377633  0.480834  1
  O  O121  1  0.065595  0.440453  0.823359  1
  O  O122  1  0.481412  0.770727  0.529319  1
  O  O123  1  0.775543  0.055583  0.561414  1
  O  O124  1  0.377252  0.733918  0.609137  1
  O  O125  1  0.638963  0.256374  0.637676  1
  O  O126  1  0.234274  0.931634  0.689725  1
  O  O127  1  0.518489  0.244632  0.720635  1
  O  O128  1  0.922576  0.568227  0.425013  1
  O  O129  1  0.281231  0.621659  0.764684  1
  O  O130  1  0.568989  0.921337  0.554974  1
  O  O131  1  0.703646  0.589978  0.568709  1
  O  O132  1  0.431203  0.279298  0.808374  1
  O  O133  1  0.984934  0.895154  0.355211  1
  O  O134  1  0.249777  0.515260  0.847765  1
  O  O135  1  0.926837  0.221126  0.562776  1
  O  O136  1  0.056265  0.767556  0.937448  1
  O  O137  1  0.737217  0.499307  0.653168  1
  O  O138  1  0.592017  0.710601  0.694804  1
  O  O139  1  0.273522  0.418926  0.933878  1
  O  O140  1  0.880779  0.991395  0.481849  1
  O  O141  1  0.429574  0.069227  0.945716  1
  O  O142  1  0.737057  0.377451  0.731089  1
  O  O143  1  0.480021  0.770401  0.779620  1
  O  O144  1  0.776594  0.053813  0.811638  1
  O  O145  1  0.377231  0.733037  0.859413  1
  O  O146  1  0.627694  0.271516  0.888581  1
  O  O147  1  0.232325  0.930020  0.939522  1
  O  O148  1  0.514761  0.242439  0.972341  1
  O  O149  1  0.922876  0.566046  0.674843  1
  O  O150  1  0.567792  0.921577  0.804928  1
  O  O151  1  0.703944  0.590210  0.818577  1
  O  O152  1  0.986404  0.885739  0.604205  1
  O  O153  1  0.925047  0.219837  0.813623  1
  O  O154  1  0.753407  0.498693  0.901334  1
  O  O155  1  0.596399  0.709271  0.943707  1
  O  O156  1  0.880817  0.991065  0.732077  1
  O  O157  1  0.741300  0.373771  0.979904  1
  O  O158  1  0.926726  0.562171  0.927445  1
  O  O159  1  0.986646  0.884177  0.854801  1
  O  O160  1  0.878754  0.987479  0.983633  1
