# generated using pymatgen
data_Nb4GaS8
_symmetry_space_group_name_H-M   'P 1'
_cell_length_a   10.09106141
_cell_length_b   10.08582709
_cell_length_c   10.08582709
_cell_angle_alpha   90.00000000
_cell_angle_beta   90.00000000
_cell_angle_gamma   90.00000000
_symmetry_Int_Tables_number   1
_chemical_formula_structural   Nb4GaS8
_chemical_formula_sum   'Nb16 Ga4 S32'
_cell_volume   1026.50220340
_cell_formula_units_Z   4
loop_
 _symmetry_equiv_pos_site_id
 _symmetry_equiv_pos_as_xyz
  1  'x, y, z'
loop_
 _atom_site_type_symbol
 _atom_site_label
 _atom_site_symmetry_multiplicity
 _atom_site_fract_x
 _atom_site_fract_y
 _atom_site_fract_z
 _atom_site_occupancy
  Nb  Nb0  1  0.140133  0.143538  0.643538  1
  Nb  Nb1  1  0.149286  0.354599  0.854599  1
  Nb  Nb2  1  0.149286  0.645401  0.145401  1
  Nb  Nb3  1  0.355734  0.852191  0.142856  1
  Nb  Nb4  1  0.859867  0.643538  0.856462  1
  Nb  Nb5  1  0.644266  0.352191  0.357144  1
  Nb  Nb6  1  0.355734  0.147809  0.857144  1
  Nb  Nb7  1  0.140133  0.856462  0.356462  1
  Nb  Nb8  1  0.850714  0.145401  0.354599  1
  Nb  Nb9  1  0.644266  0.142856  0.147809  1
  Nb  Nb10  1  0.644266  0.647809  0.642856  1
  Nb  Nb11  1  0.355734  0.357144  0.647809  1
  Nb  Nb12  1  0.644266  0.857144  0.852191  1
  Nb  Nb13  1  0.859867  0.356462  0.143538  1
  Nb  Nb14  1  0.355734  0.642856  0.352191  1
  Nb  Nb15  1  0.850714  0.854599  0.645401  1
  Ga  Ga16  1  0.249847  0.751122  0.748878  1
  Ga  Ga17  1  0.249847  0.248878  0.251122  1
  Ga  Ga18  1  0.750153  0.251122  0.751122  1
  Ga  Ga19  1  0.750153  0.748878  0.248878  1
  S  S20  1  0.613416  0.884698  0.615302  1
  S  S21  1  0.882212  0.383378  0.381010  1
  S  S22  1  0.386584  0.615302  0.115302  1
  S  S23  1  0.882212  0.881010  0.883378  1
  S  S24  1  0.882212  0.616622  0.618990  1
  S  S25  1  0.880354  0.116364  0.616364  1
  S  S26  1  0.117788  0.883378  0.118990  1
  S  S27  1  0.382958  0.884278  0.882377  1
  S  S28  1  0.617042  0.615722  0.382377  1
  S  S29  1  0.117788  0.116622  0.881010  1
  S  S30  1  0.117788  0.381010  0.616622  1
  S  S31  1  0.119646  0.383636  0.116364  1
  S  S32  1  0.882212  0.118990  0.116622  1
  S  S33  1  0.382958  0.617623  0.615722  1
  S  S34  1  0.119646  0.616364  0.883636  1
  S  S35  1  0.113489  0.882831  0.617169  1
  S  S36  1  0.382958  0.115722  0.117623  1
  S  S37  1  0.886511  0.382831  0.882831  1
  S  S38  1  0.377656  0.118712  0.618712  1
  S  S39  1  0.622344  0.618712  0.881288  1
  S  S40  1  0.113489  0.117169  0.382831  1
  S  S41  1  0.386584  0.384698  0.884698  1
  S  S42  1  0.382958  0.382377  0.384278  1
  S  S43  1  0.617042  0.117623  0.884278  1
  S  S44  1  0.617042  0.384278  0.617623  1
  S  S45  1  0.622344  0.381288  0.118712  1
  S  S46  1  0.880354  0.883636  0.383636  1
  S  S47  1  0.617042  0.882377  0.115722  1
  S  S48  1  0.886511  0.617169  0.117169  1
  S  S49  1  0.117788  0.618990  0.383378  1
  S  S50  1  0.377656  0.881288  0.381288  1
  S  S51  1  0.613416  0.115302  0.384698  1
