# generated using pymatgen
data_Ca3SiO5
_symmetry_space_group_name_H-M   'P 1'
_cell_length_a   11.74047450
_cell_length_b   13.76901658
_cell_length_c   14.32939132
_cell_angle_alpha   104.86428925
_cell_angle_beta   90.12681002
_cell_angle_gamma   94.38732814
_symmetry_Int_Tables_number   1
_chemical_formula_structural   Ca3SiO5
_chemical_formula_sum   'Ca54 Si18 O90'
_cell_volume   2231.76472278
_cell_formula_units_Z   18
loop_
 _symmetry_equiv_pos_site_id
 _symmetry_equiv_pos_as_xyz
  1  'x, y, z'
loop_
 _atom_site_type_symbol
 _atom_site_label
 _atom_site_symmetry_multiplicity
 _atom_site_fract_x
 _atom_site_fract_y
 _atom_site_fract_z
 _atom_site_occupancy
  Ca  Ca0  1  0.639743  0.710674  0.945609  1
  Ca  Ca1  1  0.710561  0.973601  0.003847  1
  Ca  Ca2  1  0.644177  0.722413  0.180111  1
  Ca  Ca3  1  0.127268  0.183696  0.919121  1
  Ca  Ca4  1  0.622058  0.711292  0.414053  1
  Ca  Ca5  1  0.138452  0.185264  0.426679  1
  Ca  Ca6  1  0.534897  0.148987  0.908197  1
  Ca  Ca7  1  0.946329  0.382021  0.834035  1
  Ca  Ca8  1  0.377942  0.288708  0.585947  1
  Ca  Ca9  1  0.193049  0.483457  0.753050  1
  Ca  Ca10  1  0.360257  0.289326  0.054391  1
  Ca  Ca11  1  0.617877  0.696071  0.652609  1
  Ca  Ca12  1  0.645688  0.347422  0.847277  1
  Ca  Ca13  1  0.872732  0.816304  0.080879  1
  Ca  Ca14  1  0.020105  0.990368  0.260655  1
  Ca  Ca15  1  0.861548  0.814736  0.573321  1
  Ca  Ca16  1  0.382123  0.303929  0.347391  1
  Ca  Ca17  1  0.806951  0.516543  0.246950  1
  Ca  Ca18  1  0.677794  0.333429  0.321725  1
  Ca  Ca19  1  0.701237  0.959270  0.487508  1
  Ca  Ca20  1  0.053671  0.617979  0.165965  1
  Ca  Ca21  1  0.810128  0.184602  0.672208  1
  Ca  Ca22  1  0.000000  0.000000  0.000000  1
  Ca  Ca23  1  0.979895  0.009632  0.739345  1
  Ca  Ca24  1  0.649482  0.334371  0.081906  1
  Ca  Ca25  1  0.214085  0.465415  0.241298  1
  Ca  Ca26  1  0.298763  0.040730  0.512492  1
  Ca  Ca27  1  0.845874  0.169405  0.165629  1
  Ca  Ca28  1  0.189872  0.815398  0.327792  1
  Ca  Ca29  1  0.966416  0.367785  0.334334  1
  Ca  Ca30  1  0.462490  0.849189  0.584581  1
  Ca  Ca31  1  0.322206  0.666571  0.678275  1
  Ca  Ca32  1  0.355823  0.277587  0.819889  1
  Ca  Ca33  1  0.303435  0.023443  0.276812  1
  Ca  Ca34  1  0.033584  0.632215  0.665666  1
  Ca  Ca35  1  0.465103  0.851013  0.091803  1
  Ca  Ca36  1  0.289439  0.026399  0.996153  1
  Ca  Ca37  1  0.000000  0.000000  0.500000  1
  Ca  Ca38  1  0.500000  0.500000  0.000000  1
  Ca  Ca39  1  0.667514  0.350788  0.589401  1
  Ca  Ca40  1  0.968432  0.375703  0.104006  1
  Ca  Ca41  1  0.951063  0.375762  0.603122  1
  Ca  Ca42  1  0.696565  0.976557  0.723188  1
  Ca  Ca43  1  0.275535  0.030898  0.763211  1
  Ca  Ca44  1  0.332486  0.649212  0.410599  1
  Ca  Ca45  1  0.724465  0.969102  0.236789  1
  Ca  Ca46  1  0.785915  0.534585  0.758702  1
  Ca  Ca47  1  0.354312  0.652578  0.152723  1
  Ca  Ca48  1  0.537510  0.150811  0.415419  1
  Ca  Ca49  1  0.500000  0.500000  0.500000  1
  Ca  Ca50  1  0.031568  0.624297  0.895994  1
  Ca  Ca51  1  0.048937  0.624238  0.396878  1
  Ca  Ca52  1  0.154126  0.830595  0.834371  1
  Ca  Ca53  1  0.350518  0.665629  0.918094  1
  Si  Si54  1  0.506469  0.495636  0.752698  1
  Si  Si55  1  0.126050  0.216877  0.678431  1
  Si  Si56  1  0.191366  0.449069  0.497471  1
  Si  Si57  1  0.873950  0.783123  0.321569  1
  Si  Si58  1  0.800119  0.546336  0.018456  1
  Si  Si59  1  0.160214  0.818152  0.079002  1
  Si  Si60  1  0.829802  0.165986  0.416516  1
  Si  Si61  1  0.473866  0.871643  0.343909  1
  Si  Si62  1  0.152740  0.204554  0.181460  1
  Si  Si63  1  0.493531  0.504364  0.247302  1
  Si  Si64  1  0.475907  0.878043  0.844071  1
  Si  Si65  1  0.199881  0.453664  0.981544  1
  Si  Si66  1  0.524093  0.121957  0.155929  1
  Si  Si67  1  0.839786  0.181848  0.920998  1
  Si  Si68  1  0.526134  0.128357  0.656091  1
  Si  Si69  1  0.808634  0.550931  0.502529  1
  Si  Si70  1  0.847260  0.795446  0.818540  1
  Si  Si71  1  0.170198  0.834014  0.583484  1
  O  O72  1  0.895888  0.999955  0.140303  1
  O  O73  1  0.581897  0.516026  0.660767  1
  O  O74  1  0.179828  0.758915  0.473974  1
  O  O75  1  0.495544  0.324267  0.944825  1
  O  O76  1  0.160810  0.886467  0.192299  1
  O  O77  1  0.890549  0.526223  0.097764  1
  O  O78  1  0.048605  0.732183  0.058920  1
  O  O79  1  0.109451  0.473777  0.902236  1
  O  O80  1  0.281819  0.918892  0.605382  1
  O  O81  1  0.144970  0.472982  0.089724  1
  O  O82  1  0.948302  0.105731  0.402550  1
  O  O83  1  0.558049  0.338041  0.451236  1
  O  O84  1  0.967181  0.738150  0.805353  1
  O  O85  1  0.820172  0.241085  0.526026  1
  O  O86  1  0.347069  0.920092  0.851965  1
  O  O87  1  0.839190  0.113533  0.807701  1
  O  O88  1  0.611755  0.446062  0.239087  1
  O  O89  1  0.488405  0.807515  0.733001  1
  O  O90  1  0.504456  0.675733  0.055175  1
  O  O91  1  0.174391  0.526538  0.604417  1
  O  O92  1  0.859782  0.852447  0.244803  1
  O  O93  1  0.222325  0.643057  0.269007  1
  O  O94  1  0.511852  0.191697  0.078429  1
  O  O95  1  0.585117  0.535718  0.853486  1
  O  O96  1  0.387560  0.137046  0.675255  1
  O  O97  1  0.827354  0.232514  0.335759  1
  O  O98  1  0.388245  0.553938  0.760913  1
  O  O99  1  0.862824  0.858695  0.430261  1
  O  O100  1  0.147202  0.893221  0.006579  1
  O  O101  1  0.772725  0.688755  0.302134  1
  O  O102  1  0.396908  0.831992  0.243186  1
  O  O103  1  0.802450  0.334418  0.181742  1
  O  O104  1  0.855030  0.527018  0.910276  1
  O  O105  1  0.443470  0.989569  0.390060  1
  O  O106  1  0.313115  0.531394  0.982647  1
  O  O107  1  0.686885  0.468606  0.017353  1
  O  O108  1  0.840078  0.014611  0.608077  1
  O  O109  1  0.951395  0.267817  0.941080  1
  O  O110  1  0.825609  0.473462  0.395583  1
  O  O111  1  0.777675  0.356943  0.730993  1
  O  O112  1  0.197550  0.665582  0.818258  1
  O  O113  1  0.684013  0.598732  0.501568  1
  O  O114  1  0.663092  0.823412  0.566730  1
  O  O115  1  0.414883  0.464282  0.146514  1
  O  O116  1  0.652931  0.079908  0.148035  1
  O  O117  1  0.999721  0.735889  0.307453  1
  O  O118  1  0.991035  0.505427  0.741011  1
  O  O119  1  0.718181  0.081108  0.394618  1
  O  O120  1  0.140218  0.147553  0.755197  1
  O  O121  1  0.603092  0.168008  0.756814  1
  O  O122  1  0.480284  0.372204  0.733929  1
  O  O123  1  0.233066  0.335746  0.948721  1
  O  O124  1  0.578510  0.973378  0.869535  1
  O  O125  1  0.842427  0.860146  0.933552  1
  O  O126  1  0.333377  0.145102  0.906459  1
  O  O127  1  0.852798  0.106779  0.993421  1
  O  O128  1  0.720813  0.238547  0.942036  1
  O  O129  1  0.000279  0.264111  0.692547  1
  O  O130  1  0.157573  0.139854  0.066448  1
  O  O131  1  0.085483  0.356140  0.472414  1
  O  O132  1  0.766934  0.664254  0.051279  1
  O  O133  1  0.182678  0.511303  0.413715  1
  O  O134  1  0.418103  0.483974  0.339233  1
  O  O135  1  0.104112  0.000045  0.859697  1
  O  O136  1  0.158439  0.129997  0.254978  1
  O  O137  1  0.421490  0.026622  0.130465  1
  O  O138  1  0.488148  0.808303  0.921571  1
  O  O139  1  0.008965  0.494573  0.258989  1
  O  O140  1  0.817322  0.488697  0.586285  1
  O  O141  1  0.519716  0.627796  0.266071  1
  O  O142  1  0.556530  0.010431  0.609940  1
  O  O143  1  0.051698  0.894269  0.597450  1
  O  O144  1  0.511595  0.192485  0.266999  1
  O  O145  1  0.159922  0.985389  0.391923  1
  O  O146  1  0.227275  0.311245  0.697866  1
  O  O147  1  0.172646  0.767486  0.664241  1
  O  O148  1  0.441951  0.661959  0.548764  1
  O  O149  1  0.261895  0.291724  0.207391  1
  O  O150  1  0.137176  0.141305  0.569739  1
  O  O151  1  0.032819  0.261850  0.194647  1
  O  O152  1  0.841561  0.870003  0.745022  1
  O  O153  1  0.439958  0.802949  0.419951  1
  O  O154  1  0.612440  0.862954  0.324745  1
  O  O155  1  0.738105  0.708276  0.792609  1
  O  O156  1  0.914517  0.643860  0.527586  1
  O  O157  1  0.315987  0.401268  0.498432  1
  O  O158  1  0.279187  0.761453  0.057964  1
  O  O159  1  0.666623  0.854898  0.093541  1
  O  O160  1  0.336908  0.176588  0.433270  1
  O  O161  1  0.560042  0.197051  0.580049  1
