# generated using pymatgen
data_RbPbF3
_symmetry_space_group_name_H-M   'P 1'
_cell_length_a   9.50160690
_cell_length_b   6.71837084
_cell_length_c   6.88296377
_cell_angle_alpha   59.23147352
_cell_angle_beta   44.13299695
_cell_angle_gamma   45.51720109
_symmetry_Int_Tables_number   1
_chemical_formula_structural   RbPbF3
_chemical_formula_sum   'Rb2 Pb2 F6'
_cell_volume   218.24955613
_cell_formula_units_Z   2
loop_
 _symmetry_equiv_pos_site_id
 _symmetry_equiv_pos_as_xyz
  1  'x, y, z'
loop_
 _atom_site_type_symbol
 _atom_site_label
 _atom_site_symmetry_multiplicity
 _atom_site_fract_x
 _atom_site_fract_y
 _atom_site_fract_z
 _atom_site_occupancy
  Rb  Rb0  1  0.239657  0.435578  0.547994  1
  Rb  Rb1  1  0.738940  0.438221  0.542334  1
  Pb  Pb2  1  0.984324  0.904443  0.062583  1
  Pb  Pb3  1  0.486285  0.903099  0.062211  1
  F  F4  1  0.195519  0.418186  0.010114  1
  F  F5  1  0.830092  0.780952  0.540504  1
  F  F6  1  0.328360  0.772816  0.024031  1
  F  F7  1  0.703065  0.416992  0.179240  1
  F  F8  1  0.642214  0.956003  0.210340  1
  F  F9  1  0.153396  0.950800  0.540710  1
