# generated using pymatgen
data_Ba13Ru10BrO36
_symmetry_space_group_name_H-M   'P 1'
_cell_length_a   20.41674418
_cell_length_b   40.86848303
_cell_length_c   40.86848242
_cell_angle_alpha   16.47875375
_cell_angle_beta   16.47295851
_cell_angle_gamma   16.47295802
_symmetry_Int_Tables_number   1
_chemical_formula_structural   Ba13Ru10BrO36
_chemical_formula_sum   'Ba26 Ru20 Br2 O72'
_cell_volume   2391.51576700
_cell_formula_units_Z   2
loop_
 _symmetry_equiv_pos_site_id
 _symmetry_equiv_pos_as_xyz
  1  'x, y, z'
loop_
 _atom_site_type_symbol
 _atom_site_label
 _atom_site_symmetry_multiplicity
 _atom_site_fract_x
 _atom_site_fract_y
 _atom_site_fract_z
 _atom_site_occupancy
  Ba  Ba0  1  0.188063  0.094185  0.094185  1
  Ba  Ba1  1  0.262131  0.130834  0.130834  1
  Ba  Ba2  1  0.436974  0.220585  0.220585  1
  Ba  Ba3  1  0.187988  0.594029  0.094289  1
  Ba  Ba4  1  0.187988  0.094289  0.594029  1
  Ba  Ba5  1  0.563026  0.279415  0.279415  1
  Ba  Ba6  1  0.256331  0.627955  0.133912  1
  Ba  Ba7  1  0.256331  0.133912  0.627955  1
  Ba  Ba8  1  0.737869  0.369166  0.369166  1
  Ba  Ba9  1  0.442296  0.220147  0.718387  1
  Ba  Ba10  1  0.442296  0.718387  0.220147  1
  Ba  Ba11  1  0.811937  0.405815  0.405815  1
  Ba  Ba12  1  0.188424  0.594134  0.594134  1
  Ba  Ba13  1  0.557704  0.279853  0.781613  1
  Ba  Ba14  1  0.557704  0.781613  0.279853  1
  Ba  Ba15  1  0.271911  0.627891  0.627891  1
  Ba  Ba16  1  0.341668  0.691639  0.691639  1
  Ba  Ba17  1  0.743669  0.366088  0.872045  1
  Ba  Ba18  1  0.743669  0.872045  0.366088  1
  Ba  Ba19  1  0.438815  0.720154  0.720154  1
  Ba  Ba20  1  0.812012  0.905971  0.405711  1
  Ba  Ba21  1  0.812012  0.405711  0.905971  1
  Ba  Ba22  1  0.561185  0.779846  0.779846  1
  Ba  Ba23  1  0.658332  0.808361  0.808361  1
  Ba  Ba24  1  0.728089  0.872109  0.872109  1
  Ba  Ba25  1  0.811576  0.905866  0.905866  1
  Ru  Ru26  1  0.083890  0.041711  0.041711  1
  Ru  Ru27  1  0.129901  0.065165  0.065165  1
  Ru  Ru28  1  0.083916  0.042731  0.540851  1
  Ru  Ru29  1  0.083916  0.540851  0.042731  1
  Ru  Ru30  1  0.131073  0.064419  0.565084  1
  Ru  Ru31  1  0.131073  0.565084  0.064419  1
  Ru  Ru32  1  0.500000  0.250000  0.250000  1
  Ru  Ru33  1  0.083359  0.541797  0.541797  1
  Ru  Ru34  1  0.128542  0.565333  0.565333  1
  Ru  Ru35  1  0.500000  0.750000  0.250000  1
  Ru  Ru36  1  0.500000  0.250000  0.750000  1
  Ru  Ru37  1  0.870099  0.434835  0.434835  1
  Ru  Ru38  1  0.916110  0.458289  0.458289  1
  Ru  Ru39  1  0.500000  0.750000  0.750000  1
  Ru  Ru40  1  0.868927  0.435581  0.934916  1
  Ru  Ru41  1  0.868927  0.934916  0.435581  1
  Ru  Ru42  1  0.916084  0.457269  0.959149  1
  Ru  Ru43  1  0.916084  0.959149  0.457269  1
  Ru  Ru44  1  0.871458  0.934667  0.934667  1
  Ru  Ru45  1  0.916641  0.958203  0.958203  1
  Br  Br46  1  0.301841  0.660284  0.660284  1
  Br  Br47  1  0.698159  0.839716  0.839716  1
  O  O48  1  0.042015  0.294844  0.021522  1
  O  O49  1  0.042015  0.021522  0.294844  1
  O  O50  1  0.590485  0.021061  0.021061  1
  O  O51  1  0.234522  0.113624  0.373374  1
  O  O52  1  0.234522  0.373374  0.113624  1
  O  O53  1  0.745638  0.115741  0.115741  1
  O  O54  1  0.316359  0.405117  0.158490  1
  O  O55  1  0.316359  0.158490  0.405117  1
  O  O56  1  0.810259  0.158413  0.158413  1
  O  O57  1  0.189741  0.341587  0.341587  1
  O  O58  1  0.683641  0.341510  0.094883  1
  O  O59  1  0.683641  0.094883  0.341510  1
  O  O60  1  0.042341  0.295677  0.520242  1
  O  O61  1  0.046106  0.793771  0.020408  1
  O  O62  1  0.046106  0.020408  0.793771  1
  O  O63  1  0.042341  0.520242  0.295677  1
  O  O64  1  0.586968  0.020823  0.522792  1
  O  O65  1  0.586968  0.522792  0.020823  1
  O  O66  1  0.254362  0.384259  0.384259  1
  O  O67  1  0.765478  0.126626  0.386376  1
  O  O68  1  0.765478  0.386376  0.126626  1
  O  O69  1  0.227006  0.118153  0.873161  1
  O  O70  1  0.227292  0.373580  0.617026  1
  O  O71  1  0.227292  0.617026  0.373580  1
  O  O72  1  0.227006  0.873161  0.118153  1
  O  O73  1  0.746582  0.615655  0.115669  1
  O  O74  1  0.746582  0.115669  0.615655  1
  O  O75  1  0.409515  0.478939  0.478939  1
  O  O76  1  0.957985  0.478478  0.205156  1
  O  O77  1  0.957985  0.205156  0.478478  1
  O  O78  1  0.316413  0.158414  0.905319  1
  O  O79  1  0.316329  0.405435  0.658096  1
  O  O80  1  0.316329  0.658096  0.405435  1
  O  O81  1  0.316413  0.905319  0.158414  1
  O  O82  1  0.810443  0.158368  0.658148  1
  O  O83  1  0.810443  0.658148  0.158368  1
  O  O84  1  0.189557  0.341632  0.841852  1
  O  O85  1  0.189557  0.841852  0.341632  1
  O  O86  1  0.683671  0.094565  0.841904  1
  O  O87  1  0.683587  0.341586  0.594681  1
  O  O88  1  0.683671  0.841904  0.094565  1
  O  O89  1  0.683587  0.594681  0.341586  1
  O  O90  1  0.039793  0.794615  0.522622  1
  O  O91  1  0.039793  0.522622  0.794615  1
  O  O92  1  0.591665  0.520547  0.520547  1
  O  O93  1  0.253418  0.384331  0.884345  1
  O  O94  1  0.253418  0.884345  0.384331  1
  O  O95  1  0.772708  0.126420  0.882974  1
  O  O96  1  0.772708  0.882974  0.126420  1
  O  O97  1  0.772994  0.381847  0.626839  1
  O  O98  1  0.772994  0.626839  0.381847  1
  O  O99  1  0.235033  0.611971  0.872022  1
  O  O100  1  0.235033  0.872022  0.611971  1
  O  O101  1  0.742993  0.614673  0.614673  1
  O  O102  1  0.413032  0.479177  0.977208  1
  O  O103  1  0.413032  0.977208  0.479177  1
  O  O104  1  0.953894  0.479592  0.706229  1
  O  O105  1  0.957659  0.204323  0.979758  1
  O  O106  1  0.953894  0.706229  0.479592  1
  O  O107  1  0.957659  0.979758  0.204323  1
  O  O108  1  0.316402  0.658209  0.905464  1
  O  O109  1  0.316402  0.905464  0.658209  1
  O  O110  1  0.811197  0.658115  0.658115  1
  O  O111  1  0.188803  0.841885  0.841885  1
  O  O112  1  0.683598  0.594536  0.841791  1
  O  O113  1  0.683598  0.841791  0.594536  1
  O  O114  1  0.257007  0.885327  0.885327  1
  O  O115  1  0.764967  0.627978  0.888029  1
  O  O116  1  0.764967  0.888029  0.627978  1
  O  O117  1  0.408335  0.979453  0.979453  1
  O  O118  1  0.960207  0.705385  0.977378  1
  O  O119  1  0.960207  0.977378  0.705385  1
