# generated using pymatgen
data_Yb4Cu2Sn5
_symmetry_space_group_name_H-M   'P 1'
_cell_length_a   4.42307668
_cell_length_b   8.96169910
_cell_length_c   13.98307394
_cell_angle_alpha   90.00000000
_cell_angle_beta   90.00000000
_cell_angle_gamma   90.00000000
_symmetry_Int_Tables_number   1
_chemical_formula_structural   Yb4Cu2Sn5
_chemical_formula_sum   'Yb8 Cu4 Sn10'
_cell_volume   554.26503229
_cell_formula_units_Z   2
loop_
 _symmetry_equiv_pos_site_id
 _symmetry_equiv_pos_as_xyz
  1  'x, y, z'
loop_
 _atom_site_type_symbol
 _atom_site_label
 _atom_site_symmetry_multiplicity
 _atom_site_fract_x
 _atom_site_fract_y
 _atom_site_fract_z
 _atom_site_occupancy
  Yb  Yb0  1  0.750000  0.205735  0.991280  1
  Yb  Yb1  1  0.750000  0.300113  0.250000  1
  Yb  Yb2  1  0.250000  0.794265  0.008720  1
  Yb  Yb3  1  0.250000  0.699887  0.750000  1
  Yb  Yb4  1  0.250000  0.794265  0.491280  1
  Yb  Yb5  1  0.750000  0.865662  0.250000  1
  Yb  Yb6  1  0.250000  0.134338  0.750000  1
  Yb  Yb7  1  0.750000  0.205735  0.508720  1
  Cu  Cu8  1  0.750000  0.621961  0.893623  1
  Cu  Cu9  1  0.250000  0.378039  0.106377  1
  Cu  Cu10  1  0.250000  0.378039  0.393623  1
  Cu  Cu11  1  0.750000  0.621961  0.606377  1
  Sn  Sn12  1  0.750000  0.914760  0.645232  1
  Sn  Sn13  1  0.250000  0.443466  0.913685  1
  Sn  Sn14  1  0.250000  0.595556  0.250000  1
  Sn  Sn15  1  0.750000  0.556534  0.413685  1
  Sn  Sn16  1  0.750000  0.404444  0.750000  1
  Sn  Sn17  1  0.750000  0.556534  0.086315  1
  Sn  Sn18  1  0.250000  0.085240  0.145232  1
  Sn  Sn19  1  0.250000  0.443466  0.586315  1
  Sn  Sn20  1  0.750000  0.914760  0.854768  1
  Sn  Sn21  1  0.250000  0.085240  0.354768  1
