# generated using pymatgen
data_Ba11In6O3
_symmetry_space_group_name_H-M   'P 1'
_cell_length_a   11.26577350
_cell_length_b   12.41888512
_cell_length_c   12.41894197
_cell_angle_alpha   78.14313106
_cell_angle_beta   63.03505940
_cell_angle_gamma   63.03443591
_symmetry_Int_Tables_number   1
_chemical_formula_structural   Ba11In6O3
_chemical_formula_sum   'Ba22 In12 O6'
_cell_volume   1380.25135626
_cell_formula_units_Z   2
loop_
 _symmetry_equiv_pos_site_id
 _symmetry_equiv_pos_as_xyz
  1  'x, y, z'
loop_
 _atom_site_type_symbol
 _atom_site_label
 _atom_site_symmetry_multiplicity
 _atom_site_fract_x
 _atom_site_fract_y
 _atom_site_fract_z
 _atom_site_occupancy
  Ba  Ba0  1  0.173158  0.500009  0.749739  1
  Ba  Ba1  1  0.422889  0.499987  0.250260  1
  Ba  Ba2  1  0.770125  0.499993  0.959757  1
  Ba  Ba3  1  0.229874  0.500004  0.040240  1
  Ba  Ba4  1  0.123599  -0.000004  0.252819  1
  Ba  Ba5  1  0.376403  0.747183  0.000006  1
  Ba  Ba6  1  0.623596  0.252817  -0.000005  1
  Ba  Ba7  1  0.326847  0.250257  0.499991  1
  Ba  Ba8  1  0.729876  0.040240  0.500004  1
  Ba  Ba9  1  0.876399  0.000006  0.747185  1
  Ba  Ba10  1  0.270125  0.959760  0.499994  1
  Ba  Ba11  1  0.673151  0.749742  0.500011  1
  Ba  Ba12  1  0.123589  0.252823  -0.000011  1
  Ba  Ba13  1  0.623584  -0.000003  0.252823  1
  Ba  Ba14  1  0.826848  0.499992  0.250258  1
  Ba  Ba15  1  0.500000  0.000001  -0.000000  1
  Ba  Ba16  1  0.376411  0.000001  0.747179  1
  Ba  Ba17  1  0.922890  0.250261  0.499985  1
  Ba  Ba18  1  0.577115  0.500014  0.749739  1
  Ba  Ba19  1  0.000001  0.999998  0.000002  1
  Ba  Ba20  1  0.876411  0.747178  0.000006  1
  Ba  Ba21  1  0.077108  0.749741  0.500016  1
  In  In22  1  0.242770  0.758318  0.756285  1
  In  In23  1  0.500860  0.241892  0.756398  1
  In  In24  1  0.565689  0.368584  0.500070  1
  In  In25  1  0.934312  0.499932  0.631417  1
  In  In26  1  0.742769  0.756287  0.758318  1
  In  In27  1  0.257231  0.243713  0.241681  1
  In  In28  1  0.434312  0.631416  0.499931  1
  In  In29  1  0.999138  0.243605  0.758107  1
  In  In30  1  0.000860  0.756395  0.241893  1
  In  In31  1  0.757231  0.241682  0.243714  1
  In  In32  1  0.499138  0.758109  0.243604  1
  In  In33  1  0.065688  0.500069  0.368584  1
  O  O34  1  0.500000  0.500000  -0.000000  1
  O  O35  1  0.250006  0.000001  -0.000000  1
  O  O36  1  0.000000  -0.000000  0.500001  1
  O  O37  1  0.749995  0.999999  1.000000  1
  O  O38  1  -0.000000  0.500000  1.000000  1
  O  O39  1  0.500000  0.999999  0.500000  1
