# generated using pymatgen
data_TlPbCl3
_symmetry_space_group_name_H-M   'P 1'
_cell_length_a   11.68587757
_cell_length_b   11.57326352
_cell_length_c   11.57326275
_cell_angle_alpha   94.24298204
_cell_angle_beta   117.29325296
_cell_angle_gamma   117.29325562
_symmetry_Int_Tables_number   1
_chemical_formula_structural   TlPbCl3
_chemical_formula_sum   'Tl8 Pb8 Cl24'
_cell_volume   1153.26007084
_cell_formula_units_Z   8
loop_
 _symmetry_equiv_pos_site_id
 _symmetry_equiv_pos_as_xyz
  1  'x, y, z'
loop_
 _atom_site_type_symbol
 _atom_site_label
 _atom_site_symmetry_multiplicity
 _atom_site_fract_x
 _atom_site_fract_y
 _atom_site_fract_z
 _atom_site_occupancy
  Tl  Tl0  1  0.181138  0.155390  0.655390  1
  Tl  Tl1  1  0.181138  0.525748  0.025748  1
  Tl  Tl2  1  0.498273  0.649572  0.473189  1
  Tl  Tl3  1  0.498273  0.973189  0.149572  1
  Tl  Tl4  1  0.993308  0.995958  0.997350  1
  Tl  Tl5  1  0.498273  0.025085  0.848702  1
  Tl  Tl6  1  0.498273  0.348702  0.525085  1
  Tl  Tl7  1  0.993308  0.497350  0.495958  1
  Pb  Pb8  1  0.994413  0.747206  0.747206  1
  Pb  Pb9  1  0.231502  0.865751  0.365751  1
  Pb  Pb10  1  0.480747  0.638587  0.842160  1
  Pb  Pb11  1  0.831684  0.492357  0.992357  1
  Pb  Pb12  1  0.480747  0.342160  0.138587  1
  Pb  Pb13  1  0.831684  0.839327  0.339327  1
  Pb  Pb14  1  0.799342  0.149671  0.649671  1
  Pb  Pb15  1  0.994413  0.247206  0.247206  1
  Cl  Cl16  1  0.125219  0.839998  0.563892  1
  Cl  Cl17  1  0.258667  0.699668  0.831909  1
  Cl  Cl18  1  0.126938  0.313469  0.813469  1
  Cl  Cl19  1  0.125219  0.785221  0.061326  1
  Cl  Cl20  1  0.125219  0.561326  0.285221  1
  Cl  Cl21  1  0.512108  0.814708  0.697401  1
  Cl  Cl22  1  0.258667  0.058999  0.926758  1
  Cl  Cl23  1  0.258667  0.426758  0.558999  1
  Cl  Cl24  1  0.501117  0.890085  0.390085  1
  Cl  Cl25  1  0.520802  0.384202  0.884202  1
  Cl  Cl26  1  0.125219  0.063892  0.339998  1
  Cl  Cl27  1  0.258667  0.331909  0.199668  1
  Cl  Cl28  1  0.741177  0.655393  0.806738  1
  Cl  Cl29  1  0.861227  0.919781  0.643392  1
  Cl  Cl30  1  0.501117  0.111032  0.611032  1
  Cl  Cl31  1  0.520802  0.636600  0.136600  1
  Cl  Cl32  1  0.741177  0.585784  0.434439  1
  Cl  Cl33  1  0.741177  0.934439  0.085784  1
  Cl  Cl34  1  0.512108  0.197401  0.314708  1
  Cl  Cl35  1  0.861227  0.441446  0.717835  1
  Cl  Cl36  1  0.861227  0.217835  0.941446  1
  Cl  Cl37  1  0.873332  0.686666  0.186666  1
  Cl  Cl38  1  0.741177  0.306738  0.155393  1
  Cl  Cl39  1  0.861227  0.143392  0.419781  1
