# generated using pymatgen
data_Ti13S24
_symmetry_space_group_name_H-M   'P 1'
_cell_length_a   10.23329293
_cell_length_b   11.82342680
_cell_length_c   9.03085587
_cell_angle_alpha   49.14656072
_cell_angle_beta   112.31045968
_cell_angle_gamma   90.00976277
_symmetry_Int_Tables_number   1
_chemical_formula_structural   Ti13S24
_chemical_formula_sum   'Ti13 S24'
_cell_volume   714.91476946
_cell_formula_units_Z   1
loop_
 _symmetry_equiv_pos_site_id
 _symmetry_equiv_pos_as_xyz
  1  'x, y, z'
loop_
 _atom_site_type_symbol
 _atom_site_label
 _atom_site_symmetry_multiplicity
 _atom_site_fract_x
 _atom_site_fract_y
 _atom_site_fract_z
 _atom_site_occupancy
  Ti  Ti0  1  0.998234  0.495150  0.993466  1
  Ti  Ti1  1  0.991966  0.005274  0.990110  1
  Ti  Ti2  1  0.159823  0.759244  0.980136  1
  Ti  Ti3  1  0.333333  0.500000  0.500000  1
  Ti  Ti4  1  0.165576  0.240027  0.008268  1
  Ti  Ti5  1  0.333333  0.500000  0.000000  1
  Ti  Ti6  1  0.333333  0.000000  0.000000  1
  Ti  Ti7  1  0.501091  0.759973  0.991732  1
  Ti  Ti8  1  0.506844  0.240756  0.019864  1
  Ti  Ti9  1  0.668433  0.504850  0.006534  1
  Ti  Ti10  1  0.674701  0.994726  0.009890  1
  Ti  Ti11  1  0.828489  0.757771  0.990676  1
  Ti  Ti12  1  0.838177  0.242229  0.009324  1
  S  S13  1  0.084754  0.704663  0.754253  1
  S  S14  1  0.086644  0.202704  0.760212  1
  S  S15  1  0.251269  0.958911  0.752082  1
  S  S16  1  0.251640  0.454621  0.754106  1
  S  S17  1  0.083050  0.545441  0.244329  1
  S  S18  1  0.081448  0.040308  0.245856  1
  S  S19  1  0.420412  0.702671  0.762657  1
  S  S20  1  0.418945  0.207711  0.753957  1
  S  S21  1  0.247722  0.792289  0.246042  1
  S  S22  1  0.246255  0.297329  0.237343  1
  S  S23  1  0.583617  0.454559  0.755671  1
  S  S24  1  0.585219  0.959692  0.754144  1
  S  S25  1  0.415026  0.545379  0.245894  1
  S  S26  1  0.415397  0.041089  0.247918  1
  S  S27  1  0.753907  0.702377  0.761927  1
  S  S28  1  0.750454  0.205022  0.758025  1
  S  S29  1  0.580023  0.797296  0.239788  1
  S  S30  1  0.581913  0.295337  0.245747  1
  S  S31  1  0.919075  0.449748  0.759362  1
  S  S32  1  0.915421  0.959333  0.748647  1
  S  S33  1  0.747592  0.550252  0.240638  1
  S  S34  1  0.751246  0.040667  0.251353  1
  S  S35  1  0.916212  0.794978  0.241975  1
  S  S36  1  0.912759  0.297623  0.238073  1
