# generated using pymatgen
data_Ti3Al2NiO
_symmetry_space_group_name_H-M   'P 1'
_cell_length_a   8.04613294
_cell_length_b   8.04613285
_cell_length_c   8.04613232
_cell_angle_alpha   59.99999806
_cell_angle_beta   59.99999844
_cell_angle_gamma   59.99999618
_symmetry_Int_Tables_number   1
_chemical_formula_structural   Ti3Al2NiO
_chemical_formula_sum   'Ti12 Al8 Ni4 O4'
_cell_volume   368.33802169
_cell_formula_units_Z   4
loop_
 _symmetry_equiv_pos_site_id
 _symmetry_equiv_pos_as_xyz
  1  'x, y, z'
loop_
 _atom_site_type_symbol
 _atom_site_label
 _atom_site_symmetry_multiplicity
 _atom_site_fract_x
 _atom_site_fract_y
 _atom_site_fract_z
 _atom_site_occupancy
  Ti  Ti0  1  0.809416  0.440584  0.440584  1
  Ti  Ti1  1  0.559416  0.559416  0.190584  1
  Ti  Ti2  1  0.190584  0.190584  0.559416  1
  Ti  Ti3  1  0.559416  0.190584  0.190584  1
  Ti  Ti4  1  0.559416  0.190584  0.559416  1
  Ti  Ti5  1  0.190584  0.559416  0.190584  1
  Ti  Ti6  1  0.440584  0.809416  0.440584  1
  Ti  Ti7  1  0.440584  0.440584  0.809416  1
  Ti  Ti8  1  0.809416  0.809416  0.440584  1
  Ti  Ti9  1  0.809416  0.440584  0.809416  1
  Ti  Ti10  1  0.190584  0.559416  0.559416  1
  Ti  Ti11  1  0.440584  0.809416  0.809416  1
  Al  Al12  1  0.207901  0.207901  0.207901  1
  Al  Al13  1  0.792099  0.792099  0.123704  1
  Al  Al14  1  0.123704  0.792099  0.792099  1
  Al  Al15  1  0.792099  0.123704  0.792099  1
  Al  Al16  1  0.876296  0.207901  0.207901  1
  Al  Al17  1  0.207901  0.876296  0.207901  1
  Al  Al18  1  0.207901  0.207901  0.876296  1
  Al  Al19  1  0.792099  0.792099  0.792099  1
  O  O20  1  0.500000  0.500000  0.500000  1
  O  O21  1  0.500000  0.500000  0.000000  1
  O  O22  1  0.000000  0.500000  0.500000  1
  O  O23  1  0.500000  0.000000  0.500000  1
  Ni  Ni24  1  0.000000  0.000000  0.000000  1
  Ni  Ni25  1  0.000000  0.000000  0.500000  1
  Ni  Ni26  1  0.500000  0.000000  0.000000  1
  Ni  Ni27  1  0.000000  0.500000  0.000000  1
