# generated using pymatgen
data_Tb8Se15
_symmetry_space_group_name_H-M   'P 1'
_cell_length_a   11.65061599
_cell_length_b   11.76919510
_cell_length_c   25.10481795
_cell_angle_alpha   94.24373812
_cell_angle_beta   92.60244781
_cell_angle_gamma   89.56590909
_symmetry_Int_Tables_number   1
_chemical_formula_structural   Tb8Se15
_chemical_formula_sum   'Tb48 Se90'
_cell_volume   3429.32257455
_cell_formula_units_Z   6
loop_
 _symmetry_equiv_pos_site_id
 _symmetry_equiv_pos_as_xyz
  1  'x, y, z'
loop_
 _atom_site_type_symbol
 _atom_site_label
 _atom_site_symmetry_multiplicity
 _atom_site_fract_x
 _atom_site_fract_y
 _atom_site_fract_z
 _atom_site_occupancy
  Tb  Tb0  1  0.985630  0.251023  0.247866  1
  Tb  Tb1  1  0.999943  0.246914  0.749800  1
  Tb  Tb2  1  0.152976  0.851295  0.332811  1
  Tb  Tb3  1  0.139659  0.864886  0.839777  1
  Tb  Tb4  1  0.123113  0.850900  0.170133  1
  Tb  Tb5  1  0.113557  0.855076  0.673794  1
  Tb  Tb6  1  0.148245  0.858378  0.002131  1
  Tb  Tb7  1  0.156651  0.852656  0.511533  1
  Tb  Tb8  1  0.217813  0.510860  0.245690  1
  Tb  Tb9  1  0.217689  0.514969  0.746696  1
  Tb  Tb10  1  0.247900  0.492607  0.081094  1
  Tb  Tb11  1  0.262665  0.511528  0.418803  1
  Tb  Tb12  1  0.234599  0.497765  0.584250  1
  Tb  Tb13  1  0.264946  0.508552  0.915920  1
  Tb  Tb14  1  0.368011  0.107042  0.160858  1
  Tb  Tb15  1  0.367794  0.100779  0.673860  1
  Tb  Tb16  1  0.384605  0.105528  0.330162  1
  Tb  Tb17  1  0.392495  0.106009  0.833326  1
  Tb  Tb18  1  0.414773  0.133368  0.992330  1
  Tb  Tb19  1  0.414825  0.129142  0.490656  1
  Tb  Tb20  1  0.478646  0.761203  0.248359  1
  Tb  Tb21  1  0.479931  0.763515  0.752965  1
  Tb  Tb22  1  0.490848  0.722872  0.095237  1
  Tb  Tb23  1  0.491235  0.720153  0.596733  1
  Tb  Tb24  1  0.502723  0.771710  0.923564  1
  Tb  Tb25  1  0.506602  0.767735  0.414889  1
  Tb  Tb26  1  0.649185  0.398513  0.483928  1
  Tb  Tb27  1  0.645241  0.393218  0.988639  1
  Tb  Tb28  1  0.617461  0.333942  0.180690  1
  Tb  Tb29  1  0.617588  0.333713  0.678468  1
  Tb  Tb30  1  0.658456  0.348590  0.837637  1
  Tb  Tb31  1  0.658357  0.347493  0.336122  1
  Tb  Tb32  1  0.737471  0.972886  0.257349  1
  Tb  Tb33  1  0.733759  0.986838  0.753123  1
  Tb  Tb34  1  0.720586  0.995441  0.098590  1
  Tb  Tb35  1  0.754466  0.034293  0.408420  1
  Tb  Tb36  1  0.714957  0.994664  0.594130  1
  Tb  Tb37  1  0.769663  0.027609  0.907783  1
  Tb  Tb38  1  0.867426  0.614763  0.164847  1
  Tb  Tb39  1  0.896665  0.615320  0.331469  1
  Tb  Tb40  1  0.868934  0.611852  0.664217  1
  Tb  Tb41  1  0.898366  0.602634  0.831304  1
  Tb  Tb42  1  0.904164  0.621476  0.990880  1
  Tb  Tb43  1  0.905459  0.628125  0.491606  1
  Tb  Tb44  1  0.010811  0.275850  0.412761  1
  Tb  Tb45  1  0.013827  0.269476  0.067164  1
  Tb  Tb46  1  0.008788  0.219084  0.579323  1
  Tb  Tb47  1  0.003580  0.260659  0.911547  1
  Se  Se48  1  0.003511  0.988927  0.262744  1
  Se  Se49  1  0.993129  0.981903  0.761450  1
  Se  Se50  1  0.049945  0.687405  0.249523  1
  Se  Se51  1  0.048060  0.687235  0.750406  1
  Se  Se52  1  0.062013  0.693802  0.077718  1
  Se  Se53  1  0.079980  0.697399  0.417186  1
  Se  Se54  1  0.060523  0.686534  0.583315  1
  Se  Se55  1  0.076647  0.689075  0.916009  1
  Se  Se56  1  0.064551  0.440796  0.158495  1
  Se  Se57  1  0.078675  0.435689  0.330545  1
  Se  Se58  1  0.058615  0.428838  0.661190  1
  Se  Se59  1  0.079754  0.431680  0.832010  1
  Se  Se60  1  0.083180  0.435574  0.992600  1
  Se  Se61  1  0.082812  0.437592  0.494807  1
  Se  Se62  1  0.160091  0.110051  0.499672  1
  Se  Se63  1  0.125728  0.116337  0.332559  1
  Se  Se64  1  0.142972  0.131295  0.833793  1
  Se  Se65  1  0.096523  0.103388  0.155971  1
  Se  Se66  1  0.111110  0.104486  0.668777  1
  Se  Se67  1  0.249616  0.217205  0.066460  1
  Se  Se68  1  0.276472  0.263413  0.406700  1
  Se  Se69  1  0.253725  0.219827  0.576813  1
  Se  Se70  1  0.264843  0.251567  0.910444  1
  Se  Se71  1  0.273159  0.276658  0.757474  1
  Se  Se72  1  0.255102  0.254481  0.246196  1
  Se  Se73  1  0.301876  0.935086  0.249125  1
  Se  Se74  1  0.301130  0.933963  0.754919  1
  Se  Se75  1  0.294013  0.908843  0.095432  1
  Se  Se76  1  0.319420  0.938333  0.412430  1
  Se  Se77  1  0.293572  0.908053  0.604128  1
  Se  Se78  1  0.318479  0.944441  0.919835  1
  Se  Se79  1  0.332743  0.669816  0.327738  1
  Se  Se80  1  0.329973  0.674324  0.831771  1
  Se  Se81  1  0.308743  0.667026  0.673198  1
  Se  Se82  1  0.308416  0.666776  0.169835  1
  Se  Se83  1  0.323102  0.669855  0.003360  1
  Se  Se84  1  0.320952  0.663057  0.507960  1
  Se  Se85  1  0.394938  0.378430  0.995285  1
  Se  Se86  1  0.405332  0.378405  0.501168  1
  Se  Se87  1  0.367464  0.365282  0.182624  1
  Se  Se88  1  0.363704  0.357362  0.679666  1
  Se  Se89  1  0.494944  0.468517  0.589098  1
  Se  Se90  1  0.505472  0.474224  0.096995  1
  Se  Se91  1  0.523044  0.515232  0.897887  1
  Se  Se92  1  0.517831  0.510371  0.392727  1
  Se  Se93  1  0.555930  0.918829  0.174419  1
  Se  Se94  1  0.553880  0.916181  0.675785  1
  Se  Se95  1  0.566589  0.926661  0.334157  1
  Se  Se96  1  0.569794  0.926822  0.836580  1
  Se  Se97  1  0.644738  0.954444  0.988014  1
  Se  Se98  1  0.617618  0.957476  0.484326  1
  Se  Se99  1  0.548485  0.174541  0.093410  1
  Se  Se100  1  0.538817  0.167283  0.596871  1
  Se  Se101  1  0.573153  0.198551  0.911531  1
  Se  Se102  1  0.570039  0.200321  0.409746  1
  Se  Se103  1  0.547831  0.182669  0.258164  1
  Se  Se104  1  0.554481  0.181836  0.758129  1
  Se  Se105  1  0.813064  0.300950  0.121737  1
  Se  Se106  1  0.800882  0.313953  0.611542  1
  Se  Se107  1  0.612700  0.589917  0.179160  1
  Se  Se108  1  0.612188  0.593262  0.684085  1
  Se  Se109  1  0.452397  0.916749  0.538554  1
  Se  Se110  1  0.474015  0.917050  0.035659  1
  Se  Se111  1  0.639353  0.643458  0.999555  1
  Se  Se112  1  0.635167  0.646027  0.494381  1
  Se  Se113  1  0.721204  0.714465  0.261745  1
  Se  Se114  1  0.733900  0.719358  0.759161  1
  Se  Se115  1  0.751511  0.749760  0.077122  1
  Se  Se116  1  0.782006  0.768053  0.411618  1
  Se  Se117  1  0.744536  0.751408  0.576829  1
  Se  Se118  1  0.771739  0.752547  0.907616  1
  Se  Se119  1  0.821700  0.470522  0.067348  1
  Se  Se120  1  0.809681  0.484408  0.564467  1
  Se  Se121  1  0.828078  0.453387  0.409679  1
  Se  Se122  1  0.826804  0.446416  0.911112  1
  Se  Se123  1  0.846813  0.200828  0.483700  1
  Se  Se124  1  0.832840  0.210511  0.985949  1
  Se  Se125  1  0.803875  0.429778  0.256538  1
  Se  Se126  1  0.802530  0.425281  0.756021  1
  Se  Se127  1  0.793560  0.146551  0.187771  1
  Se  Se128  1  0.832693  0.176761  0.332231  1
  Se  Se129  1  0.803521  0.150053  0.680613  1
  Se  Se130  1  0.831607  0.175884  0.830398  1
  Se  Se131  1  0.895288  0.876373  0.346398  1
  Se  Se132  1  0.872161  0.861791  0.170289  1
  Se  Se133  1  0.873035  0.855646  0.833329  1
  Se  Se134  1  0.861557  0.859172  0.663336  1
  Se  Se135  1  0.014315  0.000369  0.932480  1
  Se  Se136  1  0.958764  0.971146  0.554598  1
  Se  Se137  1  0.992470  0.026220  0.072278  1
