# generated using pymatgen
data_KSn4(PO4)3
_symmetry_space_group_name_H-M   'P 1'
_cell_length_a   10.22494989
_cell_length_b   10.22494989
_cell_length_c   10.22494989
_cell_angle_alpha   58.98941690
_cell_angle_beta   58.98941691
_cell_angle_gamma   58.98941690
_symmetry_Int_Tables_number   1
_chemical_formula_structural   KSn4(PO4)3
_chemical_formula_sum   'K2 Sn8 P6 O24'
_cell_volume   738.48119042
_cell_formula_units_Z   2
loop_
 _symmetry_equiv_pos_site_id
 _symmetry_equiv_pos_as_xyz
  1  'x, y, z'
loop_
 _atom_site_type_symbol
 _atom_site_label
 _atom_site_symmetry_multiplicity
 _atom_site_fract_x
 _atom_site_fract_y
 _atom_site_fract_z
 _atom_site_occupancy
  O  O0  1  0.186519  0.891228  0.711723  1
  O  O1  1  0.913216  0.571309  0.752160  1
  O  O2  1  0.636161  0.124106  0.188808  1
  O  O3  1  0.124106  0.188808  0.636161  1
  O  O4  1  0.188808  0.636161  0.124106  1
  O  O5  1  0.688808  0.624106  0.136161  1
  O  O6  1  0.624106  0.136161  0.688808  1
  O  O7  1  0.136161  0.688808  0.624106  1
  O  O8  1  0.571309  0.752160  0.913216  1
  O  O9  1  0.071309  0.413216  0.252160  1
  O  O10  1  0.413216  0.252160  0.071309  1
  O  O11  1  0.252160  0.071309  0.413216  1
  O  O12  1  0.686519  0.211723  0.391228  1
  O  O13  1  0.211723  0.391228  0.686519  1
  O  O14  1  0.100913  0.595607  0.959473  1
  O  O15  1  0.391228  0.686519  0.211723  1
  O  O16  1  0.595607  0.959473  0.100913  1
  O  O17  1  0.095607  0.600913  0.459473  1
  O  O18  1  0.459473  0.095607  0.600913  1
  O  O19  1  0.600913  0.459473  0.095607  1
  O  O20  1  0.959473  0.100913  0.595607  1
  O  O21  1  0.711723  0.186519  0.891228  1
  O  O22  1  0.891228  0.711723  0.186519  1
  O  O23  1  0.752160  0.913216  0.571309  1
  P  P24  1  0.562261  0.630802  0.089008  1
  P  P25  1  0.630802  0.089008  0.562261  1
  P  P26  1  0.089008  0.562261  0.630802  1
  P  P27  1  0.062261  0.589008  0.130802  1
  P  P28  1  0.589008  0.130802  0.062261  1
  P  P29  1  0.130802  0.062261  0.589008  1
  K  K30  1  0.342613  0.342613  0.342613  1
  K  K31  1  0.842613  0.842613  0.842613  1
  Sn  Sn32  1  0.794498  0.233760  0.140611  1
  Sn  Sn33  1  0.233760  0.140611  0.794498  1
  Sn  Sn34  1  0.140611  0.794498  0.233760  1
  Sn  Sn35  1  0.640611  0.733760  0.294498  1
  Sn  Sn36  1  0.733760  0.294498  0.640611  1
  Sn  Sn37  1  0.294498  0.640611  0.733760  1
  Sn  Sn38  1  0.694691  0.694691  0.694691  1
  Sn  Sn39  1  0.194691  0.194691  0.194691  1
