# generated using pymatgen
data_Te(HO)6
_symmetry_space_group_name_H-M   'P 1'
_cell_length_a   5.54914515
_cell_length_b   5.95153390
_cell_length_c   5.95153390
_cell_angle_alpha   55.57511529
_cell_angle_beta   62.21244239
_cell_angle_gamma   62.21244232
_symmetry_Int_Tables_number   1
_chemical_formula_structural   Te(HO)6
_chemical_formula_sum   'Te1 H6 O6'
_cell_volume   137.79399669
_cell_formula_units_Z   1
loop_
 _symmetry_equiv_pos_site_id
 _symmetry_equiv_pos_as_xyz
  1  'x, y, z'
loop_
 _atom_site_type_symbol
 _atom_site_label
 _atom_site_symmetry_multiplicity
 _atom_site_fract_x
 _atom_site_fract_y
 _atom_site_fract_z
 _atom_site_occupancy
  Te  Te0  1  0.000000  0.000000  0.000000  1
  H  H1  1  0.315700  0.684300  0.684300  1
  H  H2  1  0.401316  0.196566  0.803434  1
  H  H3  1  0.196566  0.598684  0.401316  1
  H  H4  1  0.684300  0.315700  0.315700  1
  H  H5  1  0.598684  0.803434  0.196566  1
  H  H6  1  0.803434  0.401316  0.598684  1
  O  O7  1  0.208763  0.791237  0.791237  1
  O  O8  1  0.234949  0.261073  0.738927  1
  O  O9  1  0.261073  0.765051  0.234949  1
  O  O10  1  0.791237  0.208763  0.208763  1
  O  O11  1  0.765051  0.738927  0.261073  1
  O  O12  1  0.738927  0.234949  0.765051  1
