# generated using pymatgen
data_Ca6Nd6ScMn11O36
_symmetry_space_group_name_H-M   'P 1'
_cell_length_a   5.46031986
_cell_length_b   5.51565992
_cell_length_c   23.16753681
_cell_angle_alpha   90.01261751
_cell_angle_beta   89.93095617
_cell_angle_gamma   90.01322018
_symmetry_Int_Tables_number   1
_chemical_formula_structural   Ca6Nd6ScMn11O36
_chemical_formula_sum   'Ca6 Nd6 Sc1 Mn11 O36'
_cell_volume   697.74235969
_cell_formula_units_Z   1
loop_
 _symmetry_equiv_pos_site_id
 _symmetry_equiv_pos_as_xyz
  1  'x, y, z'
loop_
 _atom_site_type_symbol
 _atom_site_label
 _atom_site_symmetry_multiplicity
 _atom_site_fract_x
 _atom_site_fract_y
 _atom_site_fract_z
 _atom_site_occupancy
  Ca  Ca0  1  0.010449  0.959011  0.744106  1
  Ca  Ca1  1  0.489962  0.458357  0.416007  1
  Ca  Ca2  1  0.491279  0.457959  0.745207  1
  Ca  Ca3  1  0.510072  0.540757  0.255702  1
  Ca  Ca4  1  0.990310  0.041683  0.254924  1
  Ca  Ca5  1  0.990328  0.041484  0.583891  1
  Nd  Nd6  1  0.013283  0.962320  0.089392  1
  Nd  Nd7  1  0.008620  0.958830  0.417059  1
  Nd  Nd8  1  0.492667  0.459629  0.089143  1
  Nd  Nd9  1  0.508978  0.541321  0.583117  1
  Nd  Nd10  1  0.507509  0.540860  0.910988  1
  Nd  Nd11  1  0.986494  0.038272  0.910375  1
  Sc  Sc12  1  0.000111  0.500061  0.000020  1
  Mn  Mn13  1  0.997753  0.501074  0.172249  1
  Mn  Mn14  1  0.000790  0.498424  0.499771  1
  Mn  Mn15  1  0.002452  0.498775  0.827676  1
  Mn  Mn16  1  0.503252  -0.000140  0.172345  1
  Mn  Mn17  1  0.500790  0.002159  0.500256  1
  Mn  Mn18  1  0.495459  0.999207  0.827713  1
  Mn  Mn19  1  0.499253  0.000377  0.000135  1
  Mn  Mn20  1  0.499799  -0.000020  0.334142  1
  Mn  Mn21  1  0.500688  0.001594  0.665853  1
  Mn  Mn22  1  0.998069  0.498963  0.334282  1
  Mn  Mn23  1  0.001891  0.499451  0.665779  1
  O  O24  1  0.085658  0.476135  0.251743  1
  O  O25  1  0.078823  0.482676  0.912157  1
  O  O26  1  0.078717  0.481383  0.583053  1
  O  O27  1  0.221511  0.220659  0.153405  1
  O  O28  1  0.213584  0.213902  0.348625  1
  O  O29  1  0.216816  0.215857  0.486000  1
  O  O30  1  0.224378  0.205513  0.016860  1
  O  O31  1  0.205827  0.204432  0.817881  1
  O  O32  1  0.216732  0.216700  0.679142  1
  O  O33  1  0.297412  0.721977  0.016289  1
  O  O34  1  0.279900  0.720539  0.153193  1
  O  O35  1  0.284802  0.715978  0.485670  1
  O  O36  1  0.280463  0.718475  0.350275  1
  O  O37  1  0.290253  0.712501  0.677999  1
  O  O38  1  0.292261  0.705453  0.818569  1
  O  O39  1  0.415521  0.973965  0.253236  1
  O  O40  1  0.418708  0.981817  0.582402  1
  O  O41  1  0.416047  0.983055  0.913983  1
  O  O42  1  0.583664  0.017332  0.085948  1
  O  O43  1  0.579250  0.019354  0.417666  1
  O  O44  1  0.585850  0.023703  0.746785  1
  O  O45  1  0.708301  0.293951  0.181515  1
  O  O46  1  0.715103  0.283191  0.320807  1
  O  O47  1  0.716523  0.283498  0.514218  1
  O  O48  1  0.714739  0.286321  0.651393  1
  O  O49  1  0.702806  0.278232  0.983589  1
  O  O50  1  0.718410  0.280239  0.846528  1
  O  O51  1  0.788822  0.787859  0.322099  1
  O  O52  1  0.792822  0.793812  0.181886  1
  O  O53  1  0.775874  0.794920  0.983075  1
  O  O54  1  0.778012  0.779595  0.846674  1
  O  O55  1  0.784278  0.784275  0.514382  1
  O  O56  1  0.781378  0.781295  0.649824  1
  O  O57  1  0.921207  0.516929  0.087723  1
  O  O58  1  0.919620  0.517479  0.417059  1
  O  O59  1  0.915668  0.526590  0.748219  1
