# generated using pymatgen
data_PtCl4
_symmetry_space_group_name_H-M   'P 1'
_cell_length_a   11.48539862
_cell_length_b   11.48378997
_cell_length_c   11.48530539
_cell_angle_alpha   90.01085379
_cell_angle_beta   89.99802534
_cell_angle_gamma   89.93510440
_symmetry_Int_Tables_number   1
_chemical_formula_structural   PtCl4
_chemical_formula_sum   'Pt8 Cl32'
_cell_volume   1514.86375557
_cell_formula_units_Z   8
loop_
 _symmetry_equiv_pos_site_id
 _symmetry_equiv_pos_as_xyz
  1  'x, y, z'
loop_
 _atom_site_type_symbol
 _atom_site_label
 _atom_site_symmetry_multiplicity
 _atom_site_fract_x
 _atom_site_fract_y
 _atom_site_fract_z
 _atom_site_occupancy
  Pt  Pt0  1  0.376151  0.623827  0.123817  1
  Pt  Pt1  1  0.123961  0.376089  0.623935  1
  Pt  Pt2  1  0.124125  0.124111  0.124083  1
  Pt  Pt3  1  0.375950  0.875876  0.624118  1
  Pt  Pt4  1  0.875873  0.875907  0.875918  1
  Pt  Pt5  1  0.623965  0.124049  0.375950  1
  Pt  Pt6  1  0.875941  0.624010  0.375964  1
  Pt  Pt7  1  0.623893  0.376137  0.876123  1
  Cl  Cl8  1  0.512177  0.249183  0.480045  1
  Cl  Cl9  1  0.238043  0.238035  0.237931  1
  Cl  Cl10  1  0.519916  0.487944  0.750607  1
  Cl  Cl11  1  0.749342  0.479970  0.988047  1
  Cl  Cl12  1  0.019920  0.012135  0.249077  1
  Cl  Cl13  1  0.479981  0.511975  0.249477  1
  Cl  Cl14  1  0.011894  0.250671  0.519987  1
  Cl  Cl15  1  0.012051  0.249129  0.019885  1
  Cl  Cl16  1  0.520036  0.012108  0.250822  1
  Cl  Cl17  1  0.262074  0.761791  0.738092  1
  Cl  Cl18  1  0.480108  0.988112  0.749147  1
  Cl  Cl19  1  0.761943  0.761883  0.762077  1
  Cl  Cl20  1  0.262250  0.737789  0.237864  1
  Cl  Cl21  1  0.249507  0.479983  0.512002  1
  Cl  Cl22  1  0.737744  0.237942  0.262081  1
  Cl  Cl23  1  0.250906  0.980268  0.511983  1
  Cl  Cl24  1  0.749088  0.020061  0.487935  1
  Cl  Cl25  1  0.511968  0.250686  0.980006  1
  Cl  Cl26  1  0.761775  0.737958  0.261920  1
  Cl  Cl27  1  0.980058  0.988023  0.750940  1
  Cl  Cl28  1  0.987986  0.750805  0.980051  1
  Cl  Cl29  1  0.238122  0.262180  0.737958  1
  Cl  Cl30  1  0.980203  0.512000  0.250821  1
  Cl  Cl31  1  0.249138  0.019931  0.012151  1
  Cl  Cl32  1  0.750843  0.980187  0.987855  1
  Cl  Cl33  1  0.487981  0.749400  0.019991  1
  Cl  Cl34  1  0.019894  0.487945  0.749406  1
  Cl  Cl35  1  0.737832  0.262193  0.762086  1
  Cl  Cl36  1  0.250632  0.520021  0.011897  1
  Cl  Cl37  1  0.988061  0.749097  0.480152  1
  Cl  Cl38  1  0.750777  0.519838  0.488005  1
  Cl  Cl39  1  0.487892  0.750750  0.519794  1
