# generated using pymatgen
data_Na2La2Ti3O10
_symmetry_space_group_name_H-M   'P 1'
_cell_length_a   3.87136221
_cell_length_b   3.87136221
_cell_length_c   14.69641375
_cell_angle_alpha   97.56848247
_cell_angle_beta   97.56848247
_cell_angle_gamma   89.99999997
_symmetry_Int_Tables_number   1
_chemical_formula_structural   Na2La2Ti3O10
_chemical_formula_sum   'Na2 La2 Ti3 O10'
_cell_volume   216.40690644
_cell_formula_units_Z   1
loop_
 _symmetry_equiv_pos_site_id
 _symmetry_equiv_pos_as_xyz
  1  'x, y, z'
loop_
 _atom_site_type_symbol
 _atom_site_label
 _atom_site_symmetry_multiplicity
 _atom_site_fract_x
 _atom_site_fract_y
 _atom_site_fract_z
 _atom_site_occupancy
  O  O0  1  0.866747  0.366747  0.733495  1
  O  O1  1  0.366747  0.866747  0.733495  1
  O  O2  1  0.133253  0.633253  0.266505  1
  O  O3  1  0.633253  0.133253  0.266505  1
  O  O4  1  0.791381  0.791381  0.582761  1
  O  O5  1  0.208619  0.208619  0.417239  1
  O  O6  1  0.000000  0.500000  0.000000  1
  O  O7  1  0.067343  0.067343  0.134686  1
  O  O8  1  0.932657  0.932657  0.865314  1
  O  O9  1  0.500000  0.000000  0.000000  1
  Na  Na10  1  0.711778  0.711778  0.423556  1
  Na  Na11  1  0.288222  0.288222  0.576444  1
  Ti  Ti12  1  0.852196  0.852196  0.704393  1
  Ti  Ti13  1  0.147804  0.147804  0.295607  1
  Ti  Ti14  1  0.000000  0.000000  0.000000  1
  La  La15  1  0.575277  0.575277  0.150554  1
  La  La16  1  0.424723  0.424723  0.849446  1
