# generated using pymatgen
data_Pr2PbSe4
_symmetry_space_group_name_H-M   'P 1'
_cell_length_a   7.88259611
_cell_length_b   7.88259687
_cell_length_c   7.88259666
_cell_angle_alpha   109.47295819
_cell_angle_beta   109.47296015
_cell_angle_gamma   109.46774759
_symmetry_Int_Tables_number   1
_chemical_formula_structural   Pr2PbSe4
_chemical_formula_sum   'Pr4 Pb2 Se8'
_cell_volume   377.03874637
_cell_formula_units_Z   2
loop_
 _symmetry_equiv_pos_site_id
 _symmetry_equiv_pos_as_xyz
  1  'x, y, z'
loop_
 _atom_site_type_symbol
 _atom_site_label
 _atom_site_symmetry_multiplicity
 _atom_site_fract_x
 _atom_site_fract_y
 _atom_site_fract_z
 _atom_site_occupancy
  Pr  Pr0  1  0.117927  0.750000  0.867927  1
  Pr  Pr1  1  0.250000  0.617927  0.367927  1
  Pr  Pr2  1  0.382073  0.250000  0.632073  1
  Pr  Pr3  1  0.750000  0.882073  0.132073  1
  Pb  Pb4  1  0.625000  0.375000  0.250000  1
  Pb  Pb5  1  0.875000  0.125000  0.750000  1
  Se  Se6  1  0.007172  0.855452  0.498318  1
  Se  Se7  1  0.008854  0.357134  0.501682  1
  Se  Se8  1  0.491146  0.992828  0.348280  1
  Se  Se9  1  0.144548  0.142866  0.151720  1
  Se  Se10  1  0.355452  0.507172  0.998318  1
  Se  Se11  1  0.642866  0.644548  0.651720  1
  Se  Se12  1  0.492828  0.991146  0.848280  1
  Se  Se13  1  0.857134  0.508854  0.001682  1
