# generated using pymatgen
data_Cu3P15I2
_symmetry_space_group_name_H-M   'P 1'
_cell_length_a   9.71003607
_cell_length_b   9.94106187
_cell_length_c   19.56633716
_cell_angle_alpha   90.00000000
_cell_angle_beta   90.00000000
_cell_angle_gamma   108.75543913
_symmetry_Int_Tables_number   1
_chemical_formula_structural   Cu3P15I2
_chemical_formula_sum   'Cu12 P60 I8'
_cell_volume   1788.41000459
_cell_formula_units_Z   4
loop_
 _symmetry_equiv_pos_site_id
 _symmetry_equiv_pos_as_xyz
  1  'x, y, z'
loop_
 _atom_site_type_symbol
 _atom_site_label
 _atom_site_symmetry_multiplicity
 _atom_site_fract_x
 _atom_site_fract_y
 _atom_site_fract_z
 _atom_site_occupancy
  Cu  Cu0  1  0.675934  0.674650  0.056679  1
  Cu  Cu1  1  0.442512  0.073061  0.788566  1
  Cu  Cu2  1  0.229871  0.822448  0.559029  1
  Cu  Cu3  1  0.824066  0.825350  0.556679  1
  Cu  Cu4  1  0.770129  0.177552  0.440971  1
  Cu  Cu5  1  0.324066  0.325350  0.943321  1
  Cu  Cu6  1  0.942512  0.573061  0.711434  1
  Cu  Cu7  1  0.270129  0.677552  0.059029  1
  Cu  Cu8  1  0.175934  0.174650  0.443321  1
  Cu  Cu9  1  0.729871  0.322448  0.940971  1
  Cu  Cu10  1  0.057488  0.426939  0.288566  1
  Cu  Cu11  1  0.557488  0.926939  0.211434  1
  P  P12  1  0.784370  0.557889  0.906583  1
  P  P13  1  0.110821  0.719840  0.981819  1
  P  P14  1  0.371340  0.228555  0.516938  1
  P  P15  1  0.958323  0.627122  0.826963  1
  P  P16  1  0.541677  0.872878  0.326963  1
  P  P17  1  0.897801  0.916330  0.913970  1
  P  P18  1  0.807643  0.643956  0.356258  1
  P  P19  1  0.200781  0.917030  0.920630  1
  P  P20  1  0.429994  0.566329  0.923488  1
  P  P21  1  0.458323  0.127122  0.673037  1
  P  P22  1  0.510927  0.272624  0.996045  1
  P  P23  1  0.799219  0.082970  0.079370  1
  P  P24  1  0.879337  0.379734  0.637622  1
  P  P25  1  0.885848  0.884674  0.350333  1
  P  P26  1  0.489073  0.727376  0.003955  1
  P  P27  1  0.405477  0.943687  0.399916  1
  P  P28  1  0.284370  0.057889  0.593417  1
  P  P29  1  0.715630  0.942111  0.406583  1
  P  P30  1  0.594523  0.056313  0.600084  1
  P  P31  1  0.628660  0.771445  0.483062  1
  P  P32  1  0.379337  0.879734  0.862378  1
  P  P33  1  0.440154  0.085361  0.062294  1
  P  P34  1  0.114152  0.115326  0.649667  1
  P  P35  1  0.070006  0.933671  0.423488  1
  P  P36  1  0.692357  0.856044  0.856258  1
  P  P37  1  0.559846  0.914639  0.937706  1
  P  P38  1  0.459229  0.628502  0.334800  1
  P  P39  1  0.540771  0.371498  0.665200  1
  P  P40  1  0.040771  0.871498  0.834800  1
  P  P41  1  0.700781  0.417030  0.579370  1
  P  P42  1  0.397801  0.416330  0.586030  1
  P  P43  1  0.128660  0.271445  0.016938  1
  P  P44  1  0.905477  0.443687  0.100084  1
  P  P45  1  0.102199  0.083670  0.086030  1
  P  P46  1  0.614152  0.615326  0.850333  1
  P  P47  1  0.299219  0.582970  0.420630  1
  P  P48  1  0.802672  0.138159  0.654552  1
  P  P49  1  0.929994  0.066329  0.576512  1
  P  P50  1  0.620663  0.120266  0.137622  1
  P  P51  1  0.697328  0.361841  0.154552  1
  P  P52  1  0.871340  0.728555  0.983062  1
  P  P53  1  0.041677  0.372878  0.173037  1
  P  P54  1  0.094523  0.556313  0.899916  1
  P  P55  1  0.570006  0.433671  0.076512  1
  P  P56  1  0.602199  0.583670  0.413970  1
  P  P57  1  0.389179  0.780160  0.481819  1
  P  P58  1  0.959229  0.128502  0.165200  1
  P  P59  1  0.215630  0.442111  0.093417  1
  P  P60  1  0.302672  0.638159  0.845448  1
  P  P61  1  0.307643  0.143956  0.143742  1
  P  P62  1  0.385848  0.384674  0.149667  1
  P  P63  1  0.010927  0.772624  0.503955  1
  P  P64  1  0.889179  0.280160  0.018181  1
  P  P65  1  0.989073  0.227376  0.496045  1
  P  P66  1  0.120663  0.620266  0.362378  1
  P  P67  1  0.197328  0.861841  0.345448  1
  P  P68  1  0.059846  0.414639  0.562294  1
  P  P69  1  0.940154  0.585361  0.437706  1
  P  P70  1  0.610821  0.219840  0.518181  1
  P  P71  1  0.192357  0.356044  0.643742  1
  I  I72  1  0.774833  0.735093  0.682352  1
  I  I73  1  0.225167  0.264907  0.317648  1
  I  I74  1  0.719570  0.220716  0.818122  1
  I  I75  1  0.780430  0.279284  0.318122  1
  I  I76  1  0.725167  0.764907  0.182352  1
  I  I77  1  0.274833  0.235093  0.817648  1
  I  I78  1  0.280430  0.779284  0.181878  1
  I  I79  1  0.219570  0.720716  0.681878  1
