# generated using pymatgen
data_LiEu3SiCl3O4
_symmetry_space_group_name_H-M   'P 1'
_cell_length_a   7.00757262
_cell_length_b   9.48792169
_cell_length_c   13.66370943
_cell_angle_alpha   90.00000000
_cell_angle_beta   90.00000000
_cell_angle_gamma   90.00000000
_symmetry_Int_Tables_number   1
_chemical_formula_structural   LiEu3SiCl3O4
_chemical_formula_sum   'Li4 Eu12 Si4 Cl12 O16'
_cell_volume   908.46315148
_cell_formula_units_Z   4
loop_
 _symmetry_equiv_pos_site_id
 _symmetry_equiv_pos_as_xyz
  1  'x, y, z'
loop_
 _atom_site_type_symbol
 _atom_site_label
 _atom_site_symmetry_multiplicity
 _atom_site_fract_x
 _atom_site_fract_y
 _atom_site_fract_z
 _atom_site_occupancy
  Eu  Eu0  1  0.000000  0.740555  0.000000  1
  Eu  Eu1  1  0.000000  0.259445  0.000000  1
  Eu  Eu2  1  0.222433  0.000000  0.189107  1
  Eu  Eu3  1  0.777567  0.500000  0.689107  1
  Eu  Eu4  1  0.669816  0.250000  0.250000  1
  Eu  Eu5  1  0.777567  0.000000  0.810893  1
  Eu  Eu6  1  0.000000  0.759445  0.500000  1
  Eu  Eu7  1  0.669816  0.750000  0.250000  1
  Eu  Eu8  1  0.330184  0.250000  0.750000  1
  Eu  Eu9  1  0.000000  0.240555  0.500000  1
  Eu  Eu10  1  0.330184  0.750000  0.750000  1
  Eu  Eu11  1  0.222433  0.500000  0.310893  1
  Li  Li12  1  0.500000  0.500000  0.000000  1
  Li  Li13  1  0.500000  0.500000  0.500000  1
  Li  Li14  1  0.500000  0.000000  0.500000  1
  Li  Li15  1  0.500000  0.000000  0.000000  1
  Si  Si16  1  0.791516  0.500000  0.388631  1
  Si  Si17  1  0.791516  0.000000  0.111369  1
  Si  Si18  1  0.208484  0.000000  0.888631  1
  Si  Si19  1  0.208484  0.500000  0.611369  1
  Cl  Cl20  1  0.801068  0.000000  0.393290  1
  Cl  Cl21  1  0.665188  0.683232  0.873521  1
  Cl  Cl22  1  0.665188  0.183232  0.626479  1
  Cl  Cl23  1  0.665188  0.816768  0.626479  1
  Cl  Cl24  1  0.198932  0.000000  0.606710  1
  Cl  Cl25  1  0.334812  0.683232  0.126479  1
  Cl  Cl26  1  0.334812  0.816768  0.373521  1
  Cl  Cl27  1  0.334812  0.183232  0.373521  1
  Cl  Cl28  1  0.198932  0.500000  0.893290  1
  Cl  Cl29  1  0.665188  0.316768  0.873521  1
  Cl  Cl30  1  0.801068  0.500000  0.106710  1
  Cl  Cl31  1  0.334812  0.316768  0.126479  1
  O  O32  1  0.226489  0.500000  0.491767  1
  O  O33  1  0.577425  0.500000  0.339656  1
  O  O34  1  0.088194  0.639353  0.648562  1
  O  O35  1  0.911806  0.860647  0.148562  1
  O  O36  1  0.088194  0.360647  0.648562  1
  O  O37  1  0.911806  0.139353  0.148562  1
  O  O38  1  0.773511  0.500000  0.508233  1
  O  O39  1  0.911806  0.639353  0.351438  1
  O  O40  1  0.422575  0.500000  0.660344  1
  O  O41  1  0.577425  0.000000  0.160344  1
  O  O42  1  0.088194  0.860647  0.851438  1
  O  O43  1  0.422575  0.000000  0.839656  1
  O  O44  1  0.773511  0.000000  0.991767  1
  O  O45  1  0.226489  0.000000  0.008233  1
  O  O46  1  0.088194  0.139353  0.851438  1
  O  O47  1  0.911806  0.360647  0.351438  1
