# generated using pymatgen
data_Eu2Ge2Se5
_symmetry_space_group_name_H-M   'P 1'
_cell_length_a   8.51483897
_cell_length_b   9.20849560
_cell_length_c   12.33542766
_cell_angle_alpha   90.00000000
_cell_angle_beta   90.00000000
_cell_angle_gamma   94.43800631
_symmetry_Int_Tables_number   1
_chemical_formula_structural   Eu2Ge2Se5
_chemical_formula_sum   'Eu8 Ge8 Se20'
_cell_volume   964.30675361
_cell_formula_units_Z   4
loop_
 _symmetry_equiv_pos_site_id
 _symmetry_equiv_pos_as_xyz
  1  'x, y, z'
loop_
 _atom_site_type_symbol
 _atom_site_label
 _atom_site_symmetry_multiplicity
 _atom_site_fract_x
 _atom_site_fract_y
 _atom_site_fract_z
 _atom_site_occupancy
  Eu  Eu0  1  0.456635  0.470855  0.662347  1
  Eu  Eu1  1  0.043365  0.029145  0.162347  1
  Eu  Eu2  1  0.943194  0.479038  0.803991  1
  Eu  Eu3  1  0.543365  0.529145  0.337653  1
  Eu  Eu4  1  0.556806  0.020962  0.303991  1
  Eu  Eu5  1  0.956635  0.970855  0.837653  1
  Eu  Eu6  1  0.056806  0.520962  0.196009  1
  Eu  Eu7  1  0.443194  0.979038  0.696009  1
  Ge  Ge8  1  0.200567  0.686127  0.519562  1
  Ge  Ge9  1  0.990216  0.834597  0.449836  1
  Ge  Ge10  1  0.799433  0.313873  0.480438  1
  Ge  Ge11  1  0.299433  0.813873  0.019561  1
  Ge  Ge12  1  0.490216  0.334597  0.050164  1
  Ge  Ge13  1  0.009784  0.165403  0.550164  1
  Ge  Ge14  1  0.509784  0.665403  0.949836  1
  Ge  Ge15  1  0.700567  0.186127  0.980438  1
  Se  Se16  1  0.530942  0.214860  0.506955  1
  Se  Se17  1  0.339169  0.440801  0.905523  1
  Se  Se18  1  0.030942  0.714860  0.993045  1
  Se  Se19  1  0.662455  0.722804  0.790104  1
  Se  Se20  1  0.207423  0.452651  0.439431  1
  Se  Se21  1  0.189521  0.706700  0.716472  1
  Se  Se22  1  0.837545  0.777196  0.290104  1
  Se  Se23  1  0.707423  0.952651  0.060569  1
  Se  Se24  1  0.292577  0.047349  0.939431  1
  Se  Se25  1  0.839169  0.940801  0.594477  1
  Se  Se26  1  0.337545  0.277196  0.209896  1
  Se  Se27  1  0.810479  0.293300  0.283528  1
  Se  Se28  1  0.689521  0.206700  0.783528  1
  Se  Se29  1  0.162455  0.222804  0.709896  1
  Se  Se30  1  0.660831  0.559199  0.094477  1
  Se  Se31  1  0.310479  0.793300  0.216472  1
  Se  Se32  1  0.969058  0.285140  0.006955  1
  Se  Se33  1  0.792577  0.547349  0.560569  1
  Se  Se34  1  0.469058  0.785140  0.493045  1
  Se  Se35  1  0.160831  0.059199  0.405523  1
