# generated using pymatgen
data_Fe24N11
_symmetry_space_group_name_H-M   'P 1'
_cell_length_a   8.62662100
_cell_length_b   14.15973522
_cell_length_c   6.96164053
_cell_angle_alpha   90.04222603
_cell_angle_beta   51.71434881
_cell_angle_gamma   90.06815246
_symmetry_Int_Tables_number   1
_chemical_formula_structural   Fe24N11
_chemical_formula_sum   'Fe48 N22'
_cell_volume   667.48103214
_cell_formula_units_Z   2
loop_
 _symmetry_equiv_pos_site_id
 _symmetry_equiv_pos_as_xyz
  1  'x, y, z'
loop_
 _atom_site_type_symbol
 _atom_site_label
 _atom_site_symmetry_multiplicity
 _atom_site_fract_x
 _atom_site_fract_y
 _atom_site_fract_z
 _atom_site_occupancy
  Fe  Fe0  1  0.062035  0.027756  0.121622  1
  Fe  Fe1  1  0.064813  0.361743  0.126201  1
  Fe  Fe2  1  0.068701  0.696265  0.125031  1
  Fe  Fe3  1  0.066268  0.138911  0.621736  1
  Fe  Fe4  1  0.186416  0.305734  0.378440  1
  Fe  Fe5  1  0.062297  0.472758  0.623072  1
  Fe  Fe6  1  0.185611  0.640960  0.379373  1
  Fe  Fe7  1  0.067011  0.801852  0.619027  1
  Fe  Fe8  1  0.189767  0.970127  0.376336  1
  Fe  Fe9  1  0.318299  0.140237  0.118735  1
  Fe  Fe10  1  0.314261  0.472621  0.121292  1
  Fe  Fe11  1  0.312805  0.804801  0.136644  1
  Fe  Fe12  1  0.564447  0.027379  0.121292  1
  Fe  Fe13  1  0.193732  0.196265  0.874969  1
  Fe  Fe14  1  0.562966  0.359763  0.118735  1
  Fe  Fe15  1  0.183656  0.527756  0.878378  1
  Fe  Fe16  1  0.550551  0.695199  0.136644  1
  Fe  Fe17  1  0.191014  0.861743  0.873799  1
  Fe  Fe18  1  0.314631  0.027242  0.623072  1
  Fe  Fe19  1  0.435143  0.194266  0.378440  1
  Fe  Fe20  1  0.311996  0.361089  0.621736  1
  Fe  Fe21  1  0.433897  0.529873  0.376336  1
  Fe  Fe22  1  0.313962  0.698148  0.619027  1
  Fe  Fe23  1  0.435016  0.859040  0.379373  1
  Fe  Fe24  1  0.686038  0.301852  0.380973  1
  Fe  Fe25  1  0.564984  0.140960  0.620627  1
  Fe  Fe26  1  0.566103  0.470127  0.623664  1
  Fe  Fe27  1  0.688004  0.638911  0.378264  1
  Fe  Fe28  1  0.564857  0.805734  0.621560  1
  Fe  Fe29  1  0.685369  0.972758  0.376928  1
  Fe  Fe30  1  0.808986  0.138257  0.126201  1
  Fe  Fe31  1  0.816344  0.472244  0.121622  1
  Fe  Fe32  1  0.449449  0.304801  0.863356  1
  Fe  Fe33  1  0.437034  0.640237  0.881265  1
  Fe  Fe34  1  0.806268  0.803735  0.125031  1
  Fe  Fe35  1  0.435553  0.972621  0.878708  1
  Fe  Fe36  1  0.687195  0.195199  0.863356  1
  Fe  Fe37  1  0.685739  0.527379  0.878708  1
  Fe  Fe38  1  0.681701  0.859763  0.881265  1
  Fe  Fe39  1  0.810233  0.029873  0.623664  1
  Fe  Fe40  1  0.932989  0.198148  0.380973  1
  Fe  Fe41  1  0.814389  0.359040  0.620627  1
  Fe  Fe42  1  0.937703  0.527242  0.376928  1
  Fe  Fe43  1  0.933732  0.861089  0.378264  1
  Fe  Fe44  1  0.813584  0.694266  0.621560  1
  Fe  Fe45  1  0.931299  0.303735  0.874969  1
  Fe  Fe46  1  0.935187  0.638257  0.873799  1
  Fe  Fe47  1  0.937965  0.972244  0.878378  1
  N  N48  1  0.183776  0.251521  0.135442  1
  N  N49  1  0.183589  0.583821  0.134487  1
  N  N50  1  0.178044  0.917771  0.140435  1
  N  N51  1  0.319615  0.082153  0.359385  1
  N  N52  1  0.178935  0.250000  0.642130  1
  N  N53  1  0.321000  0.417847  0.359385  1
  N  N54  1  0.180795  0.912774  0.634670  1
  N  N55  1  0.184536  0.587226  0.634670  1
  N  N56  1  0.680782  0.248479  0.135442  1
  N  N57  1  0.681924  0.916179  0.134487  1
  N  N58  1  0.681521  0.582229  0.140435  1
  N  N59  1  0.318076  0.083821  0.865513  1
  N  N60  1  0.318479  0.417771  0.859565  1
  N  N61  1  0.319218  0.751521  0.864558  1
  N  N62  1  0.679000  0.582153  0.640615  1
  N  N63  1  0.680385  0.917847  0.640615  1
  N  N64  1  0.819205  0.087226  0.365330  1
  N  N65  1  0.815464  0.412774  0.365330  1
  N  N66  1  0.821065  0.750000  0.357870  1
  N  N67  1  0.821956  0.082229  0.859565  1
  N  N68  1  0.816411  0.416179  0.865513  1
  N  N69  1  0.816224  0.748479  0.864558  1
