# generated using pymatgen
data_Na2CaSn2(GeO4)3
_symmetry_space_group_name_H-M   'P 1'
_cell_length_a   10.93171720
_cell_length_b   10.93171633
_cell_length_c   10.93171692
_cell_angle_alpha   109.59277873
_cell_angle_beta   109.59277715
_cell_angle_gamma   109.22837855
_symmetry_Int_Tables_number   1
_chemical_formula_structural   Na2CaSn2(GeO4)3
_chemical_formula_sum   'Na8 Ca4 Sn8 Ge12 O48'
_cell_volume   1005.62805289
_cell_formula_units_Z   4
loop_
 _symmetry_equiv_pos_site_id
 _symmetry_equiv_pos_as_xyz
  1  'x, y, z'
loop_
 _atom_site_type_symbol
 _atom_site_label
 _atom_site_symmetry_multiplicity
 _atom_site_fract_x
 _atom_site_fract_y
 _atom_site_fract_z
 _atom_site_occupancy
  Na  Na0  1  0.250000  0.876098  0.626098  1
  Na  Na1  1  0.123902  0.250000  0.373902  1
  Na  Na2  1  0.376098  0.750000  0.126098  1
  Na  Na3  1  0.250000  0.376098  0.126098  1
  Na  Na4  1  0.623902  0.250000  0.873902  1
  Na  Na5  1  0.750000  0.623902  0.873902  1
  Na  Na6  1  0.876098  0.750000  0.626098  1
  Na  Na7  1  0.750000  0.123902  0.373902  1
  Ca  Ca8  1  0.125000  0.375000  0.750000  1
  Ca  Ca9  1  0.625000  0.875000  0.750000  1
  Ca  Ca10  1  0.375000  0.125000  0.250000  1
  Ca  Ca11  1  0.875000  0.625000  0.250000  1
  Sn  Sn12  1  0.000000  0.500000  0.000000  1
  Sn  Sn13  1  0.000000  0.000000  0.000000  1
  Sn  Sn14  1  0.500000  0.500000  0.500000  1
  Sn  Sn15  1  0.500000  0.000000  0.500000  1
  Sn  Sn16  1  0.500000  0.500000  0.000000  1
  Sn  Sn17  1  0.500000  0.000000  0.000000  1
  Sn  Sn18  1  0.000000  0.500000  0.500000  1
  Sn  Sn19  1  0.000000  0.000000  0.500000  1
  Ge  Ge20  1  0.124720  0.750000  0.874720  1
  Ge  Ge21  1  0.125000  0.875000  0.250000  1
  Ge  Ge22  1  0.250000  0.624720  0.374720  1
  Ge  Ge23  1  0.250000  0.124720  0.874720  1
  Ge  Ge24  1  0.375000  0.625000  0.750000  1
  Ge  Ge25  1  0.375280  0.250000  0.625280  1
  Ge  Ge26  1  0.624720  0.750000  0.374720  1
  Ge  Ge27  1  0.750000  0.375280  0.625280  1
  Ge  Ge28  1  0.625000  0.375000  0.250000  1
  Ge  Ge29  1  0.750000  0.875280  0.125280  1
  Ge  Ge30  1  0.875000  0.125000  0.750000  1
  Ge  Ge31  1  0.875280  0.250000  0.125280  1
  O  O32  1  0.101420  0.985987  0.688843  1
  O  O33  1  0.117744  0.600162  0.911625  1
  O  O34  1  0.016437  0.312262  0.893981  1
  O  O35  1  0.087422  0.702855  0.688843  1
  O  O36  1  0.081719  0.877544  0.393981  1
  O  O37  1  0.100162  0.617744  0.411625  1
  O  O38  1  0.187738  0.483563  0.606019  1
  O  O39  1  0.418281  0.812262  0.795826  1
  O  O40  1  0.377545  0.581719  0.893981  1
  O  O41  1  0.293881  0.311463  0.911625  1
  O  O42  1  0.312262  0.918281  0.295826  1
  O  O43  1  0.014013  0.202855  0.115433  1
  O  O44  1  0.188537  0.206119  0.588375  1
  O  O45  1  0.202855  0.587422  0.188843  1
  O  O46  1  0.399838  0.811463  0.517582  1
  O  O47  1  0.297145  0.485987  0.384567  1
  O  O48  1  0.311463  0.899838  0.017582  1
  O  O49  1  0.122455  0.016437  0.204174  1
  O  O50  1  0.398580  0.087422  0.884567  1
  O  O51  1  0.516437  0.622456  0.704174  1
  O  O52  1  0.514013  0.398580  0.811157  1
  O  O53  1  0.382256  0.293881  0.482418  1
  O  O54  1  0.587422  0.898580  0.384567  1
  O  O55  1  0.206119  0.117744  0.017582  1
  O  O56  1  0.793881  0.882256  0.982418  1
  O  O57  1  0.412578  0.101420  0.615433  1
  O  O58  1  0.617744  0.706119  0.517582  1
  O  O59  1  0.485987  0.601420  0.188843  1
  O  O60  1  0.483563  0.377545  0.295826  1
  O  O61  1  0.601420  0.912578  0.115433  1
  O  O62  1  0.877544  0.983563  0.795826  1
  O  O63  1  0.688537  0.100162  0.982418  1
  O  O64  1  0.702855  0.514013  0.615433  1
  O  O65  1  0.600162  0.188537  0.482418  1
  O  O66  1  0.797145  0.412578  0.811157  1
  O  O67  1  0.811463  0.793881  0.411625  1
  O  O68  1  0.985987  0.797145  0.884567  1
  O  O69  1  0.687738  0.081719  0.704174  1
  O  O70  1  0.706119  0.688537  0.088375  1
  O  O71  1  0.622456  0.418281  0.106019  1
  O  O72  1  0.581719  0.187738  0.204174  1
  O  O73  1  0.812262  0.516437  0.393981  1
  O  O74  1  0.899838  0.382256  0.588375  1
  O  O75  1  0.918281  0.122455  0.606019  1
  O  O76  1  0.912578  0.297145  0.311157  1
  O  O77  1  0.882256  0.399838  0.088375  1
  O  O78  1  0.983563  0.687738  0.106019  1
  O  O79  1  0.898580  0.014013  0.311157  1
