# generated using pymatgen
data_Na2ZnSiO4
_symmetry_space_group_name_H-M   'P 1'
_cell_length_a   5.32667427
_cell_length_b   5.53615431
_cell_length_c   7.06164337
_cell_angle_alpha   90.00000000
_cell_angle_beta   89.75928887
_cell_angle_gamma   90.00000000
_symmetry_Int_Tables_number   1
_chemical_formula_structural   Na2ZnSiO4
_chemical_formula_sum   'Na4 Zn2 Si2 O8'
_cell_volume   208.24101655
_cell_formula_units_Z   2
loop_
 _symmetry_equiv_pos_site_id
 _symmetry_equiv_pos_as_xyz
  1  'x, y, z'
loop_
 _atom_site_type_symbol
 _atom_site_label
 _atom_site_symmetry_multiplicity
 _atom_site_fract_x
 _atom_site_fract_y
 _atom_site_fract_z
 _atom_site_occupancy
  Na  Na0  1  0.508520  0.677738  0.747440  1
  Na  Na1  1  0.504892  0.184798  0.001816  1
  Na  Na2  1  0.008520  0.322262  0.247440  1
  Na  Na3  1  0.004892  0.815202  0.501816  1
  Zn  Zn4  1  0.995482  0.810226  0.996726  1
  Zn  Zn5  1  0.495482  0.189774  0.496725  1
  Si  Si6  1  0.492081  0.688039  0.249095  1
  Si  Si7  1  0.992081  0.311961  0.749095  1
  O  O8  1  0.572073  0.842966  0.440952  1
  O  O9  1  0.129333  0.207309  0.555377  1
  O  O10  1  0.573304  0.400749  0.276516  1
  O  O11  1  0.684315  0.293225  0.722078  1
  O  O12  1  0.629333  0.792691  0.055377  1
  O  O13  1  0.184315  0.706775  0.222078  1
  O  O14  1  0.073304  0.599251  0.776516  1
  O  O15  1  0.072073  0.157034  0.940952  1
