# generated using pymatgen
data_PH9C2NO3F
_symmetry_space_group_name_H-M   'P 1'
_cell_length_a   11.21534292
_cell_length_b   11.07234985
_cell_length_c   11.95008191
_cell_angle_alpha   90.00000000
_cell_angle_beta   90.00000000
_cell_angle_gamma   90.00000000
_symmetry_Int_Tables_number   1
_chemical_formula_structural   PH9C2NO3F
_chemical_formula_sum   'P8 H72 C16 N8 O24 F8'
_cell_volume   1483.96356755
_cell_formula_units_Z   8
loop_
 _symmetry_equiv_pos_site_id
 _symmetry_equiv_pos_as_xyz
  1  'x, y, z'
loop_
 _atom_site_type_symbol
 _atom_site_label
 _atom_site_symmetry_multiplicity
 _atom_site_fract_x
 _atom_site_fract_y
 _atom_site_fract_z
 _atom_site_occupancy
  P  P0  1  0.279224  0.754026  0.401817  1
  P  P1  1  0.779224  0.745974  0.598183  1
  P  P2  1  0.720776  0.245974  0.598183  1
  P  P3  1  0.720776  0.254026  0.098183  1
  P  P4  1  0.220776  0.254026  0.401817  1
  P  P5  1  0.779224  0.754026  0.098183  1
  P  P6  1  0.220776  0.245974  0.901817  1
  P  P7  1  0.279224  0.745974  0.901817  1
  H  H8  1  0.955137  0.610164  0.809097  1
  H  H9  1  0.955137  0.889836  0.309097  1
  H  H10  1  0.104955  0.117560  0.155352  1
  H  H11  1  0.017722  0.383514  0.836258  1
  H  H12  1  0.182509  0.461432  0.232361  1
  H  H13  1  0.044863  0.389836  0.190903  1
  H  H14  1  0.104955  0.382440  0.655352  1
  H  H15  1  0.198699  0.379163  0.397576  1
  H  H16  1  0.017722  0.116486  0.336258  1
  H  H17  1  0.898804  0.036450  0.799138  1
  H  H18  1  0.682509  0.461432  0.267639  1
  H  H19  1  0.301301  0.620837  0.897576  1
  H  H20  1  0.317491  0.538568  0.732361  1
  H  H21  1  0.116134  0.078497  0.523189  1
  H  H22  1  0.455137  0.610164  0.690903  1
  H  H23  1  0.682509  0.038568  0.767639  1
  H  H24  1  0.982278  0.616486  0.163742  1
  H  H25  1  0.383866  0.578497  0.523189  1
  H  H26  1  0.601196  0.536450  0.799138  1
  H  H27  1  0.904191  0.140606  0.242859  1
  H  H28  1  0.698699  0.379163  0.102424  1
  H  H29  1  0.895045  0.617560  0.344648  1
  H  H30  1  0.395045  0.882440  0.655352  1
  H  H31  1  0.517722  0.116486  0.163742  1
  H  H32  1  0.044863  0.110164  0.690903  1
  H  H33  1  0.198699  0.120837  0.897576  1
  H  H34  1  0.601196  0.963550  0.299138  1
  H  H35  1  0.904191  0.359394  0.742859  1
  H  H36  1  0.383866  0.921503  0.023189  1
  H  H37  1  0.395045  0.617560  0.155352  1
  H  H38  1  0.801301  0.620837  0.602424  1
  H  H39  1  0.595809  0.640606  0.242859  1
  H  H40  1  0.508670  0.982818  0.604254  1
  H  H41  1  0.544863  0.110164  0.809097  1
  H  H42  1  0.604955  0.382440  0.844648  1
  H  H43  1  0.544863  0.389836  0.309097  1
  H  H44  1  0.604955  0.117560  0.344648  1
  H  H45  1  0.895045  0.882440  0.844648  1
  H  H46  1  0.482278  0.883514  0.836258  1
  H  H47  1  0.101196  0.536450  0.700862  1
  H  H48  1  0.008670  0.982818  0.895746  1
  H  H49  1  0.698699  0.120837  0.602424  1
  H  H50  1  0.991330  0.482818  0.604254  1
  H  H51  1  0.095809  0.640606  0.257141  1
  H  H52  1  0.817491  0.961432  0.267639  1
  H  H53  1  0.301301  0.879163  0.397576  1
  H  H54  1  0.398804  0.036450  0.700862  1
  H  H55  1  0.508670  0.517182  0.104254  1
  H  H56  1  0.883866  0.578497  0.976811  1
  H  H57  1  0.982278  0.883514  0.663742  1
  H  H58  1  0.116134  0.421503  0.023189  1
  H  H59  1  0.898804  0.463550  0.299138  1
  H  H60  1  0.517722  0.383514  0.663742  1
  H  H61  1  0.616134  0.421503  0.476811  1
  H  H62  1  0.616134  0.078497  0.976811  1
  H  H63  1  0.482278  0.616486  0.336258  1
  H  H64  1  0.182509  0.038568  0.732361  1
  H  H65  1  0.491330  0.482818  0.895746  1
  H  H66  1  0.455137  0.889836  0.190903  1
  H  H67  1  0.101196  0.963550  0.200862  1
  H  H68  1  0.008670  0.517182  0.395746  1
  H  H69  1  0.095809  0.859394  0.757141  1
  H  H70  1  0.801301  0.879163  0.102424  1
  H  H71  1  0.404191  0.140606  0.257141  1
  H  H72  1  0.317491  0.961432  0.232361  1
  H  H73  1  0.595809  0.859394  0.742859  1
  H  H74  1  0.491330  0.017182  0.395746  1
  H  H75  1  0.817491  0.538568  0.767639  1
  H  H76  1  0.991330  0.017182  0.104254  1
  H  H77  1  0.883866  0.921503  0.476811  1
  H  H78  1  0.398804  0.463550  0.200862  1
  H  H79  1  0.404191  0.359394  0.757141  1
  C  C80  1  0.953504  0.541462  0.323357  1
  C  C81  1  0.453504  0.541462  0.176643  1
  C  C82  1  0.546496  0.041462  0.323357  1
  C  C83  1  0.398471  0.970593  0.180528  1
  C  C84  1  0.898471  0.970593  0.319472  1
  C  C85  1  0.046496  0.458538  0.676643  1
  C  C86  1  0.453504  0.958538  0.676643  1
  C  C87  1  0.101529  0.470593  0.180528  1
  C  C88  1  0.546496  0.458538  0.823357  1
  C  C89  1  0.601529  0.029407  0.819472  1
  C  C90  1  0.898471  0.529407  0.819472  1
  C  C91  1  0.398471  0.529407  0.680528  1
  C  C92  1  0.953504  0.958538  0.823357  1
  C  C93  1  0.601529  0.470593  0.319472  1
  C  C94  1  0.101529  0.029407  0.680528  1
  C  C95  1  0.046496  0.041462  0.176643  1
  N  N96  1  0.532581  0.924104  0.771470  1
  N  N97  1  0.032581  0.924104  0.728530  1
  N  N98  1  0.467419  0.424104  0.728530  1
  N  N99  1  0.532581  0.575896  0.271470  1
  N  N100  1  0.467419  0.075896  0.228530  1
  N  N101  1  0.967419  0.075896  0.271470  1
  N  N102  1  0.967419  0.424104  0.771470  1
  N  N103  1  0.032581  0.575896  0.228530  1
  O  O104  1  0.207837  0.719770  0.301104  1
  O  O105  1  0.370960  0.504559  0.569863  1
  O  O106  1  0.893727  0.812269  0.570677  1
  O  O107  1  0.629040  0.495441  0.430138  1
  O  O108  1  0.870960  0.995441  0.430138  1
  O  O109  1  0.292163  0.280230  0.801104  1
  O  O110  1  0.792163  0.280230  0.698896  1
  O  O111  1  0.106273  0.187731  0.429323  1
  O  O112  1  0.893727  0.687731  0.070677  1
  O  O113  1  0.370960  0.995441  0.069862  1
  O  O114  1  0.792163  0.219770  0.198896  1
  O  O115  1  0.629040  0.004559  0.930137  1
  O  O116  1  0.870960  0.504559  0.930137  1
  O  O117  1  0.707837  0.780230  0.698896  1
  O  O118  1  0.606273  0.187731  0.070677  1
  O  O119  1  0.207837  0.780230  0.801104  1
  O  O120  1  0.129040  0.004559  0.569863  1
  O  O121  1  0.106273  0.312269  0.929323  1
  O  O122  1  0.393727  0.687731  0.429323  1
  O  O123  1  0.393727  0.812269  0.929323  1
  O  O124  1  0.707837  0.719770  0.198896  1
  O  O125  1  0.292163  0.219770  0.301104  1
  O  O126  1  0.129040  0.495441  0.069862  1
  O  O127  1  0.606273  0.312269  0.570677  1
  F  F128  1  0.699328  0.744845  0.988393  1
  F  F129  1  0.199328  0.744845  0.511607  1
  F  F130  1  0.300672  0.244845  0.511607  1
  F  F131  1  0.800672  0.244845  0.988393  1
  F  F132  1  0.199328  0.755155  0.011607  1
  F  F133  1  0.699328  0.755155  0.488393  1
  F  F134  1  0.300672  0.255155  0.011607  1
  F  F135  1  0.800672  0.255155  0.488393  1
