# generated using pymatgen
data_Si2H2O3
_symmetry_space_group_name_H-M   'P 1'
_cell_length_a   11.99565147
_cell_length_b   10.72310188
_cell_length_c   11.99668805
_cell_angle_alpha   102.94702396
_cell_angle_beta   134.94706185
_cell_angle_gamma   95.93790394
_symmetry_Int_Tables_number   1
_chemical_formula_structural   Si2H2O3
_chemical_formula_sum   'Si20 H20 O30'
_cell_volume   984.80335837
_cell_formula_units_Z   10
loop_
 _symmetry_equiv_pos_site_id
 _symmetry_equiv_pos_as_xyz
  1  'x, y, z'
loop_
 _atom_site_type_symbol
 _atom_site_label
 _atom_site_symmetry_multiplicity
 _atom_site_fract_x
 _atom_site_fract_y
 _atom_site_fract_z
 _atom_site_occupancy
  Si  Si0  1  0.672123  0.884930  0.565297  1
  Si  Si1  1  0.688061  0.627860  0.304472  1
  Si  Si2  1  0.327976  0.131971  0.445350  1
  Si  Si3  1  0.317137  0.386572  0.713459  1
  Si  Si4  1  0.128512  0.098001  0.855757  1
  Si  Si5  1  0.716605  0.390895  0.486566  1
  Si  Si6  1  0.905937  0.890294  0.178098  1
  Si  Si7  1  0.240178  0.601322  0.461706  1
  Si  Si8  1  0.364201  0.003958  0.155690  1
  Si  Si9  1  0.209755  0.505717  0.911877  1
  Si  Si10  1  0.597631  0.002609  0.797884  1
  Si  Si11  1  0.841572  0.502771  0.127379  1
  Si  Si12  1  0.367110  0.766429  0.906260  1
  Si  Si13  1  0.142415  0.738977  0.101179  1
  Si  Si14  1  0.639801  0.239977  0.097154  1
  Si  Si15  1  0.862118  0.261569  0.898120  1
  Si  Si16  1  0.131790  0.852183  0.600792  1
  Si  Si17  1  0.773197  0.652887  0.788348  1
  Si  Si18  1  0.862308  0.151539  0.379674  1
  Si  Si19  1  0.254429  0.349565  0.220864  1
  H  H20  1  0.863925  0.097988  0.734730  1
  H  H21  1  0.791992  0.465363  0.378971  1
  H  H22  1  0.099523  0.954776  0.191190  1
  H  H23  1  0.357482  0.596211  0.728182  1
  H  H24  1  0.907977  0.347534  0.718293  1
  H  H25  1  0.631927  0.847578  0.943072  1
  H  H26  1  0.640782  0.817795  0.709390  1
  H  H27  1  0.873700  0.686317  0.299152  1
  H  H28  1  0.386343  0.182859  0.311278  1
  H  H29  1  0.106860  0.310865  0.679391  1
  H  H30  1  0.545728  0.740367  0.309133  1
  H  H31  1  0.431407  0.243895  0.696928  1
  H  H32  1  0.113703  0.071809  0.646287  1
  H  H33  1  0.567142  0.444083  0.530471  1
  H  H34  1  0.910679  0.943519  0.377512  1
  H  H35  1  0.426146  0.568875  0.454046  1
  H  H36  1  0.581652  0.969023  0.189412  1
  H  H37  1  0.231989  0.529075  0.124020  1
  H  H38  1  0.405907  0.027397  0.795177  1
  H  H39  1  0.779461  0.463368  0.878548  1
  O  O40  1  0.878796  0.008127  0.708036  1
  O  O41  1  0.779171  0.528522  0.440495  1
  O  O42  1  0.094465  0.024229  0.256819  1
  O  O43  1  0.292101  0.505704  0.625068  1
  O  O44  1  0.196196  0.995957  0.954948  1
  O  O45  1  0.925202  0.418146  0.684868  1
  O  O46  1  0.735777  0.917444  0.995667  1
  O  O47  1  0.039340  0.502499  0.290282  1
  O  O48  1  0.284887  0.867141  0.156279  1
  O  O49  1  0.259785  0.644700  0.899490  1
  O  O50  1  0.750301  0.140392  0.887119  1
  O  O51  1  0.714381  0.365716  0.081662  1
  O  O52  1  0.193690  0.792956  0.743102  1
  O  O53  1  0.967839  0.701113  0.885419  1
  O  O54  1  0.819218  0.204160  0.238229  1
  O  O55  1  0.052686  0.292418  0.099034  1
  O  O56  1  0.697897  0.778768  0.684330  1
  O  O57  1  0.893128  0.731162  0.401534  1
  O  O58  1  0.331060  0.232186  0.340058  1
  O  O59  1  0.092548  0.274760  0.583193  1
  O  O60  1  0.662523  0.751566  0.416393  1
  O  O61  1  0.334938  0.254705  0.591056  1
  O  O62  1  0.091089  0.997806  0.670976  1
  O  O63  1  0.674112  0.507756  0.584680  1
  O  O64  1  0.919681  0.005996  0.333267  1
  O  O65  1  0.327290  0.498025  0.405072  1
  O  O66  1  0.457666  0.914107  0.098425  1
  O  O67  1  0.219637  0.590960  0.068355  1
  O  O68  1  0.524479  0.087091  0.869853  1
  O  O69  1  0.809099  0.406512  0.944362  1
