# generated using pymatgen
data_Mo3S7Cl4
_symmetry_space_group_name_H-M   'P 1'
_cell_length_a   9.58697132
_cell_length_b   12.25757252
_cell_length_c   12.35868217
_cell_angle_alpha   90.00000000
_cell_angle_beta   90.00000000
_cell_angle_gamma   98.79398252
_symmetry_Int_Tables_number   1
_chemical_formula_structural   Mo3S7Cl4
_chemical_formula_sum   'Mo12 S28 Cl16'
_cell_volume   1435.23310869
_cell_formula_units_Z   4
loop_
 _symmetry_equiv_pos_site_id
 _symmetry_equiv_pos_as_xyz
  1  'x, y, z'
loop_
 _atom_site_type_symbol
 _atom_site_label
 _atom_site_symmetry_multiplicity
 _atom_site_fract_x
 _atom_site_fract_y
 _atom_site_fract_z
 _atom_site_occupancy
  Mo  Mo0  1  0.585793  0.706292  0.254495  1
  Mo  Mo1  1  0.140827  0.782527  0.619315  1
  Mo  Mo2  1  0.176866  0.777107  0.839829  1
  Mo  Mo3  1  0.323134  0.722893  0.339829  1
  Mo  Mo4  1  0.359173  0.717473  0.119315  1
  Mo  Mo5  1  0.640827  0.282527  0.880685  1
  Mo  Mo6  1  0.676866  0.277107  0.660171  1
  Mo  Mo7  1  0.914207  0.793708  0.754495  1
  Mo  Mo8  1  0.859173  0.217473  0.380685  1
  Mo  Mo9  1  0.823134  0.222893  0.160171  1
  Mo  Mo10  1  0.414207  0.293708  0.745505  1
  Mo  Mo11  1  0.085793  0.206292  0.245505  1
  S  S12  1  0.537670  0.140049  0.764457  1
  S  S13  1  0.960767  0.781926  0.952744  1
  S  S14  1  0.998299  0.069242  0.378340  1
  S  S15  1  0.313638  0.905466  0.719101  1
  S  S16  1  0.395805  0.292661  0.947396  1
  S  S17  1  0.460767  0.281926  0.547256  1
  S  S18  1  0.498299  0.569242  0.121660  1
  S  S19  1  0.633878  0.248604  0.292575  1
  S  S20  1  0.104195  0.207339  0.447396  1
  S  S21  1  0.456078  0.576006  0.377468  1
  S  S22  1  0.037670  0.640049  0.735543  1
  S  S23  1  0.366122  0.751396  0.707425  1
  S  S24  1  0.043922  0.923994  0.877468  1
  S  S25  1  0.962330  0.359951  0.264457  1
  S  S26  1  0.001701  0.930758  0.621660  1
  S  S27  1  0.813638  0.405465  0.780899  1
  S  S28  1  0.956078  0.076006  0.122532  1
  S  S29  1  0.501701  0.430758  0.878340  1
  S  S30  1  0.686362  0.094534  0.280899  1
  S  S31  1  0.539233  0.718074  0.452744  1
  S  S32  1  0.186362  0.594534  0.219101  1
  S  S33  1  0.604195  0.707339  0.052604  1
  S  S34  1  0.133878  0.748604  0.207425  1
  S  S35  1  0.895805  0.792661  0.552604  1
  S  S36  1  0.543922  0.423994  0.622532  1
  S  S37  1  0.039233  0.218074  0.047256  1
  S  S38  1  0.462330  0.859951  0.235543  1
  S  S39  1  0.866122  0.251396  0.792575  1
  Cl  Cl40  1  0.764363  0.381095  0.048178  1
  Cl  Cl41  1  0.291932  0.358117  0.236364  1
  Cl  Cl42  1  0.264363  0.881095  0.451822  1
  Cl  Cl43  1  0.275159  0.095544  0.215850  1
  Cl  Cl44  1  0.775159  0.595544  0.284150  1
  Cl  Cl45  1  0.656812  0.129804  0.012093  1
  Cl  Cl46  1  0.224841  0.404456  0.715850  1
  Cl  Cl47  1  0.156812  0.629804  0.487907  1
  Cl  Cl48  1  0.343188  0.870196  0.987907  1
  Cl  Cl49  1  0.235637  0.618905  0.951822  1
  Cl  Cl50  1  0.791932  0.858117  0.263636  1
  Cl  Cl51  1  0.208068  0.141883  0.736364  1
  Cl  Cl52  1  0.724841  0.904456  0.784150  1
  Cl  Cl53  1  0.843188  0.370196  0.512093  1
  Cl  Cl54  1  0.735637  0.118905  0.548178  1
  Cl  Cl55  1  0.708068  0.641883  0.763636  1
