# generated using pymatgen
data_H2SeO4
_symmetry_space_group_name_H-M   'P 1'
_cell_length_a   9.07589433
_cell_length_b   8.34156646
_cell_length_c   4.69643368
_cell_angle_alpha   90.00000000
_cell_angle_beta   90.00000000
_cell_angle_gamma   90.49350491
_symmetry_Int_Tables_number   1
_chemical_formula_structural   H2SeO4
_chemical_formula_sum   'H8 Se4 O16'
_cell_volume   355.54054109
_cell_formula_units_Z   4
loop_
 _symmetry_equiv_pos_site_id
 _symmetry_equiv_pos_as_xyz
  1  'x, y, z'
loop_
 _atom_site_type_symbol
 _atom_site_label
 _atom_site_symmetry_multiplicity
 _atom_site_fract_x
 _atom_site_fract_y
 _atom_site_fract_z
 _atom_site_occupancy
  H  H0  1  0.959607  0.024113  0.401663  1
  H  H1  1  0.540393  0.975887  0.901663  1
  H  H2  1  0.743643  0.713197  0.470286  1
  H  H3  1  0.756357  0.286803  0.970286  1
  H  H4  1  0.250470  0.781358  0.489664  1
  H  H5  1  0.249530  0.218642  0.989664  1
  H  H6  1  0.044852  0.522123  0.055182  1
  H  H7  1  0.455148  0.477877  0.555182  1
  Se  Se8  1  0.633852  0.718051  0.909578  1
  Se  Se9  1  0.866148  0.281949  0.409578  1
  Se  Se10  1  0.139866  0.780963  0.052552  1
  Se  Se11  1  0.360134  0.219037  0.552552  1
  O  O12  1  0.491754  0.633428  0.753237  1
  O  O13  1  0.008247  0.366573  0.253237  1
  O  O14  1  0.001134  0.866842  0.211663  1
  O  O15  1  0.498866  0.133158  0.711663  1
  O  O16  1  0.707750  0.625407  0.181009  1
  O  O17  1  0.792250  0.374593  0.681009  1
  O  O18  1  0.217632  0.874290  0.784339  1
  O  O19  1  0.282368  0.125710  0.284339  1
  O  O20  1  0.769669  0.765785  0.662457  1
  O  O21  1  0.730331  0.234215  0.162457  1
  O  O22  1  0.273297  0.727226  0.299197  1
  O  O23  1  0.226703  0.272774  0.799197  1
  O  O24  1  0.586612  0.902917  0.049834  1
  O  O25  1  0.913388  0.097083  0.549834  1
  O  O26  1  0.085842  0.599155  0.906583  1
  O  O27  1  0.414158  0.400845  0.406583  1
