# generated using pymatgen
data_CaCO3
_symmetry_space_group_name_H-M   'P 1'
_cell_length_a   3.63301703
_cell_length_b   7.76827960
_cell_length_c   10.85871461
_cell_angle_alpha   90.00000000
_cell_angle_beta   90.00000000
_cell_angle_gamma   90.00000000
_symmetry_Int_Tables_number   1
_chemical_formula_structural   CaCO3
_chemical_formula_sum   'Ca4 C4 O12'
_cell_volume   306.45781534
_cell_formula_units_Z   4
loop_
 _symmetry_equiv_pos_site_id
 _symmetry_equiv_pos_as_xyz
  1  'x, y, z'
loop_
 _atom_site_type_symbol
 _atom_site_label
 _atom_site_symmetry_multiplicity
 _atom_site_fract_x
 _atom_site_fract_y
 _atom_site_fract_z
 _atom_site_occupancy
  Ca  Ca0  1  0.500000  0.500000  0.000000  1
  Ca  Ca1  1  0.000000  0.000000  0.000000  1
  Ca  Ca2  1  0.000000  0.000000  0.500000  1
  Ca  Ca3  1  0.500000  0.500000  0.500000  1
  C  C4  1  0.146194  0.291651  0.750000  1
  C  C5  1  0.853806  0.708349  0.250000  1
  C  C6  1  0.646194  0.208349  0.250000  1
  C  C7  1  0.353806  0.791651  0.750000  1
  O  O8  1  0.988441  0.281665  0.015478  1
  O  O9  1  0.990644  0.163044  0.750000  1
  O  O10  1  0.009356  0.836956  0.250000  1
  O  O11  1  0.988441  0.281665  0.484522  1
  O  O12  1  0.488441  0.218335  0.984522  1
  O  O13  1  0.511559  0.781665  0.484522  1
  O  O14  1  0.011559  0.718335  0.984522  1
  O  O15  1  0.488441  0.218335  0.515478  1
  O  O16  1  0.511559  0.781665  0.015478  1
  O  O17  1  0.011559  0.718335  0.515478  1
  O  O18  1  0.490644  0.336956  0.250000  1
  O  O19  1  0.509356  0.663044  0.750000  1
