# generated using pymatgen
data_K3Nd3I10
_symmetry_space_group_name_H-M   'P 1'
_cell_length_a   9.10295191
_cell_length_b   9.99929487
_cell_length_c   14.46959883
_cell_angle_alpha   90.00000000
_cell_angle_beta   90.00000000
_cell_angle_gamma   93.18475289
_symmetry_Int_Tables_number   1
_chemical_formula_structural   K3Nd3I10
_chemical_formula_sum   'K6 Nd6 I20'
_cell_volume   1315.03364485
_cell_formula_units_Z   2
loop_
 _symmetry_equiv_pos_site_id
 _symmetry_equiv_pos_as_xyz
  1  'x, y, z'
loop_
 _atom_site_type_symbol
 _atom_site_label
 _atom_site_symmetry_multiplicity
 _atom_site_fract_x
 _atom_site_fract_y
 _atom_site_fract_z
 _atom_site_occupancy
  K  K0  1  0.045670  0.531750  0.844914  1
  K  K1  1  0.454330  0.968250  0.344914  1
  K  K2  1  0.540306  0.004864  0.657781  1
  K  K3  1  0.511137  0.514619  0.686464  1
  K  K4  1  0.988863  0.985381  0.186464  1
  K  K5  1  0.959694  0.495136  0.157781  1
  Nd  Nd6  1  0.979221  0.052900  0.812497  1
  Nd  Nd7  1  0.074108  0.198992  0.568498  1
  Nd  Nd8  1  0.425892  0.301008  0.068498  1
  Nd  Nd9  1  0.520779  0.447100  0.312497  1
  Nd  Nd10  1  0.561584  0.784308  0.988211  1
  Nd  Nd11  1  0.938416  0.715692  0.488211  1
  I  I12  1  0.076000  0.235214  0.989601  1
  I  I13  1  0.165157  0.695896  0.322064  1
  I  I14  1  0.139416  0.523987  0.606498  1
  I  I15  1  0.210155  0.914817  0.553908  1
  I  I16  1  0.231253  0.283691  0.250644  1
  I  I17  1  0.268747  0.216309  0.750644  1
  I  I18  1  0.289845  0.585183  0.053908  1
  I  I19  1  0.360584  0.976013  0.106498  1
  I  I20  1  0.334843  0.804104  0.822064  1
  I  I21  1  0.424000  0.264786  0.489601  1
  I  I22  1  0.577634  0.692361  0.475843  1
  I  I23  1  0.691539  0.238537  0.197257  1
  I  I24  1  0.653299  0.081792  0.919984  1
  I  I25  1  0.644810  0.484941  0.926291  1
  I  I26  1  0.661104  0.705597  0.199547  1
  I  I27  1  0.838896  0.794403  0.699547  1
  I  I28  1  0.855190  0.015059  0.426291  1
  I  I29  1  0.846701  0.418208  0.419984  1
  I  I30  1  0.808461  0.261463  0.697257  1
  I  I31  1  0.922366  0.807639  0.975843  1
