# generated using pymatgen
data_Cu3(BiI4)4
_symmetry_space_group_name_H-M   'P 1'
_cell_length_a   8.74937038
_cell_length_b   8.74937025
_cell_length_c   17.95348662
_cell_angle_alpha   59.43922201
_cell_angle_beta   59.43922251
_cell_angle_gamma   59.40079459
_symmetry_Int_Tables_number   1
_chemical_formula_structural   Cu3(BiI4)4
_chemical_formula_sum   'Cu3 Bi4 I16'
_cell_volume   959.14022509
_cell_formula_units_Z   1
loop_
 _symmetry_equiv_pos_site_id
 _symmetry_equiv_pos_as_xyz
  1  'x, y, z'
loop_
 _atom_site_type_symbol
 _atom_site_label
 _atom_site_symmetry_multiplicity
 _atom_site_fract_x
 _atom_site_fract_y
 _atom_site_fract_z
 _atom_site_occupancy
  Cu  Cu0  1  0.365531  0.365531  0.941708  1
  Cu  Cu1  1  0.890175  0.890175  0.692417  1
  Cu  Cu2  1  0.864306  0.864306  0.929128  1
  Bi  Bi3  1  0.002801  0.002801  0.007701  1
  Bi  Bi4  1  0.020349  0.020349  0.241125  1
  Bi  Bi5  1  0.996094  0.488154  0.506089  1
  Bi  Bi6  1  0.488154  0.996094  0.506089  1
  I  I7  1  0.259886  0.259886  0.122965  1
  I  I8  1  0.249116  0.249116  0.378783  1
  I  I9  1  0.253895  0.747076  0.127327  1
  I  I10  1  0.747076  0.253895  0.127327  1
  I  I11  1  0.250678  0.749268  0.371420  1
  I  I12  1  0.253277  0.253277  0.622576  1
  I  I13  1  0.758415  0.758415  0.110914  1
  I  I14  1  0.259023  0.259023  0.871152  1
  I  I15  1  0.250793  0.740038  0.626222  1
  I  I16  1  0.749268  0.250678  0.371420  1
  I  I17  1  0.740038  0.250793  0.626222  1
  I  I18  1  0.744685  0.744685  0.377475  1
  I  I19  1  0.239672  0.740273  0.879443  1
  I  I20  1  0.748291  0.748291  0.631042  1
  I  I21  1  0.740273  0.239672  0.879443  1
  I  I22  1  0.753203  0.753203  0.864514  1
