# generated using pymatgen
data_Mn27Sb26
_symmetry_space_group_name_H-M   'P 1'
_cell_length_a   53.47608907
_cell_length_b   18.85182116
_cell_length_c   9.95525819
_cell_angle_alpha   35.84812384
_cell_angle_beta   34.39353673
_cell_angle_gamma   10.77127415
_symmetry_Int_Tables_number   1
_chemical_formula_structural   Mn27Sb26
_chemical_formula_sum   'Mn27 Sb26'
_cell_volume   1059.49818813
_cell_formula_units_Z   1
loop_
 _symmetry_equiv_pos_site_id
 _symmetry_equiv_pos_as_xyz
  1  'x, y, z'
loop_
 _atom_site_type_symbol
 _atom_site_label
 _atom_site_symmetry_multiplicity
 _atom_site_fract_x
 _atom_site_fract_y
 _atom_site_fract_z
 _atom_site_occupancy
  Mn  Mn0  1  0.999410  0.000444  0.005092  1
  Mn  Mn1  1  0.076165  0.001925  0.000756  1
  Mn  Mn2  1  0.998481  0.003891  0.502580  1
  Mn  Mn3  1  0.153179  0.001694  0.000874  1
  Mn  Mn4  1  0.076862  0.996627  0.506326  1
  Mn  Mn5  1  0.152660  0.002510  0.500675  1
  Mn  Mn6  1  0.229895  0.003540  -0.002208  1
  Mn  Mn7  1  0.315427  0.980051  0.995663  1
  Mn  Mn8  1  0.234229  0.988459  0.503549  1
  Mn  Mn9  1  0.384959  0.999408  0.001059  1
  Mn  Mn10  1  0.306805  0.002977  0.501806  1
  Mn  Mn11  1  0.384316  0.001701  0.498907  1
  Mn  Mn12  1  0.462900  -0.003288  0.996840  1
  Mn  Mn13  1  0.536791  0.004475  0.997112  1
  Mn  Mn14  1  0.457961  0.006852  0.503658  1
  Mn  Mn15  1  0.612715  0.005427  0.004373  1
  Mn  Mn16  1  0.536906  0.005718  0.496795  1
  Mn  Mn17  1  0.689999  0.010857  0.994467  1
  Mn  Mn18  1  0.613649  0.004087  0.504799  1
  Mn  Mn19  1  0.769729  0.000181  -0.000889  1
  Mn  Mn20  1  0.694361  0.992191  0.501750  1
  Mn  Mn21  1  0.846523  0.998623  0.997283  1
  Mn  Mn22  1  0.769123  0.001836  0.498543  1
  Mn  Mn23  1  0.919950  0.005922  0.003258  1
  Mn  Mn24  1  0.848879  0.994747  0.494172  1
  Mn  Mn25  1  0.809762  0.328041  0.249317  1
  Mn  Mn26  1  0.925502  0.996309  0.492871  1
  Sb  Sb27  1  0.040162  0.328652  0.748950  1
  Sb  Sb28  1  0.057487  0.612525  0.247446  1
  Sb  Sb29  1  0.117061  0.328738  0.748735  1
  Sb  Sb30  1  0.114446  0.670047  0.250279  1
  Sb  Sb31  1  0.192621  0.332379  0.751804  1
  Sb  Sb32  1  0.190834  0.671823  0.249383  1
  Sb  Sb33  1  0.270549  0.326666  0.755634  1
  Sb  Sb34  1  0.265968  0.676059  0.250289  1
  Sb  Sb35  1  0.346329  0.332766  0.749450  1
  Sb  Sb36  1  0.344004  0.671669  0.250783  1
  Sb  Sb37  1  0.423384  0.331205  0.751132  1
  Sb  Sb38  1  0.421624  0.671049  0.253551  1
  Sb  Sb39  1  0.499872  0.331926  0.753662  1
  Sb  Sb40  1  0.498630  0.669696  0.252746  1
  Sb  Sb41  1  0.580782  0.323120  0.745993  1
  Sb  Sb42  1  0.575596  0.670476  0.249083  1
  Sb  Sb43  1  0.655655  0.330665  0.747458  1
  Sb  Sb44  1  0.641453  0.694744  0.250925  1
  Sb  Sb45  1  0.734764  0.327945  0.735617  1
  Sb  Sb46  1  0.722797  0.697584  0.248888  1
  Sb  Sb47  1  0.808997  0.328858  0.748335  1
  Sb  Sb48  1  0.806046  0.672296  0.247882  1
  Sb  Sb49  1  0.883672  0.329525  0.764008  1
  Sb  Sb50  1  0.885212  0.665093  0.251134  1
  Sb  Sb51  1  0.962008  0.332273  0.749187  1
  Sb  Sb52  1  0.960600  0.670349  0.248213  1
