# generated using pymatgen
data_Sr3Rh4Pb13
_symmetry_space_group_name_H-M   'P 1'
_cell_length_a   10.29919310
_cell_length_b   10.29917256
_cell_length_c   10.29920044
_cell_angle_alpha   90.00056836
_cell_angle_beta   90.00245823
_cell_angle_gamma   90.00220939
_symmetry_Int_Tables_number   1
_chemical_formula_structural   Sr3Rh4Pb13
_chemical_formula_sum   'Sr6 Rh8 Pb26'
_cell_volume   1092.46880695
_cell_formula_units_Z   2
loop_
 _symmetry_equiv_pos_site_id
 _symmetry_equiv_pos_as_xyz
  1  'x, y, z'
loop_
 _atom_site_type_symbol
 _atom_site_label
 _atom_site_symmetry_multiplicity
 _atom_site_fract_x
 _atom_site_fract_y
 _atom_site_fract_z
 _atom_site_occupancy
  Sr  Sr0  1  0.499995  0.000003  0.249999  1
  Sr  Sr1  1  0.000008  0.250000  0.500003  1
  Sr  Sr2  1  0.500001  0.999999  0.749999  1
  Sr  Sr3  1  0.250001  0.499995  0.000005  1
  Sr  Sr4  1  0.749999  0.500006  0.999995  1
  Sr  Sr5  1  0.999997  0.749998  0.499997  1
  Rh  Rh6  1  0.250001  0.250001  0.250000  1
  Rh  Rh7  1  0.250000  0.749999  0.749999  1
  Rh  Rh8  1  0.250002  0.749998  0.249998  1
  Rh  Rh9  1  0.750003  0.750000  0.250000  1
  Rh  Rh10  1  0.249996  0.250001  0.749999  1
  Rh  Rh11  1  0.750000  0.250000  0.750000  1
  Rh  Rh12  1  0.749999  0.249998  0.250000  1
  Rh  Rh13  1  0.750000  0.749997  0.750002  1
  Pb  Pb14  1  0.302780  0.155351  0.999999  1
  Pb  Pb15  1  0.697220  0.844647  0.000001  1
  Pb  Pb16  1  0.344647  0.802780  0.500002  1
  Pb  Pb17  1  0.197219  0.500002  0.344649  1
  Pb  Pb18  1  0.802781  0.500000  0.655352  1
  Pb  Pb19  1  0.500001  0.344648  0.802780  1
  Pb  Pb20  1  0.302779  0.844646  0.999998  1
  Pb  Pb21  1  0.999998  0.302781  0.155353  1
  Pb  Pb22  1  0.999999  0.697220  0.155353  1
  Pb  Pb23  1  0.844648  0.000001  0.697220  1
  Pb  Pb24  1  0.155353  0.999997  0.697221  1
  Pb  Pb25  1  0.697220  0.155353  1.000000  1
  Pb  Pb26  1  0.344648  0.197220  0.500002  1
  Pb  Pb27  1  0.500000  0.655354  0.197220  1
  Pb  Pb28  1  0.500002  0.344648  0.197220  1
  Pb  Pb29  1  0.499997  0.655354  0.802780  1
  Pb  Pb30  1  1.000000  0.999999  1.000000  1
  Pb  Pb31  1  0.000003  0.697220  0.844647  1
  Pb  Pb32  1  0.844646  0.000000  0.302780  1
  Pb  Pb33  1  0.155352  0.999998  0.302780  1
  Pb  Pb34  1  0.197220  0.500003  0.655354  1
  Pb  Pb35  1  -0.000000  0.302781  0.844647  1
  Pb  Pb36  1  0.655354  0.197220  0.500000  1
  Pb  Pb37  1  0.500000  0.500001  0.500000  1
  Pb  Pb38  1  0.802780  0.500001  0.344647  1
  Pb  Pb39  1  0.655352  0.802780  0.499999  1
