# generated using pymatgen
data_Tb2Mn3Si5
_symmetry_space_group_name_H-M   'P 1'
_cell_length_a   5.45613071
_cell_length_b   10.59245261
_cell_length_c   10.59245261
_cell_angle_alpha   90.00000000
_cell_angle_beta   90.00000000
_cell_angle_gamma   90.00000000
_symmetry_Int_Tables_number   1
_chemical_formula_structural   Tb2Mn3Si5
_chemical_formula_sum   'Tb8 Mn12 Si20'
_cell_volume   612.17815099
_cell_formula_units_Z   4
loop_
 _symmetry_equiv_pos_site_id
 _symmetry_equiv_pos_as_xyz
  1  'x, y, z'
loop_
 _atom_site_type_symbol
 _atom_site_label
 _atom_site_symmetry_multiplicity
 _atom_site_fract_x
 _atom_site_fract_y
 _atom_site_fract_z
 _atom_site_occupancy
  Tb  Tb0  1  0.000000  0.925405  0.763950  1
  Tb  Tb1  1  0.500000  0.425405  0.736050  1
  Tb  Tb2  1  0.500000  0.263950  0.425405  1
  Tb  Tb3  1  0.000000  0.074595  0.236050  1
  Tb  Tb4  1  0.500000  0.574595  0.263950  1
  Tb  Tb5  1  0.000000  0.763950  0.074595  1
  Tb  Tb6  1  0.000000  0.236050  0.925405  1
  Tb  Tb7  1  0.500000  0.736050  0.574595  1
  Mn  Mn8  1  0.500000  0.121559  0.854344  1
  Mn  Mn9  1  0.000000  0.378441  0.354344  1
  Mn  Mn10  1  0.000000  0.621559  0.645656  1
  Mn  Mn11  1  0.500000  0.854344  0.878441  1
  Mn  Mn12  1  0.000000  0.354344  0.621559  1
  Mn  Mn13  1  0.250000  0.500000  0.000000  1
  Mn  Mn14  1  0.000000  0.645656  0.378441  1
  Mn  Mn15  1  0.500000  0.145656  0.121559  1
  Mn  Mn16  1  0.500000  0.878441  0.145656  1
  Mn  Mn17  1  0.750000  0.500000  0.000000  1
  Mn  Mn18  1  0.750000  0.000000  0.500000  1
  Mn  Mn19  1  0.250000  0.000000  0.500000  1
  Si  Si20  1  0.264761  0.000000  0.000000  1
  Si  Si21  1  0.750000  0.325188  0.174812  1
  Si  Si22  1  0.000000  0.523468  0.184301  1
  Si  Si23  1  0.000000  0.184301  0.476532  1
  Si  Si24  1  0.500000  0.684301  0.023468  1
  Si  Si25  1  0.500000  0.023468  0.315699  1
  Si  Si26  1  0.000000  0.815699  0.523468  1
  Si  Si27  1  0.250000  0.325188  0.174812  1
  Si  Si28  1  0.750000  0.825188  0.325188  1
  Si  Si29  1  0.500000  0.976532  0.684301  1
  Si  Si30  1  0.235239  0.500000  0.500000  1
  Si  Si31  1  0.250000  0.825188  0.325188  1
  Si  Si32  1  0.250000  0.674812  0.825188  1
  Si  Si33  1  0.750000  0.674812  0.825188  1
  Si  Si34  1  0.764761  0.500000  0.500000  1
  Si  Si35  1  0.000000  0.476532  0.815699  1
  Si  Si36  1  0.250000  0.174812  0.674812  1
  Si  Si37  1  0.735239  0.000000  0.000000  1
  Si  Si38  1  0.500000  0.315699  0.976532  1
  Si  Si39  1  0.750000  0.174812  0.674812  1
