# generated using pymatgen
data_GeTe
_symmetry_space_group_name_H-M   'P 1'
_cell_length_a   4.22869900
_cell_length_b   11.65328831
_cell_length_c   11.16703694
_cell_angle_alpha   90.00000000
_cell_angle_beta   90.00000000
_cell_angle_gamma   90.00000000
_symmetry_Int_Tables_number   1
_chemical_formula_structural   GeTe
_chemical_formula_sum   'Ge8 Te8'
_cell_volume   550.29202271
_cell_formula_units_Z   8
loop_
 _symmetry_equiv_pos_site_id
 _symmetry_equiv_pos_as_xyz
  1  'x, y, z'
loop_
 _atom_site_type_symbol
 _atom_site_label
 _atom_site_symmetry_multiplicity
 _atom_site_fract_x
 _atom_site_fract_y
 _atom_site_fract_z
 _atom_site_occupancy
  Ge  Ge0  1  0.453703  0.716078  0.893375  1
  Ge  Ge1  1  0.546297  0.283922  0.106625  1
  Ge  Ge2  1  0.953703  0.716078  0.106625  1
  Ge  Ge3  1  0.953703  0.783922  0.606625  1
  Ge  Ge4  1  0.046297  0.283922  0.893375  1
  Ge  Ge5  1  0.546297  0.216078  0.606625  1
  Ge  Ge6  1  0.453703  0.783922  0.393375  1
  Ge  Ge7  1  0.046297  0.216078  0.393375  1
  Te  Te8  1  0.538419  0.369227  0.349172  1
  Te  Te9  1  0.961581  0.630773  0.349172  1
  Te  Te10  1  0.461581  0.869227  0.150828  1
  Te  Te11  1  0.038419  0.130773  0.150828  1
  Te  Te12  1  0.461581  0.630773  0.650828  1
  Te  Te13  1  0.038419  0.369227  0.650828  1
  Te  Te14  1  0.961581  0.869227  0.849172  1
  Te  Te15  1  0.538419  0.130773  0.849172  1
