# generated using pymatgen
data_Ca3NdF9
_symmetry_space_group_name_H-M   'P 1'
_cell_length_a   3.93033853
_cell_length_b   3.94271201
_cell_length_c   32.36076740
_cell_angle_alpha   60.82055271
_cell_angle_beta   61.05836794
_cell_angle_gamma   59.70593463
_symmetry_Int_Tables_number   1
_chemical_formula_structural   Ca3NdF9
_chemical_formula_sum   'Ca6 Nd2 F18'
_cell_volume   358.71330734
_cell_formula_units_Z   2
loop_
 _symmetry_equiv_pos_site_id
 _symmetry_equiv_pos_as_xyz
  1  'x, y, z'
loop_
 _atom_site_type_symbol
 _atom_site_label
 _atom_site_symmetry_multiplicity
 _atom_site_fract_x
 _atom_site_fract_y
 _atom_site_fract_z
 _atom_site_occupancy
  Ca  Ca0  1  0.904081  0.980267  0.015788  1
  Ca  Ca1  1  0.903151  0.973852  0.138951  1
  Ca  Ca2  1  0.947236  0.982803  0.256778  1
  Ca  Ca3  1  0.985232  0.995758  0.376856  1
  Ca  Ca4  1  0.023367  0.005392  0.496909  1
  Ca  Ca5  1  0.925143  0.996041  0.891927  1
  Nd  Nd6  1  0.029154  0.988342  0.626294  1
  Nd  Nd7  1  0.941234  0.984907  0.768825  1
  F  F8  1  0.651057  0.721312  0.108841  1
  F  F9  1  0.162079  0.221346  0.169348  1
  F  F10  1  0.689697  0.732250  0.226001  1
  F  F11  1  0.394088  0.407567  0.347616  1
  F  F12  1  0.209387  0.240493  0.285620  1
  F  F13  1  0.273224  0.249998  0.529962  1
  F  F14  1  0.578977  0.587047  0.405300  1
  F  F15  1  0.761796  0.751081  0.467705  1
  F  F16  1  0.357761  0.318655  0.627565  1
  F  F17  1  0.813182  0.779268  0.580314  1
  F  F18  1  0.245511  0.289165  0.779520  1
  F  F19  1  0.570408  0.529174  0.672725  1
  F  F20  1  0.167639  0.241783  0.923221  1
  F  F21  1  0.761056  0.750902  0.720581  1
  F  F22  1  0.483527  0.535185  0.813536  1
  F  F23  1  0.680219  0.744003  0.860895  1
  F  F24  1  0.316037  0.396653  0.985996  1
  F  F25  1  0.493756  0.568755  0.044426  1
