# generated using pymatgen
data_Ag2Pb8Cl4O7
_symmetry_space_group_name_H-M   'P 1'
_cell_length_a   8.26254212
_cell_length_b   12.70371629
_cell_length_c   18.41375453
_cell_angle_alpha   90.00000000
_cell_angle_beta   90.00000000
_cell_angle_gamma   90.21395373
_symmetry_Int_Tables_number   1
_chemical_formula_structural   Ag2Pb8Cl4O7
_chemical_formula_sum   'Ag8 Pb32 Cl16 O28'
_cell_volume   1932.78610059
_cell_formula_units_Z   4
loop_
 _symmetry_equiv_pos_site_id
 _symmetry_equiv_pos_as_xyz
  1  'x, y, z'
loop_
 _atom_site_type_symbol
 _atom_site_label
 _atom_site_symmetry_multiplicity
 _atom_site_fract_x
 _atom_site_fract_y
 _atom_site_fract_z
 _atom_site_occupancy
  Ag  Ag0  1  0.119611  0.100789  0.451305  1
  Ag  Ag1  1  0.129976  0.613153  0.032867  1
  Ag  Ag2  1  0.870024  0.386847  0.967133  1
  Ag  Ag3  1  0.619611  0.600789  0.048695  1
  Ag  Ag4  1  0.380389  0.399211  0.951305  1
  Ag  Ag5  1  0.629976  0.113153  0.467133  1
  Ag  Ag6  1  0.370024  0.886847  0.532867  1
  Ag  Ag7  1  0.880389  0.899211  0.548695  1
  Pb  Pb8  1  0.128772  0.009580  0.914346  1
  Pb  Pb9  1  0.874000  0.238713  0.606591  1
  Pb  Pb10  1  0.875790  0.536528  0.410350  1
  Pb  Pb11  1  0.628518  0.226014  0.795406  1
  Pb  Pb12  1  0.374000  0.738713  0.893409  1
  Pb  Pb13  1  0.127881  0.501551  0.244667  1
  Pb  Pb14  1  0.871482  0.273986  0.295406  1
  Pb  Pb15  1  0.872119  0.498449  0.755333  1
  Pb  Pb16  1  0.870708  0.754450  0.228915  1
  Pb  Pb17  1  0.129292  0.245550  0.771085  1
  Pb  Pb18  1  0.128518  0.726014  0.704594  1
  Pb  Pb19  1  0.884259  0.998318  0.746638  1
  Pb  Pb20  1  0.628772  0.509580  0.585654  1
  Pb  Pb21  1  0.881106  0.741087  0.894085  1
  Pb  Pb22  1  0.375790  0.036528  0.089650  1
  Pb  Pb23  1  0.370708  0.254450  0.271085  1
  Pb  Pb24  1  0.618894  0.758913  0.394085  1
  Pb  Pb25  1  0.627881  0.001551  0.255333  1
  Pb  Pb26  1  0.624210  0.963472  0.910350  1
  Pb  Pb27  1  0.615741  0.501682  0.246638  1
  Pb  Pb28  1  0.371228  0.490420  0.414346  1
  Pb  Pb29  1  0.115741  0.001682  0.253362  1
  Pb  Pb30  1  0.629292  0.745550  0.728915  1
  Pb  Pb31  1  0.372119  0.998449  0.744667  1
  Pb  Pb32  1  0.124210  0.463472  0.589650  1
  Pb  Pb33  1  0.626000  0.261287  0.106591  1
  Pb  Pb34  1  0.126000  0.761287  0.393409  1
  Pb  Pb35  1  0.871228  0.990420  0.085654  1
  Pb  Pb36  1  0.384259  0.498318  0.753362  1
  Pb  Pb37  1  0.118894  0.258913  0.105915  1
  Pb  Pb38  1  0.381106  0.241087  0.605915  1
  Pb  Pb39  1  0.371482  0.773986  0.204594  1
  Cl  Cl40  1  0.119561  0.498940  0.910546  1
  Cl  Cl41  1  0.864011  0.197590  0.930583  1
  Cl  Cl42  1  0.133308  0.012427  0.587547  1
  Cl  Cl43  1  0.891311  0.704999  0.568249  1
  Cl  Cl44  1  0.108689  0.295001  0.431751  1
  Cl  Cl45  1  0.635989  0.302411  0.430583  1
  Cl  Cl46  1  0.364011  0.697589  0.569417  1
  Cl  Cl47  1  0.608689  0.795001  0.068249  1
  Cl  Cl48  1  0.633308  0.512427  0.912453  1
  Cl  Cl49  1  0.880439  0.501060  0.089454  1
  Cl  Cl50  1  0.391311  0.204999  0.931751  1
  Cl  Cl51  1  0.380439  0.001060  0.410546  1
  Cl  Cl52  1  0.866692  0.987573  0.412453  1
  Cl  Cl53  1  0.366692  0.487573  0.087547  1
  Cl  Cl54  1  0.619561  0.998940  0.589454  1
  Cl  Cl55  1  0.135989  0.802411  0.069417  1
  O  O56  1  0.090516  0.081501  0.131783  1
  O  O57  1  0.369851  0.430841  0.295414  1
  O  O58  1  0.363943  0.684576  0.774347  1
  O  O59  1  0.126138  0.546892  0.698779  1
  O  O60  1  0.105789  0.314633  0.223824  1
  O  O61  1  0.630149  0.569159  0.704586  1
  O  O62  1  0.894211  0.685367  0.776176  1
  O  O63  1  0.372075  0.212190  0.138104  1
  O  O64  1  0.873862  0.453108  0.301221  1
  O  O65  1  0.869851  0.930841  0.204586  1
  O  O66  1  0.636057  0.315424  0.225653  1
  O  O67  1  0.130149  0.069159  0.795414  1
  O  O68  1  0.136057  0.815424  0.274347  1
  O  O69  1  0.127925  0.287810  0.638104  1
  O  O70  1  0.373862  0.953108  0.198779  1
  O  O71  1  0.627925  0.787810  0.861896  1
  O  O72  1  0.605789  0.814633  0.276176  1
  O  O73  1  0.863943  0.184576  0.725653  1
  O  O74  1  0.590516  0.581501  0.368217  1
  O  O75  1  0.843876  0.415061  0.632272  1
  O  O76  1  0.156124  0.584939  0.367728  1
  O  O77  1  0.909484  0.918499  0.868217  1
  O  O78  1  0.872075  0.712190  0.361896  1
  O  O79  1  0.409484  0.418499  0.631783  1
  O  O80  1  0.656124  0.084939  0.132272  1
  O  O81  1  0.394211  0.185367  0.723824  1
  O  O82  1  0.343876  0.915061  0.867728  1
  O  O83  1  0.626138  0.046892  0.801221  1
