# generated using pymatgen
data_Co8Te(AsO8)2
_symmetry_space_group_name_H-M   'P 1'
_cell_length_a   6.04118548
_cell_length_b   8.70424338
_cell_length_c   12.31426170
_cell_angle_alpha   90.00000000
_cell_angle_beta   104.19910012
_cell_angle_gamma   90.00000000
_symmetry_Int_Tables_number   1
_chemical_formula_structural   Co8Te(AsO8)2
_chemical_formula_sum   'Co16 Te2 As4 O32'
_cell_volume   627.74987132
_cell_formula_units_Z   2
loop_
 _symmetry_equiv_pos_site_id
 _symmetry_equiv_pos_as_xyz
  1  'x, y, z'
loop_
 _atom_site_type_symbol
 _atom_site_label
 _atom_site_symmetry_multiplicity
 _atom_site_fract_x
 _atom_site_fract_y
 _atom_site_fract_z
 _atom_site_occupancy
  Co  Co0  1  0.822918  0.250000  0.145836  1
  Co  Co1  1  0.940962  0.371846  0.881924  1
  Co  Co2  1  0.057053  0.750000  0.614107  1
  Co  Co3  1  0.135920  0.972199  0.271840  1
  Co  Co4  1  0.440962  0.128154  0.881924  1
  Co  Co5  1  0.059038  0.628154  0.118076  1
  Co  Co6  1  0.864080  0.027801  0.728160  1
  Co  Co7  1  0.677082  0.750000  0.854164  1
  Co  Co8  1  0.177082  0.750000  0.854164  1
  Co  Co9  1  0.557053  0.750000  0.614107  1
  Co  Co10  1  0.559038  0.871846  0.118076  1
  Co  Co11  1  0.442947  0.250000  0.385893  1
  Co  Co12  1  0.942947  0.250000  0.385893  1
  Co  Co13  1  0.364080  0.472199  0.728160  1
  Co  Co14  1  0.322918  0.250000  0.145836  1
  Co  Co15  1  0.635920  0.527801  0.271840  1
  Te  Te16  1  0.000000  0.000000  0.000000  1
  Te  Te17  1  0.500000  0.500000  0.000000  1
  As  As18  1  0.309354  0.108721  0.618708  1
  As  As19  1  0.809354  0.391279  0.618708  1
  As  As20  1  0.690646  0.891279  0.381292  1
  As  As21  1  0.190646  0.608721  0.381292  1
  O  O22  1  0.716621  0.003710  0.881397  1
  O  O23  1  0.369295  0.714978  0.738590  1
  O  O24  1  0.283379  0.996290  0.118603  1
  O  O25  1  0.252118  0.229599  0.504235  1
  O  O26  1  0.868059  0.268013  0.736119  1
  O  O27  1  0.752118  0.270401  0.504235  1
  O  O28  1  0.216621  0.496290  0.881397  1
  O  O29  1  0.992014  0.773502  0.984028  1
  O  O30  1  0.081489  0.996120  0.627381  1
  O  O31  1  0.630705  0.285022  0.261410  1
  O  O32  1  0.492014  0.726498  0.984028  1
  O  O33  1  0.918511  0.003880  0.372619  1
  O  O34  1  0.954108  0.496120  0.372619  1
  O  O35  1  0.418511  0.496120  0.372619  1
  O  O36  1  0.454108  0.003880  0.372619  1
  O  O37  1  0.507986  0.273502  0.015972  1
  O  O38  1  0.335224  0.503710  0.118603  1
  O  O39  1  0.131941  0.731987  0.263881  1
  O  O40  1  0.247882  0.729599  0.495765  1
  O  O41  1  0.164776  0.003710  0.881397  1
  O  O42  1  0.368059  0.231987  0.736119  1
  O  O43  1  0.835224  0.996290  0.118603  1
  O  O44  1  0.783379  0.503710  0.118603  1
  O  O45  1  0.869295  0.785022  0.738590  1
  O  O46  1  0.007986  0.226498  0.015972  1
  O  O47  1  0.581489  0.503880  0.627381  1
  O  O48  1  0.545892  0.996120  0.627381  1
  O  O49  1  0.664776  0.496290  0.881397  1
  O  O50  1  0.045892  0.503880  0.627381  1
  O  O51  1  0.747882  0.770401  0.495765  1
  O  O52  1  0.631941  0.768013  0.263881  1
  O  O53  1  0.130705  0.214978  0.261410  1
