# generated using pymatgen
data_Sn4Sb6S13
_symmetry_space_group_name_H-M   'P 1'
_cell_length_a   3.83342392
_cell_length_b   16.98572116
_cell_length_c   18.66746200
_cell_angle_alpha   88.65494353
_cell_angle_beta   84.14759845
_cell_angle_gamma   83.54826806
_symmetry_Int_Tables_number   1
_chemical_formula_structural   Sn4Sb6S13
_chemical_formula_sum   'Sn8 Sb12 S26'
_cell_volume   1201.42126763
_cell_formula_units_Z   2
loop_
 _symmetry_equiv_pos_site_id
 _symmetry_equiv_pos_as_xyz
  1  'x, y, z'
loop_
 _atom_site_type_symbol
 _atom_site_label
 _atom_site_symmetry_multiplicity
 _atom_site_fract_x
 _atom_site_fract_y
 _atom_site_fract_z
 _atom_site_occupancy
  Sn  Sn0  1  0.800236  0.499639  0.897635  1
  Sn  Sn1  1  0.358417  0.130904  0.162381  1
  Sn  Sn2  1  0.569831  0.556208  0.302602  1
  Sn  Sn3  1  0.455177  0.608473  0.487813  1
  Sn  Sn4  1  0.550924  0.391611  0.510509  1
  Sn  Sn5  1  0.430288  0.444026  0.695899  1
  Sn  Sn6  1  0.196789  0.501098  0.100663  1
  Sn  Sn7  1  0.645075  0.869928  0.837034  1
  Sb  Sb8  1  0.676888  0.989471  0.667128  1
  Sb  Sb9  1  0.333830  0.011148  0.332895  1
  Sb  Sb10  1  0.175833  0.337227  0.306144  1
  Sb  Sb11  1  0.510999  0.075231  0.902775  1
  Sb  Sb12  1  0.490746  0.925561  0.096916  1
  Sb  Sb13  1  0.822498  0.663023  0.691969  1
  Sb  Sb14  1  0.131572  0.729726  0.006190  1
  Sb  Sb15  1  0.973180  0.807448  0.247998  1
  Sb  Sb16  1  0.025920  0.193243  0.751651  1
  Sb  Sb17  1  0.140655  0.191087  0.521448  1
  Sb  Sb18  1  0.858196  0.809074  0.477470  1
  Sb  Sb19  1  0.866729  0.270932  0.993391  1
  S  S20  1  0.076897  0.051663  0.796329  1
  S  S21  1  0.794359  0.180665  0.241594  1
  S  S22  1  0.312376  0.416159  0.957268  1
  S  S23  1  0.209419  0.819846  0.758062  1
  S  S24  1  0.685074  0.584527  0.040977  1
  S  S25  1  0.320049  0.272327  0.088140  1
  S  S26  1  0.942789  0.117782  0.998419  1
  S  S27  1  0.921292  0.567751  0.593498  1
  S  S28  1  0.911892  0.395428  0.781026  1
  S  S29  1  0.537787  0.784656  0.142828  1
  S  S30  1  0.953610  0.692177  0.403521  1
  S  S31  1  0.347904  0.749894  0.557918  1
  S  S32  1  0.081772  0.432455  0.404720  1
  S  S33  1  0.605093  0.139718  0.653054  1
  S  S34  1  0.399217  0.860969  0.346819  1
  S  S35  1  0.059234  0.883007  0.001506  1
  S  S36  1  0.675290  0.408296  0.235958  1
  S  S37  1  0.087816  0.605071  0.217433  1
  S  S38  1  0.679260  0.728607  0.911448  1
  S  S39  1  0.781973  0.026159  0.421463  1
  S  S40  1  0.322909  0.592061  0.762286  1
  S  S41  1  0.048685  0.308469  0.595128  1
  S  S42  1  0.228349  0.973808  0.578632  1
  S  S43  1  0.465053  0.216121  0.856800  1
  S  S44  1  0.926038  0.949079  0.203515  1
  S  S45  1  0.652147  0.250112  0.440954  1
