# generated using pymatgen
data_MoH4O5
_symmetry_space_group_name_H-M   'P 1'
_cell_length_a   8.24561816
_cell_length_b   6.45686849
_cell_length_c   4.31469973
_cell_angle_alpha   78.64307562
_cell_angle_beta   90.51555612
_cell_angle_gamma   90.31894739
_symmetry_Int_Tables_number   1
_chemical_formula_structural   MoH4O5
_chemical_formula_sum   'Mo2 H8 O10'
_cell_volume   225.20957058
_cell_formula_units_Z   2
loop_
 _symmetry_equiv_pos_site_id
 _symmetry_equiv_pos_as_xyz
  1  'x, y, z'
loop_
 _atom_site_type_symbol
 _atom_site_label
 _atom_site_symmetry_multiplicity
 _atom_site_fract_x
 _atom_site_fract_y
 _atom_site_fract_z
 _atom_site_occupancy
  Mo  Mo0  1  0.696644  0.015163  0.938514  1
  Mo  Mo1  1  0.196974  0.985075  0.058477  1
  H  H2  1  0.054166  0.448162  0.371691  1
  H  H3  1  0.555642  0.551044  0.632400  1
  H  H4  1  0.723988  0.197805  0.395017  1
  H  H5  1  0.220883  0.802064  0.601827  1
  H  H6  1  0.927226  0.442460  0.643757  1
  H  H7  1  0.835030  0.649085  0.197540  1
  H  H8  1  0.425847  0.558042  0.360087  1
  H  H9  1  0.337074  0.351751  0.805303  1
  O  O10  1  0.986651  0.986613  0.005013  1
  O  O11  1  0.486404  0.013258  0.985185  1
  O  O12  1  0.972303  0.531712  0.453078  1
  O  O13  1  0.472549  0.468239  0.550863  1
  O  O14  1  0.717553  0.043836  0.475528  1
  O  O15  1  0.217216  0.956268  0.523024  1
  O  O16  1  0.758583  0.277524  0.934816  1
  O  O17  1  0.738460  0.722817  0.079159  1
  O  O18  1  0.257221  0.722113  0.068544  1
  O  O19  1  0.240567  0.277510  0.922012  1
