# generated using pymatgen
data_Na2UO4
_symmetry_space_group_name_H-M   'P 1'
_cell_length_a   5.97754532
_cell_length_b   5.92911101
_cell_length_c   12.20275918
_cell_angle_alpha   89.99894271
_cell_angle_beta   90.00225935
_cell_angle_gamma   90.00068025
_symmetry_Int_Tables_number   1
_chemical_formula_structural   Na2UO4
_chemical_formula_sum   'Na8 U4 O16'
_cell_volume   432.48445253
_cell_formula_units_Z   4
loop_
 _symmetry_equiv_pos_site_id
 _symmetry_equiv_pos_as_xyz
  1  'x, y, z'
loop_
 _atom_site_type_symbol
 _atom_site_label
 _atom_site_symmetry_multiplicity
 _atom_site_fract_x
 _atom_site_fract_y
 _atom_site_fract_z
 _atom_site_occupancy
  Na  Na0  1  0.528974  0.473379  0.342900  1
  Na  Na1  1  0.971026  0.473379  0.157098  1
  Na  Na2  1  0.528974  0.973379  0.157099  1
  Na  Na3  1  0.028974  0.526621  0.842902  1
  Na  Na4  1  0.971027  0.973380  0.342900  1
  Na  Na5  1  0.471027  0.526620  0.657100  1
  Na  Na6  1  0.028974  0.026620  0.657100  1
  Na  Na7  1  0.471026  0.026620  0.842901  1
  U  U8  1  0.499999  0.500001  -0.000000  1
  U  U9  1  -0.000002  -0.000002  -0.000001  1
  U  U10  1  0.499997  0.000003  0.499999  1
  U  U11  1  -0.000000  0.499999  0.499998  1
  O  O12  1  0.189242  0.192386  0.472400  1
  O  O13  1  0.568718  0.527030  0.155005  1
  O  O14  1  0.310746  0.692376  0.472401  1
  O  O15  1  0.689267  0.807639  0.972400  1
  O  O16  1  0.068709  0.472972  0.654990  1
  O  O17  1  0.931290  0.527027  0.345011  1
  O  O18  1  0.810770  0.307602  0.972401  1
  O  O19  1  0.810758  0.807611  0.527600  1
  O  O20  1  0.431288  0.972972  0.654996  1
  O  O21  1  0.689256  0.307629  0.527600  1
  O  O22  1  0.189232  0.692399  0.027600  1
  O  O23  1  0.068712  0.972972  0.845007  1
  O  O24  1  0.568713  0.027028  0.345004  1
  O  O25  1  0.310731  0.192360  0.027600  1
  O  O26  1  0.431282  0.472971  0.844996  1
  O  O27  1  0.931289  0.027027  0.154991  1
