# generated using pymatgen
data_Ta
_symmetry_space_group_name_H-M   'P 1'
_cell_length_a   10.52818420
_cell_length_b   10.52806795
_cell_length_c   4.76472124
_cell_angle_alpha   90.00017742
_cell_angle_beta   89.99993864
_cell_angle_gamma   89.93236806
_symmetry_Int_Tables_number   1
_chemical_formula_structural   Ta
_chemical_formula_sum   Ta22
_cell_volume   528.12818943
_cell_formula_units_Z   22
loop_
 _symmetry_equiv_pos_site_id
 _symmetry_equiv_pos_as_xyz
  1  'x, y, z'
loop_
 _atom_site_type_symbol
 _atom_site_label
 _atom_site_symmetry_multiplicity
 _atom_site_fract_x
 _atom_site_fract_y
 _atom_site_fract_z
 _atom_site_occupancy
  Ta  Ta0  1  0.000004  0.499999  0.748800  1
  Ta  Ta1  1  0.499999  0.000000  0.251199  1
  Ta  Ta2  1  0.932828  0.758757  0.750106  1
  Ta  Ta3  1  0.067180  0.241244  0.750108  1
  Ta  Ta4  1  0.241302  0.932821  0.249892  1
  Ta  Ta5  1  0.758698  0.067175  0.249895  1
  Ta  Ta6  1  0.258942  0.431170  0.749257  1
  Ta  Ta7  1  0.741056  0.568831  0.749257  1
  Ta  Ta8  1  0.568817  0.258889  0.250739  1
  Ta  Ta9  1  0.431172  0.741109  0.250739  1
  Ta  Ta10  1  0.877026  0.035527  0.749628  1
  Ta  Ta11  1  0.122979  0.964475  0.749626  1
  Ta  Ta12  1  0.964563  0.877000  0.250375  1
  Ta  Ta13  1  0.035443  0.122999  0.250376  1
  Ta  Ta14  1  0.536149  0.377193  0.750357  1
  Ta  Ta15  1  0.463846  0.622808  0.750357  1
  Ta  Ta16  1  0.622830  0.536061  0.249644  1
  Ta  Ta17  1  0.377165  0.463943  0.249643  1
  Ta  Ta18  1  0.602561  0.102811  0.751026  1
  Ta  Ta19  1  0.397438  0.897188  0.751025  1
  Ta  Ta20  1  0.897150  0.602610  0.248975  1
  Ta  Ta21  1  0.102852  0.397388  0.248976  1
