# generated using pymatgen
data_Pr4MgCo
_symmetry_space_group_name_H-M   'P 1'
_cell_length_a   10.05157549
_cell_length_b   10.05138354
_cell_length_c   10.05178196
_cell_angle_alpha   59.99801462
_cell_angle_beta   59.99859962
_cell_angle_gamma   59.99722237
_symmetry_Int_Tables_number   1
_chemical_formula_structural   Pr4MgCo
_chemical_formula_sum   'Pr16 Mg4 Co4'
_cell_volume   718.07170727
_cell_formula_units_Z   4
loop_
 _symmetry_equiv_pos_site_id
 _symmetry_equiv_pos_as_xyz
  1  'x, y, z'
loop_
 _atom_site_type_symbol
 _atom_site_label
 _atom_site_symmetry_multiplicity
 _atom_site_fract_x
 _atom_site_fract_y
 _atom_site_fract_z
 _atom_site_occupancy
  Pr  Pr0  1  0.964865  0.345063  0.345038  1
  Pr  Pr1  1  0.561237  0.938761  0.938762  1
  Pr  Pr2  1  0.345043  0.345057  0.964869  1
  Pr  Pr3  1  0.938762  0.561239  0.938760  1
  Pr  Pr4  1  0.561239  0.561238  0.938763  1
  Pr  Pr5  1  0.188227  0.188226  0.811772  1
  Pr  Pr6  1  0.811785  0.811768  0.188224  1
  Pr  Pr7  1  0.188225  0.811761  0.811791  1
  Pr  Pr8  1  0.938761  0.561238  0.561240  1
  Pr  Pr9  1  0.811769  0.188225  0.811783  1
  Pr  Pr10  1  0.345056  0.964858  0.345043  1
  Pr  Pr11  1  0.811765  0.188228  0.188225  1
  Pr  Pr12  1  0.938761  0.938761  0.561238  1
  Pr  Pr13  1  0.561238  0.938761  0.561239  1
  Pr  Pr14  1  0.188223  0.811761  0.188225  1
  Pr  Pr15  1  0.345044  0.345055  0.345033  1
  Mg  Mg16  1  0.578657  0.578657  0.264031  1
  Mg  Mg17  1  0.264031  0.578656  0.578656  1
  Mg  Mg18  1  0.578657  0.578657  0.578656  1
  Mg  Mg19  1  0.578657  0.264031  0.578656  1
  Co  Co20  1  0.140538  0.578388  0.140536  1
  Co  Co21  1  0.140538  0.140538  0.578387  1
  Co  Co22  1  0.578387  0.140538  0.140538  1
  Co  Co23  1  0.140538  0.140537  0.140536  1
