# generated using pymatgen
data_LaP2H2O9
_symmetry_space_group_name_H-M   'P 1'
_cell_length_a   9.14827925
_cell_length_b   7.31464917
_cell_length_c   13.52949032
_cell_angle_alpha   90.00000000
_cell_angle_beta   106.94925176
_cell_angle_gamma   90.00000000
_symmetry_Int_Tables_number   1
_chemical_formula_structural   LaP2H2O9
_chemical_formula_sum   'La4 P8 H8 O36'
_cell_volume   866.02032286
_cell_formula_units_Z   4
loop_
 _symmetry_equiv_pos_site_id
 _symmetry_equiv_pos_as_xyz
  1  'x, y, z'
loop_
 _atom_site_type_symbol
 _atom_site_label
 _atom_site_symmetry_multiplicity
 _atom_site_fract_x
 _atom_site_fract_y
 _atom_site_fract_z
 _atom_site_occupancy
  La  La0  1  0.050113  0.244498  0.329221  1
  La  La1  1  0.949887  0.744498  0.170779  1
  La  La2  1  0.949887  0.755502  0.670779  1
  La  La3  1  0.050113  0.255502  0.829221  1
  P  P4  1  0.974696  0.260866  0.079741  1
  P  P5  1  0.025304  0.760866  0.420259  1
  P  P6  1  0.025304  0.739134  0.920259  1
  P  P7  1  0.974696  0.239134  0.579741  1
  P  P8  1  0.675438  0.448606  0.255320  1
  P  P9  1  0.324562  0.948606  0.244680  1
  P  P10  1  0.324562  0.551394  0.744680  1
  P  P11  1  0.675438  0.051394  0.755320  1
  H  H12  1  0.826008  0.297537  0.014736  1
  H  H13  1  0.173992  0.797537  0.485264  1
  H  H14  1  0.173992  0.702463  0.985264  1
  H  H15  1  0.826008  0.202463  0.514736  1
  H  H16  1  0.643400  0.530975  0.340449  1
  H  H17  1  0.356600  0.030975  0.159551  1
  H  H18  1  0.356600  0.469025  0.659551  1
  H  H19  1  0.643400  0.969025  0.840449  1
  O  O20  1  0.018283  0.419548  0.160026  1
  O  O21  1  0.981717  0.919548  0.339974  1
  O  O22  1  0.981717  0.580452  0.839974  1
  O  O23  1  0.018283  0.080452  0.660026  1
  O  O24  1  0.969259  0.086598  0.143921  1
  O  O25  1  0.030741  0.586598  0.356079  1
  O  O26  1  0.030741  0.913402  0.856079  1
  O  O27  1  0.969259  0.413402  0.643921  1
  O  O28  1  0.077312  0.247814  0.009243  1
  O  O29  1  0.922688  0.747814  0.490757  1
  O  O30  1  0.922688  0.752186  0.990757  1
  O  O31  1  0.077312  0.252186  0.509243  1
  O  O32  1  0.773290  0.279638  0.288077  1
  O  O33  1  0.226710  0.779638  0.211923  1
  O  O34  1  0.226710  0.720362  0.711923  1
  O  O35  1  0.773290  0.220362  0.788077  1
  O  O36  1  0.497493  0.361169  0.191690  1
  O  O37  1  0.502506  0.861169  0.308310  1
  O  O38  1  0.502506  0.638831  0.808310  1
  O  O39  1  0.497493  0.138831  0.691690  1
  O  O40  1  0.720499  0.586882  0.187598  1
  O  O41  1  0.279501  0.086882  0.312402  1
  O  O42  1  0.279501  0.413118  0.812402  1
  O  O43  1  0.720499  0.913118  0.687598  1
  O  O44  1  0.391008  0.364002  0.450024  1
  O  O45  1  0.608992  0.864002  0.049976  1
  O  O46  1  0.608992  0.635998  0.549976  1
  O  O47  1  0.391008  0.135998  0.950024  1
  O  O48  1  0.599186  0.508158  0.859648  1
  O  O49  1  0.400814  0.008158  0.640352  1
  O  O50  1  0.400814  0.491842  0.140352  1
  O  O51  1  0.599186  0.991842  0.359648  1
  O  O52  1  0.508107  0.229151  0.978362  1
  O  O53  1  0.491893  0.729151  0.521638  1
  O  O54  1  0.491893  0.770849  0.021638  1
  O  O55  1  0.508107  0.270849  0.478362  1
