# generated using pymatgen
data_SnH24C6N2(OF3)2
_symmetry_space_group_name_H-M   'P 1'
_cell_length_a   8.30893420
_cell_length_b   8.30893420
_cell_length_c   8.26588880
_cell_angle_alpha   63.54232576
_cell_angle_beta   116.45767424
_cell_angle_gamma   127.51084506
_symmetry_Int_Tables_number   1
_chemical_formula_structural   SnH24C6N2(OF3)2
_chemical_formula_sum   'Sn1 H24 C6 N2 O2 F6'
_cell_volume   392.87294519
_cell_formula_units_Z   1
loop_
 _symmetry_equiv_pos_site_id
 _symmetry_equiv_pos_as_xyz
  1  'x, y, z'
loop_
 _atom_site_type_symbol
 _atom_site_label
 _atom_site_symmetry_multiplicity
 _atom_site_fract_x
 _atom_site_fract_y
 _atom_site_fract_z
 _atom_site_occupancy
  Sn  Sn0  1  0.000000  0.000000  0.000000  1
  H  H1  1  0.700587  0.299413  0.298567  1
  H  H2  1  0.299413  0.700587  0.701433  1
  H  H3  1  0.644488  0.570190  0.223549  1
  H  H4  1  0.429810  0.355512  0.223549  1
  H  H5  1  0.355512  0.429810  0.776451  1
  H  H6  1  0.570190  0.644488  0.776451  1
  H  H7  1  0.067045  0.507108  0.299862  1
  H  H8  1  0.492892  0.932955  0.299862  1
  H  H9  1  0.932955  0.492892  0.700138  1
  H  H10  1  0.507108  0.067045  0.700138  1
  H  H11  1  0.064104  0.270615  0.354969  1
  H  H12  1  0.729385  0.935896  0.354969  1
  H  H13  1  0.935896  0.729385  0.645031  1
  H  H14  1  0.270615  0.064104  0.645031  1
  H  H15  1  0.017180  0.318102  0.517686  1
  H  H16  1  0.681898  0.982820  0.517686  1
  H  H17  1  0.982820  0.681898  0.482314  1
  H  H18  1  0.318102  0.017180  0.482314  1
  H  H19  1  0.796873  0.446349  0.016514  1
  H  H20  1  0.553651  0.203127  0.016514  1
  H  H21  1  0.203127  0.553651  0.983486  1
  H  H22  1  0.446349  0.796873  0.983486  1
  H  H23  1  0.786886  0.213114  0.044035  1
  H  H24  1  0.213114  0.786886  0.955965  1
  C  C25  1  0.995645  0.340115  0.370044  1
  C  C26  1  0.659885  0.004355  0.370044  1
  C  C27  1  0.004355  0.659885  0.629956  1
  C  C28  1  0.340115  0.995645  0.629956  1
  C  C29  1  0.723510  0.276490  0.074791  1
  C  C30  1  0.276490  0.723510  0.925209  1
  N  N31  1  0.766343  0.233657  0.280922  1
  N  N32  1  0.233657  0.766343  0.719078  1
  O  O33  1  0.581213  0.418787  0.284494  1
  O  O34  1  0.418787  0.581213  0.715506  1
  F  F35  1  0.162565  0.223320  0.139833  1
  F  F36  1  0.776680  0.837435  0.139833  1
  F  F37  1  0.837435  0.776680  0.860167  1
  F  F38  1  0.223320  0.162565  0.860167  1
  F  F39  1  0.851464  0.148536  0.802452  1
  F  F40  1  0.148536  0.851464  0.197548  1
