# generated using pymatgen
data_Ca4Al6SO16
_symmetry_space_group_name_H-M   'P 1'
_cell_length_a   9.28350266
_cell_length_b   13.11567055
_cell_length_c   13.13561178
_cell_angle_alpha   90.00000000
_cell_angle_beta   90.00000000
_cell_angle_gamma   90.00000000
_symmetry_Int_Tables_number   1
_chemical_formula_structural   Ca4Al6SO16
_chemical_formula_sum   'Ca16 Al24 S4 O64'
_cell_volume   1599.38371557
_cell_formula_units_Z   4
loop_
 _symmetry_equiv_pos_site_id
 _symmetry_equiv_pos_as_xyz
  1  'x, y, z'
loop_
 _atom_site_type_symbol
 _atom_site_label
 _atom_site_symmetry_multiplicity
 _atom_site_fract_x
 _atom_site_fract_y
 _atom_site_fract_z
 _atom_site_occupancy
  Ca  Ca0  1  0.200731  0.537278  0.743954  1
  Ca  Ca1  1  0.162511  0.060195  0.249731  1
  Ca  Ca2  1  0.233440  0.743317  0.489954  1
  Ca  Ca3  1  0.700731  0.537278  0.256046  1
  Ca  Ca4  1  0.162511  0.939805  0.750269  1
  Ca  Ca5  1  0.662511  0.060195  0.750269  1
  Ca  Ca6  1  0.733440  0.256683  0.489954  1
  Ca  Ca7  1  0.302034  0.746569  0.060964  1
  Ca  Ca8  1  0.302034  0.253431  0.939036  1
  Ca  Ca9  1  0.700731  0.462722  0.743954  1
  Ca  Ca10  1  0.802034  0.746569  0.939036  1
  Ca  Ca11  1  0.802034  0.253431  0.060964  1
  Ca  Ca12  1  0.662511  0.939805  0.249731  1
  Ca  Ca13  1  0.233440  0.256683  0.510046  1
  Ca  Ca14  1  0.200731  0.462722  0.256046  1
  Ca  Ca15  1  0.733440  0.743317  0.510046  1
  Al  Al16  1  0.700613  0.000000  0.500000  1
  Al  Al17  1  0.455591  0.879467  0.628343  1
  Al  Al18  1  0.200613  0.000000  0.500000  1
  Al  Al19  1  0.994407  0.626838  0.121696  1
  Al  Al20  1  0.478813  0.123587  0.121193  1
  Al  Al21  1  0.978813  0.876413  0.121193  1
  Al  Al22  1  0.455591  0.120533  0.371657  1
  Al  Al23  1  0.228714  0.000000  0.000000  1
  Al  Al24  1  0.727579  0.500000  0.500000  1
  Al  Al25  1  0.478813  0.876413  0.878807  1
  Al  Al26  1  0.978813  0.123587  0.878807  1
  Al  Al27  1  0.478048  0.369923  0.370970  1
  Al  Al28  1  0.955591  0.879467  0.371657  1
  Al  Al29  1  0.955591  0.120533  0.628343  1
  Al  Al30  1  0.994407  0.373162  0.878304  1
  Al  Al31  1  0.728714  0.000000  0.000000  1
  Al  Al32  1  0.978048  0.369923  0.629030  1
  Al  Al33  1  0.478048  0.630077  0.629030  1
  Al  Al34  1  0.227579  0.500000  0.500000  1
  Al  Al35  1  0.494407  0.373162  0.121696  1
  Al  Al36  1  0.744411  0.500000  0.000000  1
  Al  Al37  1  0.244411  0.500000  0.000000  1
  Al  Al38  1  0.978048  0.630077  0.370970  1
  Al  Al39  1  0.494407  0.626838  0.878304  1
  S  S40  1  0.467937  0.264621  0.734043  1
  S  S41  1  0.967937  0.735379  0.734043  1
  S  S42  1  0.967937  0.264621  0.265957  1
  S  S43  1  0.467937  0.735379  0.265957  1
  O  O44  1  0.842140  0.392693  0.956047  1
  O  O45  1  0.624629  0.963052  0.892144  1
  O  O46  1  0.011858  0.243719  0.591857  1
  O  O47  1  0.053959  0.246637  0.902671  1
  O  O48  1  0.511858  0.243719  0.408143  1
  O  O49  1  0.831387  0.891341  0.036404  1
  O  O50  1  0.135169  0.437201  0.598041  1
  O  O51  1  0.436310  0.597906  0.754357  1
  O  O52  1  0.436310  0.402094  0.245643  1
  O  O53  1  0.124629  0.036948  0.892144  1
  O  O54  1  0.370386  0.763139  0.349645  1
  O  O55  1  0.797139  0.897890  0.444818  1
  O  O56  1  0.135169  0.562799  0.401959  1
  O  O57  1  0.402126  0.895885  0.756384  1
  O  O58  1  0.331388  0.108659  0.036404  1
  O  O59  1  0.297139  0.102110  0.444818  1
  O  O60  1  0.599210  0.036720  0.392245  1
  O  O61  1  0.553959  0.753363  0.902671  1
  O  O62  1  0.797139  0.102110  0.555182  1
  O  O63  1  0.553959  0.246637  0.097329  1
  O  O64  1  0.902126  0.104115  0.756384  1
  O  O65  1  0.319678  0.404410  0.435069  1
  O  O66  1  0.099210  0.963280  0.392245  1
  O  O67  1  0.319678  0.595590  0.564931  1
  O  O68  1  0.474039  0.823373  0.191539  1
  O  O69  1  0.402126  0.104115  0.243616  1
  O  O70  1  0.342140  0.392693  0.043953  1
  O  O71  1  0.819678  0.595590  0.435069  1
  O  O72  1  0.145821  0.547049  0.104856  1
  O  O73  1  0.011858  0.756281  0.408143  1
  O  O74  1  0.116868  0.715480  0.694728  1
  O  O75  1  0.099210  0.036720  0.607755  1
  O  O76  1  0.414789  0.355483  0.790969  1
  O  O77  1  0.974039  0.176627  0.191539  1
  O  O78  1  0.616868  0.284520  0.694728  1
  O  O79  1  0.145821  0.452951  0.895144  1
  O  O80  1  0.635169  0.437201  0.401959  1
  O  O81  1  0.124629  0.963052  0.107856  1
  O  O82  1  0.914789  0.355483  0.209031  1
  O  O83  1  0.414789  0.644517  0.209031  1
  O  O84  1  0.870386  0.236861  0.349645  1
  O  O85  1  0.331388  0.891341  0.963596  1
  O  O86  1  0.902126  0.895885  0.243616  1
  O  O87  1  0.297139  0.897890  0.555182  1
  O  O88  1  0.936310  0.402094  0.754357  1
  O  O89  1  0.116868  0.284520  0.305272  1
  O  O90  1  0.053959  0.753363  0.097329  1
  O  O91  1  0.936310  0.597906  0.245643  1
  O  O92  1  0.914789  0.644517  0.790969  1
  O  O93  1  0.624629  0.036948  0.107856  1
  O  O94  1  0.645821  0.452951  0.104856  1
  O  O95  1  0.511858  0.756281  0.591857  1
  O  O96  1  0.645821  0.547049  0.895144  1
  O  O97  1  0.974039  0.823373  0.808461  1
  O  O98  1  0.474039  0.176627  0.808461  1
  O  O99  1  0.342140  0.607307  0.956047  1
  O  O100  1  0.842140  0.607307  0.043953  1
  O  O101  1  0.616868  0.715480  0.305272  1
  O  O102  1  0.635169  0.562799  0.598041  1
  O  O103  1  0.870386  0.763139  0.650355  1
  O  O104  1  0.831387  0.108659  0.963596  1
  O  O105  1  0.819678  0.404410  0.564931  1
  O  O106  1  0.599210  0.963280  0.607755  1
  O  O107  1  0.370386  0.236861  0.650355  1
