# generated using pymatgen
data_Na13Ca7S12Cl2O48F
_symmetry_space_group_name_H-M   'P 1'
_cell_length_a   9.70749574
_cell_length_b   9.68767501
_cell_length_c   13.90406898
_cell_angle_alpha   89.98909116
_cell_angle_beta   90.04402121
_cell_angle_gamma   120.12109049
_symmetry_Int_Tables_number   1
_chemical_formula_structural   Na13Ca7S12Cl2O48F
_chemical_formula_sum   'Na13 Ca7 S12 Cl2 O48 F1'
_cell_volume   1131.01394847
_cell_formula_units_Z   1
loop_
 _symmetry_equiv_pos_site_id
 _symmetry_equiv_pos_as_xyz
  1  'x, y, z'
loop_
 _atom_site_type_symbol
 _atom_site_label
 _atom_site_symmetry_multiplicity
 _atom_site_fract_x
 _atom_site_fract_y
 _atom_site_fract_z
 _atom_site_occupancy
  Na  Na0  1  0.256571  0.992549  0.128733  1
  Na  Na1  1  0.262221  0.987452  0.620805  1
  Na  Na2  1  0.011039  0.266481  0.126928  1
  Na  Na3  1  0.016567  0.281155  0.622237  1
  Na  Na4  1  0.323935  0.662218  0.253588  1
  Na  Na5  1  0.318474  0.660389  0.502586  1
  Na  Na6  1  0.325791  0.665654  0.737845  1
  Na  Na7  1  0.278476  0.268910  0.379843  1
  Na  Na8  1  0.735922  0.743239  0.126917  1
  Na  Na9  1  0.664969  0.328246  0.743008  1
  Na  Na10  1  0.662249  0.332359  0.503686  1
  Na  Na11  1  0.666941  0.333903  0.998760  1
  Na  Na12  1  0.996870  0.725723  0.377917  1
  Ca  Ca13  1  0.331041  0.666274  0.002928  1
  Ca  Ca14  1  0.244060  0.236430  0.874590  1
  Ca  Ca15  1  0.733591  0.739307  0.625078  1
  Ca  Ca16  1  0.666196  0.339307  0.250345  1
  Ca  Ca17  1  0.994941  0.756670  0.876725  1
  Ca  Ca18  1  0.728430  0.009034  0.376313  1
  Ca  Ca19  1  0.764621  0.010692  0.876153  1
  S  S20  1  0.022915  0.378212  0.371214  1
  S  S21  1  0.035266  0.401472  0.877229  1
  S  S22  1  0.361628  0.975437  0.371454  1
  S  S23  1  0.368229  0.965419  0.877250  1
  S  S24  1  0.403836  0.373364  0.122755  1
  S  S25  1  0.395757  0.367163  0.627268  1
  S  S26  1  0.618282  0.647197  0.372836  1
  S  S27  1  0.599042  0.633233  0.876205  1
  S  S28  1  0.626345  0.029302  0.124705  1
  S  S29  1  0.633100  0.025734  0.625725  1
  S  S30  1  0.967336  0.595224  0.122983  1
  S  S31  1  0.966334  0.602961  0.627021  1
  Cl  Cl32  1  0.000671  0.000266  0.076607  1
  Cl  Cl33  1  0.001621  0.003701  0.637718  1
  O  O34  1  0.260226  0.933615  0.457380  1
  O  O35  1  0.265006  0.900015  0.964971  1
  O  O36  1  0.258325  0.921424  0.285452  1
  O  O37  1  0.260011  0.910523  0.792481  1
  O  O38  1  0.143510  0.659353  0.120821  1
  O  O39  1  0.142163  0.677023  0.626744  1
  O  O40  1  0.104323  0.555494  0.374924  1
  O  O41  1  0.107135  0.579840  0.874903  1
  O  O42  1  0.074835  0.325529  0.285423  1
  O  O43  1  0.089078  0.348210  0.792148  1
  O  O44  1  0.060984  0.313999  0.457205  1
  O  O45  1  0.101247  0.364033  0.964643  1
  O  O46  1  0.474120  0.893419  0.875323  1
  O  O47  1  0.456585  0.890091  0.374956  1
  O  O48  1  0.339187  0.484938  0.120282  1
  O  O49  1  0.328980  0.475996  0.626694  1
  O  O50  1  0.514034  0.853233  0.121446  1
  O  O51  1  0.534210  0.846986  0.626455  1
  O  O52  1  0.442157  0.555270  0.374795  1
  O  O53  1  0.421248  0.529913  0.875069  1
  O  O54  1  0.365824  0.282008  0.031212  1
  O  O55  1  0.342867  0.265387  0.207037  1
  O  O56  1  0.356678  0.274236  0.718975  1
  O  O57  1  0.339598  0.258257  0.544138  1
  O  O58  1  0.680387  0.752706  0.460325  1
  O  O59  1  0.676657  0.761593  0.290574  1
  O  O60  1  0.641841  0.741519  0.961365  1
  O  O61  1  0.652562  0.738889  0.789230  1
  O  O62  1  0.582441  0.467308  0.132487  1
  O  O63  1  0.575702  0.465376  0.622048  1
  O  O64  1  0.479953  0.152197  0.367448  1
  O  O65  1  0.463176  0.142258  0.879904  1
  O  O66  1  0.682458  0.535630  0.368422  1
  O  O67  1  0.679506  0.537778  0.879268  1
  O  O68  1  0.536596  0.116974  0.134431  1
  O  O69  1  0.533021  0.100894  0.618774  1
  O  O70  1  0.915283  0.633579  0.031021  1
  O  O71  1  0.911705  0.663199  0.545147  1
  O  O72  1  0.921405  0.658165  0.206674  1
  O  O73  1  0.909555  0.643338  0.718416  1
  O  O74  1  0.880964  0.416582  0.132955  1
  O  O75  1  0.887372  0.426418  0.620092  1
  O  O76  1  0.842812  0.310457  0.366637  1
  O  O77  1  0.858694  0.318358  0.880329  1
  O  O78  1  0.732378  0.072070  0.210735  1
  O  O79  1  0.728230  0.082533  0.716374  1
  O  O80  1  0.722058  0.083891  0.035247  1
  O  O81  1  0.741266  0.075741  0.540481  1
  F  F82  1  0.998378  0.999078  0.861838  1
