# generated using pymatgen
data_Nd2Th2O7
_symmetry_space_group_name_H-M   'P 1'
_cell_length_a   3.90965755
_cell_length_b   15.90201979
_cell_length_c   13.74096459
_cell_angle_alpha   30.21969498
_cell_angle_beta   55.31590312
_cell_angle_gamma   60.54641809
_symmetry_Int_Tables_number   1
_chemical_formula_structural   Nd2Th2O7
_chemical_formula_sum   'Nd4 Th4 O14'
_cell_volume   353.57470653
_cell_formula_units_Z   2
loop_
 _symmetry_equiv_pos_site_id
 _symmetry_equiv_pos_as_xyz
  1  'x, y, z'
loop_
 _atom_site_type_symbol
 _atom_site_label
 _atom_site_symmetry_multiplicity
 _atom_site_fract_x
 _atom_site_fract_y
 _atom_site_fract_z
 _atom_site_occupancy
  Nd  Nd0  1  0.962150  0.000000  0.518925  1
  Nd  Nd1  1  0.000000  0.250000  0.000000  1
  Nd  Nd2  1  0.037850  0.500000  0.481075  1
  Nd  Nd3  1  0.000000  0.750000  0.500000  1
  Th  Th4  1  0.995762  0.000000  0.002119  1
  Th  Th5  1  0.004238  0.500000  0.997881  1
  Th  Th6  1  0.000000  0.250000  0.500000  1
  Th  Th7  1  0.000000  0.750000  0.000000  1
  O  O8  1  0.245157  0.215400  0.162022  1
  O  O9  1  0.262068  0.500000  0.118966  1
  O  O10  1  0.742661  0.262685  0.365984  1
  O  O11  1  0.257339  0.237315  0.634016  1
  O  O12  1  0.257339  0.762685  0.108645  1
  O  O13  1  0.750161  0.500000  0.374919  1
  O  O14  1  0.228078  0.000000  0.135961  1
  O  O15  1  0.754843  0.284600  0.837978  1
  O  O16  1  0.754843  0.715400  0.407179  1
  O  O17  1  0.245157  0.784600  0.592821  1
  O  O18  1  0.771922  0.500000  0.864039  1
  O  O19  1  0.249839  0.000000  0.625081  1
  O  O20  1  0.742661  0.737315  0.891355  1
  O  O21  1  0.737932  0.000000  0.881034  1
