# generated using pymatgen
data_P6N7Cl9
_symmetry_space_group_name_H-M   'P 1'
_cell_length_a   6.48439260
_cell_length_b   10.63627492
_cell_length_c   30.38908152
_cell_angle_alpha   98.96509022
_cell_angle_beta   90.00286271
_cell_angle_gamma   107.84205959
_symmetry_Int_Tables_number   1
_chemical_formula_structural   P6N7Cl9
_chemical_formula_sum   'P24 N28 Cl36'
_cell_volume   1968.20285520
_cell_formula_units_Z   4
loop_
 _symmetry_equiv_pos_site_id
 _symmetry_equiv_pos_as_xyz
  1  'x, y, z'
loop_
 _atom_site_type_symbol
 _atom_site_label
 _atom_site_symmetry_multiplicity
 _atom_site_fract_x
 _atom_site_fract_y
 _atom_site_fract_z
 _atom_site_occupancy
  P  P0  1  0.515539  0.189785  0.888639  1
  P  P1  1  0.523263  0.958985  0.923715  1
  P  P2  1  0.645909  0.297781  0.641552  1
  P  P3  1  0.742129  0.279143  0.051195  1
  P  P4  1  0.482056  0.811603  0.112066  1
  P  P5  1  0.258482  0.731784  0.770606  1
  P  P6  1  0.355133  0.701181  0.358227  1
  P  P7  1  0.554059  0.033744  0.674444  1
  P  P8  1  0.479149  0.033137  0.174729  1
  P  P9  1  0.446813  0.965804  0.325129  1
  P  P10  1  0.259847  0.719666  0.949044  1
  P  P11  1  0.521162  0.967930  0.825938  1
  P  P12  1  0.476195  0.041117  0.076634  1
  P  P13  1  0.670604  0.188590  0.388237  1
  P  P14  1  0.653292  0.297927  0.142138  1
  P  P15  1  0.530580  0.272026  0.729160  1
  P  P16  1  0.458378  0.719610  0.449087  1
  P  P17  1  0.327183  0.811331  0.611876  1
  P  P18  1  0.468127  0.728301  0.270620  1
  P  P19  1  0.740640  0.270917  0.229462  1
  P  P20  1  0.343973  0.702477  0.857930  1
  P  P21  1  0.541658  0.280712  0.550472  1
  P  P22  1  0.560643  0.041246  0.576148  1
  P  P23  1  0.436380  0.958425  0.423433  1
  N  N24  1  0.571381  0.353627  0.601042  1
  N  N25  1  0.514627  0.106928  0.927654  1
  N  N26  1  0.475750  0.891534  0.072484  1
  N  N27  1  0.406760  0.892473  0.572104  1
  N  N28  1  0.204460  0.655210  0.812331  1
  N  N29  1  0.588667  0.107686  0.427945  1
  N  N30  1  0.212929  0.647181  0.898602  1
  N  N31  1  0.796347  0.345831  0.187279  1
  N  N32  1  0.628393  0.122524  0.043055  1
  N  N33  1  0.377223  0.892230  0.661293  1
  N  N34  1  0.419520  0.875198  0.368981  1
  N  N35  1  0.513897  0.118382  0.719190  1
  N  N36  1  0.398919  0.884278  0.780956  1
  N  N37  1  0.551150  0.345735  0.686972  1
  N  N38  1  0.447021  0.653135  0.312643  1
  N  N39  1  0.481648  0.108672  0.839236  1
  N  N40  1  0.494171  0.123894  0.542654  1
  N  N41  1  0.577659  0.124402  0.630641  1
  N  N42  1  0.623353  0.107948  0.338816  1
  N  N43  1  0.374819  0.876059  0.957434  1
  N  N44  1  0.516807  0.891985  0.161539  1
  N  N45  1  0.505571  0.876177  0.456722  1
  N  N46  1  0.433179  0.646176  0.398613  1
  N  N47  1  0.490283  0.882730  0.280681  1
  N  N48  1  0.456599  0.875758  0.869326  1
  N  N49  1  0.784567  0.352784  0.101407  1
  N  N50  1  0.544915  0.124192  0.131090  1
  N  N51  1  0.599879  0.118374  0.219598  1
  Cl  Cl52  1  0.156141  0.001631  0.181838  1
  Cl  Cl53  1  0.024395  0.316772  0.021012  1
  Cl  Cl54  1  0.168402  0.039221  0.063709  1
  Cl  Cl55  1  0.420690  0.622564  0.981989  1
  Cl  Cl56  1  0.283022  0.279209  0.897576  1
  Cl  Cl57  1  0.437213  0.650680  0.604864  1
  Cl  Cl58  1  0.399744  0.631668  0.724590  1
  Cl  Cl59  1  0.153475  0.994566  0.317916  1
  Cl  Cl60  1  0.222874  0.631561  0.224903  1
  Cl  Cl61  1  0.387889  0.362477  0.147664  1
  Cl  Cl62  1  0.299559  0.320952  0.520442  1
  Cl  Cl63  1  0.212101  0.651785  0.106361  1
  Cl  Cl64  1  0.267838  0.290103  0.760939  1
  Cl  Cl65  1  0.978838  0.682848  0.979500  1
  Cl  Cl66  1  0.600609  0.372681  0.275367  1
  Cl  Cl67  1  0.726036  0.707204  0.237883  1
  Cl  Cl68  1  0.848502  0.005823  0.681361  1
  Cl  Cl69  1  0.800602  0.371587  0.516446  1
  Cl  Cl70  1  0.976839  0.711611  0.738637  1
  Cl  Cl71  1  0.787689  0.350665  0.895054  1
  Cl  Cl72  1  0.773413  0.370703  0.775601  1
  Cl  Cl73  1  0.020663  0.288886  0.261486  1
  Cl  Cl74  1  0.866519  0.036425  0.563640  1
  Cl  Cl75  1  0.711730  0.720124  0.102583  1
  Cl  Cl76  1  0.005165  0.720306  0.603425  1
  Cl  Cl77  1  0.976093  0.360137  0.647642  1
  Cl  Cl78  1  0.579978  0.372184  0.017024  1
  Cl  Cl79  1  0.131808  0.961897  0.436467  1
  Cl  Cl80  1  0.843955  0.997343  0.818734  1
  Cl  Cl81  1  0.024274  0.635639  0.352498  1
  Cl  Cl82  1  0.834397  0.965619  0.936600  1
  Cl  Cl83  1  0.609579  0.639378  0.852001  1
  Cl  Cl84  1  0.560471  0.348534  0.394255  1
  Cl  Cl85  1  0.697770  0.679020  0.479788  1
  Cl  Cl86  1  0.992811  0.280622  0.397573  1
  Cl  Cl87  1  0.198376  0.627802  0.482436  1
