# generated using pymatgen
data_Eu2Si3Ni8
_symmetry_space_group_name_H-M   'P 1'
_cell_length_a   7.23190137
_cell_length_b   10.31871616
_cell_length_c   10.31871616
_cell_angle_alpha   90.00000000
_cell_angle_beta   90.00000000
_cell_angle_gamma   90.00000000
_symmetry_Int_Tables_number   1
_chemical_formula_structural   Eu2Si3Ni8
_chemical_formula_sum   'Eu8 Si12 Ni32'
_cell_volume   770.02323016
_cell_formula_units_Z   4
loop_
 _symmetry_equiv_pos_site_id
 _symmetry_equiv_pos_as_xyz
  1  'x, y, z'
loop_
 _atom_site_type_symbol
 _atom_site_label
 _atom_site_symmetry_multiplicity
 _atom_site_fract_x
 _atom_site_fract_y
 _atom_site_fract_z
 _atom_site_occupancy
  Eu  Eu0  1  0.885625  0.007801  0.250000  1
  Eu  Eu1  1  0.614375  0.750000  0.507801  1
  Eu  Eu2  1  0.114375  0.992199  0.750000  1
  Eu  Eu3  1  0.385625  0.250000  0.492199  1
  Eu  Eu4  1  0.614375  0.750000  0.992199  1
  Eu  Eu5  1  0.885625  0.492199  0.250000  1
  Eu  Eu6  1  0.385625  0.250000  0.007801  1
  Eu  Eu7  1  0.114375  0.507801  0.750000  1
  Si  Si8  1  0.750000  0.467224  0.532776  1
  Si  Si9  1  0.750000  0.467224  0.967224  1
  Si  Si10  1  0.750000  0.032776  0.967224  1
  Si  Si11  1  0.482530  0.750000  0.250000  1
  Si  Si12  1  0.250000  0.532776  0.467224  1
  Si  Si13  1  0.982530  0.250000  0.750000  1
  Si  Si14  1  0.750000  0.032776  0.532776  1
  Si  Si15  1  0.250000  0.967224  0.032776  1
  Si  Si16  1  0.250000  0.532776  0.032776  1
  Si  Si17  1  0.017470  0.750000  0.250000  1
  Si  Si18  1  0.250000  0.967224  0.467224  1
  Si  Si19  1  0.517470  0.250000  0.750000  1
  Ni  Ni20  1  0.473144  0.970364  0.629047  1
  Ni  Ni21  1  0.754555  0.864857  0.750000  1
  Ni  Ni22  1  0.526856  0.470365  0.129047  1
  Ni  Ni23  1  0.245445  0.364857  0.250000  1
  Ni  Ni24  1  0.713756  0.090062  0.750000  1
  Ni  Ni25  1  0.745445  0.250000  0.135143  1
  Ni  Ni26  1  0.973144  0.629047  0.529636  1
  Ni  Ni27  1  0.254555  0.750000  0.864857  1
  Ni  Ni28  1  0.786244  0.250000  0.909938  1
  Ni  Ni29  1  0.973144  0.870953  0.970364  1
  Ni  Ni30  1  0.526856  0.029635  0.370953  1
  Ni  Ni31  1  0.026856  0.370953  0.470365  1
  Ni  Ni32  1  0.973144  0.870953  0.529636  1
  Ni  Ni33  1  0.754555  0.635143  0.750000  1
  Ni  Ni34  1  0.526856  0.029635  0.129047  1
  Ni  Ni35  1  0.026856  0.370953  0.029635  1
  Ni  Ni36  1  0.286244  0.590062  0.250000  1
  Ni  Ni37  1  0.213756  0.750000  0.090062  1
  Ni  Ni38  1  0.786244  0.250000  0.590062  1
  Ni  Ni39  1  0.254555  0.750000  0.635143  1
  Ni  Ni40  1  0.973144  0.629047  0.970364  1
  Ni  Ni41  1  0.026856  0.129047  0.029635  1
  Ni  Ni42  1  0.473144  0.529636  0.629047  1
  Ni  Ni43  1  0.526856  0.470365  0.370953  1
  Ni  Ni44  1  0.713756  0.409938  0.750000  1
  Ni  Ni45  1  0.026856  0.129047  0.470365  1
  Ni  Ni46  1  0.473144  0.529636  0.870953  1
  Ni  Ni47  1  0.213756  0.750000  0.409938  1
  Ni  Ni48  1  0.745445  0.250000  0.364857  1
  Ni  Ni49  1  0.473144  0.970364  0.870953  1
  Ni  Ni50  1  0.286244  0.909938  0.250000  1
  Ni  Ni51  1  0.245445  0.135143  0.250000  1
