# generated using pymatgen
data_U3(HO5)2
_symmetry_space_group_name_H-M   'P 1'
_cell_length_a   6.84248260
_cell_length_b   7.38701832
_cell_length_c   5.57022311
_cell_angle_alpha   107.88774373
_cell_angle_beta   124.38817963
_cell_angle_gamma   89.60865926
_symmetry_Int_Tables_number   1
_chemical_formula_structural   U3(HO5)2
_chemical_formula_sum   'U3 H2 O10'
_cell_volume   216.07647585
_cell_formula_units_Z   1
loop_
 _symmetry_equiv_pos_site_id
 _symmetry_equiv_pos_as_xyz
  1  'x, y, z'
loop_
 _atom_site_type_symbol
 _atom_site_label
 _atom_site_symmetry_multiplicity
 _atom_site_fract_x
 _atom_site_fract_y
 _atom_site_fract_z
 _atom_site_occupancy
  U  U0  1  0.997219  0.997480  0.001194  1
  U  U1  1  0.555490  0.749965  0.015786  1
  U  U2  1  0.437205  0.255527  0.990389  1
  H  H3  1  0.803265  0.444940  0.941939  1
  H  H4  1  0.344220  0.610782  0.354456  1
  O  O5  1  0.918811  0.761093  0.022241  1
  O  O6  1  0.074286  0.236442  0.984061  1
  O  O7  1  0.698589  0.466724  0.010565  1
  O  O8  1  0.351010  0.558546  0.029207  1
  O  O9  1  0.311914  0.957087  0.012281  1
  O  O10  1  0.682652  0.036405  0.993032  1
  O  O11  1  0.233454  0.145024  0.545149  1
  O  O12  1  0.768652  0.863212  0.471725  1
  O  O13  1  0.352000  0.648063  0.549929  1
  O  O14  1  0.625872  0.346037  0.411610  1
