# generated using pymatgen
data_LiEuPS4
_symmetry_space_group_name_H-M   'P 1'
_cell_length_a   11.56031095
_cell_length_b   11.56031083
_cell_length_c   12.92306576
_cell_angle_alpha   116.56894158
_cell_angle_beta   116.56894129
_cell_angle_gamma   90.00000334
_symmetry_Int_Tables_number   1
_chemical_formula_structural   LiEuPS4
_chemical_formula_sum   'Li8 Eu8 P8 S32'
_cell_volume   1337.64501732
_cell_formula_units_Z   8
loop_
 _symmetry_equiv_pos_site_id
 _symmetry_equiv_pos_as_xyz
  1  'x, y, z'
loop_
 _atom_site_type_symbol
 _atom_site_label
 _atom_site_symmetry_multiplicity
 _atom_site_fract_x
 _atom_site_fract_y
 _atom_site_fract_z
 _atom_site_occupancy
  Eu  Eu0  1  0.625000  0.875000  0.250000  1
  Eu  Eu1  1  0.125000  0.375000  0.250000  1
  Eu  Eu2  1  0.125000  0.875000  0.250000  1
  Eu  Eu3  1  0.625000  0.375000  0.250000  1
  Eu  Eu4  1  0.375000  0.625000  0.750000  1
  Eu  Eu5  1  0.875000  0.125000  0.750000  1
  Eu  Eu6  1  0.875000  0.625000  0.750000  1
  Eu  Eu7  1  0.375000  0.125000  0.750000  1
  Li  Li8  1  0.750000  0.533457  1.000000  1
  Li  Li9  1  0.533457  0.250000  0.500000  1
  Li  Li10  1  0.966543  0.750000  0.500000  1
  Li  Li11  1  0.250000  0.466543  0.000000  1
  Li  Li12  1  0.250000  0.966543  0.000000  1
  Li  Li13  1  0.033457  0.250000  0.500000  1
  Li  Li14  1  0.466543  0.750000  0.500000  1
  Li  Li15  1  0.750000  0.033457  1.000000  1
  P  P16  1  0.750000  0.284672  0.000000  1
  P  P17  1  0.250000  0.715328  1.000000  1
  P  P18  1  0.784672  0.250000  0.500000  1
  P  P19  1  0.284672  0.250000  0.500000  1
  P  P20  1  0.750000  0.784672  0.000000  1
  P  P21  1  0.715328  0.750000  0.500000  1
  P  P22  1  0.215328  0.750000  0.500000  1
  P  P23  1  0.250000  0.215328  1.000000  1
  S  S24  1  0.731479  0.662321  0.330074  1
  S  S25  1  0.103869  0.118361  0.004853  1
  S  S26  1  0.118361  0.900984  0.504853  1
  S  S27  1  0.901405  0.837679  0.669926  1
  S  S28  1  0.386492  0.103869  0.504853  1
  S  S29  1  0.618361  0.603869  0.504853  1
  S  S30  1  0.613508  0.896131  0.495147  1
  S  S31  1  0.381639  0.396131  0.495147  1
  S  S32  1  0.099016  0.613508  0.995147  1
  S  S33  1  0.396131  0.113508  0.995147  1
  S  S34  1  0.599016  0.381639  0.995147  1
  S  S35  1  0.337679  0.401405  0.169926  1
  S  S36  1  0.886492  0.400984  0.504853  1
  S  S37  1  0.837679  0.768521  0.169926  1
  S  S38  1  0.268521  0.337679  0.669926  1
  S  S39  1  0.231479  0.667752  0.330074  1
  S  S40  1  0.332248  0.901405  0.169926  1
  S  S41  1  0.900984  0.386492  0.004853  1
  S  S42  1  0.401405  0.832248  0.669926  1
  S  S43  1  0.896131  0.881639  0.995147  1
  S  S44  1  0.881639  0.099016  0.495147  1
  S  S45  1  0.162321  0.231479  0.830074  1
  S  S46  1  0.832248  0.268521  0.169926  1
  S  S47  1  0.098595  0.162321  0.330074  1
  S  S48  1  0.603869  0.886492  0.004853  1
  S  S49  1  0.667752  0.098595  0.830074  1
  S  S50  1  0.598595  0.167752  0.330074  1
  S  S51  1  0.400984  0.618361  0.004853  1
  S  S52  1  0.167752  0.731479  0.830074  1
  S  S53  1  0.662321  0.598595  0.830074  1
  S  S54  1  0.768521  0.332248  0.669926  1
  S  S55  1  0.113508  0.599016  0.495147  1
