# generated using pymatgen
data_GdSi2Rh3
_symmetry_space_group_name_H-M   'P 1'
_cell_length_a   5.56352703
_cell_length_b   5.56476306
_cell_length_c   3.67235969
_cell_angle_alpha   90.01782453
_cell_angle_beta   89.98595542
_cell_angle_gamma   120.00827318
_symmetry_Int_Tables_number   1
_chemical_formula_structural   GdSi2Rh3
_chemical_formula_sum   'Gd1 Si2 Rh3'
_cell_volume   98.45470805
_cell_formula_units_Z   1
loop_
 _symmetry_equiv_pos_site_id
 _symmetry_equiv_pos_as_xyz
  1  'x, y, z'
loop_
 _atom_site_type_symbol
 _atom_site_label
 _atom_site_symmetry_multiplicity
 _atom_site_fract_x
 _atom_site_fract_y
 _atom_site_fract_z
 _atom_site_occupancy
  Gd  Gd0  1  -0.000001  0.000001  0.000004  1
  Si  Si1  1  0.666843  0.333311  0.999997  1
  Si  Si2  1  0.333158  0.666690  0.000001  1
  Rh  Rh3  1  0.500000  0.999999  0.500000  1
  Rh  Rh4  1  0.000000  0.499999  0.500000  1
  Rh  Rh5  1  0.500000  0.500000  0.499997  1
