# generated using pymatgen
data_AsS
_symmetry_space_group_name_H-M   'P 1'
_cell_length_a   8.45746788
_cell_length_b   11.26631890
_cell_length_c   19.36179048
_cell_angle_alpha   93.15511765
_cell_angle_beta   88.40112926
_cell_angle_gamma   118.86739290
_symmetry_Int_Tables_number   1
_chemical_formula_structural   AsS
_chemical_formula_sum   'As24 S24'
_cell_volume   1613.18250010
_cell_formula_units_Z   24
loop_
 _symmetry_equiv_pos_site_id
 _symmetry_equiv_pos_as_xyz
  1  'x, y, z'
loop_
 _atom_site_type_symbol
 _atom_site_label
 _atom_site_symmetry_multiplicity
 _atom_site_fract_x
 _atom_site_fract_y
 _atom_site_fract_z
 _atom_site_occupancy
  As  As0  1  0.755907  0.690814  0.524309  1
  As  As1  1  0.403376  0.633373  0.709914  1
  As  As2  1  0.290602  -0.000979  0.006543  1
  As  As3  1  0.693528  0.016699  0.684641  1
  As  As4  1  0.846049  0.518302  0.348601  1
  As  As5  1  0.854992  0.348047  0.776855  1
  As  As6  1  0.265491  0.212165  0.989851  1
  As  As7  1  0.119345  0.638539  0.216602  1
  As  As8  1  0.904474  0.149532  0.789365  1
  As  As9  1  0.780754  0.480988  0.168526  1
  As  As10  1  0.201511  0.521091  0.816765  1
  As  As11  1  0.247636  0.493695  0.504313  1
  As  As12  1  0.348800  0.010246  0.139760  1
  As  As13  1  0.307132  0.989088  0.318086  1
  As  As14  1  0.282655  0.288790  0.473386  1
  As  As15  1  0.094428  0.851435  0.213141  1
  As  As16  1  0.657848  0.992822  0.866252  1
  As  As17  1  0.150608  0.475711  0.631656  1
  As  As18  1  0.742135  0.021195  0.994716  1
  As  As19  1  0.364711  0.836349  0.730535  1
  As  As20  1  0.820687  0.501472  0.480964  1
  As  As21  1  0.775078  0.815104  0.014996  1
  As  As22  1  0.629253  0.164780  0.275305  1
  As  As23  1  0.580089  0.365263  0.275003  1
  S  S24  1  0.236165  0.161826  0.165001  1
  S  S25  1  0.822893  0.898354  0.660248  1
  S  S26  1  0.226330  0.307527  0.652866  1
  S  S27  1  0.999096  0.202686  0.026413  1
  S  S28  1  0.563314  0.315436  0.517388  1
  S  S29  1  0.406466  0.795810  0.073882  1
  S  S30  1  0.605031  0.152646  0.468869  1
  S  S31  1  0.718608  0.645182  0.168050  1
  S  S32  1  0.392576  0.304536  0.097214  1
  S  S33  1  0.287267  0.372504  0.826860  1
  S  S34  1  0.502802  0.670563  0.473139  1
  S  S35  1  0.205389  0.854964  0.643170  1
  S  S36  1  0.716959  0.373865  0.874982  1
  S  S37  1  0.927781  0.806075  0.430834  1
  S  S38  1  0.034893  0.826229  0.967309  1
  S  S39  1  0.609393  0.704209  0.916550  1
  S  S40  1  0.118392  0.180575  0.566859  1
  S  S41  1  0.168172  0.103864  0.333742  1
  S  S42  1  0.741754  0.826413  0.837316  1
  S  S43  1  0.629045  0.222388  0.938172  1
  S  S44  1  0.785693  0.696664  0.345275  1
  S  S45  1  0.152581  0.726688  0.561688  1
  S  S46  1  0.266226  0.623598  0.118987  1
  S  S47  1  0.766082  0.212878  0.385101  1
