# generated using pymatgen
data_SrLa11Mg3Ga9O34
_symmetry_space_group_name_H-M   'P 1'
_cell_length_a   5.58109428
_cell_length_b   5.59923729
_cell_length_c   33.49937011
_cell_angle_alpha   60.02647913
_cell_angle_beta   60.01594132
_cell_angle_gamma   60.10819396
_symmetry_Int_Tables_number   1
_chemical_formula_structural   SrLa11Mg3Ga9O34
_chemical_formula_sum   'Sr1 La11 Mg3 Ga9 O34'
_cell_volume   741.07661068
_cell_formula_units_Z   1
loop_
 _symmetry_equiv_pos_site_id
 _symmetry_equiv_pos_as_xyz
  1  'x, y, z'
loop_
 _atom_site_type_symbol
 _atom_site_label
 _atom_site_symmetry_multiplicity
 _atom_site_fract_x
 _atom_site_fract_y
 _atom_site_fract_z
 _atom_site_occupancy
  Sr  Sr0  1  0.267676  0.249360  0.202541  1
  La  La1  1  0.240697  0.308372  0.035056  1
  La  La2  1  0.244927  0.261495  0.374772  1
  La  La3  1  0.761316  0.715739  0.126930  1
  La  La4  1  0.250768  0.261430  0.539508  1
  La  La5  1  0.756656  0.714822  0.295302  1
  La  La6  1  0.249748  0.260286  0.706716  1
  La  La7  1  0.746397  0.737544  0.461606  1
  La  La8  1  0.248047  0.261551  0.873723  1
  La  La9  1  0.750499  0.739537  0.626592  1
  La  La10  1  0.751538  0.740754  0.792693  1
  La  La11  1  0.743626  0.752435  0.960051  1
  Mg  Mg12  1  0.526962  0.461715  0.080728  1
  Mg  Mg13  1  0.976778  0.011696  0.172444  1
  Mg  Mg14  1  0.972405  0.020071  0.339186  1
  Ga  Ga15  1  0.995836  0.007292  0.000180  1
  Ga  Ga16  1  0.998988  0.001794  0.500036  1
  Ga  Ga17  1  0.530508  0.464003  0.245825  1
  Ga  Ga18  1  0.502752  0.502033  0.415411  1
  Ga  Ga19  1  0.499055  0.499142  0.583797  1
  Ga  Ga20  1  0.499774  0.499849  0.750102  1
  Ga  Ga21  1  0.000599  -0.000035  0.666485  1
  Ga  Ga22  1  0.501154  0.505632  0.915347  1
  Ga  Ga23  1  0.000365  0.000755  0.833076  1
  O  O24  1  0.196110  0.310908  0.129967  1
  O  O25  1  0.295744  0.715697  0.033112  1
  O  O26  1  0.763914  0.146708  0.054241  1
  O  O27  1  0.201107  0.319377  0.299341  1
  O  O28  1  0.308717  0.702487  0.199598  1
  O  O29  1  0.712993  0.310978  0.129987  1
  O  O30  1  0.789985  0.715608  0.033115  1
  O  O31  1  0.747581  0.134868  0.228311  1
  O  O32  1  0.197595  0.299409  0.466574  1
  O  O33  1  0.305949  0.699851  0.363972  1
  O  O34  1  0.683448  0.319425  0.299331  1
  O  O35  1  0.791242  0.702418  0.199599  1
  O  O36  1  0.254785  0.826818  0.443938  1
  O  O37  1  0.736251  0.168127  0.393226  1
  O  O38  1  0.201928  0.297553  0.633047  1
  O  O39  1  0.293860  0.703748  0.534263  1
  O  O40  1  0.703546  0.299391  0.466577  1
  O  O41  1  0.810327  0.699856  0.363975  1
  O  O42  1  0.249900  0.834626  0.610919  1
  O  O43  1  0.748091  0.167559  0.556040  1
  O  O44  1  0.202359  0.297799  0.799763  1
  O  O45  1  0.296130  0.702878  0.700644  1
  O  O46  1  0.702152  0.297526  0.633056  1
  O  O47  1  0.796820  0.703732  0.534266  1
  O  O48  1  0.249868  0.834929  0.777566  1
  O  O49  1  0.749831  0.167299  0.722163  1
  O  O50  1  0.200529  0.308609  0.965089  1
  O  O51  1  0.298284  0.705131  0.866557  1
  O  O52  1  0.701245  0.297750  0.799774  1
  O  O53  1  0.797145  0.702832  0.700650  1
  O  O54  1  0.248001  0.831358  0.945463  1
  O  O55  1  0.749797  0.168194  0.888714  1
  O  O56  1  0.700351  0.308593  0.965089  1
  O  O57  1  0.797347  0.705086  0.866564  1
