# generated using pymatgen
data_VS2
_symmetry_space_group_name_H-M   'P 1'
_cell_length_a   2.58187633
_cell_length_b   2.60306590
_cell_length_c   23.57914654
_cell_angle_alpha   86.92736382
_cell_angle_beta   86.79153982
_cell_angle_gamma   58.99414392
_symmetry_Int_Tables_number   1
_chemical_formula_structural   VS2
_chemical_formula_sum   'V1 S2'
_cell_volume   135.55773432
_cell_formula_units_Z   1
loop_
 _symmetry_equiv_pos_site_id
 _symmetry_equiv_pos_as_xyz
  1  'x, y, z'
loop_
 _atom_site_type_symbol
 _atom_site_label
 _atom_site_symmetry_multiplicity
 _atom_site_fract_x
 _atom_site_fract_y
 _atom_site_fract_z
 _atom_site_occupancy
  V  V0  1  0.514932  0.492028  0.500231  1
  S  S1  1  0.400060  0.943979  0.189342  1
  S  S2  1  0.543980  0.073688  0.808350  1
