# generated using pymatgen
data_Mn2SnC10(ClO5)2
_symmetry_space_group_name_H-M   'P 1'
_cell_length_a   10.41397379
_cell_length_b   12.35173563
_cell_length_c   14.30947835
_cell_angle_alpha   90.00000000
_cell_angle_beta   100.40921641
_cell_angle_gamma   90.00000000
_symmetry_Int_Tables_number   1
_chemical_formula_structural   Mn2SnC10(ClO5)2
_chemical_formula_sum   'Mn8 Sn4 C40 Cl8 O40'
_cell_volume   1810.34507873
_cell_formula_units_Z   4
loop_
 _symmetry_equiv_pos_site_id
 _symmetry_equiv_pos_as_xyz
  1  'x, y, z'
loop_
 _atom_site_type_symbol
 _atom_site_label
 _atom_site_symmetry_multiplicity
 _atom_site_fract_x
 _atom_site_fract_y
 _atom_site_fract_z
 _atom_site_occupancy
  Mn  Mn0  1  0.124686  0.200552  0.626731  1
  Mn  Mn1  1  0.200442  0.155003  0.137058  1
  Mn  Mn2  1  0.624686  0.299448  0.126731  1
  Mn  Mn3  1  0.799558  0.844997  0.862942  1
  Mn  Mn4  1  0.875314  0.799448  0.373269  1
  Mn  Mn5  1  0.700442  0.344997  0.637058  1
  Mn  Mn6  1  0.375314  0.700552  0.873269  1
  Mn  Mn7  1  0.299558  0.655003  0.362942  1
  Sn  Sn8  1  0.958056  0.322615  0.704627  1
  Sn  Sn9  1  0.458056  0.177385  0.204627  1
  Sn  Sn10  1  0.041944  0.677385  0.295373  1
  Sn  Sn11  1  0.541944  0.822615  0.795373  1
  C  C12  1  0.174317  0.169043  0.262026  1
  C  C13  1  0.773815  0.992136  0.840571  1
  C  C14  1  0.971301  0.865247  0.912950  1
  C  C15  1  0.748815  0.738719  0.279088  1
  C  C16  1  0.873288  0.679072  0.451218  1
  C  C17  1  0.405865  0.593167  0.789144  1
  C  C18  1  0.674317  0.330957  0.762026  1
  C  C19  1  0.248904  0.125603  0.576609  1
  C  C20  1  0.011132  0.854497  0.461659  1
  C  C21  1  0.248815  0.761281  0.779088  1
  C  C22  1  0.528699  0.365247  0.587050  1
  C  C23  1  0.191372  0.304935  0.121745  1
  C  C24  1  0.126712  0.320928  0.548782  1
  C  C25  1  0.988868  0.145503  0.538341  1
  C  C26  1  0.488868  0.354497  0.038341  1
  C  C27  1  0.471301  0.634753  0.412950  1
  C  C28  1  0.251185  0.261281  0.720912  1
  C  C29  1  0.825683  0.830957  0.737974  1
  C  C30  1  0.748904  0.374397  0.076609  1
  C  C31  1  0.325683  0.669043  0.237974  1
  C  C32  1  0.808628  0.695065  0.878255  1
  C  C33  1  0.751185  0.238719  0.220912  1
  C  C34  1  0.273815  0.507864  0.340571  1
  C  C35  1  0.594135  0.406833  0.210856  1
  C  C36  1  0.028699  0.134753  0.087050  1
  C  C37  1  0.308628  0.804935  0.378255  1
  C  C38  1  0.751096  0.874397  0.423391  1
  C  C39  1  0.251096  0.625603  0.923391  1
  C  C40  1  0.726185  0.492136  0.659429  1
  C  C41  1  0.753097  0.358408  0.519935  1
  C  C42  1  0.094135  0.093167  0.710856  1
  C  C43  1  0.226185  0.007864  0.159429  1
  C  C44  1  0.373288  0.820928  0.951218  1
  C  C45  1  0.905865  0.906833  0.289144  1
  C  C46  1  0.691372  0.195065  0.621745  1
  C  C47  1  0.511132  0.645503  0.961659  1
  C  C48  1  0.253097  0.141592  0.019935  1
  C  C49  1  0.746903  0.858408  0.980065  1
  C  C50  1  0.626712  0.179072  0.048782  1
  C  C51  1  0.246903  0.641592  0.480065  1
  Cl  Cl52  1  0.055669  0.500837  0.716736  1
  Cl  Cl53  1  0.944331  0.499163  0.283264  1
  Cl  Cl54  1  0.002840  0.715818  0.127502  1
  Cl  Cl55  1  0.997160  0.284182  0.872498  1
  Cl  Cl56  1  0.444331  0.000837  0.783264  1
  Cl  Cl57  1  0.502840  0.784182  0.627502  1
  Cl  Cl58  1  0.555669  0.999163  0.216736  1
  Cl  Cl59  1  0.497160  0.215818  0.372498  1
  O  O60  1  0.667052  0.703272  0.221737  1
  O  O61  1  0.927519  0.974337  0.237936  1
  O  O62  1  0.344869  0.674752  0.160999  1
  O  O63  1  0.285415  0.134015  0.946986  1
  O  O64  1  0.828111  0.419657  0.044782  1
  O  O65  1  0.155131  0.174752  0.339001  1
  O  O66  1  0.427519  0.525663  0.737936  1
  O  O67  1  0.328111  0.080343  0.544782  1
  O  O68  1  0.832948  0.203272  0.278263  1
  O  O69  1  0.785415  0.365985  0.446986  1
  O  O70  1  0.685024  0.102157  0.611860  1
  O  O71  1  0.332948  0.296728  0.778263  1
  O  O72  1  0.736558  0.584129  0.673631  1
  O  O73  1  0.314976  0.897843  0.388140  1
  O  O74  1  0.171889  0.580343  0.955218  1
  O  O75  1  0.236558  0.915871  0.173631  1
  O  O76  1  0.375668  0.894464  0.001540  1
  O  O77  1  0.080249  0.880193  0.945280  1
  O  O78  1  0.875668  0.605536  0.501540  1
  O  O79  1  0.624332  0.105536  0.998460  1
  O  O80  1  0.814976  0.602157  0.888140  1
  O  O81  1  0.185024  0.397843  0.111860  1
  O  O82  1  0.580249  0.619807  0.445280  1
  O  O83  1  0.404935  0.390459  0.982625  1
  O  O84  1  0.167052  0.796728  0.721737  1
  O  O85  1  0.595065  0.609541  0.017375  1
  O  O86  1  0.124332  0.394464  0.498460  1
  O  O87  1  0.263442  0.415871  0.326369  1
  O  O88  1  0.714585  0.865985  0.053014  1
  O  O89  1  0.763442  0.084129  0.826369  1
  O  O90  1  0.671889  0.919657  0.455218  1
  O  O91  1  0.655131  0.325248  0.839001  1
  O  O92  1  0.919751  0.119807  0.054720  1
  O  O93  1  0.214585  0.634015  0.553014  1
  O  O94  1  0.844869  0.825248  0.660999  1
  O  O95  1  0.072481  0.025663  0.762064  1
  O  O96  1  0.904935  0.109541  0.482625  1
  O  O97  1  0.572481  0.474337  0.262064  1
  O  O98  1  0.419751  0.380193  0.554720  1
  O  O99  1  0.095065  0.890459  0.517375  1
