# generated using pymatgen
data_H4N2O3
_symmetry_space_group_name_H-M   'P 1'
_cell_length_a   8.01560374
_cell_length_b   8.52740738
_cell_length_c   6.69796455
_cell_angle_alpha   90.00000000
_cell_angle_beta   90.00000000
_cell_angle_gamma   90.00000000
_symmetry_Int_Tables_number   1
_chemical_formula_structural   H4N2O3
_chemical_formula_sum   'H16 N8 O12'
_cell_volume   457.82140614
_cell_formula_units_Z   4
loop_
 _symmetry_equiv_pos_site_id
 _symmetry_equiv_pos_as_xyz
  1  'x, y, z'
loop_
 _atom_site_type_symbol
 _atom_site_label
 _atom_site_symmetry_multiplicity
 _atom_site_fract_x
 _atom_site_fract_y
 _atom_site_fract_z
 _atom_site_occupancy
  H  H0  1  0.431956  0.776336  0.976542  1
  H  H1  1  0.939470  0.162568  0.460274  1
  H  H2  1  0.091688  0.119303  0.584931  1
  H  H3  1  0.568044  0.223664  0.476542  1
  H  H4  1  0.060530  0.837432  0.960274  1
  H  H5  1  0.908312  0.880697  0.084931  1
  H  H6  1  0.439470  0.337432  0.960274  1
  H  H7  1  0.591688  0.380697  0.084931  1
  H  H8  1  0.931956  0.723664  0.476542  1
  H  H9  1  0.560530  0.662568  0.460274  1
  H  H10  1  0.408312  0.619303  0.584931  1
  H  H11  1  0.068044  0.276336  0.976542  1
  H  H12  1  0.950566  0.549724  0.212365  1
  H  H13  1  0.549434  0.049724  0.212365  1
  H  H14  1  0.049434  0.450276  0.712365  1
  H  H15  1  0.450566  0.950276  0.712365  1
  N  N16  1  0.293042  0.669930  0.166803  1
  N  N17  1  0.206958  0.169930  0.166803  1
  N  N18  1  0.706958  0.330070  0.666803  1
  N  N19  1  0.793042  0.830070  0.666803  1
  N  N20  1  0.175994  0.470669  0.741280  1
  N  N21  1  0.324006  0.970669  0.741280  1
  N  N22  1  0.824006  0.529331  0.241280  1
  N  N23  1  0.675994  0.029331  0.241280  1
  O  O24  1  0.419955  0.665033  0.013375  1
  O  O25  1  0.032292  0.209319  0.532389  1
  O  O26  1  0.580045  0.334967  0.513375  1
  O  O27  1  0.967708  0.790681  0.032389  1
  O  O28  1  0.532292  0.290681  0.032389  1
  O  O29  1  0.919955  0.834967  0.513375  1
  O  O30  1  0.467708  0.709319  0.532389  1
  O  O31  1  0.080045  0.165033  0.013375  1
  O  O32  1  0.255553  0.540196  0.214985  1
  O  O33  1  0.244447  0.040196  0.214985  1
  O  O34  1  0.744447  0.459804  0.714985  1
  O  O35  1  0.755553  0.959804  0.714985  1
