# generated using pymatgen
data_SiO2
_symmetry_space_group_name_H-M   'P 1'
_cell_length_a   5.07102102
_cell_length_b   9.73183136
_cell_length_c   23.54484361
_cell_angle_alpha   81.78555771
_cell_angle_beta   83.81791593
_cell_angle_gamma   74.89802255
_symmetry_Int_Tables_number   1
_chemical_formula_structural   SiO2
_chemical_formula_sum   'Si24 O48'
_cell_volume   1107.28382816
_cell_formula_units_Z   24
loop_
 _symmetry_equiv_pos_site_id
 _symmetry_equiv_pos_as_xyz
  1  'x, y, z'
loop_
 _atom_site_type_symbol
 _atom_site_label
 _atom_site_symmetry_multiplicity
 _atom_site_fract_x
 _atom_site_fract_y
 _atom_site_fract_z
 _atom_site_occupancy
  Si  Si0  1  0.025845  0.396527  0.958343  1
  Si  Si1  1  0.971993  0.097786  0.557613  1
  Si  Si2  1  0.888544  0.947043  0.853365  1
  Si  Si3  1  0.852031  0.910960  0.989474  1
  Si  Si4  1  0.467782  0.033089  0.632672  1
  Si  Si5  1  0.747536  0.410960  0.489474  1
  Si  Si6  1  0.520366  0.482388  0.884386  1
  Si  Si7  1  0.203131  0.257923  0.716900  1
  Si  Si8  1  0.506261  0.213420  0.191093  1
  Si  Si9  1  0.103157  0.061357  0.152266  1
  Si  Si10  1  0.253101  0.080593  0.018262  1
  Si  Si11  1  0.589227  0.713420  0.691093  1
  Si  Si12  1  0.612859  0.982388  0.384386  1
  Si  Si13  1  0.148043  0.580593  0.518262  1
  Si  Si14  1  0.322046  0.757923  0.216900  1
  Si  Si15  1  0.483608  0.789963  0.819000  1
  Si  Si16  1  0.782013  0.761616  0.294548  1
  Si  Si17  1  0.872608  0.597786  0.057613  1
  Si  Si18  1  0.119284  0.896527  0.458343  1
  Si  Si19  1  0.407428  0.289963  0.319000  1
  Si  Si20  1  0.811048  0.447043  0.353365  1
  Si  Si21  1  0.183220  0.561357  0.652266  1
  Si  Si22  1  0.366457  0.533089  0.132672  1
  Si  Si23  1  0.661823  0.261616  0.794548  1
  O  O24  1  0.153707  0.611017  0.584158  1
  O  O25  1  0.887541  0.261978  0.740007  1
  O  O26  1  0.005125  0.476509  0.015103  1
  O  O27  1  0.506359  0.861139  0.647915  1
  O  O28  1  0.076986  0.353361  0.318606  1
  O  O29  1  0.265457  0.092508  0.580799  1
  O  O30  1  0.206622  0.389756  0.665809  1
  O  O31  1  0.415872  0.456813  0.500616  1
  O  O32  1  0.750892  0.117594  0.839693  1
  O  O33  1  0.238190  0.152357  0.188862  1
  O  O34  1  0.873168  0.528466  0.512834  1
  O  O35  1  0.057208  0.567944  0.112555  1
  O  O36  1  0.154776  0.226682  0.975427  1
  O  O37  1  0.143115  0.726682  0.475427  1
  O  O38  1  0.920591  0.652357  0.688862  1
  O  O39  1  0.091204  0.771433  0.270828  1
  O  O40  1  0.858204  0.255143  0.524312  1
  O  O41  1  0.722514  0.419549  0.936250  1
  O  O42  1  0.151117  0.111017  0.084158  1
  O  O43  1  0.776657  0.093693  0.171075  1
  O  O44  1  0.635852  0.400617  0.827665  1
  O  O45  1  0.762293  0.067944  0.612555  1
  O  O46  1  0.366535  0.271433  0.770828  1
  O  O47  1  0.561236  0.592508  0.080799  1
  O  O48  1  0.343270  0.107820  0.690775  1
  O  O49  1  0.237813  0.889756  0.165809  1
  O  O50  1  0.458575  0.593693  0.671075  1
  O  O51  1  0.838722  0.399687  0.421783  1
  O  O52  1  0.585532  0.028466  0.012834  1
  O  O53  1  0.421687  0.919549  0.436250  1
  O  O54  1  0.358134  0.607820  0.190775  1
  O  O55  1  0.862341  0.755143  0.024312  1
  O  O56  1  0.003263  0.976509  0.515103  1
  O  O57  1  0.472772  0.740468  0.756482  1
  O  O58  1  0.484586  0.361139  0.147915  1
  O  O59  1  0.481083  0.153112  0.368232  1
  O  O60  1  0.791820  0.617594  0.339693  1
  O  O61  1  0.534851  0.417439  0.333490  1
  O  O62  1  0.126699  0.956813  0.000616  1
  O  O63  1  0.218045  0.459347  0.906500  1
  O  O64  1  0.916108  0.959347  0.406500  1
  O  O65  1  0.839808  0.899687  0.921783  1
  O  O66  1  0.751047  0.853361  0.818606  1
  O  O67  1  0.214220  0.917439  0.833490  1
  O  O68  1  0.635866  0.900617  0.327665  1
  O  O69  1  0.610474  0.761978  0.240007  1
  O  O70  1  0.497572  0.653112  0.868232  1
  O  O71  1  0.530277  0.240468  0.256482  1
