# generated using pymatgen
data_Ca3AlCd17
_symmetry_space_group_name_H-M   'P 1'
_cell_length_a   15.84461814
_cell_length_b   15.84461814
_cell_length_c   15.84461814
_cell_angle_alpha   90.04463644
_cell_angle_beta   90.04463642
_cell_angle_gamma   90.04463641
_symmetry_Int_Tables_number   1
_chemical_formula_structural   Ca3AlCd17
_chemical_formula_sum   'Ca24 Al8 Cd136'
_cell_volume   3977.81824514
_cell_formula_units_Z   8
loop_
 _symmetry_equiv_pos_site_id
 _symmetry_equiv_pos_as_xyz
  1  'x, y, z'
loop_
 _atom_site_type_symbol
 _atom_site_label
 _atom_site_symmetry_multiplicity
 _atom_site_fract_x
 _atom_site_fract_y
 _atom_site_fract_z
 _atom_site_occupancy
  Ca  Ca0  1  0.497885  0.310660  0.198836  1
  Ca  Ca1  1  0.501172  0.313979  0.801021  1
  Ca  Ca2  1  0.689599  0.201713  0.501112  1
  Ca  Ca3  1  0.201713  0.501112  0.689599  1
  Ca  Ca4  1  0.502102  0.690603  0.803569  1
  Ca  Ca5  1  0.690603  0.803569  0.502102  1
  Ca  Ca6  1  0.298805  0.998701  0.187703  1
  Ca  Ca7  1  0.001072  0.190219  0.699168  1
  Ca  Ca8  1  0.187703  0.298805  0.998701  1
  Ca  Ca9  1  0.998701  0.187703  0.298805  1
  Ca  Ca10  1  0.198836  0.497885  0.310660  1
  Ca  Ca11  1  0.002394  0.811665  0.698995  1
  Ca  Ca12  1  0.304688  0.000800  0.809270  1
  Ca  Ca13  1  0.699168  0.001072  0.190219  1
  Ca  Ca14  1  0.000800  0.809270  0.304688  1
  Ca  Ca15  1  0.811665  0.698995  0.002394  1
  Ca  Ca16  1  0.803569  0.502102  0.690603  1
  Ca  Ca17  1  0.801021  0.501172  0.313979  1
  Ca  Ca18  1  0.809270  0.304688  0.000800  1
  Ca  Ca19  1  0.190219  0.699168  0.001072  1
  Ca  Ca20  1  0.310660  0.198836  0.497885  1
  Ca  Ca21  1  0.313979  0.801021  0.501172  1
  Ca  Ca22  1  0.501112  0.689599  0.201713  1
  Ca  Ca23  1  0.698995  0.002394  0.811665  1
  Al  Al24  1  0.075357  0.947594  0.068124  1
  Al  Al25  1  0.947594  0.068124  0.075357  1
  Al  Al26  1  0.432992  0.494294  0.582144  1
  Al  Al27  1  0.424765  0.424765  0.424765  1
  Al  Al28  1  0.494294  0.582144  0.432992  1
  Al  Al29  1  0.582144  0.432992  0.494294  1
  Al  Al30  1  0.068124  0.075357  0.947594  1
  Al  Al31  1  0.945566  0.945566  0.945566  1
  Cd  Cd32  1  0.772796  0.909661  0.001724  1
  Cd  Cd33  1  0.386838  0.837564  0.697878  1
  Cd  Cd34  1  0.169154  0.168629  0.831203  1
  Cd  Cd35  1  0.405515  0.342812  0.999282  1
  Cd  Cd36  1  0.168629  0.831203  0.169154  1
  Cd  Cd37  1  0.616982  0.164134  0.697043  1
  Cd  Cd38  1  0.385183  0.152627  0.300141  1
  Cd  Cd39  1  0.660261  0.345602  0.656278  1
  Cd  Cd40  1  0.720336  0.588411  0.504916  1
  Cd  Cd41  1  0.160689  0.694779  0.387889  1
  Cd  Cd42  1  0.904398  0.158073  0.501970  1
  Cd  Cd43  1  0.657870  0.002603  0.597557  1
  Cd  Cd44  1  0.156294  0.499367  0.094072  1
  Cd  Cd45  1  0.656278  0.660261  0.345602  1
  Cd  Cd46  1  0.387889  0.160689  0.694779  1
  Cd  Cd47  1  0.997925  0.315915  0.500561  1
  Cd  Cd48  1  0.344845  0.999111  0.595610  1
  Cd  Cd49  1  0.905614  0.998823  0.236570  1
  Cd  Cd50  1  0.263085  0.404350  0.500840  1
  Cd  Cd51  1  0.998823  0.236570  0.905614  1
  Cd  Cd52  1  0.342812  0.999282  0.405515  1
  Cd  Cd53  1  0.100062  0.505965  0.500589  1
  Cd  Cd54  1  0.236570  0.905614  0.998823  1
  Cd  Cd55  1  0.162826  0.839622  0.838729  1
  Cd  Cd56  1  0.000522  0.406559  0.655885  1
  Cd  Cd57  1  0.589290  0.498914  0.280588  1
  Cd  Cd58  1  0.201452  0.883496  0.660170  1
  Cd  Cd59  1  0.344832  0.800332  0.116384  1
  Cd  Cd60  1  0.904925  0.844467  0.501757  1
  Cd  Cd61  1  0.158073  0.501970  0.904398  1
  Cd  Cd62  1  0.597557  0.657870  0.002603  1
  Cd  Cd63  1  0.501467  0.999410  0.688380  1
  Cd  Cd64  1  0.837574  0.837574  0.837574  1
  Cd  Cd65  1  0.660170  0.201452  0.883496  1
  Cd  Cd66  1  0.164134  0.697043  0.616982  1
  Cd  Cd67  1  0.340073  0.198778  0.117621  1
  Cd  Cd68  1  0.665485  0.665485  0.665485  1
  Cd  Cd69  1  0.616449  0.158085  0.301126  1
  Cd  Cd70  1  0.501406  0.185603  0.999882  1
  Cd  Cd71  1  0.844467  0.501757  0.904925  1
  Cd  Cd72  1  0.598600  0.999059  0.000642  1
  Cd  Cd73  1  0.500561  0.997925  0.315915  1
  Cd  Cd74  1  0.379995  0.843302  0.298688  1
  Cd  Cd75  1  0.117621  0.340073  0.198778  1
  Cd  Cd76  1  0.663080  0.338308  0.340911  1
  Cd  Cd77  1  0.883766  0.343272  0.802389  1
  Cd  Cd78  1  0.499367  0.094072  0.156294  1
  Cd  Cd79  1  0.500840  0.263085  0.404350  1
  Cd  Cd80  1  0.802529  0.115535  0.660520  1
  Cd  Cd81  1  0.199718  0.880126  0.346033  1
  Cd  Cd82  1  0.842233  0.502803  0.097281  1
  Cd  Cd83  1  0.116384  0.344832  0.800332  1
  Cd  Cd84  1  0.201118  0.116469  0.656363  1
  Cd  Cd85  1  0.688380  0.501467  0.999410  1
  Cd  Cd86  1  0.803117  0.885779  0.660375  1
  Cd  Cd87  1  0.116469  0.656363  0.201118  1
  Cd  Cd88  1  0.660375  0.803117  0.885779  1
  Cd  Cd89  1  0.001847  0.770830  0.094326  1
  Cd  Cd90  1  0.501757  0.904925  0.844467  1
  Cd  Cd91  1  0.298423  0.623983  0.841417  1
  Cd  Cd92  1  0.241941  0.092225  0.997373  1
  Cd  Cd93  1  0.655885  0.000522  0.406559  1
  Cd  Cd94  1  0.502803  0.097281  0.842233  1
  Cd  Cd95  1  0.501789  0.908634  0.510855  1
  Cd  Cd96  1  0.324129  0.324129  0.324129  1
  Cd  Cd97  1  0.198778  0.117621  0.340073  1
  Cd  Cd98  1  0.999111  0.595610  0.344845  1
  Cd  Cd99  1  0.510855  0.501789  0.908634  1
  Cd  Cd100  1  0.338308  0.340911  0.663080  1
  Cd  Cd101  1  0.839622  0.838729  0.162826  1
  Cd  Cd102  1  0.999282  0.405515  0.342812  1
  Cd  Cd103  1  0.185603  0.999882  0.501406  1
  Cd  Cd104  1  0.154760  0.154760  0.154760  1
  Cd  Cd105  1  0.842141  0.699270  0.617460  1
  Cd  Cd106  1  0.505965  0.500589  0.100062  1
  Cd  Cd107  1  0.588411  0.504916  0.720336  1
  Cd  Cd108  1  0.500589  0.100062  0.505965  1
  Cd  Cd109  1  0.498914  0.280588  0.589290  1
  Cd  Cd110  1  0.995463  0.999879  0.407600  1
  Cd  Cd111  1  0.617460  0.842141  0.699270  1
  Cd  Cd112  1  0.831203  0.169154  0.168629  1
  Cd  Cd113  1  0.841417  0.298423  0.623983  1
  Cd  Cd114  1  0.092225  0.997373  0.241941  1
  Cd  Cd115  1  0.404350  0.500840  0.263085  1
  Cd  Cd116  1  0.699270  0.617460  0.842141  1
  Cd  Cd117  1  0.280588  0.589290  0.498914  1
  Cd  Cd118  1  0.908634  0.510855  0.501789  1
  Cd  Cd119  1  0.694779  0.387889  0.160689  1
  Cd  Cd120  1  0.152627  0.300141  0.385183  1
  Cd  Cd121  1  0.000642  0.598600  0.999059  1
  Cd  Cd122  1  0.999410  0.688380  0.501467  1
  Cd  Cd123  1  0.656363  0.201118  0.116469  1
  Cd  Cd124  1  0.315915  0.500561  0.997925  1
  Cd  Cd125  1  0.909661  0.001724  0.772796  1
  Cd  Cd126  1  0.094326  0.001847  0.770830  1
  Cd  Cd127  1  0.813493  0.000797  0.501198  1
  Cd  Cd128  1  0.883496  0.660170  0.201452  1
  Cd  Cd129  1  0.999879  0.407600  0.995463  1
  Cd  Cd130  1  0.301126  0.616449  0.158085  1
  Cd  Cd131  1  0.340911  0.663080  0.338308  1
  Cd  Cd132  1  0.158085  0.301126  0.616449  1
  Cd  Cd133  1  0.501970  0.904398  0.158073  1
  Cd  Cd134  1  0.406559  0.655885  0.000522  1
  Cd  Cd135  1  0.115535  0.660520  0.802529  1
  Cd  Cd136  1  0.697043  0.616982  0.164134  1
  Cd  Cd137  1  0.501198  0.813493  0.000797  1
  Cd  Cd138  1  0.345602  0.656278  0.660261  1
  Cd  Cd139  1  0.660520  0.802529  0.115535  1
  Cd  Cd140  1  0.001724  0.772796  0.909661  1
  Cd  Cd141  1  0.770830  0.094326  0.001847  1
  Cd  Cd142  1  0.880126  0.346033  0.199718  1
  Cd  Cd143  1  0.838729  0.162826  0.839622  1
  Cd  Cd144  1  0.623983  0.841417  0.298423  1
  Cd  Cd145  1  0.999059  0.000642  0.598600  1
  Cd  Cd146  1  0.094072  0.156294  0.499367  1
  Cd  Cd147  1  0.300141  0.385183  0.152627  1
  Cd  Cd148  1  0.407600  0.995463  0.999879  1
  Cd  Cd149  1  0.343272  0.802389  0.883766  1
  Cd  Cd150  1  0.802389  0.883766  0.343272  1
  Cd  Cd151  1  0.800332  0.116384  0.344832  1
  Cd  Cd152  1  0.002603  0.597557  0.657870  1
  Cd  Cd153  1  0.501829  0.754660  0.405805  1
  Cd  Cd154  1  0.997373  0.241941  0.092225  1
  Cd  Cd155  1  0.595610  0.344845  0.999111  1
  Cd  Cd156  1  0.885779  0.660375  0.803117  1
  Cd  Cd157  1  0.697878  0.386838  0.837564  1
  Cd  Cd158  1  0.405805  0.501829  0.754660  1
  Cd  Cd159  1  0.843302  0.298688  0.379995  1
  Cd  Cd160  1  0.754660  0.405805  0.501829  1
  Cd  Cd161  1  0.504916  0.720336  0.588411  1
  Cd  Cd162  1  0.298688  0.379995  0.843302  1
  Cd  Cd163  1  0.000797  0.501198  0.813493  1
  Cd  Cd164  1  0.837564  0.697878  0.386838  1
  Cd  Cd165  1  0.999882  0.501406  0.185603  1
  Cd  Cd166  1  0.097281  0.842233  0.502803  1
  Cd  Cd167  1  0.346033  0.199718  0.880126  1
