# generated using pymatgen
data_TmPaO4
_symmetry_space_group_name_H-M   'P 1'
_cell_length_a   6.67198600
_cell_length_b   8.94303848
_cell_length_c   5.95504361
_cell_angle_alpha   28.97228471
_cell_angle_beta   55.93062900
_cell_angle_gamma   41.75032598
_symmetry_Int_Tables_number   1
_chemical_formula_structural   TmPaO4
_chemical_formula_sum   'Tm2 Pa2 O8'
_cell_volume   109.79543538
_cell_formula_units_Z   2
loop_
 _symmetry_equiv_pos_site_id
 _symmetry_equiv_pos_as_xyz
  1  'x, y, z'
loop_
 _atom_site_type_symbol
 _atom_site_label
 _atom_site_symmetry_multiplicity
 _atom_site_fract_x
 _atom_site_fract_y
 _atom_site_fract_z
 _atom_site_occupancy
  Tm  Tm0  1  0.000000  0.000000  0.000000  1
  Tm  Tm1  1  0.750000  0.500000  0.000000  1
  Pa  Pa2  1  0.500000  0.000000  0.000000  1
  Pa  Pa3  1  0.250000  0.500000  0.000000  1
  O  O4  1  0.120507  0.004493  0.245507  1
  O  O5  1  0.375000  0.995507  0.754493  1
  O  O6  1  0.629493  0.995507  0.254493  1
  O  O7  1  0.120507  0.504493  0.745507  1
  O  O8  1  0.375000  0.504493  0.245507  1
  O  O9  1  0.875000  0.004493  0.745507  1
  O  O10  1  0.875000  0.495507  0.254493  1
  O  O11  1  0.629493  0.495507  0.754493  1
