# generated using pymatgen
data_Sr2YCu3(PbO4)2
_symmetry_space_group_name_H-M   'P 1'
_cell_length_a   15.96440175
_cell_length_b   5.48290407
_cell_length_c   5.43727752
_cell_angle_alpha   90.00000000
_cell_angle_beta   90.00000000
_cell_angle_gamma   90.00000000
_symmetry_Int_Tables_number   1
_chemical_formula_structural   Sr2YCu3(PbO4)2
_chemical_formula_sum   'Sr4 Y2 Cu6 Pb4 O16'
_cell_volume   475.93187915
_cell_formula_units_Z   2
loop_
 _symmetry_equiv_pos_site_id
 _symmetry_equiv_pos_as_xyz
  1  'x, y, z'
loop_
 _atom_site_type_symbol
 _atom_site_label
 _atom_site_symmetry_multiplicity
 _atom_site_fract_x
 _atom_site_fract_y
 _atom_site_fract_z
 _atom_site_occupancy
  Sr  Sr0  1  0.778898  0.748931  0.750271  1
  Sr  Sr1  1  0.778898  0.251069  0.249729  1
  Sr  Sr2  1  0.221102  0.248931  0.249729  1
  Sr  Sr3  1  0.221102  0.751069  0.750271  1
  Y  Y4  1  0.000000  0.250000  0.250137  1
  Y  Y5  1  0.000000  0.750000  0.749863  1
  Cu  Cu6  1  0.500000  0.750000  0.764991  1
  Cu  Cu7  1  0.500000  0.250000  0.235009  1
  Cu  Cu8  1  0.894963  0.750417  0.250143  1
  Cu  Cu9  1  0.894963  0.249583  0.749857  1
  Cu  Cu10  1  0.105037  0.250417  0.749857  1
  Cu  Cu11  1  0.105037  0.749583  0.250143  1
  Pb  Pb12  1  0.611513  0.258865  0.757051  1
  Pb  Pb13  1  0.611513  0.741135  0.242949  1
  Pb  Pb14  1  0.388487  0.758865  0.242949  1
  Pb  Pb15  1  0.388487  0.241135  0.757051  1
  O  O16  1  0.748475  0.757831  0.253329  1
  O  O17  1  0.748475  0.242169  0.746671  1
  O  O18  1  0.251525  0.257831  0.746671  1
  O  O19  1  0.251525  0.742169  0.253329  1
  O  O20  1  0.615534  0.693615  0.776470  1
  O  O21  1  0.615534  0.306385  0.223530  1
  O  O22  1  0.384466  0.193615  0.223530  1
  O  O23  1  0.384466  0.806385  0.776470  1
  O  O24  1  0.908707  0.000000  0.500000  1
  O  O25  1  0.091293  0.500000  0.500000  1
  O  O26  1  0.907355  0.500000  0.000000  1
  O  O27  1  0.092645  0.000000  0.000000  1
  O  O28  1  0.907569  0.500000  0.500000  1
  O  O29  1  0.092431  0.000000  0.500000  1
  O  O30  1  0.908227  0.000000  0.000000  1
  O  O31  1  0.091773  0.500000  0.000000  1
