# generated using pymatgen
data_RbNb2PS10
_symmetry_space_group_name_H-M   'P 1'
_cell_length_a   7.56875172
_cell_length_b   8.08099958
_cell_length_c   12.73669837
_cell_angle_alpha   90.00000000
_cell_angle_beta   104.19213831
_cell_angle_gamma   90.00000000
_symmetry_Int_Tables_number   1
_chemical_formula_structural   RbNb2PS10
_chemical_formula_sum   'Rb2 Nb4 P2 S20'
_cell_volume   755.23935698
_cell_formula_units_Z   2
loop_
 _symmetry_equiv_pos_site_id
 _symmetry_equiv_pos_as_xyz
  1  'x, y, z'
loop_
 _atom_site_type_symbol
 _atom_site_label
 _atom_site_symmetry_multiplicity
 _atom_site_fract_x
 _atom_site_fract_y
 _atom_site_fract_z
 _atom_site_occupancy
  P  P0  1  0.191667  0.119708  0.200217  1
  P  P1  1  0.691667  0.880292  0.700217  1
  S  S2  1  0.544198  0.059740  0.742825  1
  S  S3  1  0.044198  0.940260  0.242825  1
  S  S4  1  0.682102  0.878172  0.536323  1
  S  S5  1  0.182102  0.121828  0.036323  1
  S  S6  1  0.274799  0.619225  0.895314  1
  S  S7  1  0.774799  0.380775  0.395314  1
  S  S8  1  0.231988  0.378858  0.850955  1
  S  S9  1  0.731988  0.621142  0.350955  1
  S  S10  1  0.876766  0.621102  0.997975  1
  S  S11  1  0.376766  0.378898  0.497975  1
  S  S12  1  0.817610  0.385027  0.942753  1
  S  S13  1  0.317610  0.614973  0.442753  1
  S  S14  1  0.350214  0.653796  0.158869  1
  S  S15  1  0.850214  0.346204  0.658869  1
  S  S16  1  0.497469  0.456938  0.123636  1
  S  S17  1  0.997469  0.543062  0.623636  1
  S  S18  1  0.456748  0.125841  0.292564  1
  S  S19  1  0.956748  0.874159  0.792564  1
  S  S20  1  0.104147  0.362534  0.219884  1
  S  S21  1  0.604147  0.637466  0.719884  1
  Rb  Rb22  1  0.141078  0.993308  0.541607  1
  Rb  Rb23  1  0.641078  0.006692  0.041607  1
  Nb  Nb24  1  0.446832  0.443315  0.315506  1
  Nb  Nb25  1  0.946832  0.556685  0.815506  1
  Nb  Nb26  1  0.655440  0.557440  0.526771  1
  Nb  Nb27  1  0.155440  0.442560  0.026771  1
