# generated using pymatgen
data_SiO2
_symmetry_space_group_name_H-M   'P 1'
_cell_length_a   7.57120189
_cell_length_b   12.89581364
_cell_length_c   13.83241477
_cell_angle_alpha   90.00000000
_cell_angle_beta   90.00000000
_cell_angle_gamma   90.00000000
_symmetry_Int_Tables_number   1
_chemical_formula_structural   SiO2
_chemical_formula_sum   'Si24 O48'
_cell_volume   1350.55283343
_cell_formula_units_Z   24
loop_
 _symmetry_equiv_pos_site_id
 _symmetry_equiv_pos_as_xyz
  1  'x, y, z'
loop_
 _atom_site_type_symbol
 _atom_site_label
 _atom_site_symmetry_multiplicity
 _atom_site_fract_x
 _atom_site_fract_y
 _atom_site_fract_z
 _atom_site_occupancy
  Si  Si0  1  0.046275  0.629344  0.669257  1
  Si  Si1  1  0.546275  0.870656  0.830743  1
  Si  Si2  1  0.953725  0.129344  0.330743  1
  Si  Si3  1  0.453725  0.370656  0.169257  1
  Si  Si4  1  0.953725  0.370656  0.330743  1
  Si  Si5  1  0.453725  0.129344  0.169257  1
  Si  Si6  1  0.046275  0.870656  0.669257  1
  Si  Si7  1  0.546275  0.629344  0.830743  1
  Si  Si8  1  0.656786  0.560382  0.626621  1
  Si  Si9  1  0.156786  0.939618  0.873379  1
  Si  Si10  1  0.343214  0.060382  0.373379  1
  Si  Si11  1  0.843214  0.439618  0.126621  1
  Si  Si12  1  0.343214  0.439618  0.373379  1
  Si  Si13  1  0.843214  0.060382  0.126621  1
  Si  Si14  1  0.656786  0.939618  0.626621  1
  Si  Si15  1  0.156786  0.560382  0.873379  1
  Si  Si16  1  0.328055  0.630178  0.507348  1
  Si  Si17  1  0.828055  0.869822  0.992652  1
  Si  Si18  1  0.671945  0.130178  0.492652  1
  Si  Si19  1  0.171945  0.369822  0.007348  1
  Si  Si20  1  0.671945  0.369822  0.492652  1
  Si  Si21  1  0.171945  0.130178  0.007348  1
  Si  Si22  1  0.328055  0.869822  0.507348  1
  Si  Si23  1  0.828055  0.630178  0.992652  1
  O  O24  1  0.525732  0.622290  0.553388  1
  O  O25  1  0.025732  0.877710  0.946612  1
  O  O26  1  0.474268  0.122290  0.446612  1
  O  O27  1  0.974268  0.377710  0.053388  1
  O  O28  1  0.474268  0.377710  0.446612  1
  O  O29  1  0.974268  0.122290  0.053388  1
  O  O30  1  0.525732  0.877710  0.553388  1
  O  O31  1  0.025732  0.622290  0.946612  1
  O  O32  1  0.070660  0.557998  0.765428  1
  O  O33  1  0.570660  0.942002  0.734572  1
  O  O34  1  0.929340  0.057998  0.234572  1
  O  O35  1  0.429340  0.442002  0.265428  1
  O  O36  1  0.929340  0.442002  0.234572  1
  O  O37  1  0.429340  0.057998  0.265428  1
  O  O38  1  0.070660  0.942002  0.765428  1
  O  O39  1  0.570660  0.557998  0.734572  1
  O  O40  1  0.845470  0.619940  0.629215  1
  O  O41  1  0.345470  0.880060  0.870785  1
  O  O42  1  0.154530  0.119940  0.370785  1
  O  O43  1  0.654530  0.380060  0.129215  1
  O  O44  1  0.154530  0.380060  0.370785  1
  O  O45  1  0.654530  0.119940  0.129215  1
  O  O46  1  0.845470  0.880060  0.629215  1
  O  O47  1  0.345470  0.619940  0.870785  1
  O  O48  1  0.183407  0.590258  0.586280  1
  O  O49  1  0.683407  0.909742  0.913720  1
  O  O50  1  0.816593  0.090258  0.413720  1
  O  O51  1  0.316593  0.409742  0.086280  1
  O  O52  1  0.816593  0.409742  0.413720  1
  O  O53  1  0.316593  0.090258  0.086280  1
  O  O54  1  0.183407  0.909742  0.586280  1
  O  O55  1  0.683407  0.590258  0.913720  1
  O  O56  1  0.315655  0.558206  0.411023  1
  O  O57  1  0.815655  0.941794  0.088977  1
  O  O58  1  0.684345  0.058206  0.588977  1
  O  O59  1  0.184345  0.441794  0.911023  1
  O  O60  1  0.684345  0.441794  0.588977  1
  O  O61  1  0.184345  0.058206  0.911023  1
  O  O62  1  0.315655  0.941794  0.411023  1
  O  O63  1  0.815655  0.558206  0.088977  1
  O  O64  1  0.088356  0.750000  0.696660  1
  O  O65  1  0.588356  0.750000  0.803340  1
  O  O66  1  0.911644  0.250000  0.303340  1
  O  O67  1  0.411644  0.250000  0.196660  1
  O  O68  1  0.287464  0.750000  0.477839  1
  O  O69  1  0.787464  0.750000  0.022161  1
  O  O70  1  0.712536  0.250000  0.522161  1
  O  O71  1  0.212536  0.250000  0.977839  1
