# generated using pymatgen
data_Na3V2P2O10F
_symmetry_space_group_name_H-M   'P 1'
_cell_length_a   6.48215294
_cell_length_b   6.47986597
_cell_length_c   13.99308230
_cell_angle_alpha   117.36109747
_cell_angle_beta   117.40033983
_cell_angle_gamma   89.92680799
_symmetry_Int_Tables_number   1
_chemical_formula_structural   Na3V2P2O10F
_chemical_formula_sum   'Na6 V4 P4 O20 F2'
_cell_volume   446.66558401
_cell_formula_units_Z   2
loop_
 _symmetry_equiv_pos_site_id
 _symmetry_equiv_pos_as_xyz
  1  'x, y, z'
loop_
 _atom_site_type_symbol
 _atom_site_label
 _atom_site_symmetry_multiplicity
 _atom_site_fract_x
 _atom_site_fract_y
 _atom_site_fract_z
 _atom_site_occupancy
  Na  Na0  1  0.250559  0.314236  0.498399  1
  Na  Na1  1  0.248089  0.314344  0.998501  1
  Na  Na2  1  0.732722  0.259136  0.499773  1
  Na  Na3  1  0.728106  0.743256  0.502380  1
  Na  Na4  1  0.687251  0.750945  0.001554  1
  Na  Na5  1  0.736765  0.263981  0.999965  1
  V  V6  1  0.204948  0.195936  0.698940  1
  V  V7  1  0.204081  0.193481  0.198360  1
  V  V8  1  0.806507  0.796099  0.801456  1
  V  V9  1  0.806266  0.797140  0.300992  1
  P  P10  1  0.248351  0.753072  0.750466  1
  P  P11  1  0.248801  0.752648  0.250733  1
  P  P12  1  0.746550  0.252366  0.749390  1
  P  P13  1  0.746648  0.252830  0.249431  1
  O  O14  1  0.148373  0.843491  0.839509  1
  O  O15  1  0.161016  0.473632  0.662578  1
  O  O16  1  0.159445  0.853434  0.661293  1
  O  O17  1  0.362487  0.346298  0.856554  1
  O  O18  1  0.527555  0.837974  0.837444  1
  O  O19  1  0.147158  0.844029  0.339124  1
  O  O20  1  0.469603  0.168786  0.660213  1
  O  O21  1  0.161754  0.473192  0.163198  1
  O  O22  1  0.159423  0.852382  0.161312  1
  O  O23  1  0.363308  0.343900  0.355917  1
  O  O24  1  0.656832  0.637722  0.643873  1
  O  O25  1  0.832196  0.145207  0.836244  1
  O  O26  1  0.833552  0.529383  0.839383  1
  O  O27  1  0.528345  0.837032  0.337973  1
  O  O28  1  0.854552  0.165389  0.662997  1
  O  O29  1  0.469987  0.167653  0.159839  1
  O  O30  1  0.653609  0.637954  0.143361  1
  O  O31  1  0.832449  0.146438  0.336676  1
  O  O32  1  0.834508  0.529957  0.339229  1
  O  O33  1  0.854152  0.165911  0.162957  1
  F  F34  1  0.993087  0.007988  0.500056  1
  F  F35  1  0.991964  0.007778  0.999932  1
