# generated using pymatgen
data_Na3VS3O
_symmetry_space_group_name_H-M   'P 1'
_cell_length_a   5.98567261
_cell_length_b   9.74948634
_cell_length_c   12.01236135
_cell_angle_alpha   90.00000000
_cell_angle_beta   90.00000000
_cell_angle_gamma   90.00000000
_symmetry_Int_Tables_number   1
_chemical_formula_structural   Na3VS3O
_chemical_formula_sum   'Na12 V4 S12 O4'
_cell_volume   701.00817435
_cell_formula_units_Z   4
loop_
 _symmetry_equiv_pos_site_id
 _symmetry_equiv_pos_as_xyz
  1  'x, y, z'
loop_
 _atom_site_type_symbol
 _atom_site_label
 _atom_site_symmetry_multiplicity
 _atom_site_fract_x
 _atom_site_fract_y
 _atom_site_fract_z
 _atom_site_occupancy
  Na  Na0  1  0.250288  0.455427  0.129940  1
  Na  Na1  1  0.238891  0.750000  0.368270  1
  Na  Na2  1  0.249712  0.955427  0.629940  1
  Na  Na3  1  0.750288  0.044573  0.370060  1
  Na  Na4  1  0.261109  0.250000  0.868270  1
  Na  Na5  1  0.250288  0.044573  0.129940  1
  Na  Na6  1  0.249712  0.544573  0.629940  1
  Na  Na7  1  0.738891  0.750000  0.131730  1
  Na  Na8  1  0.750288  0.455427  0.370060  1
  Na  Na9  1  0.749712  0.955427  0.870060  1
  Na  Na10  1  0.761109  0.250000  0.631730  1
  Na  Na11  1  0.749712  0.544573  0.870060  1
  V  V12  1  0.342990  0.250000  0.453061  1
  V  V13  1  0.157010  0.750000  0.953061  1
  V  V14  1  0.657010  0.750000  0.546939  1
  V  V15  1  0.842990  0.250000  0.046939  1
  S  S16  1  0.254276  0.750000  0.130717  1
  S  S17  1  0.228328  0.060694  0.373622  1
  S  S18  1  0.245724  0.250000  0.630718  1
  S  S19  1  0.228328  0.439306  0.373622  1
  S  S20  1  0.745724  0.250000  0.869282  1
  S  S21  1  0.728328  0.439306  0.126378  1
  S  S22  1  0.771672  0.560694  0.626378  1
  S  S23  1  0.728328  0.060694  0.126378  1
  S  S24  1  0.771672  0.939306  0.626378  1
  S  S25  1  0.271672  0.939306  0.873622  1
  S  S26  1  0.271672  0.560694  0.873622  1
  S  S27  1  0.754276  0.750000  0.369283  1
  O  O28  1  0.626581  0.250000  0.448510  1
  O  O29  1  0.373419  0.750000  0.551490  1
  O  O30  1  0.873419  0.750000  0.948510  1
  O  O31  1  0.126581  0.250000  0.051490  1
