# generated using pymatgen
data_KMgIn(MoO4)3
_symmetry_space_group_name_H-M   'P 1'
_cell_length_a   9.67485250
_cell_length_b   9.67485220
_cell_length_c   9.99091915
_cell_angle_alpha   61.10592325
_cell_angle_beta   61.10592433
_cell_angle_gamma   59.93175449
_symmetry_Int_Tables_number   1
_chemical_formula_structural   KMgIn(MoO4)3
_chemical_formula_sum   'K2 Mg2 In2 Mo6 O24'
_cell_volume   671.75114940
_cell_formula_units_Z   2
loop_
 _symmetry_equiv_pos_site_id
 _symmetry_equiv_pos_as_xyz
  1  'x, y, z'
loop_
 _atom_site_type_symbol
 _atom_site_label
 _atom_site_symmetry_multiplicity
 _atom_site_fract_x
 _atom_site_fract_y
 _atom_site_fract_z
 _atom_site_occupancy
  K  K0  1  0.119453  0.375711  0.755286  1
  K  K1  1  0.624289  0.880547  0.244714  1
  Mg  Mg2  1  0.755827  0.031660  0.818463  1
  Mg  Mg3  1  0.968340  0.244173  0.181537  1
  In  In4  1  0.254635  0.532463  0.319902  1
  In  In5  1  0.467537  0.745365  0.680098  1
  Mo  Mo6  1  0.071332  0.928668  0.000000  1
  Mo  Mo7  1  0.363268  0.350394  0.997368  1
  Mo  Mo8  1  0.140896  0.859104  0.500000  1
  Mo  Mo9  1  0.580545  0.136217  0.501120  1
  Mo  Mo10  1  0.863783  0.419455  0.498880  1
  Mo  Mo11  1  0.649606  0.636732  0.002632  1
  O  O12  1  0.043130  0.112569  0.024969  1
  O  O13  1  0.109394  0.033679  0.325585  1
  O  O14  1  0.182552  0.321425  0.023237  1
  O  O15  1  0.042188  0.450784  0.483143  1
  O  O16  1  0.103618  0.750187  0.176617  1
  O  O17  1  0.335917  0.383116  0.172778  1
  O  O18  1  0.170784  0.667291  0.481777  1
  O  O19  1  0.391467  0.320084  0.480716  1
  O  O20  1  0.469733  0.610809  0.179724  1
  O  O21  1  0.611419  0.101169  0.677245  1
  O  O22  1  0.757381  0.166408  0.330060  1
  O  O23  1  0.332709  0.829217  0.518223  1
  O  O24  1  0.389191  0.530267  0.820276  1
  O  O25  1  0.833335  0.456407  0.028509  1
  O  O26  1  0.543593  0.166665  0.971491  1
  O  O27  1  0.249813  0.896382  0.823383  1
  O  O28  1  0.679916  0.608533  0.519284  1
  O  O29  1  0.898831  0.388581  0.322755  1
  O  O30  1  0.549215  0.957812  0.516857  1
  O  O31  1  0.833592  0.242619  0.669940  1
  O  O32  1  0.616884  0.664083  0.827222  1
  O  O33  1  0.678575  0.817448  0.976763  1
  O  O34  1  0.966321  0.890606  0.674415  1
  O  O35  1  0.887431  0.956870  0.975031  1
