# generated using pymatgen
data_Fe2SnS4
_symmetry_space_group_name_H-M   'P 1'
_cell_length_a   7.09823514
_cell_length_b   6.95147543
_cell_length_c   7.00429580
_cell_angle_alpha   119.81282973
_cell_angle_beta   120.48778379
_cell_angle_gamma   89.94587410
_symmetry_Int_Tables_number   1
_chemical_formula_structural   Fe2SnS4
_chemical_formula_sum   'Fe4 Sn2 S8'
_cell_volume   243.37996296
_cell_formula_units_Z   2
loop_
 _symmetry_equiv_pos_site_id
 _symmetry_equiv_pos_as_xyz
  1  'x, y, z'
loop_
 _atom_site_type_symbol
 _atom_site_label
 _atom_site_symmetry_multiplicity
 _atom_site_fract_x
 _atom_site_fract_y
 _atom_site_fract_z
 _atom_site_occupancy
  Fe  Fe0  1  0.007485  0.007254  0.015057  1
  Fe  Fe1  1  0.242515  0.742746  0.484943  1
  Fe  Fe2  1  0.625000  0.375000  0.250000  1
  Fe  Fe3  1  0.625000  0.875000  0.250000  1
  Sn  Sn4  1  0.125000  0.375000  0.750000  1
  Sn  Sn5  1  0.625000  0.375000  0.750000  1
  S  S6  1  0.388218  0.659923  0.776767  1
  S  S7  1  0.388894  0.117401  0.777453  1
  S  S8  1  0.411743  0.636060  0.272957  1
  S  S9  1  0.388878  0.113783  0.227052  1
  S  S10  1  0.861106  0.632599  0.722547  1
  S  S11  1  0.861782  0.090077  0.723233  1
  S  S12  1  0.861122  0.636217  0.272948  1
  S  S13  1  0.838257  0.113940  0.227043  1
