# generated using pymatgen
data_La6Ti3Se9O5
_symmetry_space_group_name_H-M   'P 1'
_cell_length_a   3.92825934
_cell_length_b   11.25711998
_cell_length_c   22.50907486
_cell_angle_alpha   96.96936375
_cell_angle_beta   94.99360417
_cell_angle_gamma   89.98818611
_symmetry_Int_Tables_number   1
_chemical_formula_structural   La6Ti3Se9O5
_chemical_formula_sum   'La12 Ti6 Se18 O10'
_cell_volume   984.21255283
_cell_formula_units_Z   2
loop_
 _symmetry_equiv_pos_site_id
 _symmetry_equiv_pos_as_xyz
  1  'x, y, z'
loop_
 _atom_site_type_symbol
 _atom_site_label
 _atom_site_symmetry_multiplicity
 _atom_site_fract_x
 _atom_site_fract_y
 _atom_site_fract_z
 _atom_site_occupancy
  La  La0  1  0.367922  0.347969  0.725227  1
  La  La1  1  0.468560  0.253482  0.925978  1
  La  La2  1  0.537250  0.743701  0.073923  1
  La  La3  1  0.890177  0.986742  0.776351  1
  La  La4  1  0.958396  0.745226  0.918963  1
  La  La5  1  0.794878  0.538304  0.578537  1
  La  La6  1  0.634116  0.649877  0.275445  1
  La  La7  1  0.042550  0.250947  0.080485  1
  La  La8  1  0.215834  0.460585  0.422331  1
  La  La9  1  0.784256  0.993540  0.577553  1
  La  La10  1  0.211226  0.006034  0.423590  1
  La  La11  1  0.106414  0.011198  0.224059  1
  Ti  Ti12  1  0.270797  0.258992  0.539822  1
  Ti  Ti13  1  0.644063  0.342587  0.283518  1
  Ti  Ti14  1  0.359223  0.654974  0.716504  1
  Ti  Ti15  1  0.007245  0.498710  0.999910  1
  Ti  Ti16  1  0.729963  0.741232  0.461478  1
  Ti  Ti17  1  0.495053  0.998665  0.999620  1
  Se  Se18  1  0.585933  0.184216  0.181823  1
  Se  Se19  1  0.413222  0.814012  0.818534  1
  Se  Se20  1  0.273038  0.765405  0.544950  1
  Se  Se21  1  0.162232  0.224292  0.327383  1
  Se  Se22  1  0.959089  0.028197  0.919125  1
  Se  Se23  1  0.916752  0.252685  0.814901  1
  Se  Se24  1  0.188968  0.717010  0.379575  1
  Se  Se25  1  0.106462  0.445730  0.224612  1
  Se  Se26  1  0.731863  0.235264  0.456062  1
  Se  Se27  1  0.652776  0.938006  0.312840  1
  Se  Se28  1  0.035982  0.969287  0.080572  1
  Se  Se29  1  0.836673  0.774200  0.673229  1
  Se  Se30  1  0.464799  0.523172  0.917688  1
  Se  Se31  1  0.092441  0.744454  0.185219  1
  Se  Se32  1  0.341397  0.061702  0.688132  1
  Se  Se33  1  0.885678  0.551853  0.775215  1
  Se  Se34  1  0.545799  0.473246  0.081255  1
  Se  Se35  1  0.813189  0.281346  0.621205  1
  O  O36  1  0.271584  0.430178  0.531983  1
  O  O37  1  0.993506  0.326920  0.977100  1
  O  O38  1  0.482991  0.826129  0.973244  1
  O  O39  1  0.266823  0.081680  0.536904  1
  O  O40  1  0.733330  0.919206  0.464583  1
  O  O41  1  0.666327  0.468213  0.342625  1
  O  O42  1  0.012587  0.669393  0.022664  1
  O  O43  1  0.736954  0.570213  0.468497  1
  O  O44  1  0.513910  0.170132  0.026026  1
  O  O45  1  0.329004  0.530796  0.657451  1
