# generated using pymatgen
data_CeFeAsO
_symmetry_space_group_name_H-M   'P 1'
_cell_length_a   3.99434260
_cell_length_b   3.99016889
_cell_length_c   9.04197128
_cell_angle_alpha   89.80339423
_cell_angle_beta   90.15152802
_cell_angle_gamma   89.98814606
_symmetry_Int_Tables_number   1
_chemical_formula_structural   CeFeAsO
_chemical_formula_sum   'Ce2 Fe2 As2 O2'
_cell_volume   144.11050117
_cell_formula_units_Z   2
loop_
 _symmetry_equiv_pos_site_id
 _symmetry_equiv_pos_as_xyz
  1  'x, y, z'
loop_
 _atom_site_type_symbol
 _atom_site_label
 _atom_site_symmetry_multiplicity
 _atom_site_fract_x
 _atom_site_fract_y
 _atom_site_fract_z
 _atom_site_occupancy
  Ce  Ce0  1  0.749940  0.753714  0.858066  1
  Ce  Ce1  1  0.249457  0.256458  0.132170  1
  Fe  Fe2  1  0.247281  0.749172  0.502311  1
  Fe  Fe3  1  0.747693  0.255213  0.501555  1
  As  As4  1  0.748335  0.754670  0.315441  1
  As  As5  1  0.248280  0.249979  0.688775  1
  O  O6  1  0.249813  0.755009  0.996551  1
  O  O7  1  0.749751  0.255097  0.996137  1
