# generated using pymatgen
data_Mg(FeO2)2
_symmetry_space_group_name_H-M   'P 1'
_cell_length_a   2.92681881
_cell_length_b   9.72965872
_cell_length_c   9.91801592
_cell_angle_alpha   90.00008955
_cell_angle_beta   89.99719398
_cell_angle_gamma   90.00026366
_symmetry_Int_Tables_number   1
_chemical_formula_structural   Mg(FeO2)2
_chemical_formula_sum   'Mg4 Fe8 O16'
_cell_volume   282.43482501
_cell_formula_units_Z   4
loop_
 _symmetry_equiv_pos_site_id
 _symmetry_equiv_pos_as_xyz
  1  'x, y, z'
loop_
 _atom_site_type_symbol
 _atom_site_label
 _atom_site_symmetry_multiplicity
 _atom_site_fract_x
 _atom_site_fract_y
 _atom_site_fract_z
 _atom_site_occupancy
  Mg  Mg0  1  0.276201  0.860796  0.249974  1
  Mg  Mg1  1  0.723810  0.139212  0.749971  1
  Mg  Mg2  1  0.276144  0.639212  0.750000  1
  Mg  Mg3  1  0.723833  0.360789  0.249996  1
  Fe  Fe4  1  0.241220  0.382921  0.925669  1
  Fe  Fe5  1  0.758784  0.882900  0.574335  1
  Fe  Fe6  1  0.241102  0.117096  0.074323  1
  Fe  Fe7  1  0.241119  0.117085  0.425662  1
  Fe  Fe8  1  0.758822  0.617090  0.074332  1
  Fe  Fe9  1  0.758976  0.617087  0.425667  1
  Fe  Fe10  1  0.758825  0.882911  0.925660  1
  Fe  Fe11  1  0.241172  0.382912  0.574346  1
  O  O12  1  0.745448  0.522499  0.884714  1
  O  O13  1  0.254524  0.022486  0.615288  1
  O  O14  1  0.259399  0.750009  0.000012  1
  O  O15  1  0.254724  0.477507  0.384714  1
  O  O16  1  0.745345  0.977500  0.384705  1
  O  O17  1  0.772708  0.787064  0.750006  1
  O  O18  1  0.227253  0.212933  0.249998  1
  O  O19  1  0.745329  0.977519  0.115284  1
  O  O20  1  0.740584  0.250007  0.000003  1
  O  O21  1  0.254604  0.477510  0.115296  1
  O  O22  1  0.259422  0.749981  0.500025  1
  O  O23  1  0.254605  0.022496  0.884702  1
  O  O24  1  0.227261  0.287063  0.750004  1
  O  O25  1  0.740586  0.249991  0.500009  1
  O  O26  1  0.745434  0.522485  0.615301  1
  O  O27  1  0.772765  0.712938  0.250004  1
