# generated using pymatgen
data_CeAlPd
_symmetry_space_group_name_H-M   'P 1'
_cell_length_a   4.24141310
_cell_length_b   7.17328120
_cell_length_c   28.69365485
_cell_angle_alpha   90.00000000
_cell_angle_beta   90.00000000
_cell_angle_gamma   90.00000000
_symmetry_Int_Tables_number   1
_chemical_formula_structural   CeAlPd
_chemical_formula_sum   'Ce14 Al14 Pd14'
_cell_volume   873.00011181
_cell_formula_units_Z   14
loop_
 _symmetry_equiv_pos_site_id
 _symmetry_equiv_pos_as_xyz
  1  'x, y, z'
loop_
 _atom_site_type_symbol
 _atom_site_label
 _atom_site_symmetry_multiplicity
 _atom_site_fract_x
 _atom_site_fract_y
 _atom_site_fract_z
 _atom_site_occupancy
  Ce  Ce0  1  0.250000  0.512174  0.341379  1
  Ce  Ce1  1  0.250000  0.142790  0.250000  1
  Ce  Ce2  1  0.750000  0.993447  0.873144  1
  Ce  Ce3  1  0.250000  0.006553  0.373144  1
  Ce  Ce4  1  0.250000  0.512174  0.158621  1
  Ce  Ce5  1  0.750000  0.857210  0.750000  1
  Ce  Ce6  1  0.250000  0.006553  0.126856  1
  Ce  Ce7  1  0.750000  0.358270  0.967048  1
  Ce  Ce8  1  0.750000  0.487826  0.841379  1
  Ce  Ce9  1  0.750000  0.487826  0.658621  1
  Ce  Ce10  1  0.250000  0.641730  0.032952  1
  Ce  Ce11  1  0.750000  0.358270  0.532952  1
  Ce  Ce12  1  0.250000  0.641730  0.467048  1
  Ce  Ce13  1  0.750000  0.993447  0.626856  1
  Al  Al14  1  0.750000  0.988589  0.035305  1
  Al  Al15  1  0.250000  0.011411  0.535305  1
  Al  Al16  1  0.750000  0.339862  0.415898  1
  Al  Al17  1  0.750000  0.489045  0.250000  1
  Al  Al18  1  0.250000  0.510955  0.750000  1
  Al  Al19  1  0.750000  0.339862  0.084102  1
  Al  Al20  1  0.250000  0.660138  0.915898  1
  Al  Al21  1  0.250000  0.164828  0.699945  1
  Al  Al22  1  0.250000  0.164828  0.800055  1
  Al  Al23  1  0.750000  0.988589  0.464695  1
  Al  Al24  1  0.750000  0.835172  0.300055  1
  Al  Al25  1  0.250000  0.011411  0.964695  1
  Al  Al26  1  0.250000  0.660138  0.584102  1
  Al  Al27  1  0.750000  0.835172  0.199945  1
  Pd  Pd28  1  0.250000  0.208631  0.040864  1
  Pd  Pd29  1  0.750000  0.724095  0.103278  1
  Pd  Pd30  1  0.250000  0.275905  0.896722  1
  Pd  Pd31  1  0.750000  0.791369  0.540864  1
  Pd  Pd32  1  0.250000  0.778755  0.822323  1
  Pd  Pd33  1  0.750000  0.221245  0.322323  1
  Pd  Pd34  1  0.250000  0.778755  0.677677  1
  Pd  Pd35  1  0.750000  0.221245  0.177677  1
  Pd  Pd36  1  0.750000  0.791369  0.959136  1
  Pd  Pd37  1  0.750000  0.724095  0.396722  1
  Pd  Pd38  1  0.250000  0.208631  0.459136  1
  Pd  Pd39  1  0.250000  0.275905  0.603278  1
  Pd  Pd40  1  0.250000  0.721486  0.250000  1
  Pd  Pd41  1  0.750000  0.278514  0.750000  1
