# generated using pymatgen
data_Ti(FeSe2)2
_symmetry_space_group_name_H-M   'P 1'
_cell_length_a   6.08399232
_cell_length_b   6.37110788
_cell_length_c   6.46648899
_cell_angle_alpha   143.74383105
_cell_angle_beta   97.78193188
_cell_angle_gamma   89.35700793
_symmetry_Int_Tables_number   1
_chemical_formula_structural   Ti(FeSe2)2
_chemical_formula_sum   'Ti1 Fe2 Se4'
_cell_volume   144.80267352
_cell_formula_units_Z   1
loop_
 _symmetry_equiv_pos_site_id
 _symmetry_equiv_pos_as_xyz
  1  'x, y, z'
loop_
 _atom_site_type_symbol
 _atom_site_label
 _atom_site_symmetry_multiplicity
 _atom_site_fract_x
 _atom_site_fract_y
 _atom_site_fract_z
 _atom_site_occupancy
  Ti  Ti0  1  0.209742  0.780672  0.282264  1
  Fe  Fe1  1  0.519311  0.362683  0.905051  1
  Fe  Fe2  1  0.911486  0.218077  0.674050  1
  Se  Se3  1  0.779105  0.755290  0.043983  1
  Se  Se4  1  0.244536  0.419622  0.655357  1
  Se  Se5  1  0.649965  0.824525  0.532888  1
  Se  Se6  1  0.185856  0.139130  0.906406  1
