# generated using pymatgen
data_Li2UBr6
_symmetry_space_group_name_H-M   'P 1'
_cell_length_a   6.95430662
_cell_length_b   6.95430674
_cell_length_c   26.96817724
_cell_angle_alpha   90.00000000
_cell_angle_beta   90.00000000
_cell_angle_gamma   119.99999942
_symmetry_Int_Tables_number   1
_chemical_formula_structural   Li2UBr6
_chemical_formula_sum   'Li8 U4 Br24'
_cell_volume   1129.50954649
_cell_formula_units_Z   4
loop_
 _symmetry_equiv_pos_site_id
 _symmetry_equiv_pos_as_xyz
  1  'x, y, z'
loop_
 _atom_site_type_symbol
 _atom_site_label
 _atom_site_symmetry_multiplicity
 _atom_site_fract_x
 _atom_site_fract_y
 _atom_site_fract_z
 _atom_site_occupancy
  Li  Li0  1  0.000000  0.000000  0.250000  1
  Li  Li1  1  0.000000  0.000000  0.750000  1
  Li  Li2  1  0.333333  0.666667  0.001537  1
  Li  Li3  1  0.333333  0.666667  0.498463  1
  Li  Li4  1  0.333333  0.666667  0.250000  1
  Li  Li5  1  0.666667  0.333333  0.750000  1
  Li  Li6  1  0.666667  0.333333  0.998463  1
  Li  Li7  1  0.666667  0.333333  0.501537  1
  U  U8  1  0.000000  0.000000  0.000000  1
  U  U9  1  0.000000  0.000000  0.500000  1
  U  U10  1  0.333333  0.666667  0.750000  1
  U  U11  1  0.666667  0.333333  0.250000  1
  Br  Br12  1  0.333567  0.000031  0.307700  1
  Br  Br13  1  0.333536  -0.000031  0.807700  1
  Br  Br14  1  0.998278  0.332440  0.057673  1
  Br  Br15  1  0.001722  0.334162  0.557673  1
  Br  Br16  1  -0.000031  0.333536  0.307700  1
  Br  Br17  1  0.000031  0.333567  0.807700  1
  Br  Br18  1  0.333567  0.333536  0.192300  1
  Br  Br19  1  0.333536  0.333567  0.692300  1
  Br  Br20  1  0.334162  0.332440  0.442327  1
  Br  Br21  1  0.332440  0.334162  0.942327  1
  Br  Br22  1  0.667560  0.001722  0.442327  1
  Br  Br23  1  0.334162  0.001722  0.057673  1
  Br  Br24  1  0.332440  0.998278  0.557673  1
  Br  Br25  1  0.667560  0.665838  0.057673  1
  Br  Br26  1  0.665838  0.667560  0.557673  1
  Br  Br27  1  0.666464  0.666433  0.307700  1
  Br  Br28  1  0.666433  0.666464  0.807700  1
  Br  Br29  1  -0.000031  0.666433  0.192300  1
  Br  Br30  1  0.000031  0.666464  0.692300  1
  Br  Br31  1  0.998278  0.665838  0.442327  1
  Br  Br32  1  0.001722  0.667560  0.942327  1
  Br  Br33  1  0.665838  0.998278  0.942327  1
  Br  Br34  1  0.666464  0.000031  0.192300  1
  Br  Br35  1  0.666433  -0.000031  0.692300  1
