# generated using pymatgen
data_Ta14(CuS8)3
_symmetry_space_group_name_H-M   'P 1'
_cell_length_a   13.09462528
_cell_length_b   26.12932993
_cell_length_c   39.27075406
_cell_angle_alpha   14.68201866
_cell_angle_beta   14.55893756
_cell_angle_gamma   14.66966727
_symmetry_Int_Tables_number   1
_chemical_formula_structural   Ta14(CuS8)3
_chemical_formula_sum   'Ta14 Cu3 S24'
_cell_volume   747.03540260
_cell_formula_units_Z   1
loop_
 _symmetry_equiv_pos_site_id
 _symmetry_equiv_pos_as_xyz
  1  'x, y, z'
loop_
 _atom_site_type_symbol
 _atom_site_label
 _atom_site_symmetry_multiplicity
 _atom_site_fract_x
 _atom_site_fract_y
 _atom_site_fract_z
 _atom_site_occupancy
  Ta  Ta0  1  0.097557  0.039049  0.022278  1
  Ta  Ta1  1  0.067877  0.044548  0.362208  1
  Ta  Ta2  1  0.070766  0.545284  0.026731  1
  Ta  Ta3  1  0.944519  0.502086  0.350699  1
  Ta  Ta4  1  0.087445  0.537195  0.361790  1
  Ta  Ta5  1  0.087512  0.029449  0.699683  1
  Ta  Ta6  1  0.918737  0.457539  0.306358  1
  Ta  Ta7  1  0.085034  0.542523  0.692468  1
  Ta  Ta8  1  0.909721  0.969973  0.301585  1
  Ta  Ta9  1  0.917669  0.460344  0.638248  1
  Ta  Ta10  1  0.054580  0.498505  0.649475  1
  Ta  Ta11  1  0.922204  0.456146  0.974618  1
  Ta  Ta12  1  0.927717  0.958356  0.637294  1
  Ta  Ta13  1  0.911021  0.959000  0.976179  1
  Cu  Cu14  1  0.153322  0.078706  0.717732  1
  Cu  Cu15  1  0.842965  0.919271  0.284604  1
  Cu  Cu16  1  0.843200  0.425558  0.947184  1
  S  S17  1  0.230344  0.102136  0.065531  1
  S  S18  1  0.285861  0.149679  0.097381  1
  S  S19  1  0.193932  0.107544  0.407713  1
  S  S20  1  0.201880  0.607836  0.072302  1
  S  S21  1  0.286833  0.150510  0.430354  1
  S  S22  1  0.284646  0.646508  0.100766  1
  S  S23  1  0.697829  0.353235  0.238200  1
  S  S24  1  0.790005  0.395619  0.261187  1
  S  S25  1  0.215207  0.102013  0.738894  1
  S  S26  1  0.216892  0.599553  0.405500  1
  S  S27  1  0.293224  0.149064  0.762090  1
  S  S28  1  0.273729  0.665054  0.423893  1
  S  S29  1  0.726268  0.334731  0.576280  1
  S  S30  1  0.707106  0.850383  0.238422  1
  S  S31  1  0.784876  0.399547  0.594665  1
  S  S32  1  0.785391  0.897904  0.260837  1
  S  S33  1  0.217917  0.608466  0.733102  1
  S  S34  1  0.300235  0.646452  0.762287  1
  S  S35  1  0.717593  0.353453  0.898907  1
  S  S36  1  0.713329  0.849412  0.569733  1
  S  S37  1  0.781785  0.395262  0.930593  1
  S  S38  1  0.805434  0.893557  0.591771  1
  S  S39  1  0.714152  0.850679  0.901992  1
  S  S40  1  0.778085  0.890070  0.936599  1
