# generated using pymatgen
data_SnS16(Cl2O)2
_symmetry_space_group_name_H-M   'P 1'
_cell_length_a   8.94542818
_cell_length_b   13.84193706
_cell_length_c   21.99243314
_cell_angle_alpha   90.00000000
_cell_angle_beta   91.58174082
_cell_angle_gamma   90.00000000
_symmetry_Int_Tables_number   1
_chemical_formula_structural   SnS16(Cl2O)2
_chemical_formula_sum   'Sn4 S64 Cl16 O8'
_cell_volume   2722.11061700
_cell_formula_units_Z   4
loop_
 _symmetry_equiv_pos_site_id
 _symmetry_equiv_pos_as_xyz
  1  'x, y, z'
loop_
 _atom_site_type_symbol
 _atom_site_label
 _atom_site_symmetry_multiplicity
 _atom_site_fract_x
 _atom_site_fract_y
 _atom_site_fract_z
 _atom_site_occupancy
  Sn  Sn0  1  0.315388  0.633384  0.298610  1
  Sn  Sn1  1  0.184612  0.133384  0.201390  1
  Sn  Sn2  1  0.684612  0.366616  0.701390  1
  Sn  Sn3  1  0.815388  0.866616  0.798610  1
  S  S4  1  0.571150  0.293077  0.957927  1
  S  S5  1  0.255558  0.549784  0.512149  1
  S  S6  1  0.685914  0.963479  0.231522  1
  S  S7  1  0.755460  0.293035  0.373224  1
  S  S8  1  0.314844  0.450545  0.179287  1
  S  S9  1  0.185914  0.536521  0.731522  1
  S  S10  1  0.130457  0.468956  0.109660  1
  S  S11  1  0.518024  0.413805  0.126903  1
  S  S12  1  0.623698  0.349707  0.439454  1
  S  S13  1  0.255460  0.206965  0.873224  1
  S  S14  1  0.876302  0.849707  0.060546  1
  S  S15  1  0.369543  0.968956  0.390340  1
  S  S16  1  0.303465  0.410649  0.545579  1
  S  S17  1  0.616816  0.888499  0.594738  1
  S  S18  1  0.018024  0.086195  0.626903  1
  S  S19  1  0.628829  0.539383  0.122169  1
  S  S20  1  0.428850  0.706923  0.042073  1
  S  S21  1  0.320624  0.645101  0.708631  1
  S  S22  1  0.244540  0.706965  0.626776  1
  S  S23  1  0.630457  0.031044  0.609660  1
  S  S24  1  0.907036  0.103848  0.463144  1
  S  S25  1  0.711400  0.598246  0.304136  1
  S  S26  1  0.772173  0.353539  0.984666  1
  S  S27  1  0.383184  0.111501  0.405262  1
  S  S28  1  0.196535  0.910649  0.954421  1
  S  S29  1  0.179376  0.145101  0.791369  1
  S  S30  1  0.744442  0.450216  0.487851  1
  S  S31  1  0.755558  0.950216  0.012149  1
  S  S32  1  0.803465  0.089351  0.045579  1
  S  S33  1  0.659615  0.125832  0.109532  1
  S  S34  1  0.814844  0.049455  0.679287  1
  S  S35  1  0.227827  0.646461  0.015334  1
  S  S36  1  0.840385  0.625832  0.390468  1
  S  S37  1  0.696535  0.589351  0.454421  1
  S  S38  1  0.727827  0.853539  0.515334  1
  S  S39  1  0.340385  0.874168  0.890468  1
  S  S40  1  0.288600  0.401754  0.695864  1
  S  S41  1  0.371171  0.460617  0.877831  1
  S  S42  1  0.123698  0.150293  0.939454  1
  S  S43  1  0.871171  0.039383  0.377831  1
  S  S44  1  0.407036  0.396152  0.963144  1
  S  S45  1  0.376302  0.650293  0.560546  1
  S  S46  1  0.481976  0.586195  0.873097  1
  S  S47  1  0.092964  0.896152  0.536856  1
  S  S48  1  0.788600  0.098246  0.195864  1
  S  S49  1  0.185156  0.950545  0.320713  1
  S  S50  1  0.211400  0.901754  0.804136  1
  S  S51  1  0.744540  0.793035  0.126776  1
  S  S52  1  0.592964  0.603848  0.036856  1
  S  S53  1  0.116816  0.611501  0.094738  1
  S  S54  1  0.883184  0.388499  0.905262  1
  S  S55  1  0.679376  0.354899  0.291369  1
  S  S56  1  0.071150  0.206923  0.457927  1
  S  S57  1  0.820624  0.854899  0.208631  1
  S  S58  1  0.981976  0.913805  0.373097  1
  S  S59  1  0.128829  0.960617  0.622169  1
  S  S60  1  0.244442  0.049784  0.987851  1
  S  S61  1  0.869543  0.531044  0.890340  1
  S  S62  1  0.272173  0.146461  0.484666  1
  S  S63  1  0.685156  0.549455  0.820713  1
  S  S64  1  0.928850  0.793077  0.542073  1
  S  S65  1  0.159615  0.374168  0.609532  1
  S  S66  1  0.814086  0.463479  0.268478  1
  S  S67  1  0.314086  0.036521  0.768478  1
  Cl  Cl68  1  0.446279  0.752997  0.243863  1
  Cl  Cl69  1  0.053721  0.252997  0.256137  1
  Cl  Cl70  1  0.694050  0.273216  0.609331  1
  Cl  Cl71  1  0.432121  0.172877  0.239816  1
  Cl  Cl72  1  0.567879  0.827123  0.760184  1
  Cl  Cl73  1  0.067879  0.672877  0.260184  1
  Cl  Cl74  1  0.553721  0.247003  0.756137  1
  Cl  Cl75  1  0.244451  0.979473  0.162583  1
  Cl  Cl76  1  0.305950  0.726784  0.390669  1
  Cl  Cl77  1  0.755549  0.020527  0.837417  1
  Cl  Cl78  1  0.255549  0.479473  0.337417  1
  Cl  Cl79  1  0.744451  0.520527  0.662583  1
  Cl  Cl80  1  0.805950  0.773216  0.890669  1
  Cl  Cl81  1  0.194050  0.226784  0.109331  1
  Cl  Cl82  1  0.932121  0.327123  0.739816  1
  Cl  Cl83  1  0.946279  0.747003  0.743863  1
  O  O84  1  0.942869  0.070762  0.175546  1
  O  O85  1  0.557131  0.570762  0.324454  1
  O  O86  1  0.651571  0.449175  0.797838  1
  O  O87  1  0.057131  0.929238  0.824454  1
  O  O88  1  0.848429  0.949175  0.702162  1
  O  O89  1  0.442869  0.429238  0.675546  1
  O  O90  1  0.348429  0.550825  0.202162  1
  O  O91  1  0.151571  0.050825  0.297838  1
