# generated using pymatgen
data_Fe2C9O7F4
_symmetry_space_group_name_H-M   'P 1'
_cell_length_a   9.00926668
_cell_length_b   11.20359555
_cell_length_c   12.43384421
_cell_angle_alpha   90.00000000
_cell_angle_beta   90.00000000
_cell_angle_gamma   90.00000000
_symmetry_Int_Tables_number   1
_chemical_formula_structural   Fe2C9O7F4
_chemical_formula_sum   'Fe8 C36 O28 F16'
_cell_volume   1255.02473833
_cell_formula_units_Z   4
loop_
 _symmetry_equiv_pos_site_id
 _symmetry_equiv_pos_as_xyz
  1  'x, y, z'
loop_
 _atom_site_type_symbol
 _atom_site_label
 _atom_site_symmetry_multiplicity
 _atom_site_fract_x
 _atom_site_fract_y
 _atom_site_fract_z
 _atom_site_occupancy
  Fe  Fe0  1  0.829125  0.250000  0.082610  1
  Fe  Fe1  1  0.670875  0.750000  0.582610  1
  Fe  Fe2  1  0.170875  0.750000  0.917390  1
  Fe  Fe3  1  0.350884  0.750000  0.070588  1
  Fe  Fe4  1  0.850884  0.750000  0.429412  1
  Fe  Fe5  1  0.649116  0.250000  0.929412  1
  Fe  Fe6  1  0.149116  0.250000  0.570588  1
  Fe  Fe7  1  0.329125  0.250000  0.417390  1
  C  C8  1  0.722006  0.750000  0.722363  1
  C  C9  1  0.374304  0.250000  0.572210  1
  C  C10  1  0.949267  0.250000  0.563972  1
  C  C11  1  0.039450  0.871947  0.902314  1
  C  C12  1  0.550733  0.750000  0.063972  1
  C  C13  1  0.838130  0.866576  0.551393  1
  C  C14  1  0.663009  0.129584  0.831566  1
  C  C15  1  0.338130  0.866576  0.948607  1
  C  C16  1  0.460550  0.128053  0.402314  1
  C  C17  1  0.663009  0.370416  0.831566  1
  C  C18  1  0.874304  0.250000  0.927790  1
  C  C19  1  0.836991  0.870416  0.331566  1
  C  C20  1  0.661870  0.366576  0.051393  1
  C  C21  1  0.277994  0.250000  0.277637  1
  C  C22  1  0.836991  0.629584  0.331566  1
  C  C23  1  0.661870  0.133424  0.051393  1
  C  C24  1  0.460550  0.371947  0.402314  1
  C  C25  1  0.161870  0.366576  0.448607  1
  C  C26  1  0.161870  0.133424  0.448607  1
  C  C27  1  0.050733  0.750000  0.436028  1
  C  C28  1  0.777994  0.250000  0.222363  1
  C  C29  1  0.125696  0.750000  0.072210  1
  C  C30  1  0.039450  0.628053  0.902314  1
  C  C31  1  0.960550  0.371947  0.097686  1
  C  C32  1  0.163009  0.129584  0.668434  1
  C  C33  1  0.539450  0.871947  0.597686  1
  C  C34  1  0.163009  0.370416  0.668434  1
  C  C35  1  0.222006  0.750000  0.777637  1
  C  C36  1  0.838130  0.633424  0.551393  1
  C  C37  1  0.336991  0.629584  0.168434  1
  C  C38  1  0.336991  0.870416  0.168434  1
  C  C39  1  0.338130  0.633424  0.948607  1
  C  C40  1  0.960550  0.128053  0.097686  1
  C  C41  1  0.449267  0.250000  0.936028  1
  C  C42  1  0.625696  0.750000  0.427790  1
  C  C43  1  0.539450  0.628053  0.597686  1
  O  O44  1  0.457435  0.949912  0.609971  1
  O  O45  1  0.528502  0.750000  0.364598  1
  O  O46  1  0.542565  0.449912  0.390029  1
  O  O47  1  0.252559  0.750000  0.687462  1
  O  O48  1  0.826151  0.553673  0.269308  1
  O  O49  1  0.042565  0.449912  0.109971  1
  O  O50  1  0.957435  0.949912  0.890029  1
  O  O51  1  0.542565  0.050088  0.390029  1
  O  O52  1  0.957435  0.550088  0.890029  1
  O  O53  1  0.678862  0.750000  0.061869  1
  O  O54  1  0.747441  0.250000  0.312538  1
  O  O55  1  0.821138  0.250000  0.561869  1
  O  O56  1  0.471498  0.250000  0.635402  1
  O  O57  1  0.752559  0.750000  0.812538  1
  O  O58  1  0.042565  0.050088  0.109971  1
  O  O59  1  0.178862  0.750000  0.438131  1
  O  O60  1  0.326151  0.553673  0.230692  1
  O  O61  1  0.321138  0.250000  0.938131  1
  O  O62  1  0.971498  0.250000  0.864598  1
  O  O63  1  0.247441  0.250000  0.187462  1
  O  O64  1  0.326151  0.946327  0.230692  1
  O  O65  1  0.826151  0.946327  0.269308  1
  O  O66  1  0.673849  0.446327  0.769308  1
  O  O67  1  0.028502  0.750000  0.135402  1
  O  O68  1  0.457435  0.550088  0.609971  1
  O  O69  1  0.173849  0.446327  0.730692  1
  O  O70  1  0.173849  0.053673  0.730692  1
  O  O71  1  0.673849  0.053673  0.769308  1
  F  F72  1  0.452450  0.625110  0.876095  1
  F  F73  1  0.802493  0.982996  0.529343  1
  F  F74  1  0.047550  0.125110  0.376095  1
  F  F75  1  0.952450  0.625110  0.623905  1
  F  F76  1  0.302493  0.982996  0.970657  1
  F  F77  1  0.197507  0.482996  0.470657  1
  F  F78  1  0.452450  0.874890  0.876095  1
  F  F79  1  0.697507  0.017004  0.029343  1
  F  F80  1  0.197507  0.017004  0.470657  1
  F  F81  1  0.547550  0.374890  0.123905  1
  F  F82  1  0.952450  0.874890  0.623905  1
  F  F83  1  0.802493  0.517004  0.529343  1
  F  F84  1  0.697507  0.482996  0.029343  1
  F  F85  1  0.302493  0.517004  0.970657  1
  F  F86  1  0.547550  0.125110  0.123905  1
  F  F87  1  0.047550  0.374890  0.376095  1
