# generated using pymatgen
data_Pr2(SeO3)3
_symmetry_space_group_name_H-M   'P 1'
_cell_length_a   7.15428457
_cell_length_b   17.09215188
_cell_length_c   22.00450525
_cell_angle_alpha   102.03012432
_cell_angle_beta   90.00000000
_cell_angle_gamma   90.00000000
_symmetry_Int_Tables_number   1
_chemical_formula_structural   Pr2(SeO3)3
_chemical_formula_sum   'Pr24 Se36 O108'
_cell_volume   2631.66351086
_cell_formula_units_Z   12
loop_
 _symmetry_equiv_pos_site_id
 _symmetry_equiv_pos_as_xyz
  1  'x, y, z'
loop_
 _atom_site_type_symbol
 _atom_site_label
 _atom_site_symmetry_multiplicity
 _atom_site_fract_x
 _atom_site_fract_y
 _atom_site_fract_z
 _atom_site_occupancy
  Pr  Pr0  1  0.667146  0.601042  0.052457  1
  Pr  Pr1  1  0.671883  0.177104  0.261893  1
  Pr  Pr2  1  0.648219  0.863524  0.912471  1
  Pr  Pr3  1  0.679416  0.264571  0.713255  1
  Pr  Pr4  1  0.141760  0.539779  0.137130  1
  Pr  Pr5  1  0.358240  0.039779  0.637130  1
  Pr  Pr6  1  0.148219  0.636476  0.587529  1
  Pr  Pr7  1  0.351781  0.136476  0.087529  1
  Pr  Pr8  1  0.332854  0.398958  0.947543  1
  Pr  Pr9  1  0.171883  0.322896  0.238107  1
  Pr  Pr10  1  0.851177  0.032764  0.089086  1
  Pr  Pr11  1  0.351177  0.467236  0.410914  1
  Pr  Pr12  1  0.820584  0.764571  0.213255  1
  Pr  Pr13  1  0.641760  0.960221  0.362870  1
  Pr  Pr14  1  0.148823  0.967236  0.910914  1
  Pr  Pr15  1  0.851781  0.363524  0.412471  1
  Pr  Pr16  1  0.832854  0.101042  0.552457  1
  Pr  Pr17  1  0.858240  0.460221  0.862870  1
  Pr  Pr18  1  0.828117  0.677104  0.761893  1
  Pr  Pr19  1  0.328117  0.822896  0.738107  1
  Pr  Pr20  1  0.167146  0.898958  0.447543  1
  Pr  Pr21  1  0.320584  0.735429  0.286745  1
  Pr  Pr22  1  0.179416  0.235429  0.786745  1
  Pr  Pr23  1  0.648823  0.532764  0.589086  1
  Se  Se24  1  0.383123  0.695702  0.450759  1
  Se  Se25  1  0.908547  0.461524  0.709223  1
  Se  Se26  1  0.091453  0.538476  0.290777  1
  Se  Se27  1  0.145442  0.931246  0.300533  1
  Se  Se28  1  0.408547  0.038476  0.790777  1
  Se  Se29  1  0.806030  0.739583  0.362236  1
  Se  Se30  1  0.678065  0.897029  0.515682  1
  Se  Se31  1  0.854558  0.068754  0.699467  1
  Se  Se32  1  0.420905  0.365157  0.113232  1
  Se  Se33  1  0.167539  0.766556  0.896008  1
  Se  Se34  1  0.332461  0.266556  0.396008  1
  Se  Se35  1  0.175295  0.108744  0.230708  1
  Se  Se36  1  0.645442  0.568754  0.199467  1
  Se  Se37  1  0.181131  0.433927  0.553679  1
  Se  Se38  1  0.193970  0.260418  0.637764  1
  Se  Se39  1  0.178065  0.602971  0.984318  1
  Se  Se40  1  0.883123  0.804298  0.049241  1
  Se  Se41  1  0.832461  0.233444  0.103992  1
  Se  Se42  1  0.693970  0.239583  0.862236  1
  Se  Se43  1  0.675295  0.391256  0.269292  1
  Se  Se44  1  0.318869  0.933927  0.053679  1
  Se  Se45  1  0.818869  0.566073  0.446321  1
  Se  Se46  1  0.116877  0.195702  0.950759  1
  Se  Se47  1  0.354558  0.431246  0.800533  1
  Se  Se48  1  0.667539  0.733444  0.603992  1
  Se  Se49  1  0.079095  0.865157  0.613232  1
  Se  Se50  1  0.321935  0.102971  0.484318  1
  Se  Se51  1  0.591453  0.961524  0.209223  1
  Se  Se52  1  0.824705  0.891256  0.769292  1
  Se  Se53  1  0.920905  0.134843  0.386768  1
  Se  Se54  1  0.306030  0.760417  0.137764  1
  Se  Se55  1  0.579095  0.634843  0.886768  1
  Se  Se56  1  0.616877  0.304298  0.549241  1
  Se  Se57  1  0.681131  0.066073  0.946321  1
  Se  Se58  1  0.821935  0.397029  0.015682  1
  Se  Se59  1  0.324705  0.608744  0.730708  1
  O  O60  1  0.476767  0.012645  0.274309  1
  O  O61  1  0.484800  0.565898  0.139543  1
  O  O62  1  0.835308  0.302571  0.826458  1
  O  O63  1  0.410422  0.603887  0.401414  1
  O  O64  1  0.173915  0.389158  0.838406  1
  O  O65  1  0.141489  0.664703  0.708004  1
  O  O66  1  0.360042  0.885203  0.978472  1
  O  O67  1  0.011488  0.598088  0.040241  1
  O  O68  1  0.669679  0.492711  0.467209  1
  O  O69  1  0.489126  0.684842  0.740036  1
  O  O70  1  0.829995  0.222774  0.372399  1
  O  O71  1  0.798398  0.745897  0.100087  1
  O  O72  1  0.330321  0.507289  0.532791  1
  O  O73  1  0.488512  0.098088  0.540241  1
  O  O74  1  0.225431  0.459899  0.306670  1
  O  O75  1  0.509179  0.337813  0.417148  1
  O  O76  1  0.188102  0.681449  0.491511  1
  O  O77  1  0.579708  0.803596  0.662213  1
  O  O78  1  0.811898  0.318551  0.508489  1
  O  O79  1  0.022619  0.280490  0.695783  1
  O  O80  1  0.477381  0.780490  0.195783  1
  O  O81  1  0.245347  0.591302  0.253277  1
  O  O82  1  0.984800  0.934102  0.360457  1
  O  O83  1  0.896151  0.156799  0.752514  1
  O  O84  1  0.976767  0.487355  0.225691  1
  O  O85  1  0.201602  0.254103  0.899913  1
  O  O86  1  0.365144  0.552312  0.657034  1
  O  O87  1  0.701602  0.245897  0.600087  1
  O  O88  1  0.170005  0.777226  0.627601  1
  O  O89  1  0.885544  0.464345  0.081803  1
  O  O90  1  0.920292  0.303596  0.162213  1
  O  O91  1  0.010874  0.184842  0.240036  1
  O  O92  1  0.274569  0.959899  0.806670  1
  O  O93  1  0.420292  0.196404  0.337787  1
  O  O94  1  0.652084  0.456793  0.990265  1
  O  O95  1  0.774569  0.540101  0.693330  1
  O  O96  1  0.989126  0.815158  0.759964  1
  O  O97  1  0.688556  0.174120  0.142323  1
  O  O98  1  0.493595  0.003934  0.922402  1
  O  O99  1  0.993595  0.496066  0.577598  1
  O  O100  1  0.977381  0.719510  0.304217  1
  O  O101  1  0.152084  0.043207  0.509735  1
  O  O102  1  0.358511  0.164703  0.208004  1
  O  O103  1  0.641489  0.835297  0.791996  1
  O  O104  1  0.326085  0.889158  0.338406  1
  O  O105  1  0.254653  0.091302  0.753277  1
  O  O106  1  0.311898  0.181449  0.991511  1
  O  O107  1  0.860042  0.614797  0.521528  1
  O  O108  1  0.673915  0.110842  0.661594  1
  O  O109  1  0.988512  0.401912  0.959759  1
  O  O110  1  0.688102  0.818551  0.008489  1
  O  O111  1  0.114457  0.535655  0.918197  1
  O  O112  1  0.015200  0.065898  0.639543  1
  O  O113  1  0.134856  0.052312  0.157034  1
  O  O114  1  0.714790  0.609591  0.944652  1
  O  O115  1  0.905235  0.802869  0.422826  1
  O  O116  1  0.347916  0.543207  0.009735  1
  O  O117  1  0.311444  0.825880  0.857677  1
  O  O118  1  0.396151  0.343201  0.747486  1
  O  O119  1  0.298398  0.754103  0.399913  1
  O  O120  1  0.819394  0.073297  0.323512  1
  O  O121  1  0.214790  0.890409  0.555348  1
  O  O122  1  0.009179  0.162187  0.082852  1
  O  O123  1  0.510874  0.315158  0.259964  1
  O  O124  1  0.515200  0.434102  0.860457  1
  O  O125  1  0.523233  0.987355  0.725691  1
  O  O126  1  0.670005  0.722774  0.872399  1
  O  O127  1  0.335308  0.197429  0.673542  1
  O  O128  1  0.614456  0.964345  0.581803  1
  O  O129  1  0.164692  0.697429  0.173542  1
  O  O130  1  0.405235  0.697131  0.077174  1
  O  O131  1  0.826085  0.610842  0.161594  1
  O  O132  1  0.589578  0.396113  0.598586  1
  O  O133  1  0.169679  0.007289  0.032791  1
  O  O134  1  0.506405  0.996066  0.077598  1
  O  O135  1  0.094765  0.197131  0.577174  1
  O  O136  1  0.079708  0.696404  0.837787  1
  O  O137  1  0.385543  0.035655  0.418197  1
  O  O138  1  0.180606  0.926703  0.676488  1
  O  O139  1  0.103849  0.843201  0.247486  1
  O  O140  1  0.990821  0.837813  0.917148  1
  O  O141  1  0.023233  0.512645  0.774309  1
  O  O142  1  0.603849  0.656799  0.252514  1
  O  O143  1  0.754653  0.408698  0.746723  1
  O  O144  1  0.785210  0.109591  0.444652  1
  O  O145  1  0.634856  0.447688  0.342966  1
  O  O146  1  0.188556  0.325880  0.357677  1
  O  O147  1  0.329995  0.277226  0.127601  1
  O  O148  1  0.594765  0.302869  0.922826  1
  O  O149  1  0.006405  0.503934  0.422402  1
  O  O150  1  0.811444  0.674120  0.642323  1
  O  O151  1  0.725431  0.040101  0.193330  1
  O  O152  1  0.745347  0.908698  0.246723  1
  O  O153  1  0.285210  0.390409  0.055348  1
  O  O154  1  0.139958  0.385203  0.478472  1
  O  O155  1  0.522619  0.219510  0.804217  1
  O  O156  1  0.680606  0.573297  0.823512  1
  O  O157  1  0.858511  0.335297  0.291996  1
  O  O158  1  0.910422  0.896113  0.098586  1
  O  O159  1  0.847916  0.956793  0.490265  1
  O  O160  1  0.664692  0.802571  0.326458  1
  O  O161  1  0.089578  0.103887  0.901414  1
  O  O162  1  0.639958  0.114797  0.021528  1
  O  O163  1  0.490821  0.662187  0.582852  1
  O  O164  1  0.319394  0.426703  0.176488  1
  O  O165  1  0.511488  0.901912  0.459759  1
  O  O166  1  0.865144  0.947688  0.842966  1
  O  O167  1  0.830321  0.992711  0.967209  1
