# generated using pymatgen
data_Yb3H8
_symmetry_space_group_name_H-M   'P 1'
_cell_length_a   6.60439432
_cell_length_b   6.61142758
_cell_length_c   9.38095014
_cell_angle_alpha   90.16485447
_cell_angle_beta   89.91748508
_cell_angle_gamma   120.03523334
_symmetry_Int_Tables_number   1
_chemical_formula_structural   Yb3H8
_chemical_formula_sum   'Yb9 H24'
_cell_volume   354.60887687
_cell_formula_units_Z   3
loop_
 _symmetry_equiv_pos_site_id
 _symmetry_equiv_pos_as_xyz
  1  'x, y, z'
loop_
 _atom_site_type_symbol
 _atom_site_label
 _atom_site_symmetry_multiplicity
 _atom_site_fract_x
 _atom_site_fract_y
 _atom_site_fract_z
 _atom_site_occupancy
  Yb  Yb0  1  0.000000  0.000000  0.000000  1
  Yb  Yb1  1  0.273266  0.636633  0.000000  1
  Yb  Yb2  1  0.726734  0.363367  0.000000  1
  Yb  Yb3  1  0.677413  0.009518  0.665041  1
  Yb  Yb4  1  0.322587  0.332105  0.665041  1
  Yb  Yb5  1  0.000000  0.660747  0.670078  1
  Yb  Yb6  1  0.322587  0.990482  0.334959  1
  Yb  Yb7  1  0.677413  0.667895  0.334959  1
  Yb  Yb8  1  1.000000  0.339253  0.329922  1
  H  H9  1  1.000000  0.009322  0.249122  1
  H  H10  1  0.000000  0.990678  0.750878  1
  H  H11  1  0.351852  0.681024  0.759320  1
  H  H12  1  0.648148  0.329171  0.759320  1
  H  H13  1  0.648148  0.318976  0.240680  1
  H  H14  1  0.351852  0.670829  0.240680  1
  H  H15  1  0.667622  0.001146  0.419648  1
  H  H16  1  0.332378  0.333524  0.419648  1
  H  H17  1  0.000000  0.665077  0.421165  1
  H  H18  1  0.332378  0.998854  0.580352  1
  H  H19  1  0.667622  0.666476  0.580352  1
  H  H20  1  0.000000  0.334923  0.578835  1
  H  H21  1  0.658302  -0.014303  0.960489  1
  H  H22  1  0.341698  0.327395  0.960489  1
  H  H23  1  0.000000  0.687930  0.903790  1
  H  H24  1  0.341698  0.014303  0.039511  1
  H  H25  1  0.658302  0.672605  0.039511  1
  H  H26  1  1.000000  0.312070  0.096210  1
  H  H27  1  0.658295  -0.015195  0.052644  1
  H  H28  1  0.341705  0.326510  0.052644  1
  H  H29  1  1.000000  0.687171  0.132530  1
  H  H30  1  0.341705  0.015195  0.947356  1
  H  H31  1  0.658295  0.673490  0.947356  1
  H  H32  1  0.000000  0.312829  0.867470  1
