# generated using pymatgen
data_Ba4LiMo2N7
_symmetry_space_group_name_H-M   'P 1'
_cell_length_a   6.55527708
_cell_length_b   10.46506774
_cell_length_c   15.71491889
_cell_angle_alpha   98.98577724
_cell_angle_beta   90.00000000
_cell_angle_gamma   90.00000000
_symmetry_Int_Tables_number   1
_chemical_formula_structural   Ba4LiMo2N7
_chemical_formula_sum   'Ba16 Li4 Mo8 N28'
_cell_volume   1064.83478362
_cell_formula_units_Z   4
loop_
 _symmetry_equiv_pos_site_id
 _symmetry_equiv_pos_as_xyz
  1  'x, y, z'
loop_
 _atom_site_type_symbol
 _atom_site_label
 _atom_site_symmetry_multiplicity
 _atom_site_fract_x
 _atom_site_fract_y
 _atom_site_fract_z
 _atom_site_occupancy
  Li  Li0  1  0.460062  0.874268  0.240072  1
  Li  Li1  1  0.539938  0.374268  0.740072  1
  Li  Li2  1  0.539938  0.125732  0.759928  1
  Li  Li3  1  0.460062  0.625732  0.259928  1
  N  N4  1  0.817382  0.051346  0.804830  1
  N  N5  1  0.817382  0.448654  0.695170  1
  N  N6  1  0.182618  0.948654  0.195170  1
  N  N7  1  0.182618  0.551346  0.304830  1
  N  N8  1  0.467770  0.222169  0.652591  1
  N  N9  1  0.467770  0.277831  0.847409  1
  N  N10  1  0.532230  0.777831  0.347409  1
  N  N11  1  0.532230  0.722169  0.152591  1
  N  N12  1  0.535601  0.892168  0.908183  1
  N  N13  1  0.535601  0.607832  0.591817  1
  N  N14  1  0.464399  0.107832  0.091817  1
  N  N15  1  0.464399  0.392168  0.408183  1
  N  N16  1  0.277864  0.535553  0.827578  1
  N  N17  1  0.722136  0.035553  0.327578  1
  N  N18  1  0.722136  0.464447  0.172422  1
  N  N19  1  0.277864  0.964447  0.672422  1
  N  N20  1  0.076903  0.359647  0.935083  1
  N  N21  1  0.076903  0.140353  0.564917  1
  N  N22  1  0.923097  0.640353  0.064917  1
  N  N23  1  0.923097  0.859647  0.435083  1
  N  N24  1  0.011599  0.360940  0.416460  1
  N  N25  1  0.011599  0.139060  0.083540  1
  N  N26  1  0.988401  0.639060  0.583540  1
  N  N27  1  0.988401  0.860940  0.916460  1
  N  N28  1  0.500000  0.500000  0.000000  1
  N  N29  1  0.500000  0.000000  0.500000  1
  N  N30  1  0.241895  0.250000  0.250000  1
  N  N31  1  0.758105  0.750000  0.750000  1
  Mo  Mo32  1  0.225099  0.394328  0.345146  1
  Mo  Mo33  1  0.225099  0.105672  0.154854  1
  Mo  Mo34  1  0.774901  0.605672  0.654854  1
  Mo  Mo35  1  0.774901  0.894328  0.845146  1
  Mo  Mo36  1  0.328738  0.079333  0.597113  1
  Mo  Mo37  1  0.328738  0.420667  0.902887  1
  Mo  Mo38  1  0.671262  0.920667  0.402887  1
  Mo  Mo39  1  0.671262  0.579333  0.097113  1
  Ba  Ba40  1  0.144561  0.077032  0.378900  1
  Ba  Ba41  1  0.144561  0.422968  0.121100  1
  Ba  Ba42  1  0.855439  0.922968  0.621100  1
  Ba  Ba43  1  0.855439  0.577032  0.878900  1
  Ba  Ba44  1  0.718955  0.254218  0.515595  1
  Ba  Ba45  1  0.718955  0.245782  0.984405  1
  Ba  Ba46  1  0.281045  0.745782  0.484405  1
  Ba  Ba47  1  0.281045  0.754218  0.015595  1
  Ba  Ba48  1  0.227549  0.420781  0.572208  1
  Ba  Ba49  1  0.227549  0.079219  0.927792  1
  Ba  Ba50  1  0.772451  0.579219  0.427792  1
  Ba  Ba51  1  0.772451  0.920781  0.072208  1
  Ba  Ba52  1  0.021835  0.250000  0.750000  1
  Ba  Ba53  1  0.978165  0.750000  0.250000  1
  Ba  Ba54  1  0.318266  0.750000  0.750000  1
  Ba  Ba55  1  0.681734  0.250000  0.250000  1
