# generated using pymatgen
data_Y7Te2
_symmetry_space_group_name_H-M   'P 1'
_cell_length_a   3.96650621
_cell_length_b   12.16723172
_cell_length_c   23.21539444
_cell_angle_alpha   90.00000000
_cell_angle_beta   90.00000000
_cell_angle_gamma   90.00000000
_symmetry_Int_Tables_number   1
_chemical_formula_structural   Y7Te2
_chemical_formula_sum   'Y28 Te8'
_cell_volume   1120.40744131
_cell_formula_units_Z   4
loop_
 _symmetry_equiv_pos_site_id
 _symmetry_equiv_pos_as_xyz
  1  'x, y, z'
loop_
 _atom_site_type_symbol
 _atom_site_label
 _atom_site_symmetry_multiplicity
 _atom_site_fract_x
 _atom_site_fract_y
 _atom_site_fract_z
 _atom_site_occupancy
  Y  Y0  1  0.250000  0.650167  0.426811  1
  Y  Y1  1  0.750000  0.979964  0.829714  1
  Y  Y2  1  0.750000  0.873522  0.048267  1
  Y  Y3  1  0.750000  0.254213  0.723544  1
  Y  Y4  1  0.250000  0.849833  0.926811  1
  Y  Y5  1  0.750000  0.520036  0.329714  1
  Y  Y6  1  0.750000  0.637720  0.898519  1
  Y  Y7  1  0.750000  0.245787  0.223544  1
  Y  Y8  1  0.750000  0.349833  0.573189  1
  Y  Y9  1  0.250000  0.754213  0.776456  1
  Y  Y10  1  0.250000  0.126478  0.951733  1
  Y  Y11  1  0.250000  0.617633  0.024470  1
  Y  Y12  1  0.750000  0.382367  0.975530  1
  Y  Y13  1  0.250000  0.373522  0.451733  1
  Y  Y14  1  0.750000  0.862280  0.398519  1
  Y  Y15  1  0.250000  0.079617  0.345687  1
  Y  Y16  1  0.750000  0.117633  0.475530  1
  Y  Y17  1  0.250000  0.362280  0.101481  1
  Y  Y18  1  0.750000  0.150167  0.073189  1
  Y  Y19  1  0.250000  0.745787  0.276456  1
  Y  Y20  1  0.750000  0.626478  0.548267  1
  Y  Y21  1  0.250000  0.020036  0.170286  1
  Y  Y22  1  0.750000  0.579617  0.154313  1
  Y  Y23  1  0.250000  0.420383  0.845687  1
  Y  Y24  1  0.750000  0.920383  0.654313  1
  Y  Y25  1  0.250000  0.882367  0.524470  1
  Y  Y26  1  0.250000  0.479964  0.670286  1
  Y  Y27  1  0.250000  0.137720  0.601481  1
  Te  Te28  1  0.250000  0.728744  0.639634  1
  Te  Te29  1  0.750000  0.228744  0.860366  1
  Te  Te30  1  0.750000  0.950531  0.267430  1
  Te  Te31  1  0.750000  0.271256  0.360366  1
  Te  Te32  1  0.250000  0.771256  0.139634  1
  Te  Te33  1  0.750000  0.549469  0.767430  1
  Te  Te34  1  0.250000  0.049469  0.732570  1
  Te  Te35  1  0.250000  0.450531  0.232570  1
