# generated using pymatgen
data_Fe2(CO)9
_symmetry_space_group_name_H-M   'P 1'
_cell_length_a   6.44716187
_cell_length_b   6.44716144
_cell_length_c   16.13669535
_cell_angle_alpha   90.00000000
_cell_angle_beta   90.00000000
_cell_angle_gamma   120.00000217
_symmetry_Int_Tables_number   1
_chemical_formula_structural   Fe2(CO)9
_chemical_formula_sum   'Fe4 C18 O18'
_cell_volume   580.87454038
_cell_formula_units_Z   2
loop_
 _symmetry_equiv_pos_site_id
 _symmetry_equiv_pos_as_xyz
  1  'x, y, z'
loop_
 _atom_site_type_symbol
 _atom_site_label
 _atom_site_symmetry_multiplicity
 _atom_site_fract_x
 _atom_site_fract_y
 _atom_site_fract_z
 _atom_site_occupancy
  Fe  Fe0  1  0.666667  0.333333  0.828272  1
  Fe  Fe1  1  0.333333  0.666667  0.328272  1
  Fe  Fe2  1  0.333333  0.666667  0.171728  1
  Fe  Fe3  1  0.666667  0.333333  0.671728  1
  C  C4  1  0.661988  0.573261  0.886047  1
  C  C5  1  0.661988  0.573261  0.613953  1
  C  C6  1  0.338012  0.426739  0.386047  1
  C  C7  1  0.911274  0.338012  0.613953  1
  C  C8  1  0.088726  0.661988  0.113953  1
  C  C9  1  0.088726  0.661988  0.386047  1
  C  C10  1  0.331946  0.907707  0.250000  1
  C  C11  1  0.575761  0.668054  0.250000  1
  C  C12  1  0.668054  0.092293  0.750000  1
  C  C13  1  0.573261  0.911274  0.386047  1
  C  C14  1  0.573261  0.911274  0.113953  1
  C  C15  1  0.907707  0.575761  0.750000  1
  C  C16  1  0.911274  0.338012  0.886047  1
  C  C17  1  0.338012  0.426739  0.113953  1
  C  C18  1  0.426739  0.088726  0.613953  1
  C  C19  1  0.426739  0.088726  0.886047  1
  C  C20  1  0.092293  0.424239  0.250000  1
  C  C21  1  0.424239  0.331946  0.750000  1
  O  O22  1  0.344122  0.280257  0.074295  1
  O  O23  1  0.240720  0.331027  0.750000  1
  O  O24  1  0.063866  0.344122  0.574295  1
  O  O25  1  0.090307  0.759280  0.750000  1
  O  O26  1  0.909693  0.240720  0.250000  1
  O  O27  1  0.936134  0.655878  0.074295  1
  O  O28  1  0.655878  0.719743  0.925705  1
  O  O29  1  0.719743  0.063866  0.425705  1
  O  O30  1  0.280257  0.936134  0.574295  1
  O  O31  1  0.344122  0.280257  0.425705  1
  O  O32  1  0.668973  0.909693  0.750000  1
  O  O33  1  0.280257  0.936134  0.925705  1
  O  O34  1  0.655878  0.719743  0.574295  1
  O  O35  1  0.936134  0.655878  0.425705  1
  O  O36  1  0.719743  0.063866  0.074295  1
  O  O37  1  0.063866  0.344122  0.925705  1
  O  O38  1  0.331027  0.090307  0.250000  1
  O  O39  1  0.759280  0.668973  0.250000  1
