# generated using pymatgen
data_SiO2
_symmetry_space_group_name_H-M   'P 1'
_cell_length_a   8.49975258
_cell_length_b   13.23969822
_cell_length_c   29.16831535
_cell_angle_alpha   90.00000000
_cell_angle_beta   90.00000000
_cell_angle_gamma   108.72310600
_symmetry_Int_Tables_number   1
_chemical_formula_structural   SiO2
_chemical_formula_sum   'Si56 O112'
_cell_volume   3108.72851995
_cell_formula_units_Z   56
loop_
 _symmetry_equiv_pos_site_id
 _symmetry_equiv_pos_as_xyz
  1  'x, y, z'
loop_
 _atom_site_type_symbol
 _atom_site_label
 _atom_site_symmetry_multiplicity
 _atom_site_fract_x
 _atom_site_fract_y
 _atom_site_fract_z
 _atom_site_occupancy
  Si  Si0  1  0.409314  0.452801  0.392029  1
  Si  Si1  1  0.828761  0.286766  0.460815  1
  Si  Si2  1  0.509596  0.654091  0.058293  1
  Si  Si3  1  0.909314  0.452801  0.107971  1
  Si  Si4  1  0.918057  0.455851  0.800351  1
  Si  Si5  1  0.962207  0.544149  0.300351  1
  Si  Si6  1  0.543488  0.452801  0.107971  1
  Si  Si7  1  0.614015  0.859723  0.392293  1
  Si  Si8  1  0.915918  0.211816  0.699770  1
  Si  Si9  1  0.043487  0.452801  0.392029  1
  Si  Si10  1  0.745707  0.859723  0.107707  1
  Si  Si11  1  0.537793  0.455851  0.800351  1
  Si  Si12  1  0.671239  0.713234  0.960815  1
  Si  Si13  1  0.081943  0.544149  0.199649  1
  Si  Si14  1  0.754293  0.140277  0.607707  1
  Si  Si15  1  0.204102  0.788184  0.199770  1
  Si  Si16  1  0.114015  0.859723  0.107707  1
  Si  Si17  1  0.702403  0.048947  0.051430  1
  Si  Si18  1  0.144495  0.654091  0.058293  1
  Si  Si19  1  0.990404  0.345909  0.558293  1
  Si  Si20  1  0.458005  0.286766  0.460815  1
  Si  Si21  1  0.245707  0.859723  0.392293  1
  Si  Si22  1  0.456512  0.547199  0.892029  1
  Si  Si23  1  0.385985  0.140277  0.607707  1
  Si  Si24  1  0.462207  0.544149  0.199649  1
  Si  Si25  1  0.956512  0.547199  0.607971  1
  Si  Si26  1  0.415918  0.211816  0.800230  1
  Si  Si27  1  0.644495  0.654091  0.441707  1
  Si  Si28  1  0.581943  0.544149  0.300351  1
  Si  Si29  1  0.202403  0.048947  0.448570  1
  Si  Si30  1  0.328761  0.286766  0.039185  1
  Si  Si31  1  0.171239  0.713234  0.539185  1
  Si  Si32  1  0.297597  0.951053  0.948570  1
  Si  Si33  1  0.855505  0.345909  0.941707  1
  Si  Si34  1  0.958005  0.286766  0.039185  1
  Si  Si35  1  0.090686  0.547199  0.892029  1
  Si  Si36  1  0.584082  0.788184  0.199770  1
  Si  Si37  1  0.346544  0.048947  0.051430  1
  Si  Si38  1  0.846544  0.048947  0.448570  1
  Si  Si39  1  0.009596  0.654091  0.441707  1
  Si  Si40  1  0.490404  0.345909  0.941707  1
  Si  Si41  1  0.590686  0.547199  0.607971  1
  Si  Si42  1  0.084082  0.788184  0.300230  1
  Si  Si43  1  0.541995  0.713234  0.539185  1
  Si  Si44  1  0.355505  0.345909  0.558293  1
  Si  Si45  1  0.795898  0.211816  0.800230  1
  Si  Si46  1  0.041995  0.713234  0.960815  1
  Si  Si47  1  0.797597  0.951053  0.551430  1
  Si  Si48  1  0.885985  0.140277  0.892293  1
  Si  Si49  1  0.254293  0.140277  0.892293  1
  Si  Si50  1  0.704102  0.788184  0.300230  1
  Si  Si51  1  0.153456  0.951053  0.551430  1
  Si  Si52  1  0.418057  0.455851  0.699649  1
  Si  Si53  1  0.295898  0.211816  0.699770  1
  Si  Si54  1  0.653456  0.951053  0.948570  1
  Si  Si55  1  0.037793  0.455851  0.699649  1
  O  O56  1  0.417624  0.333768  0.810351  1
  O  O57  1  0.531542  0.534576  0.661378  1
  O  O58  1  0.824328  0.230167  0.917907  1
  O  O59  1  0.198666  0.974975  0.083714  1
  O  O60  1  0.905839  0.230167  0.582093  1
  O  O61  1  0.826425  0.000000  0.500000  1
  O  O62  1  0.086615  0.173231  0.896014  1
  O  O63  1  0.514323  0.433519  0.581480  1
  O  O64  1  0.673575  0.000000  0.000000  1
  O  O65  1  0.025569  0.051138  0.427504  1
  O  O66  1  0.503193  0.506387  0.250000  1
  O  O67  1  0.324328  0.230167  0.582093  1
  O  O68  1  0.950672  0.338112  0.503783  1
  O  O69  1  0.110868  0.637180  0.583806  1
  O  O70  1  0.549328  0.661888  0.003783  1
  O  O71  1  0.473688  0.362820  0.416194  1
  O  O72  1  0.503035  0.534576  0.838622  1
  O  O73  1  0.582376  0.666232  0.189649  1
  O  O74  1  0.808840  0.617680  0.434169  1
  O  O75  1  0.974431  0.948862  0.572496  1
  O  O76  1  0.405839  0.230167  0.917907  1
  O  O77  1  0.913385  0.826769  0.103986  1
  O  O78  1  0.139583  0.279166  0.026160  1
  O  O79  1  0.583856  0.666232  0.310351  1
  O  O80  1  0.610868  0.637180  0.916194  1
  O  O81  1  0.985677  0.566481  0.081480  1
  O  O82  1  0.191160  0.382320  0.565831  1
  O  O83  1  0.003035  0.534576  0.661378  1
  O  O84  1  0.730364  0.460729  0.802517  1
  O  O85  1  0.360417  0.720834  0.526160  1
  O  O86  1  0.198078  0.867247  0.338511  1
  O  O87  1  0.916144  0.333768  0.810351  1
  O  O88  1  0.468458  0.465424  0.338622  1
  O  O89  1  0.485677  0.566481  0.418520  1
  O  O90  1  0.691160  0.382320  0.934169  1
  O  O91  1  0.612559  0.661888  0.496217  1
  O  O92  1  0.082376  0.666232  0.310351  1
  O  O93  1  0.663111  0.826222  0.250000  1
  O  O94  1  0.330831  0.132753  0.661489  1
  O  O95  1  0.836889  0.173778  0.750000  1
  O  O96  1  0.723690  0.025025  0.583714  1
  O  O97  1  0.580804  0.566481  0.081480  1
  O  O98  1  0.301922  0.132753  0.838511  1
  O  O99  1  0.416144  0.333768  0.689649  1
  O  O100  1  0.326425  0.000000  0.000000  1
  O  O101  1  0.269636  0.539271  0.197483  1
  O  O102  1  0.014323  0.433519  0.918520  1
  O  O103  1  0.230364  0.460729  0.697483  1
  O  O104  1  0.336580  0.168585  0.050316  1
  O  O105  1  0.103373  0.206745  0.697531  1
  O  O106  1  0.639583  0.279166  0.473840  1
  O  O107  1  0.669169  0.867247  0.338511  1
  O  O108  1  0.707799  0.415598  0.105700  1
  O  O109  1  0.387441  0.338112  0.503783  1
  O  O110  1  0.396627  0.793255  0.197531  1
  O  O111  1  0.292201  0.584402  0.894300  1
  O  O112  1  0.968458  0.465424  0.161378  1
  O  O113  1  0.896627  0.793255  0.302469  1
  O  O114  1  0.169169  0.867247  0.161489  1
  O  O115  1  0.167995  0.831415  0.949684  1
  O  O116  1  0.496965  0.465424  0.161378  1
  O  O117  1  0.594161  0.769833  0.082093  1
  O  O118  1  0.603373  0.206745  0.802469  1
  O  O119  1  0.832005  0.168585  0.050316  1
  O  O120  1  0.003193  0.506387  0.250000  1
  O  O121  1  0.667995  0.831415  0.550316  1
  O  O122  1  0.308840  0.617680  0.065831  1
  O  O123  1  0.801334  0.025025  0.916286  1
  O  O124  1  0.776310  0.974975  0.083714  1
  O  O125  1  0.163111  0.826222  0.250000  1
  O  O126  1  0.413385  0.826769  0.396014  1
  O  O127  1  0.792201  0.584402  0.605700  1
  O  O128  1  0.276310  0.974975  0.416286  1
  O  O129  1  0.450672  0.338112  0.996217  1
  O  O130  1  0.336889  0.173778  0.750000  1
  O  O131  1  0.049328  0.661888  0.496217  1
  O  O132  1  0.389132  0.362820  0.083806  1
  O  O133  1  0.889132  0.362820  0.416194  1
  O  O134  1  0.675672  0.769833  0.417907  1
  O  O135  1  0.769636  0.539271  0.302517  1
  O  O136  1  0.496807  0.493613  0.750000  1
  O  O137  1  0.830831  0.132753  0.838511  1
  O  O138  1  0.112559  0.661888  0.003783  1
  O  O139  1  0.083856  0.666232  0.189649  1
  O  O140  1  0.698666  0.974975  0.416286  1
  O  O141  1  0.801922  0.132753  0.661489  1
  O  O142  1  0.973688  0.362820  0.083806  1
  O  O143  1  0.080804  0.566481  0.418520  1
  O  O144  1  0.525569  0.051138  0.072496  1
  O  O145  1  0.860417  0.720834  0.973840  1
  O  O146  1  0.526312  0.637180  0.583806  1
  O  O147  1  0.031542  0.534576  0.838622  1
  O  O148  1  0.223690  0.025025  0.916286  1
  O  O149  1  0.919196  0.433519  0.581480  1
  O  O150  1  0.026312  0.637180  0.916194  1
  O  O151  1  0.301334  0.025025  0.583714  1
  O  O152  1  0.698078  0.867247  0.161489  1
  O  O153  1  0.163420  0.831415  0.550316  1
  O  O154  1  0.094161  0.769833  0.417907  1
  O  O155  1  0.887441  0.338112  0.996217  1
  O  O156  1  0.474431  0.948862  0.927504  1
  O  O157  1  0.836580  0.168585  0.449684  1
  O  O158  1  0.207799  0.415598  0.394300  1
  O  O159  1  0.419196  0.433519  0.918520  1
  O  O160  1  0.175672  0.769833  0.082093  1
  O  O161  1  0.586615  0.173231  0.603986  1
  O  O162  1  0.173575  0.000000  0.500000  1
  O  O163  1  0.917624  0.333768  0.689649  1
  O  O164  1  0.663420  0.831415  0.949684  1
  O  O165  1  0.332005  0.168585  0.449684  1
  O  O166  1  0.996807  0.493613  0.750000  1
  O  O167  1  0.996965  0.465424  0.338622  1
