# generated using pymatgen
data_CsHo2Cu3Se5
_symmetry_space_group_name_H-M   'P 1'
_cell_length_a   4.12493926
_cell_length_b   7.64470550
_cell_length_c   17.36245691
_cell_angle_alpha   90.01584801
_cell_angle_beta   90.03408364
_cell_angle_gamma   105.59231843
_symmetry_Int_Tables_number   1
_chemical_formula_structural   CsHo2Cu3Se5
_chemical_formula_sum   'Cs2 Ho4 Cu6 Se10'
_cell_volume   527.35761817
_cell_formula_units_Z   2
loop_
 _symmetry_equiv_pos_site_id
 _symmetry_equiv_pos_as_xyz
  1  'x, y, z'
loop_
 _atom_site_type_symbol
 _atom_site_label
 _atom_site_symmetry_multiplicity
 _atom_site_fract_x
 _atom_site_fract_y
 _atom_site_fract_z
 _atom_site_occupancy
  Cs  Cs0  1  0.946678  0.879625  0.749397  1
  Cs  Cs1  1  0.060218  0.119864  0.249648  1
  Ho  Ho2  1  0.808152  0.618162  0.091038  1
  Ho  Ho3  1  0.190209  0.384713  0.590966  1
  Ho  Ho4  1  0.193888  0.386553  0.908803  1
  Ho  Ho5  1  0.801201  0.614980  0.408932  1
  Cu  Cu6  1  0.421033  0.833960  0.533839  1
  Cu  Cu7  1  0.348375  0.686083  0.249084  1
  Cu  Cu8  1  0.667812  0.314952  0.750814  1
  Cu  Cu9  1  0.591201  0.169665  0.032435  1
  Cu  Cu10  1  0.577123  0.165157  0.466439  1
  Cu  Cu11  1  0.418363  0.836822  0.967156  1
  Se  Se12  1  0.832048  0.663986  0.569897  1
  Se  Se13  1  0.163513  0.337652  0.429444  1
  Se  Se14  1  0.768597  0.527232  0.249791  1
  Se  Se15  1  0.561906  0.125381  0.611143  1
  Se  Se16  1  0.171921  0.338741  0.069953  1
  Se  Se17  1  0.432170  0.874945  0.388848  1
  Se  Se18  1  0.436283  0.878278  0.111462  1
  Se  Se19  1  0.564268  0.127635  0.888201  1
  Se  Se20  1  0.246052  0.475188  0.749726  1
  Se  Se21  1  0.833050  0.665835  0.929833  1
