# generated using pymatgen
data_MnSnO3
_symmetry_space_group_name_H-M   'P 1'
_cell_length_a   5.71070395
_cell_length_b   5.71070405
_cell_length_c   5.71070391
_cell_angle_alpha   57.19098227
_cell_angle_beta   57.19098160
_cell_angle_gamma   57.19097888
_symmetry_Int_Tables_number   1
_chemical_formula_structural   MnSnO3
_chemical_formula_sum   'Mn2 Sn2 O6'
_cell_volume   123.16895051
_cell_formula_units_Z   2
loop_
 _symmetry_equiv_pos_site_id
 _symmetry_equiv_pos_as_xyz
  1  'x, y, z'
loop_
 _atom_site_type_symbol
 _atom_site_label
 _atom_site_symmetry_multiplicity
 _atom_site_fract_x
 _atom_site_fract_y
 _atom_site_fract_z
 _atom_site_occupancy
  Mn  Mn0  1  0.364987  0.364987  0.364987  1
  Mn  Mn1  1  0.864987  0.864987  0.864987  1
  Sn  Sn2  1  0.147682  0.147682  0.147682  1
  Sn  Sn3  1  0.647682  0.647682  0.647682  1
  O  O4  1  0.030795  0.771441  0.435095  1
  O  O5  1  0.435095  0.030795  0.771441  1
  O  O6  1  0.771441  0.435095  0.030795  1
  O  O7  1  0.271441  0.530795  0.935095  1
  O  O8  1  0.530795  0.935095  0.271441  1
  O  O9  1  0.935095  0.271441  0.530795  1
