# generated using pymatgen
data_LiB3H18N5
_symmetry_space_group_name_H-M   'P 1'
_cell_length_a   7.63062719
_cell_length_b   10.83696169
_cell_length_c   12.13557199
_cell_angle_alpha   90.00000000
_cell_angle_beta   90.00000000
_cell_angle_gamma   95.57877792
_symmetry_Int_Tables_number   1
_chemical_formula_structural   LiB3H18N5
_chemical_formula_sum   'Li4 B12 H72 N20'
_cell_volume   998.77138548
_cell_formula_units_Z   4
loop_
 _symmetry_equiv_pos_site_id
 _symmetry_equiv_pos_as_xyz
  1  'x, y, z'
loop_
 _atom_site_type_symbol
 _atom_site_label
 _atom_site_symmetry_multiplicity
 _atom_site_fract_x
 _atom_site_fract_y
 _atom_site_fract_z
 _atom_site_occupancy
  Li  Li0  1  0.518828  0.802110  0.251270  1
  Li  Li1  1  0.481172  0.197890  0.748730  1
  Li  Li2  1  0.481172  0.697890  0.751270  1
  Li  Li3  1  0.518828  0.302110  0.248730  1
  B  B4  1  0.988541  0.487258  0.399690  1
  B  B5  1  0.093009  0.913676  0.995542  1
  B  B6  1  0.906991  0.086324  0.004458  1
  B  B7  1  0.131536  0.573034  0.487884  1
  B  B8  1  0.906991  0.586324  0.495542  1
  B  B9  1  0.868464  0.926966  0.987884  1
  B  B10  1  0.093009  0.413676  0.504458  1
  B  B11  1  0.988541  0.987258  0.100310  1
  B  B12  1  0.868464  0.426966  0.512116  1
  B  B13  1  0.131536  0.073034  0.012116  1
  B  B14  1  0.011459  0.512742  0.600310  1
  B  B15  1  0.011459  0.012742  0.899690  1
  H  H16  1  0.974458  0.475410  0.300502  1
  H  H17  1  0.354064  0.588239  0.945669  1
  H  H18  1  0.957769  0.039775  0.530855  1
  H  H19  1  0.025542  0.524590  0.699498  1
  H  H20  1  0.615046  0.974673  0.111222  1
  H  H21  1  0.431015  0.375780  0.049819  1
  H  H22  1  0.200189  0.262334  0.320710  1
  H  H23  1  0.725574  0.372060  0.840172  1
  H  H24  1  0.274426  0.127940  0.340172  1
  H  H25  1  0.190428  0.321527  0.724684  1
  H  H26  1  0.799811  0.237666  0.820710  1
  H  H27  1  0.809572  0.178473  0.224684  1
  H  H28  1  0.274426  0.627940  0.159828  1
  H  H29  1  0.793163  0.336642  0.717309  1
  H  H30  1  0.567073  0.766660  0.459820  1
  H  H31  1  0.200189  0.762334  0.179290  1
  H  H32  1  0.602526  0.536241  0.614581  1
  H  H33  1  0.354064  0.088239  0.554331  1
  H  H34  1  0.739934  0.642569  0.150835  1
  H  H35  1  0.799811  0.737666  0.679290  1
  H  H36  1  0.512024  0.545200  0.292626  1
  H  H37  1  0.816396  0.172046  0.009862  1
  H  H38  1  0.824578  0.283577  0.324173  1
  H  H39  1  0.432927  0.733340  0.959820  1
  H  H40  1  0.384954  0.025327  0.888778  1
  H  H41  1  0.175422  0.716423  0.675827  1
  H  H42  1  0.397474  0.963759  0.114581  1
  H  H43  1  0.974458  0.975410  0.199498  1
  H  H44  1  0.957769  0.539775  0.969145  1
  H  H45  1  0.397474  0.463759  0.385419  1
  H  H46  1  0.042231  0.460225  0.030855  1
  H  H47  1  0.487976  0.954800  0.792626  1
  H  H48  1  0.739295  0.354334  0.523281  1
  H  H49  1  0.905369  0.678545  0.952463  1
  H  H50  1  0.725574  0.872060  0.659828  1
  H  H51  1  0.905369  0.178545  0.547537  1
  H  H52  1  0.094631  0.821455  0.452463  1
  H  H53  1  0.903399  0.580282  0.848948  1
  H  H54  1  0.206837  0.663358  0.282691  1
  H  H55  1  0.432927  0.233340  0.540180  1
  H  H56  1  0.025542  0.024590  0.800502  1
  H  H57  1  0.793163  0.836642  0.782691  1
  H  H58  1  0.190428  0.821527  0.775316  1
  H  H59  1  0.260066  0.857431  0.650835  1
  H  H60  1  0.615046  0.474673  0.388778  1
  H  H61  1  0.260066  0.357431  0.849165  1
  H  H62  1  0.602526  0.036241  0.885419  1
  H  H63  1  0.260705  0.145666  0.023281  1
  H  H64  1  0.096601  0.419718  0.151052  1
  H  H65  1  0.260705  0.645666  0.476719  1
  H  H66  1  0.568985  0.124220  0.549819  1
  H  H67  1  0.206837  0.163358  0.217309  1
  H  H68  1  0.903399  0.080282  0.651052  1
  H  H69  1  0.183604  0.827954  0.990138  1
  H  H70  1  0.809572  0.678473  0.275316  1
  H  H71  1  0.183604  0.327954  0.509862  1
  H  H72  1  0.512024  0.045200  0.207374  1
  H  H73  1  0.096601  0.919718  0.348948  1
  H  H74  1  0.816396  0.672046  0.490138  1
  H  H75  1  0.042231  0.960225  0.469145  1
  H  H76  1  0.739934  0.142569  0.349165  1
  H  H77  1  0.824578  0.783577  0.175827  1
  H  H78  1  0.384954  0.525327  0.611222  1
  H  H79  1  0.094631  0.321455  0.047537  1
  H  H80  1  0.645936  0.911761  0.445669  1
  H  H81  1  0.567073  0.266660  0.040180  1
  H  H82  1  0.175422  0.216423  0.824173  1
  H  H83  1  0.487976  0.454800  0.707374  1
  H  H84  1  0.568985  0.624220  0.950181  1
  H  H85  1  0.645936  0.411761  0.054331  1
  H  H86  1  0.431015  0.875780  0.450181  1
  H  H87  1  0.739295  0.854334  0.976719  1
  N  N88  1  0.507917  0.464725  0.337066  1
  N  N89  1  0.131285  0.911783  0.430411  1
  N  N90  1  0.546681  0.847758  0.420494  1
  N  N91  1  0.868715  0.588217  0.930411  1
  N  N92  1  0.453319  0.152242  0.579506  1
  N  N93  1  0.131285  0.411783  0.069589  1
  N  N94  1  0.725285  0.300638  0.784995  1
  N  N95  1  0.507917  0.964725  0.162934  1
  N  N96  1  0.492083  0.035275  0.837066  1
  N  N97  1  0.492083  0.535275  0.662934  1
  N  N98  1  0.725285  0.800638  0.715005  1
  N  N99  1  0.274715  0.199362  0.284995  1
  N  N100  1  0.274715  0.699362  0.215005  1
  N  N101  1  0.255402  0.788940  0.708992  1
  N  N102  1  0.744598  0.711060  0.208992  1
  N  N103  1  0.868715  0.088217  0.569589  1
  N  N104  1  0.546681  0.347758  0.079506  1
  N  N105  1  0.255402  0.288940  0.791008  1
  N  N106  1  0.453319  0.652242  0.920494  1
  N  N107  1  0.744598  0.211060  0.291008  1
