# generated using pymatgen
data_BaH4(ClO)2
_symmetry_space_group_name_H-M   'P 1'
_cell_length_a   6.81902372
_cell_length_b   11.05456463
_cell_length_c   7.18399632
_cell_angle_alpha   90.00000000
_cell_angle_beta   91.11495324
_cell_angle_gamma   90.00000000
_symmetry_Int_Tables_number   1
_chemical_formula_structural   BaH4(ClO)2
_chemical_formula_sum   'Ba4 H16 Cl8 O8'
_cell_volume   541.43672661
_cell_formula_units_Z   4
loop_
 _symmetry_equiv_pos_site_id
 _symmetry_equiv_pos_as_xyz
  1  'x, y, z'
loop_
 _atom_site_type_symbol
 _atom_site_label
 _atom_site_symmetry_multiplicity
 _atom_site_fract_x
 _atom_site_fract_y
 _atom_site_fract_z
 _atom_site_occupancy
  Ba  Ba0  1  0.959391  0.783395  0.853903  1
  Ba  Ba1  1  0.459391  0.716605  0.353903  1
  Ba  Ba2  1  0.040609  0.216605  0.146097  1
  Ba  Ba3  1  0.540609  0.283395  0.646097  1
  H  H4  1  0.146441  0.560922  0.618390  1
  H  H5  1  0.646441  0.939078  0.118390  1
  H  H6  1  0.853559  0.439078  0.381610  1
  H  H7  1  0.353559  0.060922  0.881610  1
  H  H8  1  0.023485  0.625268  0.457078  1
  H  H9  1  0.523485  0.874732  0.957078  1
  H  H10  1  0.976515  0.374732  0.542922  1
  H  H11  1  0.476515  0.125268  0.042922  1
  H  H12  1  0.404703  0.637527  0.900491  1
  H  H13  1  0.904703  0.862473  0.400491  1
  H  H14  1  0.595297  0.362473  0.099509  1
  H  H15  1  0.095297  0.137527  0.599509  1
  H  H16  1  0.251313  0.564182  0.011743  1
  H  H17  1  0.751313  0.935818  0.511743  1
  H  H18  1  0.748687  0.435818  0.988257  1
  H  H19  1  0.248687  0.064182  0.488257  1
  Cl  Cl20  1  0.635588  0.581443  0.708128  1
  Cl  Cl21  1  0.135588  0.918557  0.208128  1
  Cl  Cl22  1  0.364412  0.418557  0.291872  1
  Cl  Cl23  1  0.864412  0.081443  0.791872  1
  Cl  Cl24  1  0.858594  0.603283  0.200840  1
  Cl  Cl25  1  0.358594  0.896717  0.700840  1
  Cl  Cl26  1  0.141406  0.396717  0.799160  1
  Cl  Cl27  1  0.641406  0.103283  0.299160  1
  O  O28  1  0.122121  0.640175  0.558584  1
  O  O29  1  0.622121  0.859825  0.058584  1
  O  O30  1  0.877879  0.359825  0.441416  1
  O  O31  1  0.377879  0.140175  0.941416  1
  O  O32  1  0.299600  0.646978  0.993104  1
  O  O33  1  0.799600  0.853022  0.493104  1
  O  O34  1  0.700400  0.353022  0.006896  1
  O  O35  1  0.200400  0.146978  0.506896  1
