# generated using pymatgen
data_Na2Sc4Zn2(MoO4)9
_symmetry_space_group_name_H-M   'P 1'
_cell_length_a   9.64102384
_cell_length_b   9.64111480
_cell_length_c   28.92423051
_cell_angle_alpha   60.28519579
_cell_angle_beta   60.28437220
_cell_angle_gamma   60.28259553
_symmetry_Int_Tables_number   1
_chemical_formula_structural   Na2Sc4Zn2(MoO4)9
_chemical_formula_sum   'Na4 Sc8 Zn4 Mo18 O72'
_cell_volume   1913.28731713
_cell_formula_units_Z   2
loop_
 _symmetry_equiv_pos_site_id
 _symmetry_equiv_pos_as_xyz
  1  'x, y, z'
loop_
 _atom_site_type_symbol
 _atom_site_label
 _atom_site_symmetry_multiplicity
 _atom_site_fract_x
 _atom_site_fract_y
 _atom_site_fract_z
 _atom_site_occupancy
  Na  Na0  1  0.001765  0.000998  0.000823  1
  Na  Na1  1  0.500905  0.501546  0.167894  1
  Na  Na2  1  0.001464  0.002221  0.333919  1
  Na  Na3  1  0.002077  0.002098  0.666945  1
  Sc  Sc4  1  0.359996  0.360360  0.121335  1
  Sc  Sc5  1  0.365453  0.365086  0.454224  1
  Sc  Sc6  1  0.861391  0.859444  0.287660  1
  Sc  Sc7  1  0.364777  0.364742  0.787801  1
  Sc  Sc8  1  0.635702  0.635573  0.544867  1
  Sc  Sc9  1  0.861685  0.861844  0.620128  1
  Sc  Sc10  1  0.635468  0.636232  0.877944  1
  Sc  Sc11  1  0.861218  0.862920  0.953619  1
  Zn  Zn12  1  0.139487  0.137211  0.046884  1
  Zn  Zn13  1  0.137825  0.140339  0.379384  1
  Zn  Zn14  1  0.638260  0.637647  0.213798  1
  Zn  Zn15  1  0.139229  0.139396  0.712610  1
  Mo  Mo16  1  0.035821  0.751671  0.153805  1
  Mo  Mo17  1  0.462199  0.035745  0.250383  1
  Mo  Mo18  1  0.751383  0.461687  0.012277  1
  Mo  Mo19  1  0.251663  0.535600  0.320691  1
  Mo  Mo20  1  0.535806  0.962116  0.083755  1
  Mo  Mo21  1  0.035536  0.752693  0.487214  1
  Mo  Mo22  1  0.961859  0.251153  0.178482  1
  Mo  Mo23  1  0.461310  0.035479  0.584371  1
  Mo  Mo24  1  0.752998  0.461709  0.344676  1
  Mo  Mo25  1  0.248564  0.535093  0.655157  1
  Mo  Mo26  1  0.534904  0.965259  0.416185  1
  Mo  Mo27  1  0.035498  0.752661  0.820638  1
  Mo  Mo28  1  0.965321  0.248664  0.511753  1
  Mo  Mo29  1  0.461379  0.035623  0.917641  1
  Mo  Mo30  1  0.752777  0.461478  0.678580  1
  Mo  Mo31  1  0.248538  0.535025  0.988334  1
  Mo  Mo32  1  0.534995  0.965444  0.749512  1
  Mo  Mo33  1  0.965341  0.248738  0.845024  1
  O  O34  1  0.003994  0.196766  0.121436  1
  O  O35  1  0.196041  0.363454  0.001771  1
  O  O36  1  0.364908  0.003791  0.065530  1
  O  O37  1  0.135919  0.304769  0.165007  1
  O  O38  1  0.303589  0.494630  0.045671  1
  O  O39  1  0.054981  0.925475  0.088905  1
  O  O40  1  0.495156  0.136308  0.101464  1
  O  O41  1  0.233713  0.574581  0.147429  1
  O  O42  1  0.267447  0.054949  0.308278  1
  O  O43  1  0.005250  0.196065  0.454590  1
  O  O44  1  0.443016  0.233714  0.191324  1
  O  O45  1  0.196955  0.364677  0.334583  1
  O  O46  1  0.575196  0.442947  0.077712  1
  O  O47  1  0.074488  0.733756  0.314278  1
  O  O48  1  0.363282  0.005481  0.398698  1
  O  O49  1  0.137906  0.303151  0.498012  1
  O  O50  1  0.924512  0.267919  0.018543  1
  O  O51  1  0.425286  0.555130  0.255653  1
  O  O52  1  0.304456  0.494367  0.378915  1
  O  O53  1  0.555244  0.767319  0.141691  1
  O  O54  1  0.055998  0.925119  0.422324  1
  O  O55  1  0.493888  0.137674  0.434479  1
  O  O56  1  0.733732  0.942782  0.024729  1
  O  O57  1  0.227027  0.575601  0.480502  1
  O  O58  1  0.767232  0.425361  0.184854  1
  O  O59  1  0.266681  0.055741  0.641853  1
  O  O60  1  0.504228  0.864701  0.232048  1
  O  O61  1  0.005174  0.196162  0.787882  1
  O  O62  1  0.942727  0.074387  0.244328  1
  O  O63  1  0.441039  0.227055  0.525326  1
  O  O64  1  0.697847  0.504423  0.287653  1
  O  O65  1  0.196241  0.363715  0.668403  1
  O  O66  1  0.575256  0.441017  0.408951  1
  O  O67  1  0.073521  0.733608  0.648045  1
  O  O68  1  0.864548  0.696783  0.167905  1
  O  O69  1  0.363501  0.005176  0.732098  1
  O  O70  1  0.636077  0.995371  0.268157  1
  O  O71  1  0.137839  0.303159  0.831363  1
  O  O72  1  0.926342  0.265945  0.351649  1
  O  O73  1  0.425204  0.556667  0.591063  1
  O  O74  1  0.804634  0.637215  0.331498  1
  O  O75  1  0.302988  0.494037  0.712682  1
  O  O76  1  0.556502  0.773028  0.475088  1
  O  O77  1  0.055791  0.925183  0.755734  1
  O  O78  1  0.995151  0.805173  0.211811  1
  O  O79  1  0.493980  0.137873  0.767753  1
  O  O80  1  0.733515  0.944139  0.357874  1
  O  O81  1  0.227001  0.575713  0.813789  1
  O  O82  1  0.772985  0.425170  0.518957  1
  O  O83  1  0.266708  0.055994  0.975157  1
  O  O84  1  0.504930  0.862168  0.565886  1
  O  O85  1  0.943916  0.073586  0.577991  1
  O  O86  1  0.441074  0.227072  0.858608  1
  O  O87  1  0.697437  0.504932  0.620787  1
  O  O88  1  0.575839  0.441160  0.742414  1
  O  O89  1  0.073727  0.733404  0.981251  1
  O  O90  1  0.862112  0.697490  0.501702  1
  O  O91  1  0.636435  0.994991  0.601624  1
  O  O92  1  0.925258  0.266676  0.685363  1
  O  O93  1  0.425364  0.556519  0.924343  1
  O  O94  1  0.804658  0.636499  0.665048  1
  O  O95  1  0.556491  0.772960  0.808363  1
  O  O96  1  0.995119  0.804519  0.545533  1
  O  O97  1  0.733573  0.943940  0.691251  1
  O  O98  1  0.772951  0.425201  0.852263  1
  O  O99  1  0.504918  0.862088  0.899248  1
  O  O100  1  0.944107  0.073736  0.911273  1
  O  O101  1  0.696468  0.504515  0.954529  1
  O  O102  1  0.862041  0.697299  0.835113  1
  O  O103  1  0.636447  0.994797  0.934926  1
  O  O104  1  0.804953  0.635295  0.998446  1
  O  O105  1  0.994892  0.804438  0.878950  1
