# generated using pymatgen
data_Na12B26O45
_symmetry_space_group_name_H-M   'P 1'
_cell_length_a   9.64101898
_cell_length_b   10.74558894
_cell_length_c   18.34975950
_cell_angle_alpha   107.03478757
_cell_angle_beta   105.23751835
_cell_angle_gamma   90.00576722
_symmetry_Int_Tables_number   1
_chemical_formula_structural   Na12B26O45
_chemical_formula_sum   'Na24 B52 O90'
_cell_volume   1747.57027231
_cell_formula_units_Z   2
loop_
 _symmetry_equiv_pos_site_id
 _symmetry_equiv_pos_as_xyz
  1  'x, y, z'
loop_
 _atom_site_type_symbol
 _atom_site_label
 _atom_site_symmetry_multiplicity
 _atom_site_fract_x
 _atom_site_fract_y
 _atom_site_fract_z
 _atom_site_occupancy
  Na  Na0  1  0.389472  0.310578  0.908351  1
  Na  Na1  1  0.718777  0.321984  0.753585  1
  Na  Na2  1  0.587991  0.836568  0.407060  1
  Na  Na3  1  0.305838  0.197279  0.398925  1
  Na  Na4  1  0.035758  0.823828  0.753610  1
  Na  Na5  1  0.814897  0.332217  0.405925  1
  Na  Na6  1  0.695842  0.798363  0.600509  1
  Na  Na7  1  0.038762  0.224542  0.913407  1
  Na  Na8  1  0.506698  0.298079  0.257123  1
  Na  Na9  1  0.964922  0.314848  0.090264  1
  Na  Na10  1  0.496419  0.041569  0.745029  1
  Na  Na11  1  0.482077  0.899325  0.089846  1
  Na  Na12  1  0.282043  0.569163  0.246239  1
  Na  Na13  1  0.092823  0.698300  0.398365  1
  Na  Na14  1  0.518311  0.808572  0.910265  1
  Na  Na15  1  0.747558  0.798148  0.253922  1
  Na  Na16  1  0.876449  0.719669  0.909070  1
  Na  Na17  1  0.905071  0.299497  0.602296  1
  Na  Na18  1  0.248169  0.546329  0.745563  1
  Na  Na19  1  0.966223  0.068747  0.246039  1
  Na  Na20  1  0.410341  0.430225  0.592780  1
  Na  Na21  1  0.186276  0.926859  0.593333  1
  Na  Na22  1  0.611187  0.397606  0.088931  1
  Na  Na23  1  0.124256  0.814021  0.089381  1
  B  B24  1  0.922044  0.015987  0.047649  1
  B  B25  1  0.603117  0.231456  0.540152  1
  B  B26  1  0.792089  0.854642  0.087063  1
  B  B27  1  0.567204  0.037498  0.308354  1
  B  B28  1  0.431326  0.162362  0.605344  1
  B  B29  1  0.104745  0.433359  0.535156  1
  B  B30  1  0.581835  0.586012  0.764917  1
  B  B31  1  0.893559  0.900218  0.466413  1
  B  B32  1  0.691565  0.792335  0.770641  1
  B  B33  1  0.063239  0.189322  0.460556  1
  B  B34  1  0.817732  0.321089  0.234965  1
  B  B35  1  0.428414  0.933133  0.534181  1
  B  B36  1  0.416612  0.821199  0.234548  1
  B  B37  1  0.182962  0.085879  0.765728  1
  B  B38  1  0.660277  0.071812  0.610475  1
  B  B39  1  0.339430  0.460167  0.387552  1
  B  B40  1  0.271635  0.152989  0.130463  1
  B  B41  1  0.741164  0.537997  0.308338  1
  B  B42  1  0.918688  0.087699  0.697396  1
  B  B43  1  0.777915  0.586372  0.696826  1
  B  B44  1  0.080983  0.390418  0.302461  1
  B  B45  1  0.639881  0.117393  0.986055  1
  B  B46  1  0.382215  0.598988  0.123440  1
  B  B47  1  0.873379  0.465786  0.952204  1
  B  B48  1  0.432863  0.728520  0.690705  1
  B  B49  1  0.257355  0.974562  0.876664  1
  B  B50  1  0.618999  0.474556  0.876188  1
  B  B51  1  0.173673  0.662271  0.605566  1
  B  B52  1  0.702770  0.265684  0.911909  1
  B  B53  1  0.950069  0.571870  0.611300  1
  B  B54  1  0.568807  0.556874  0.393838  1
  B  B55  1  0.297596  0.354472  0.088078  1
  B  B56  1  0.258794  0.227149  0.691255  1
  B  B57  1  0.345457  0.619302  0.987277  1
  B  B58  1  0.360651  0.130687  0.013996  1
  B  B59  1  0.730879  0.021905  0.870425  1
  B  B60  1  0.918802  0.522121  0.228279  1
  B  B61  1  0.078790  0.968243  0.952189  1
  B  B62  1  0.743016  0.099344  0.123367  1
  B  B63  1  0.395048  0.689264  0.458916  1
  B  B64  1  0.080944  0.292958  0.771351  1
  B  B65  1  0.571807  0.400504  0.465335  1
  B  B66  1  0.221900  0.891149  0.303241  1
  B  B67  1  0.140504  0.523251  0.871141  1
  B  B68  1  0.825424  0.055723  0.394343  1
  B  B69  1  0.935940  0.731157  0.541208  1
  B  B70  1  0.860393  0.652205  0.128945  1
  B  B71  1  0.309303  0.022569  0.229064  1
  B  B72  1  0.654129  0.631742  0.013193  1
  B  B73  1  0.207181  0.767172  0.912786  1
  B  B74  1  0.049454  0.960779  0.389200  1
  B  B75  1  0.127102  0.515084  0.048067  1
  O  O76  1  0.655821  0.713338  0.816757  1
  O  O77  1  0.322857  0.803580  0.286994  1
  O  O78  1  0.951186  0.595610  0.178221  1
  O  O79  1  0.919171  0.173979  0.454899  1
  O  O80  1  0.879393  0.783869  0.140371  1
  O  O81  1  0.892033  0.888494  0.043043  1
  O  O82  1  0.696019  0.107609  0.353842  1
  O  O83  1  0.263543  0.000890  0.805048  1
  O  O84  1  0.554329  0.902748  0.289724  1
  O  O85  1  0.785321  0.023829  0.655931  1
  O  O86  1  0.604425  0.332289  0.864964  1
  O  O87  1  0.872166  0.522367  0.657053  1
  O  O88  1  0.963916  0.303347  0.287242  1
  O  O89  1  0.737289  0.196592  0.195580  1
  O  O90  1  0.352609  0.811039  0.494168  1
  O  O91  1  0.140588  0.311170  0.495913  1
  O  O92  1  0.329040  0.739177  0.974369  1
  O  O93  1  0.291216  0.587709  0.426906  1
  O  O94  1  0.002177  0.047626  0.000847  1
  O  O95  1  0.135945  0.088480  0.428397  1
  O  O96  1  0.152621  0.388088  0.044740  1
  O  O97  1  0.564342  0.551509  0.943929  1
  O  O98  1  0.129177  0.866880  0.344009  1
  O  O99  1  0.786320  0.722317  0.721484  1
  O  O100  1  0.079508  0.720784  0.545714  1
  O  O101  1  0.619913  0.107568  0.055628  1
  O  O102  1  0.706599  0.159732  0.570513  1
  O  O103  1  0.533984  0.674838  0.453681  1
  O  O104  1  0.736747  0.142048  0.858640  1
  O  O105  1  0.541745  0.501033  0.804559  1
  O  O106  1  0.220715  0.618799  0.098379  1
  O  O107  1  0.215143  0.365871  0.342064  1
  O  O108  1  0.675636  0.007617  0.931622  1
  O  O109  1  0.935702  0.224084  0.722648  1
  O  O110  1  0.026796  0.904648  0.453153  1
  O  O111  1  0.343161  0.896922  0.182595  1
  O  O112  1  0.640793  0.237040  0.972523  1
  O  O113  1  0.879077  0.119517  0.098629  1
  O  O114  1  0.215219  0.002804  0.279148  1
  O  O115  1  0.772577  0.916804  0.820898  1
  O  O116  1  0.908057  0.982130  0.340874  1
  O  O117  1  0.091409  0.642585  0.659315  1
  O  O118  1  0.380433  0.049413  0.945095  1
  O  O119  1  0.107693  0.845248  0.956726  1
  O  O120  1  0.736327  0.402839  0.290771  1
  O  O121  1  0.120332  0.643495  0.859860  1
  O  O122  1  0.437253  0.608305  0.055893  1
  O  O123  1  0.838268  0.396159  0.182538  1
  O  O124  1  0.256237  0.509059  0.932433  1
  O  O125  1  0.433307  0.482428  0.339981  1
  O  O126  1  0.425236  0.403346  0.451118  1
  O  O127  1  0.740532  0.967793  0.134142  1
  O  O128  1  0.657183  0.608258  0.353073  1
  O  O129  1  0.120552  0.019315  0.900536  1
  O  O130  1  0.458853  0.697114  0.195344  1
  O  O131  1  0.863260  0.660412  0.572198  1
  O  O132  1  0.647090  0.320418  0.507060  1
  O  O133  1  0.327550  0.076994  0.069843  1
  O  O134  1  0.832947  0.603445  0.281737  1
  O  O135  1  0.035972  0.016524  0.713300  1
  O  O136  1  0.062981  0.502254  0.278350  1
  O  O137  1  0.464700  0.222049  0.545508  1
  O  O138  1  0.228742  0.098141  0.180008  1
  O  O139  1  0.000239  0.544387  0.999836  1
  O  O140  1  0.669828  0.764796  0.025933  1
  O  O141  1  0.786417  0.969805  0.437346  1
  O  O142  1  0.650786  0.471883  0.437729  1
  O  O143  1  0.971321  0.451537  0.547563  1
  O  O144  1  0.574598  0.950567  0.547173  1
  O  O145  1  0.743410  0.577010  0.068131  1
  O  O146  1  0.266314  0.111359  0.710673  1
  O  O147  1  0.350257  0.032962  0.561685  1
  O  O148  1  0.443555  0.613047  0.710312  1
  O  O149  1  0.859116  0.820349  0.507935  1
  O  O150  1  0.396534  0.467759  0.134353  1
  O  O151  1  0.552913  0.818569  0.715215  1
  O  O152  1  0.567458  0.141893  0.658684  1
  O  O153  1  0.780545  0.517689  0.900443  1
  O  O154  1  0.211169  0.532805  0.562729  1
  O  O155  1  0.259271  0.831954  0.865301  1
  O  O156  1  0.356452  0.263963  0.026155  1
  O  O157  1  0.674408  0.515328  0.711470  1
  O  O158  1  0.304278  0.753644  0.645226  1
  O  O159  1  0.448547  0.103758  0.283451  1
  O  O160  1  0.847042  0.343487  0.956874  1
  O  O161  1  0.164698  0.318055  0.716315  1
  O  O162  1  0.341887  0.252749  0.646143  1
  O  O163  1  0.161751  0.213921  0.817744  1
  O  O164  1  0.050931  0.418387  0.820094  1
  O  O165  1  0.265142  0.284555  0.141837  1
