# generated using pymatgen
data_NaPr9Si6(SO12)2
_symmetry_space_group_name_H-M   'P 1'
_cell_length_a   9.92577693
_cell_length_b   19.85383522
_cell_length_c   6.99536220
_cell_angle_alpha   90.00000000
_cell_angle_beta   90.00000000
_cell_angle_gamma   119.99620927
_symmetry_Int_Tables_number   1
_chemical_formula_structural   NaPr9Si6(SO12)2
_chemical_formula_sum   'Na2 Pr18 Si12 S4 O48'
_cell_volume   1193.89559373
_cell_formula_units_Z   2
loop_
 _symmetry_equiv_pos_site_id
 _symmetry_equiv_pos_as_xyz
  1  'x, y, z'
loop_
 _atom_site_type_symbol
 _atom_site_label
 _atom_site_symmetry_multiplicity
 _atom_site_fract_x
 _atom_site_fract_y
 _atom_site_fract_z
 _atom_site_occupancy
  Na  Na0  1  0.666657  0.666678  0.991889  1
  Na  Na1  1  0.666657  0.166678  0.508111  1
  Pr  Pr2  1  0.996356  0.874656  0.753710  1
  Pr  Pr3  1  0.332805  0.833421  0.001448  1
  Pr  Pr4  1  0.333852  0.833283  0.499246  1
  Pr  Pr5  1  0.250645  0.623538  0.752246  1
  Pr  Pr6  1  0.996356  0.374656  0.746290  1
  Pr  Pr7  1  0.249868  0.502806  0.249219  1
  Pr  Pr8  1  0.752969  0.001759  0.746856  1
  Pr  Pr9  1  0.755709  0.875030  0.250208  1
  Pr  Pr10  1  0.666717  0.666659  0.503058  1
  Pr  Pr11  1  0.333852  0.333283  0.000754  1
  Pr  Pr12  1  0.332805  0.333421  0.498552  1
  Pr  Pr13  1  0.250645  0.123538  0.747754  1
  Pr  Pr14  1  0.249868  0.002806  0.250781  1
  Pr  Pr15  1  0.752969  0.501759  0.753144  1
  Pr  Pr16  1  0.994440  0.622195  0.247770  1
  Pr  Pr17  1  0.755709  0.375030  0.249792  1
  Pr  Pr18  1  0.666717  0.166659  0.996942  1
  Pr  Pr19  1  0.994440  0.122195  0.252230  1
  Si  Si20  1  0.032068  0.702979  0.747176  1
  Si  Si21  1  0.373931  0.983990  0.751620  1
  Si  Si22  1  0.408942  0.688873  0.250687  1
  Si  Si23  1  0.594082  0.813042  0.748651  1
  Si  Si24  1  0.032068  0.202979  0.752824  1
  Si  Si25  1  0.373931  0.483990  0.748380  1
  Si  Si26  1  0.622283  0.515638  0.251266  1
  Si  Si27  1  0.968727  0.795514  0.251424  1
  Si  Si28  1  0.408942  0.188873  0.249313  1
  Si  Si29  1  0.594082  0.313042  0.751349  1
  Si  Si30  1  0.622283  0.015638  0.248734  1
  Si  Si31  1  0.968727  0.295514  0.248576  1
  S  S32  1  0.998945  0.497400  0.993240  1
  S  S33  1  0.001040  0.002510  0.996839  1
  S  S34  1  0.998945  0.997400  0.506760  1
  S  S35  1  0.001040  0.502510  0.503161  1
  O  O36  1  0.259031  0.946831  0.940058  1
  O  O37  1  0.262023  0.948928  0.560700  1
  O  O38  1  0.159989  0.833599  0.252582  1
  O  O39  1  0.126477  0.799828  0.749792  1
  O  O40  1  0.107397  0.683400  0.558826  1
  O  O41  1  0.101202  0.681334  0.938063  1
  O  O42  1  0.473206  0.936759  0.751092  1
  O  O43  1  0.332855  0.746447  0.250834  1
  O  O44  1  0.507220  0.920013  0.246997  1
  O  O45  1  0.400372  0.763414  0.751939  1
  O  O46  1  0.362817  0.632381  0.441360  1
  O  O47  1  0.341075  0.628109  0.071810  1
  O  O48  1  0.638092  0.869730  0.938618  1
  O  O49  1  0.632559  0.869809  0.559370  1
  O  O50  1  0.262023  0.448928  0.939300  1
  O  O51  1  0.259031  0.446831  0.559942  1
  O  O52  1  0.159989  0.333599  0.247418  1
  O  O53  1  0.126477  0.299828  0.750208  1
  O  O54  1  0.599422  0.738931  0.254052  1
  O  O55  1  0.477606  0.578090  0.741632  1
  O  O56  1  0.678532  0.761164  0.741721  1
  O  O57  1  0.101202  0.181334  0.561937  1
  O  O58  1  0.107397  0.183400  0.941174  1
  O  O59  1  0.522091  0.560781  0.254169  1
  O  O60  1  0.473206  0.436759  0.748908  1
  O  O61  1  0.914672  0.829244  0.072427  1
  O  O62  1  0.902029  0.818606  0.442017  1
  O  O63  1  0.332855  0.246447  0.249166  1
  O  O64  1  0.507220  0.420013  0.253003  1
  O  O65  1  0.400372  0.263414  0.748061  1
  O  O66  1  0.878459  0.700277  0.254137  1
  O  O67  1  0.843868  0.660751  0.741141  1
  O  O68  1  0.735519  0.548917  0.441507  1
  O  O69  1  0.743447  0.542683  0.071815  1
  O  O70  1  0.341075  0.128109  0.428190  1
  O  O71  1  0.362817  0.132381  0.058640  1
  O  O72  1  0.638092  0.369730  0.561382  1
  O  O73  1  0.632559  0.369809  0.940630  1
  O  O74  1  0.599422  0.238931  0.245948  1
  O  O75  1  0.477606  0.078090  0.758368  1
  O  O76  1  0.678532  0.261164  0.758279  1
  O  O77  1  0.522091  0.060781  0.245831  1
  O  O78  1  0.902029  0.318606  0.057983  1
  O  O79  1  0.914672  0.329244  0.427573  1
  O  O80  1  0.878459  0.200277  0.245863  1
  O  O81  1  0.843868  0.160751  0.758859  1
  O  O82  1  0.735519  0.048917  0.058493  1
  O  O83  1  0.743447  0.042683  0.428185  1
