# generated using pymatgen
data_SiO2
_symmetry_space_group_name_H-M   'P 1'
_cell_length_a   7.58036414
_cell_length_b   16.32130089
_cell_length_c   5.28213722
_cell_angle_alpha   90.00000000
_cell_angle_beta   90.00000000
_cell_angle_gamma   90.00000000
_symmetry_Int_Tables_number   1
_chemical_formula_structural   SiO2
_chemical_formula_sum   'Si12 O24'
_cell_volume   653.51343290
_cell_formula_units_Z   12
loop_
 _symmetry_equiv_pos_site_id
 _symmetry_equiv_pos_as_xyz
  1  'x, y, z'
loop_
 _atom_site_type_symbol
 _atom_site_label
 _atom_site_symmetry_multiplicity
 _atom_site_fract_x
 _atom_site_fract_y
 _atom_site_fract_z
 _atom_site_occupancy
  Si  Si0  1  0.206633  0.196450  0.250000  1
  Si  Si1  1  0.206633  0.803550  0.750000  1
  Si  Si2  1  0.793367  0.196450  0.250000  1
  Si  Si3  1  0.793367  0.803550  0.750000  1
  Si  Si4  1  0.706633  0.696450  0.250000  1
  Si  Si5  1  0.706633  0.303550  0.750000  1
  Si  Si6  1  0.293367  0.696450  0.250000  1
  Si  Si7  1  0.293367  0.303550  0.750000  1
  Si  Si8  1  0.500000  0.056997  0.250000  1
  Si  Si9  1  0.500000  0.943003  0.750000  1
  Si  Si10  1  0.000000  0.556997  0.250000  1
  Si  Si11  1  0.000000  0.443003  0.750000  1
  O  O12  1  0.250000  0.250000  0.500000  1
  O  O13  1  0.250000  0.750000  0.500000  1
  O  O14  1  0.750000  0.250000  0.000000  1
  O  O15  1  0.750000  0.750000  0.000000  1
  O  O16  1  0.750000  0.750000  0.500000  1
  O  O17  1  0.750000  0.250000  0.500000  1
  O  O18  1  0.250000  0.750000  0.000000  1
  O  O19  1  0.250000  0.250000  0.000000  1
  O  O20  1  0.324263  0.113920  0.250000  1
  O  O21  1  0.324263  0.886080  0.750000  1
  O  O22  1  0.675737  0.113920  0.250000  1
  O  O23  1  0.675737  0.886080  0.750000  1
  O  O24  1  0.824263  0.613920  0.250000  1
  O  O25  1  0.824263  0.386080  0.750000  1
  O  O26  1  0.175737  0.613920  0.250000  1
  O  O27  1  0.175737  0.386080  0.750000  1
  O  O28  1  0.000000  0.170619  0.250000  1
  O  O29  1  0.000000  0.829381  0.750000  1
  O  O30  1  0.500000  0.670619  0.250000  1
  O  O31  1  0.500000  0.329381  0.750000  1
  O  O32  1  0.500000  0.000000  0.000000  1
  O  O33  1  0.500000  0.000000  0.500000  1
  O  O34  1  0.000000  0.500000  0.000000  1
  O  O35  1  0.000000  0.500000  0.500000  1
