# generated using pymatgen
data_Ba3Li2Mo4P6(ClO14)2
_symmetry_space_group_name_H-M   'P 1'
_cell_length_a   9.33358678
_cell_length_b   15.93138686
_cell_length_c   18.40249898
_cell_angle_alpha   90.00000000
_cell_angle_beta   90.00000000
_cell_angle_gamma   90.00000000
_symmetry_Int_Tables_number   1
_chemical_formula_structural   Ba3Li2Mo4P6(ClO14)2
_chemical_formula_sum   'Ba12 Li8 Mo16 P24 Cl8 O112'
_cell_volume   2736.39605560
_cell_formula_units_Z   4
loop_
 _symmetry_equiv_pos_site_id
 _symmetry_equiv_pos_as_xyz
  1  'x, y, z'
loop_
 _atom_site_type_symbol
 _atom_site_label
 _atom_site_symmetry_multiplicity
 _atom_site_fract_x
 _atom_site_fract_y
 _atom_site_fract_z
 _atom_site_occupancy
  Ba  Ba0  1  0.992549  0.552509  0.332012  1
  Ba  Ba1  1  0.924019  0.033395  0.434572  1
  Ba  Ba2  1  0.575981  0.966605  0.934572  1
  Ba  Ba3  1  0.007451  0.052509  0.167988  1
  Ba  Ba4  1  0.507451  0.447491  0.832012  1
  Ba  Ba5  1  0.424019  0.466605  0.565428  1
  Ba  Ba6  1  0.560307  0.510199  0.092263  1
  Ba  Ba7  1  0.492549  0.947491  0.667988  1
  Ba  Ba8  1  0.439693  0.010199  0.407737  1
  Ba  Ba9  1  0.075981  0.533395  0.065428  1
  Ba  Ba10  1  0.060307  0.989801  0.907737  1
  Ba  Ba11  1  0.939693  0.489801  0.592263  1
  Li  Li12  1  0.351068  0.947530  0.218021  1
  Li  Li13  1  0.851068  0.552470  0.781980  1
  Li  Li14  1  0.148932  0.052470  0.718020  1
  Li  Li15  1  0.579257  0.088200  0.132635  1
  Li  Li16  1  0.648932  0.447530  0.281979  1
  Li  Li17  1  0.420743  0.588200  0.367365  1
  Li  Li18  1  0.079257  0.411800  0.867365  1
  Li  Li19  1  0.920743  0.911800  0.632635  1
  Mo  Mo20  1  0.284561  0.720362  0.248691  1
  Mo  Mo21  1  0.785865  0.806915  0.251374  1
  Mo  Mo22  1  0.215439  0.279638  0.748691  1
  Mo  Mo23  1  0.282987  0.794795  0.001227  1
  Mo  Mo24  1  0.784561  0.779638  0.751309  1
  Mo  Mo25  1  0.714821  0.294582  0.998650  1
  Mo  Mo26  1  0.717013  0.294795  0.498773  1
  Mo  Mo27  1  0.214821  0.205418  0.001350  1
  Mo  Mo28  1  0.217013  0.205205  0.501227  1
  Mo  Mo29  1  0.782987  0.705205  0.998773  1
  Mo  Mo30  1  0.214135  0.306915  0.248626  1
  Mo  Mo31  1  0.714135  0.193085  0.751374  1
  Mo  Mo32  1  0.285179  0.794582  0.501350  1
  Mo  Mo33  1  0.785179  0.705418  0.498650  1
  Mo  Mo34  1  0.715439  0.220362  0.251309  1
  Mo  Mo35  1  0.285865  0.693085  0.748626  1
  P  P36  1  0.187638  0.995146  0.557777  1
  P  P37  1  0.029152  0.774445  0.376863  1
  P  P38  1  0.461605  0.246385  0.374592  1
  P  P39  1  0.687638  0.504854  0.442223  1
  P  P40  1  0.812362  0.495146  0.942223  1
  P  P41  1  0.464253  0.241167  0.625533  1
  P  P42  1  0.467240  0.270907  0.124687  1
  P  P43  1  0.178563  0.491580  0.730953  1
  P  P44  1  0.964253  0.258833  0.374467  1
  P  P45  1  0.321437  0.508420  0.230953  1
  P  P46  1  0.529152  0.725555  0.623137  1
  P  P47  1  0.038395  0.753615  0.874592  1
  P  P48  1  0.678563  0.008420  0.269047  1
  P  P49  1  0.470848  0.225555  0.876863  1
  P  P50  1  0.967240  0.229093  0.875313  1
  P  P51  1  0.035747  0.758833  0.125533  1
  P  P52  1  0.312362  0.004854  0.057777  1
  P  P53  1  0.532760  0.770907  0.375313  1
  P  P54  1  0.032760  0.729093  0.624687  1
  P  P55  1  0.535747  0.741167  0.874467  1
  P  P56  1  0.821437  0.991580  0.769047  1
  P  P57  1  0.970848  0.274445  0.123137  1
  P  P58  1  0.538395  0.746385  0.125408  1
  P  P59  1  0.961605  0.253615  0.625408  1
  Cl  Cl60  1  0.837732  0.505949  0.187798  1
  Cl  Cl61  1  0.162268  0.005949  0.312202  1
  Cl  Cl62  1  0.836044  0.003920  0.035500  1
  Cl  Cl63  1  0.663956  0.996080  0.535500  1
  Cl  Cl64  1  0.336044  0.496080  0.964500  1
  Cl  Cl65  1  0.337732  0.994051  0.812202  1
  Cl  Cl66  1  0.163956  0.503920  0.464500  1
  Cl  Cl67  1  0.662268  0.494051  0.687798  1
  O  O68  1  0.450416  0.684311  0.822822  1
  O  O69  1  0.439014  0.801040  0.920146  1
  O  O70  1  0.302394  0.690715  0.479744  1
  O  O71  1  0.796868  0.980249  0.850677  1
  O  O72  1  0.874684  0.316878  0.577685  1
  O  O73  1  0.945213  0.705946  0.419683  1
  O  O74  1  0.703132  0.019751  0.350677  1
  O  O75  1  0.566190  0.208403  0.166415  1
  O  O76  1  0.440988  0.830901  0.423297  1
  O  O77  1  0.127632  0.826438  0.426892  1
  O  O78  1  0.624688  0.682638  0.923275  1
  O  O79  1  0.259552  0.688273  0.006736  1
  O  O80  1  0.864957  0.197363  0.331426  1
  O  O81  1  0.639815  0.803522  0.168345  1
  O  O82  1  0.479419  0.495699  0.248408  1
  O  O83  1  0.625316  0.683122  0.077685  1
  O  O84  1  0.531340  0.533378  0.442270  1
  O  O85  1  0.219050  0.439001  0.261444  1
  O  O86  1  0.197852  0.200831  0.232191  1
  O  O87  1  0.875312  0.317362  0.423275  1
  O  O88  1  0.054787  0.205946  0.080317  1
  O  O89  1  0.940988  0.669099  0.576703  1
  O  O90  1  0.560986  0.301040  0.579854  1
  O  O91  1  0.291328  0.926631  0.524390  1
  O  O92  1  0.694011  0.327093  0.260274  1
  O  O93  1  0.298864  0.929200  0.001453  1
  O  O94  1  0.444156  0.803613  0.077467  1
  O  O95  1  0.135043  0.697363  0.168574  1
  O  O96  1  0.072312  0.335695  0.162518  1
  O  O97  1  0.124688  0.817362  0.076725  1
  O  O98  1  0.798864  0.570800  0.998547  1
  O  O99  1  0.791327  0.573369  0.475610  1
  O  O100  1  0.697852  0.299169  0.767809  1
  O  O101  1  0.572312  0.164305  0.837482  1
  O  O102  1  0.780950  0.939001  0.238556  1
  O  O103  1  0.860185  0.196478  0.668345  1
  O  O104  1  0.066190  0.291597  0.833585  1
  O  O105  1  0.805989  0.672907  0.760274  1
  O  O106  1  0.882478  0.172955  0.822876  1
  O  O107  1  0.927688  0.835695  0.337482  1
  O  O108  1  0.375312  0.182638  0.576725  1
  O  O109  1  0.433810  0.708403  0.333585  1
  O  O110  1  0.445213  0.794054  0.580317  1
  O  O111  1  0.617848  0.778958  0.678001  1
  O  O112  1  0.125316  0.816878  0.922315  1
  O  O113  1  0.059012  0.169099  0.923297  1
  O  O114  1  0.520581  0.995699  0.251592  1
  O  O115  1  0.055844  0.196387  0.577467  1
  O  O116  1  0.139815  0.696478  0.831655  1
  O  O117  1  0.979419  0.004301  0.751592  1
  O  O118  1  0.244436  0.018414  0.632704  1
  O  O119  1  0.296868  0.519751  0.149323  1
  O  O120  1  0.117522  0.672955  0.677124  1
  O  O121  1  0.933810  0.791597  0.666415  1
  O  O122  1  0.719050  0.060999  0.738556  1
  O  O123  1  0.755564  0.518414  0.867296  1
  O  O124  1  0.427688  0.664305  0.662518  1
  O  O125  1  0.744436  0.481586  0.367296  1
  O  O126  1  0.627632  0.673562  0.573108  1
  O  O127  1  0.945436  0.809730  0.824145  1
  O  O128  1  0.729712  0.090066  0.225889  1
  O  O129  1  0.201136  0.070800  0.501453  1
  O  O130  1  0.203132  0.480249  0.649323  1
  O  O131  1  0.872368  0.326438  0.073108  1
  O  O132  1  0.240448  0.311727  0.506736  1
  O  O133  1  0.708673  0.426631  0.975610  1
  O  O134  1  0.229712  0.409934  0.774111  1
  O  O135  1  0.635043  0.802637  0.831426  1
  O  O136  1  0.031340  0.966622  0.557730  1
  O  O137  1  0.382478  0.327045  0.177124  1
  O  O138  1  0.302148  0.799169  0.732191  1
  O  O139  1  0.364957  0.302637  0.668574  1
  O  O140  1  0.555844  0.303613  0.422533  1
  O  O141  1  0.468660  0.033378  0.057730  1
  O  O142  1  0.802148  0.700831  0.267809  1
  O  O143  1  0.117848  0.721042  0.321999  1
  O  O144  1  0.131584  0.785447  0.579042  1
  O  O145  1  0.270288  0.590066  0.274111  1
  O  O146  1  0.020581  0.504301  0.748408  1
  O  O147  1  0.374684  0.183122  0.422315  1
  O  O148  1  0.944156  0.696387  0.922533  1
  O  O149  1  0.559012  0.330901  0.076703  1
  O  O150  1  0.868416  0.285447  0.920958  1
  O  O151  1  0.054564  0.309730  0.675855  1
  O  O152  1  0.208673  0.073369  0.024390  1
  O  O153  1  0.280950  0.560999  0.761444  1
  O  O154  1  0.802394  0.809285  0.520256  1
  O  O155  1  0.631584  0.714553  0.420958  1
  O  O156  1  0.445436  0.690270  0.175855  1
  O  O157  1  0.360185  0.303522  0.331655  1
  O  O158  1  0.701136  0.429200  0.498547  1
  O  O159  1  0.554564  0.190270  0.324145  1
  O  O160  1  0.194011  0.172907  0.739726  1
  O  O161  1  0.372368  0.173562  0.926892  1
  O  O162  1  0.770288  0.909934  0.725889  1
  O  O163  1  0.697606  0.190715  0.020256  1
  O  O164  1  0.305989  0.827093  0.239726  1
  O  O165  1  0.197606  0.309285  0.979744  1
  O  O166  1  0.882152  0.221042  0.178001  1
  O  O167  1  0.255564  0.981586  0.132704  1
  O  O168  1  0.049584  0.315689  0.322822  1
  O  O169  1  0.368416  0.214553  0.079042  1
  O  O170  1  0.759552  0.811727  0.993264  1
  O  O171  1  0.060986  0.198960  0.420146  1
  O  O172  1  0.968660  0.466622  0.942270  1
  O  O173  1  0.382152  0.278958  0.821999  1
  O  O174  1  0.740448  0.188273  0.493264  1
  O  O175  1  0.549584  0.184311  0.677178  1
  O  O176  1  0.939014  0.698960  0.079854  1
  O  O177  1  0.617522  0.827045  0.322876  1
  O  O178  1  0.554787  0.294054  0.919683  1
  O  O179  1  0.950416  0.815689  0.177178  1
