# generated using pymatgen
data_SnOs2Ru
_symmetry_space_group_name_H-M   'P 1'
_cell_length_a   4.48248770
_cell_length_b   4.48200937
_cell_length_c   4.48402196
_cell_angle_alpha   60.01376386
_cell_angle_beta   59.97932855
_cell_angle_gamma   60.02459223
_symmetry_Int_Tables_number   1
_chemical_formula_structural   SnOs2Ru
_chemical_formula_sum   'Sn1 Os2 Ru1'
_cell_volume   63.70924963
_cell_formula_units_Z   1
loop_
 _symmetry_equiv_pos_site_id
 _symmetry_equiv_pos_as_xyz
  1  'x, y, z'
loop_
 _atom_site_type_symbol
 _atom_site_label
 _atom_site_symmetry_multiplicity
 _atom_site_fract_x
 _atom_site_fract_y
 _atom_site_fract_z
 _atom_site_occupancy
  Sn  Sn0  1  0.249997  0.249985  0.250028  1
  Os  Os1  1  -0.000075  0.999843  -0.000096  1
  Os  Os2  1  0.750035  0.750040  0.750010  1
  Ru  Ru3  1  0.500042  0.500132  0.500059  1
