# generated using pymatgen
data_CeCu4Sn
_symmetry_space_group_name_H-M   'P 1'
_cell_length_a   5.78285000
_cell_length_b   7.91878525
_cell_length_c   9.17768679
_cell_angle_alpha   90.12410396
_cell_angle_beta   90.06506784
_cell_angle_gamma   90.25212575
_symmetry_Int_Tables_number   1
_chemical_formula_structural   CeCu4Sn
_chemical_formula_sum   'Ce4 Cu16 Sn4'
_cell_volume   420.26983243
_cell_formula_units_Z   4
loop_
 _symmetry_equiv_pos_site_id
 _symmetry_equiv_pos_as_xyz
  1  'x, y, z'
loop_
 _atom_site_type_symbol
 _atom_site_label
 _atom_site_symmetry_multiplicity
 _atom_site_fract_x
 _atom_site_fract_y
 _atom_site_fract_z
 _atom_site_occupancy
  Ce  Ce0  1  0.372210  0.877094  0.973920  1
  Ce  Ce1  1  0.873019  0.124377  0.527564  1
  Ce  Ce2  1  0.126053  0.376608  0.027246  1
  Ce  Ce3  1  0.626309  0.623931  0.473303  1
  Cu  Cu4  1  0.168981  0.143319  0.784334  1
  Cu  Cu5  1  0.826273  0.358085  0.283523  1
  Cu  Cu6  1  0.673661  0.857072  0.715321  1
  Cu  Cu7  1  0.870663  0.669642  0.883619  1
  Cu  Cu8  1  0.474843  0.569053  0.797481  1
  Cu  Cu9  1  0.608444  0.498012  0.055945  1
  Cu  Cu10  1  0.366484  0.333625  0.616143  1
  Cu  Cu11  1  0.388571  0.004568  0.562933  1
  Cu  Cu12  1  0.540266  0.933467  0.302140  1
  Cu  Cu13  1  0.887697  -0.003281  0.939241  1
  Cu  Cu14  1  0.631380  0.170156  0.114711  1
  Cu  Cu15  1  0.137891  0.833950  0.384014  1
  Cu  Cu16  1  0.106463  0.502446  0.441038  1
  Cu  Cu17  1  0.332915  0.642972  0.216948  1
  Cu  Cu18  1  0.022372  0.066201  0.200732  1
  Cu  Cu19  1  0.965132  0.430953  0.700993  1
  Sn  Sn20  1  0.873841  0.745590  0.163444  1
  Sn  Sn21  1  0.132303  0.747100  0.661289  1
  Sn  Sn22  1  0.367215  0.247215  0.337780  1
  Sn  Sn23  1  0.627011  0.247843  0.836337  1
