# generated using pymatgen
data_Cu39S20
_symmetry_space_group_name_H-M   'P 1'
_cell_length_a   39.89206222
_cell_length_b   10.56778530
_cell_length_c   20.68360092
_cell_angle_alpha   28.56409937
_cell_angle_beta   15.07389098
_cell_angle_gamma   39.48175129
_symmetry_Int_Tables_number   1
_chemical_formula_structural   Cu39S20
_chemical_formula_sum   'Cu39 S20'
_cell_volume   856.59026946
_cell_formula_units_Z   1
loop_
 _symmetry_equiv_pos_site_id
 _symmetry_equiv_pos_as_xyz
  1  'x, y, z'
loop_
 _atom_site_type_symbol
 _atom_site_label
 _atom_site_symmetry_multiplicity
 _atom_site_fract_x
 _atom_site_fract_y
 _atom_site_fract_z
 _atom_site_occupancy
  Cu  Cu0  1  0.058282  0.482544  0.291182  1
  Cu  Cu1  1  -0.040735  0.000679  0.344823  1
  Cu  Cu2  1  0.171864  0.473065  0.263409  1
  Cu  Cu3  1  0.101758  0.504758  0.493880  1
  Cu  Cu4  1  0.121848  0.021528  0.242508  1
  Cu  Cu5  1  0.291537  0.527371  0.210162  1
  Cu  Cu6  1  0.050111  -0.003282  0.501789  1
  Cu  Cu7  1  0.144028  0.394511  0.647192  1
  Cu  Cu8  1  0.238875  0.007414  0.227094  1
  Cu  Cu9  1  0.368777  0.519633  0.254266  1
  Cu  Cu10  1  0.088972  0.909728  0.655670  1
  Cu  Cu11  1  0.251455  0.387425  0.647860  1
  Cu  Cu12  1  0.319682  -0.018169  0.260426  1
  Cu  Cu13  1  0.479461  0.541826  0.222981  1
  Cu  Cu14  1  0.248633  -0.003111  0.501398  1
  Cu  Cu15  1  0.422320  0.469539  0.488816  1
  Cu  Cu16  1  0.435062  0.001436  0.225696  1
  Cu  Cu17  1  0.678267  0.683622  -0.030296  1
  Cu  Cu18  1  0.351299  0.004103  0.495614  1
  Cu  Cu19  1  0.498885  0.474584  0.489184  1
  Cu  Cu20  1  0.538430  -0.002687  0.228060  1
  Cu  Cu21  1  0.678296  0.534654  0.225777  1
  Cu  Cu22  1  0.453387  0.011190  0.489216  1
  Cu  Cu23  1  0.601012  0.504095  0.496095  1
  Cu  Cu24  1  0.636955  0.018884  0.225866  1
  Cu  Cu25  1  0.761816  0.465500  0.294134  1
  Cu  Cu26  1  0.545367  0.091451  0.473018  1
  Cu  Cu27  1  0.739438  0.532127  0.430602  1
  Cu  Cu28  1  0.725800  -0.005434  0.242150  1
  Cu  Cu29  1  0.867709  0.314897  0.338776  1
  Cu  Cu30  1  0.652881  0.012225  0.487121  1
  Cu  Cu31  1  0.820205  0.531680  0.424885  1
  Cu  Cu32  1  0.814661  -0.022929  0.284655  1
  Cu  Cu33  1  0.791646  0.000323  0.433708  1
  Cu  Cu34  1  0.956566  0.461483  0.304150  1
  Cu  Cu35  1  0.913702  0.614561  0.420770  1
  Cu  Cu36  1  0.895304  -0.001671  0.346722  1
  Cu  Cu37  1  0.018624  0.613592  0.423417  1
  Cu  Cu38  1  0.975002  0.008490  0.428709  1
  S  S39  1  0.007885  0.011768  -0.016272  1
  S  S40  1  0.105829  0.998419  0.989502  1
  S  S41  1  0.049577  0.501544  0.004616  1
  S  S42  1  0.195715  0.983517  0.012089  1
  S  S43  1  0.152253  0.512232  -0.009273  1
  S  S44  1  0.302628  0.017366  0.986693  1
  S  S45  1  0.249038  0.499545  -0.000862  1
  S  S46  1  0.410377  0.013722  -0.024891  1
  S  S47  1  0.341324  0.494357  0.020445  1
  S  S48  1  0.492873  0.005171  0.008661  1
  S  S49  1  0.451501  0.493640  0.003802  1
  S  S50  1  0.592816  0.995365  0.016721  1
  S  S51  1  0.542763  0.479022  0.024155  1
  S  S52  1  0.692483  0.989602  0.023992  1
  S  S53  1  0.641941  0.492195  0.015977  1
  S  S54  1  0.799761  -0.018412  0.007050  1
  S  S55  1  0.746538  0.471918  0.021303  1
  S  S56  1  0.892049  0.978519  0.025588  1
  S  S57  1  0.855915  0.495642  -0.009942  1
  S  S58  1  0.959553  0.523235  0.969163  1
