# generated using pymatgen
data_U6Fe16Si7C
_symmetry_space_group_name_H-M   'P 1'
_cell_length_a   8.18249816
_cell_length_b   8.18159895
_cell_length_c   8.18233981
_cell_angle_alpha   60.00115497
_cell_angle_beta   60.00531968
_cell_angle_gamma   60.00341936
_symmetry_Int_Tables_number   1
_chemical_formula_structural   U6Fe16Si7C
_chemical_formula_sum   'U6 Fe16 Si7 C1'
_cell_volume   387.36384960
_cell_formula_units_Z   1
loop_
 _symmetry_equiv_pos_site_id
 _symmetry_equiv_pos_as_xyz
  1  'x, y, z'
loop_
 _atom_site_type_symbol
 _atom_site_label
 _atom_site_symmetry_multiplicity
 _atom_site_fract_x
 _atom_site_fract_y
 _atom_site_fract_z
 _atom_site_occupancy
  U  U0  1  0.713945  0.285981  0.713964  1
  U  U1  1  0.713932  0.285987  0.286101  1
  U  U2  1  0.286050  0.713915  0.286029  1
  U  U3  1  0.713968  0.713943  0.286039  1
  U  U4  1  0.286120  0.285964  0.713937  1
  U  U5  1  0.286054  0.713935  0.713978  1
  Fe  Fe6  1  0.367527  0.877465  0.877490  1
  Fe  Fe7  1  0.325147  0.325097  0.325097  1
  Fe  Fe8  1  0.325120  0.325127  0.024608  1
  Fe  Fe9  1  0.674809  0.674858  0.975342  1
  Fe  Fe10  1  0.024563  0.325063  0.325140  1
  Fe  Fe11  1  0.325032  0.024680  0.325127  1
  Fe  Fe12  1  0.674890  0.975252  0.674876  1
  Fe  Fe13  1  0.122449  0.122503  0.632513  1
  Fe  Fe14  1  0.975422  0.674885  0.674827  1
  Fe  Fe15  1  0.122455  0.122508  0.122495  1
  Fe  Fe16  1  0.877505  0.877472  0.367501  1
  Fe  Fe17  1  0.632489  0.122508  0.122476  1
  Fe  Fe18  1  0.122432  0.632578  0.122473  1
  Fe  Fe19  1  0.674820  0.674932  0.674963  1
  Fe  Fe20  1  0.877539  0.877514  0.877520  1
  Fe  Fe21  1  0.877511  0.367431  0.877510  1
  Si  Si22  1  0.000012  0.500093  -0.000017  1
  Si  Si23  1  0.000007  0.000013  0.000000  1
  Si  Si24  1  0.500084  0.000014  0.999904  1
  Si  Si25  1  0.500081  0.000024  0.500072  1
  Si  Si26  1  0.999948  0.000032  0.500045  1
  Si  Si27  1  0.000032  0.500073  0.499989  1
  Si  Si28  1  0.500016  0.500094  -0.000007  1
  C  C29  1  0.500039  0.500060  0.500008  1
