# generated using pymatgen
data_CuO2
_symmetry_space_group_name_H-M   'P 1'
_cell_length_a   2.75076384
_cell_length_b   6.86787427
_cell_length_c   11.14573025
_cell_angle_alpha   90.08820344
_cell_angle_beta   89.32856702
_cell_angle_gamma   101.59866243
_symmetry_Int_Tables_number   1
_chemical_formula_structural   CuO2
_chemical_formula_sum   'Cu2 O4'
_cell_volume   206.25005945
_cell_formula_units_Z   2
loop_
 _symmetry_equiv_pos_site_id
 _symmetry_equiv_pos_as_xyz
  1  'x, y, z'
loop_
 _atom_site_type_symbol
 _atom_site_label
 _atom_site_symmetry_multiplicity
 _atom_site_fract_x
 _atom_site_fract_y
 _atom_site_fract_z
 _atom_site_occupancy
  Cu  Cu0  1  0.875991  0.999283  0.751160  1
  Cu  Cu1  1  0.123455  0.001815  0.250426  1
  O  O2  1  0.368729  0.995555  0.857544  1
  O  O3  1  0.619774  0.003075  0.356951  1
  O  O4  1  0.626442  0.997110  0.143991  1
  O  O5  1  0.384513  0.005030  0.644666  1
