# generated using pymatgen
data_K3UO2F5
_symmetry_space_group_name_H-M   'P 1'
_cell_length_a   9.30299883
_cell_length_b   9.30299883
_cell_length_c   11.33049732
_cell_angle_alpha   114.23807939
_cell_angle_beta   114.23807942
_cell_angle_gamma   90.00000000
_symmetry_Int_Tables_number   1
_chemical_formula_structural   K3UO2F5
_chemical_formula_sum   'K12 U4 O8 F20'
_cell_volume   798.41608503
_cell_formula_units_Z   4
loop_
 _symmetry_equiv_pos_site_id
 _symmetry_equiv_pos_as_xyz
  1  'x, y, z'
loop_
 _atom_site_type_symbol
 _atom_site_label
 _atom_site_symmetry_multiplicity
 _atom_site_fract_x
 _atom_site_fract_y
 _atom_site_fract_z
 _atom_site_occupancy
  O  O0  1  0.649925  0.161078  0.210534  1
  O  O1  1  0.049456  0.149925  0.710534  1
  O  O2  1  0.661078  0.060609  0.710534  1
  O  O3  1  0.560609  0.549456  0.210534  1
  O  O4  1  0.350075  0.838922  0.789466  1
  O  O5  1  0.950544  0.850075  0.289466  1
  O  O6  1  0.338922  0.939391  0.289466  1
  O  O7  1  0.439391  0.450544  0.789466  1
  F  F8  1  0.126456  0.553041  0.710063  1
  F  F9  1  0.157022  0.626456  0.210063  1
  F  F10  1  0.053041  0.083607  0.210063  1
  F  F11  1  0.583607  0.657022  0.710063  1
  F  F12  1  0.873544  0.446959  0.289937  1
  F  F13  1  0.842978  0.373544  0.789937  1
  F  F14  1  0.946959  0.916393  0.789937  1
  F  F15  1  0.416393  0.342978  0.289937  1
  F  F16  1  0.270011  0.520011  0.540022  1
  F  F17  1  0.020011  0.770011  0.040022  1
  F  F18  1  0.729989  0.479989  0.459978  1
  F  F19  1  0.979989  0.229989  0.959978  1
  F  F20  1  0.364187  0.236830  0.013157  1
  F  F21  1  0.776327  0.864187  0.513157  1
  F  F22  1  0.736830  0.148970  0.513157  1
  F  F23  1  0.648970  0.276327  0.013157  1
  F  F24  1  0.635813  0.763170  0.986843  1
  F  F25  1  0.223673  0.135813  0.486843  1
  F  F26  1  0.263170  0.851030  0.486843  1
  F  F27  1  0.351030  0.723673  0.986843  1
  K  K28  1  0.205069  0.472778  0.977697  1
  K  K29  1  0.504918  0.705069  0.477697  1
  K  K30  1  0.972778  0.272628  0.477697  1
  K  K31  1  0.772628  0.004918  0.977697  1
  K  K32  1  0.794931  0.527222  0.022303  1
  K  K33  1  0.495082  0.294931  0.522303  1
  K  K34  1  0.027222  0.727372  0.522303  1
  K  K35  1  0.227372  0.995082  0.022303  1
  K  K36  1  0.375000  0.125000  0.750000  1
  K  K37  1  0.625000  0.875000  0.250000  1
  K  K38  1  0.875000  0.625000  0.750000  1
  K  K39  1  0.125000  0.375000  0.250000  1
  U  U40  1  0.855732  0.105732  0.711465  1
  U  U41  1  0.605732  0.355732  0.211465  1
  U  U42  1  0.144268  0.894268  0.288535  1
  U  U43  1  0.394268  0.644268  0.788535  1
