# generated using pymatgen
data_Cu2BiPO6
_symmetry_space_group_name_H-M   'P 1'
_cell_length_a   5.17404924
_cell_length_b   7.88532363
_cell_length_c   12.03175454
_cell_angle_alpha   90.04746652
_cell_angle_beta   90.00005303
_cell_angle_gamma   90.00004566
_symmetry_Int_Tables_number   1
_chemical_formula_structural   Cu2BiPO6
_chemical_formula_sum   'Cu8 Bi4 P4 O24'
_cell_volume   490.88401918
_cell_formula_units_Z   4
loop_
 _symmetry_equiv_pos_site_id
 _symmetry_equiv_pos_as_xyz
  1  'x, y, z'
loop_
 _atom_site_type_symbol
 _atom_site_label
 _atom_site_symmetry_multiplicity
 _atom_site_fract_x
 _atom_site_fract_y
 _atom_site_fract_z
 _atom_site_occupancy
  Cu  Cu0  1  0.249996  0.683474  0.930715  1
  Cu  Cu1  1  0.749998  0.812103  0.588487  1
  Cu  Cu2  1  0.750003  0.183419  0.569075  1
  Cu  Cu3  1  0.749999  0.688016  0.088479  1
  Cu  Cu4  1  0.250000  0.311937  0.911566  1
  Cu  Cu5  1  0.249999  0.187967  0.411462  1
  Cu  Cu6  1  0.250004  0.816651  0.430932  1
  Cu  Cu7  1  0.750000  0.316523  0.069177  1
  Bi  Bi8  1  0.750000  0.527496  0.388781  1
  Bi  Bi9  1  0.250000  0.472528  0.611231  1
  Bi  Bi10  1  0.750001  0.972453  0.888794  1
  Bi  Bi11  1  0.249999  0.027482  0.111194  1
  P  P12  1  0.249999  0.037372  0.697078  1
  P  P13  1  0.750001  0.962635  0.302907  1
  P  P14  1  0.250000  0.462845  0.197121  1
  P  P15  1  0.750001  0.537186  0.802896  1
  O  O16  1  0.749999  0.419621  0.701822  1
  O  O17  1  -0.000010  0.506776  0.874675  1
  O  O18  1  0.250000  0.274695  0.232919  1
  O  O19  1  0.000038  0.993192  0.374686  1
  O  O20  1  0.750000  0.774566  0.267006  1
  O  O21  1  0.997660  0.822991  0.006313  1
  O  O22  1  0.500017  0.493206  0.125328  1
  O  O23  1  0.500011  0.506776  0.874675  1
  O  O24  1  0.002194  0.322981  0.493696  1
  O  O25  1  0.750000  0.725327  0.767076  1
  O  O26  1  0.250000  0.225414  0.732983  1
  O  O27  1  -0.000017  0.493206  0.125329  1
  O  O28  1  0.750000  0.080306  0.201917  1
  O  O29  1  0.497805  0.322981  0.493696  1
  O  O30  1  0.500078  0.006819  0.625317  1
  O  O31  1  0.497759  0.176967  0.993710  1
  O  O32  1  0.502340  0.822992  0.006314  1
  O  O33  1  0.502240  0.677037  0.506323  1
  O  O34  1  0.250000  0.919676  0.798101  1
  O  O35  1  0.002241  0.176968  0.993711  1
  O  O36  1  0.250000  0.580365  0.298182  1
  O  O37  1  -0.000077  0.006819  0.625317  1
  O  O38  1  0.997760  0.677038  0.506323  1
  O  O39  1  0.499963  0.993192  0.374686  1
