# generated using pymatgen
data_K4Mn2H16S4O23
_symmetry_space_group_name_H-M   'P 1'
_cell_length_a   8.10461930
_cell_length_b   7.95087640
_cell_length_c   9.75678225
_cell_angle_alpha   86.59822018
_cell_angle_beta   86.27124845
_cell_angle_gamma   80.79852096
_symmetry_Int_Tables_number   1
_chemical_formula_structural   K4Mn2H16S4O23
_chemical_formula_sum   'K4 Mn2 H16 S4 O23'
_cell_volume   618.54680209
_cell_formula_units_Z   1
loop_
 _symmetry_equiv_pos_site_id
 _symmetry_equiv_pos_as_xyz
  1  'x, y, z'
loop_
 _atom_site_type_symbol
 _atom_site_label
 _atom_site_symmetry_multiplicity
 _atom_site_fract_x
 _atom_site_fract_y
 _atom_site_fract_z
 _atom_site_occupancy
  K  K0  1  0.090977  0.607485  0.250361  1
  K  K1  1  0.580248  0.090099  0.272855  1
  K  K2  1  0.408019  0.911604  0.743861  1
  K  K3  1  0.899610  0.418287  0.771508  1
  Mn  Mn4  1  0.998432  0.003013  0.007305  1
  Mn  Mn5  1  0.495479  0.494128  0.499468  1
  H  H6  1  0.094007  0.028444  0.300756  1
  H  H7  1  0.077912  0.078863  0.715776  1
  H  H8  1  0.170983  0.662412  0.619510  1
  H  H9  1  0.263114  0.559899  0.741035  1
  H  H10  1  0.233331  0.655320  0.967413  1
  H  H11  1  0.345894  0.771228  0.034400  1
  H  H12  1  0.335690  0.832775  0.378723  1
  H  H13  1  0.441609  0.734462  0.260381  1
  H  H14  1  0.564029  0.268559  0.742229  1
  H  H15  1  0.664682  0.173605  0.621341  1
  H  H16  1  0.651931  0.225283  0.971175  1
  H  H17  1  0.760292  0.342013  0.042506  1
  H  H18  1  0.744019  0.442763  0.257205  1
  H  H19  1  0.817915  0.338972  0.386966  1
  H  H20  1  0.929987  0.935369  0.293110  1
  H  H21  1  0.956110  0.941103  0.699613  1
  S  S22  1  0.232752  0.260130  0.389473  1
  S  S23  1  0.261330  0.267437  0.885666  1
  S  S24  1  0.737772  0.738389  0.111562  1
  S  S25  1  0.754587  0.756432  0.606198  1
  O  O26  1  0.003930  0.003743  0.239780  1
  O  O27  1  0.168752  0.171522  0.992153  1
  O  O28  1  0.215212  0.228612  0.746560  1
  O  O29  1  0.243336  0.062077  0.397975  1
  O  O30  1  0.211852  0.455148  0.902115  1
  O  O31  1  0.282139  0.311180  0.242393  1
  O  O32  1  0.233782  0.771038  0.000582  1
  O  O33  1  0.382581  0.289211  0.472716  1
  O  O34  1  0.283900  0.628187  0.654207  1
  O  O35  1  0.369426  0.716193  0.344493  1
  O  O36  1  0.445580  0.214689  0.896690  1
  O  O37  1  0.554036  0.787257  0.095339  1
  O  O38  1  0.640472  0.287463  0.660690  1
  O  O39  1  0.714836  0.368827  0.338608  1
  O  O40  1  0.763149  0.227792  0.005703  1
  O  O41  1  0.665771  0.653566  0.520299  1
  O  O42  1  0.707153  0.718367  0.752849  1
  O  O43  1  0.790667  0.549375  0.099264  1
  O  O44  1  0.703056  0.941475  0.568714  1
  O  O45  1  0.777715  0.784350  0.249367  1
  O  O46  1  0.833773  0.829859  0.003667  1
  O  O47  1  0.939569  0.706566  0.578705  1
  O  O48  1  0.004004  0.006227  0.765430  1
