# generated using pymatgen
data_Np2InPt2
_symmetry_space_group_name_H-M   'P 1'
_cell_length_a   3.65054954
_cell_length_b   7.71056590
_cell_length_c   7.67950283
_cell_angle_alpha   90.17180138
_cell_angle_beta   90.00000783
_cell_angle_gamma   89.99949874
_symmetry_Int_Tables_number   1
_chemical_formula_structural   Np2InPt2
_chemical_formula_sum   'Np4 In2 Pt4'
_cell_volume   216.16015972
_cell_formula_units_Z   2
loop_
 _symmetry_equiv_pos_site_id
 _symmetry_equiv_pos_as_xyz
  1  'x, y, z'
loop_
 _atom_site_type_symbol
 _atom_site_label
 _atom_site_symmetry_multiplicity
 _atom_site_fract_x
 _atom_site_fract_y
 _atom_site_fract_z
 _atom_site_occupancy
  Np  Np0  1  0.500005  0.830796  0.331170  1
  Np  Np1  1  0.499996  0.669524  0.830944  1
  Np  Np2  1  0.500005  0.330261  0.169343  1
  Np  Np3  1  0.500000  0.168570  0.668338  1
  In  In4  1  0.000000  0.000504  -0.000258  1
  In  In5  1  0.000002  0.499814  0.500041  1
  Pt  Pt6  1  0.000010  0.133885  0.371306  1
  Pt  Pt7  1  0.000003  0.632946  0.128833  1
  Pt  Pt8  1  0.999990  0.366523  0.863362  1
  Pt  Pt9  1  0.999989  0.867177  0.636921  1
