# generated using pymatgen
data_Li2Fe3(P2O7)2
_symmetry_space_group_name_H-M   'P 1'
_cell_length_a   7.66326254
_cell_length_b   7.74347205
_cell_length_c   10.88249000
_cell_angle_alpha   90.00000000
_cell_angle_beta   110.00997990
_cell_angle_gamma   90.00000000
_symmetry_Int_Tables_number   1
_chemical_formula_structural   Li2Fe3(P2O7)2
_chemical_formula_sum   'Li4 Fe6 P8 O28'
_cell_volume   606.78661501
_cell_formula_units_Z   2
loop_
 _symmetry_equiv_pos_site_id
 _symmetry_equiv_pos_as_xyz
  1  'x, y, z'
loop_
 _atom_site_type_symbol
 _atom_site_label
 _atom_site_symmetry_multiplicity
 _atom_site_fract_x
 _atom_site_fract_y
 _atom_site_fract_z
 _atom_site_occupancy
  Li  Li0  1  0.522995  0.598881  0.763416  1
  Li  Li1  1  0.477005  0.401119  0.236584  1
  Li  Li2  1  0.022995  0.901119  0.263416  1
  Li  Li3  1  0.977005  0.098881  0.736584  1
  Fe  Fe4  1  0.048819  0.799132  0.543256  1
  Fe  Fe5  1  0.951181  0.200868  0.456744  1
  Fe  Fe6  1  0.451181  0.299132  0.956744  1
  Fe  Fe7  1  0.548819  0.700868  0.043256  1
  Fe  Fe8  1  0.000000  0.000000  0.000000  1
  Fe  Fe9  1  0.500000  0.500000  0.500000  1
  P  P10  1  0.149154  0.266913  0.284708  1
  P  P11  1  0.850846  0.733087  0.715292  1
  P  P12  1  0.847939  0.551207  0.300613  1
  P  P13  1  0.152061  0.448793  0.699387  1
  P  P14  1  0.652061  0.051207  0.199387  1
  P  P15  1  0.649154  0.233087  0.784708  1
  P  P16  1  0.347939  0.948793  0.800613  1
  P  P17  1  0.350846  0.766913  0.215292  1
  O  O18  1  0.234000  0.425681  0.847390  1
  O  O19  1  0.494150  0.109257  0.825778  1
  O  O20  1  0.785246  0.991662  0.131803  1
  O  O21  1  0.963220  0.712811  0.363573  1
  O  O22  1  0.093998  0.240618  0.139740  1
  O  O23  1  0.463220  0.787189  0.863573  1
  O  O24  1  0.832962  0.136571  0.847133  1
  O  O25  1  0.536780  0.212811  0.136427  1
  O  O26  1  0.285246  0.508338  0.631803  1
  O  O27  1  0.332962  0.363429  0.347133  1
  O  O28  1  0.906002  0.759382  0.860260  1
  O  O29  1  0.593998  0.259382  0.639740  1
  O  O30  1  0.868838  0.892682  0.634407  1
  O  O31  1  0.266000  0.925681  0.652610  1
  O  O32  1  0.005850  0.609257  0.674222  1
  O  O33  1  0.667038  0.636571  0.652867  1
  O  O34  1  0.734000  0.074319  0.347390  1
  O  O35  1  0.368838  0.607318  0.134407  1
  O  O36  1  0.994150  0.390743  0.325778  1
  O  O37  1  0.036780  0.287189  0.636427  1
  O  O38  1  0.766000  0.574319  0.152610  1
  O  O39  1  0.631162  0.392682  0.865593  1
  O  O40  1  0.167038  0.863429  0.152867  1
  O  O41  1  0.406002  0.740618  0.360260  1
  O  O42  1  0.505850  0.890743  0.174222  1
  O  O43  1  0.214754  0.008338  0.868197  1
  O  O44  1  0.131162  0.107318  0.365593  1
  O  O45  1  0.714754  0.491662  0.368197  1
