# generated using pymatgen
data_ScP3(HO2)6
_symmetry_space_group_name_H-M   'P 1'
_cell_length_a   10.09437038
_cell_length_b   10.09437038
_cell_length_c   10.09437034
_cell_angle_alpha   48.64910845
_cell_angle_beta   48.64910845
_cell_angle_gamma   48.64910933
_symmetry_Int_Tables_number   1
_chemical_formula_structural   ScP3(HO2)6
_chemical_formula_sum   'Sc2 P6 H12 O24'
_cell_volume   531.77848918
_cell_formula_units_Z   2
loop_
 _symmetry_equiv_pos_site_id
 _symmetry_equiv_pos_as_xyz
  1  'x, y, z'
loop_
 _atom_site_type_symbol
 _atom_site_label
 _atom_site_symmetry_multiplicity
 _atom_site_fract_x
 _atom_site_fract_y
 _atom_site_fract_z
 _atom_site_occupancy
  Sc  Sc0  1  0.918545  0.918545  0.918545  1
  Sc  Sc1  1  0.418545  0.418545  0.418545  1
  P  P2  1  0.518606  0.821730  0.166052  1
  P  P3  1  0.821730  0.166052  0.518606  1
  P  P4  1  0.166052  0.518606  0.821730  1
  P  P5  1  0.018606  0.666052  0.321730  1
  P  P6  1  0.666052  0.321730  0.018606  1
  P  P7  1  0.321730  0.018606  0.666052  1
  H  H8  1  0.226633  0.921315  0.378486  1
  H  H9  1  0.921315  0.378486  0.226633  1
  H  H10  1  0.378486  0.226633  0.921315  1
  H  H11  1  0.726633  0.878486  0.421315  1
  H  H12  1  0.878486  0.421315  0.726633  1
  H  H13  1  0.421315  0.726633  0.878486  1
  H  H14  1  0.433216  0.985384  0.407532  1
  H  H15  1  0.985384  0.407532  0.433216  1
  H  H16  1  0.407532  0.433216  0.985384  1
  H  H17  1  0.933216  0.907532  0.485384  1
  H  H18  1  0.907532  0.485384  0.933216  1
  H  H19  1  0.485384  0.933216  0.907532  1
  O  O20  1  0.703670  0.813834  0.107853  1
  O  O21  1  0.813834  0.107853  0.703670  1
  O  O22  1  0.107853  0.703670  0.813834  1
  O  O23  1  0.203670  0.607853  0.313834  1
  O  O24  1  0.607853  0.313834  0.203670  1
  O  O25  1  0.313834  0.203670  0.607853  1
  O  O26  1  0.524190  0.633726  0.234072  1
  O  O27  1  0.633726  0.234072  0.524190  1
  O  O28  1  0.234072  0.524190  0.633726  1
  O  O29  1  0.024190  0.734072  0.133726  1
  O  O30  1  0.734072  0.133726  0.024190  1
  O  O31  1  0.133726  0.024190  0.734072  1
  O  O32  1  0.356987  0.916870  0.319322  1
  O  O33  1  0.916870  0.319322  0.356987  1
  O  O34  1  0.319322  0.356987  0.916870  1
  O  O35  1  0.856987  0.819322  0.416870  1
  O  O36  1  0.819322  0.416870  0.856987  1
  O  O37  1  0.416870  0.856987  0.819322  1
  O  O38  1  0.448684  0.981862  0.990134  1
  O  O39  1  0.981862  0.990134  0.448684  1
  O  O40  1  0.990134  0.448684  0.981862  1
  O  O41  1  0.948684  0.490134  0.481862  1
  O  O42  1  0.490134  0.481862  0.948684  1
  O  O43  1  0.481862  0.948684  0.490134  1
