# generated using pymatgen
data_NaP3(PbO3)4
_symmetry_space_group_name_H-M   'P 1'
_cell_length_a   9.85850913
_cell_length_b   9.85850950
_cell_length_c   7.33864118
_cell_angle_alpha   90.00000000
_cell_angle_beta   90.00000000
_cell_angle_gamma   119.99999872
_symmetry_Int_Tables_number   1
_chemical_formula_structural   NaP3(PbO3)4
_chemical_formula_sum   'Na2 P6 Pb8 O24'
_cell_volume   617.68747244
_cell_formula_units_Z   2
loop_
 _symmetry_equiv_pos_site_id
 _symmetry_equiv_pos_as_xyz
  1  'x, y, z'
loop_
 _atom_site_type_symbol
 _atom_site_label
 _atom_site_symmetry_multiplicity
 _atom_site_fract_x
 _atom_site_fract_y
 _atom_site_fract_z
 _atom_site_occupancy
  Na  Na0  1  0.333333  0.666667  0.508184  1
  Na  Na1  1  0.666667  0.333333  0.008184  1
  P  P2  1  0.020582  0.395545  0.251354  1
  P  P3  1  0.374963  0.979418  0.251354  1
  P  P4  1  0.395545  0.374963  0.751354  1
  P  P5  1  0.604455  0.625037  0.251354  1
  P  P6  1  0.625037  0.020582  0.751354  1
  P  P7  1  0.979418  0.604455  0.751354  1
  Pb  Pb8  1  0.258640  0.002266  0.749489  1
  Pb  Pb9  1  0.997734  0.256373  0.749489  1
  Pb  Pb10  1  0.333333  0.666667  0.987460  1
  Pb  Pb11  1  0.256373  0.258640  0.249489  1
  Pb  Pb12  1  0.743627  0.741360  0.749489  1
  Pb  Pb13  1  0.666667  0.333333  0.487460  1
  Pb  Pb14  1  0.002266  0.743627  0.249489  1
  Pb  Pb15  1  0.741360  0.997734  0.249489  1
  O  O16  1  0.265958  0.918528  0.079866  1
  O  O17  1  0.262742  0.922877  0.418742  1
  O  O18  1  0.104095  0.579355  0.255030  1
  O  O19  1  0.159101  0.677473  0.746971  1
  O  O20  1  0.081472  0.347430  0.079866  1
  O  O21  1  0.077123  0.339865  0.418742  1
  O  O22  1  0.475260  0.895905  0.255030  1
  O  O23  1  0.322527  0.481628  0.746971  1
  O  O24  1  0.518372  0.840899  0.746971  1
  O  O25  1  0.420645  0.524740  0.255030  1
  O  O26  1  0.347430  0.265958  0.579866  1
  O  O27  1  0.339865  0.262742  0.918742  1
  O  O28  1  0.652570  0.734042  0.079866  1
  O  O29  1  0.660135  0.737258  0.418742  1
  O  O30  1  0.579355  0.475260  0.755030  1
  O  O31  1  0.481628  0.159101  0.246971  1
  O  O32  1  0.677473  0.518372  0.246971  1
  O  O33  1  0.524740  0.104095  0.755030  1
  O  O34  1  0.918528  0.652570  0.579866  1
  O  O35  1  0.922877  0.660135  0.918742  1
  O  O36  1  0.840899  0.322527  0.246971  1
  O  O37  1  0.895905  0.420645  0.755030  1
  O  O38  1  0.734042  0.081472  0.579866  1
  O  O39  1  0.737258  0.077123  0.918742  1
