# generated using pymatgen
data_U4Ga12Co
_symmetry_space_group_name_H-M   'P 1'
_cell_length_a   7.41172169
_cell_length_b   7.41172980
_cell_length_c   7.41170040
_cell_angle_alpha   109.47157930
_cell_angle_beta   109.47118384
_cell_angle_gamma   109.47129662
_symmetry_Int_Tables_number   1
_chemical_formula_structural   U4Ga12Co
_chemical_formula_sum   'U4 Ga12 Co1'
_cell_volume   313.42419117
_cell_formula_units_Z   1
loop_
 _symmetry_equiv_pos_site_id
 _symmetry_equiv_pos_as_xyz
  1  'x, y, z'
loop_
 _atom_site_type_symbol
 _atom_site_label
 _atom_site_symmetry_multiplicity
 _atom_site_fract_x
 _atom_site_fract_y
 _atom_site_fract_z
 _atom_site_occupancy
  U  U0  1  -0.000001  0.999999  0.499997  1
  U  U1  1  0.000003  0.500004  0.000001  1
  U  U2  1  0.499999  0.499999  0.500002  1
  U  U3  1  0.500001  0.000001  0.000001  1
  Ga  Ga4  1  0.749997  0.249997  0.499994  1
  Ga  Ga5  1  0.281587  -0.000000  0.281580  1
  Ga  Ga6  1  0.718414  0.718419  0.999999  1
  Ga  Ga7  1  0.000004  0.718417  0.718419  1
  Ga  Ga8  1  0.250003  0.500007  0.750003  1
  Ga  Ga9  1  0.499999  0.750002  0.249997  1
  Ga  Ga10  1  0.250003  0.750002  0.500005  1
  Ga  Ga11  1  0.500001  0.249998  0.750003  1
  Ga  Ga12  1  0.999994  0.281581  0.281580  1
  Ga  Ga13  1  0.749996  0.499993  0.249996  1
  Ga  Ga14  1  0.281586  0.281581  0.000002  1
  Ga  Ga15  1  0.718413  0.999999  0.718420  1
  Co  Co16  1  0.000000  0.000000  0.000000  1
