# generated using pymatgen
data_Te16Rh11
_symmetry_space_group_name_H-M   'P 1'
_cell_length_a   24.22882269
_cell_length_b   13.12140933
_cell_length_c   7.38311461
_cell_angle_alpha   70.45767692
_cell_angle_beta   50.84058113
_cell_angle_gamma   27.42905284
_symmetry_Int_Tables_number   1
_chemical_formula_structural   Te16Rh11
_chemical_formula_sum   'Te16 Rh11'
_cell_volume   649.25047170
_cell_formula_units_Z   1
loop_
 _symmetry_equiv_pos_site_id
 _symmetry_equiv_pos_as_xyz
  1  'x, y, z'
loop_
 _atom_site_type_symbol
 _atom_site_label
 _atom_site_symmetry_multiplicity
 _atom_site_fract_x
 _atom_site_fract_y
 _atom_site_fract_z
 _atom_site_occupancy
  Te  Te0  1  0.851370  0.221987  0.346058  1
  Te  Te1  1  0.336434  0.629649  0.714916  1
  Te  Te2  1  0.081023  0.289645  0.280162  1
  Te  Te3  1  0.973782  0.316995  0.068849  1
  Te  Te4  1  0.486657  0.644372  0.005834  1
  Te  Te5  1  0.834614  0.436470  0.739515  1
  Te  Te6  1  0.372651  0.001058  0.476013  1
  Te  Te7  1  0.441449  0.004813  0.793065  1
  Te  Te8  1  0.558817  -0.005199  0.206285  1
  Te  Te9  1  0.627259  -0.000982  0.524098  1
  Te  Te10  1  0.165432  0.563288  0.260525  1
  Te  Te11  1  0.513059  0.356226  -0.005789  1
  Te  Te12  1  0.026414  0.682649  0.931237  1
  Te  Te13  1  0.918370  0.711318  0.721044  1
  Te  Te14  1  0.663549  0.370474  0.285027  1
  Te  Te15  1  0.148669  0.777843  0.654069  1
  Rh  Rh16  1  0.352058  0.750433  0.918187  1
  Rh  Rh17  1  0.254548  0.130289  0.295359  1
  Rh  Rh18  1  0.499926  0.999927  0.000156  1
  Rh  Rh19  1  0.043971  0.044755  0.302828  1
  Rh  Rh20  1  0.288046  0.409946  0.758179  1
  Rh  Rh21  1  0.647835  0.249801  0.081705  1
  Rh  Rh22  1  0.333544  0.841816  0.532455  1
  Rh  Rh23  1  0.666558  0.158103  0.467143  1
  Rh  Rh24  1  0.712312  0.589498  0.241437  1
  Rh  Rh25  1  0.956136  0.954897  0.697254  1
  Rh  Rh26  1  0.745517  0.869929  0.704387  1
