# generated using pymatgen
data_H5IO6
_symmetry_space_group_name_H-M   'P 1'
_cell_length_a   5.52863514
_cell_length_b   18.69340865
_cell_length_c   4.94905304
_cell_angle_alpha   89.23364717
_cell_angle_beta   111.84889903
_cell_angle_gamma   91.62775248
_symmetry_Int_Tables_number   1
_chemical_formula_structural   H5IO6
_chemical_formula_sum   'H20 I4 O24'
_cell_volume   474.54578166
_cell_formula_units_Z   4
loop_
 _symmetry_equiv_pos_site_id
 _symmetry_equiv_pos_as_xyz
  1  'x, y, z'
loop_
 _atom_site_type_symbol
 _atom_site_label
 _atom_site_symmetry_multiplicity
 _atom_site_fract_x
 _atom_site_fract_y
 _atom_site_fract_z
 _atom_site_occupancy
  H  H0  1  0.037559  0.515905  0.733464  1
  H  H1  1  0.753839  0.957265  0.133655  1
  H  H2  1  0.714446  0.442151  0.378794  1
  H  H3  1  0.370873  0.002173  0.675862  1
  H  H4  1  0.869726  0.522435  0.158044  1
  H  H5  1  0.242063  0.889952  0.534416  1
  H  H6  1  0.239731  0.384821  0.948310  1
  H  H7  1  0.630446  0.038789  0.341000  1
  H  H8  1  0.373026  0.528295  0.410966  1
  H  H9  1  0.151952  0.043135  0.059389  1
  H  H10  1  0.116691  0.726275  0.325468  1
  H  H11  1  0.858608  0.831971  0.049682  1
  H  H12  1  0.854349  0.305321  0.549079  1
  H  H13  1  0.389960  0.197696  0.078851  1
  H  H14  1  0.406609  0.670289  0.760790  1
  H  H15  1  0.900856  0.136680  0.471466  1
  H  H16  1  0.890845  0.730329  0.829136  1
  H  H17  1  0.533353  0.795673  0.183807  1
  H  H18  1  0.088989  0.290913  0.255403  1
  H  H19  1  0.646246  0.227167  0.744824  1
  I  I20  1  0.163613  0.621141  0.038911  1
  I  I21  1  0.719712  0.887036  0.563668  1
  I  I22  1  0.763168  0.379175  0.934324  1
  I  I23  1  0.345087  0.126767  0.485342  1
  O  O24  1  0.138921  0.559929  0.722738  1
  O  O25  1  0.650964  0.963584  0.261114  1
  O  O26  1  0.796914  0.453909  0.221322  1
  O  O27  1  0.378306  0.052148  0.763568  1
  O  O28  1  0.878316  0.577000  0.090367  1
  O  O29  1  0.406827  0.922277  0.609344  1
  O  O30  1  0.093755  0.419086  0.947517  1
  O  O31  1  0.626179  0.093547  0.385260  1
  O  O32  1  0.435747  0.566863  0.314756  1
  O  O33  1  0.913640  0.946221  0.854413  1
  O  O34  1  0.609301  0.436764  0.616173  1
  O  O35  1  0.084116  0.071369  0.183122  1
  O  O36  1  0.234850  0.686029  0.366748  1
  O  O37  1  0.755012  0.809941  0.855152  1
  O  O38  1  0.805346  0.293904  0.723633  1
  O  O39  1  0.332121  0.208888  0.241643  1
  O  O40  1  0.442381  0.672598  0.973303  1
  O  O41  1  0.966252  0.849612  0.439806  1
  O  O42  1  0.466513  0.340276  0.957481  1
  O  O43  1  0.065657  0.167178  0.556457  1
  O  O44  1  0.919590  0.682087  0.759277  1
  O  O45  1  0.453068  0.824977  0.290050  1
  O  O46  1  0.958966  0.321227  0.286917  1
  O  O47  1  0.570133  0.180460  0.806147  1
