# generated using pymatgen
data_CsMg4Al9(SiO4)9
_symmetry_space_group_name_H-M   'P 1'
_cell_length_a   9.88766926
_cell_length_b   9.86174756
_cell_length_c   9.52043273
_cell_angle_alpha   89.97781749
_cell_angle_beta   90.00131730
_cell_angle_gamma   119.65971563
_symmetry_Int_Tables_number   1
_chemical_formula_structural   CsMg4Al9(SiO4)9
_chemical_formula_sum   'Cs1 Mg4 Al9 Si9 O36'
_cell_volume   806.70373599
_cell_formula_units_Z   1
loop_
 _symmetry_equiv_pos_site_id
 _symmetry_equiv_pos_as_xyz
  1  'x, y, z'
loop_
 _atom_site_type_symbol
 _atom_site_label
 _atom_site_symmetry_multiplicity
 _atom_site_fract_x
 _atom_site_fract_y
 _atom_site_fract_z
 _atom_site_occupancy
  Cs  Cs0  1  0.993312  0.999985  0.756818  1
  Mg  Mg1  1  0.332337  0.666968  0.247548  1
  Mg  Mg2  1  0.332354  0.667077  0.752439  1
  Mg  Mg3  1  0.676621  0.334738  0.247605  1
  Mg  Mg4  1  0.677523  0.334853  0.752752  1
  Al  Al5  1  0.997765  0.497481  0.249260  1
  Al  Al6  1  0.998074  0.497551  0.750702  1
  Al  Al7  1  0.502727  0.501691  0.248540  1
  Al  Al8  1  0.503056  0.501588  0.751472  1
  Al  Al9  1  0.502301  0.001117  0.250957  1
  Al  Al10  1  0.503307  0.001246  0.749061  1
  Al  Al11  1  0.893343  0.631036  0.000373  1
  Al  Al12  1  0.737050  0.114898  0.000660  1
  Al  Al13  1  0.892047  0.259640  0.499472  1
  Si  Si14  1  0.104478  0.731399  0.499757  1
  Si  Si15  1  0.270210  0.896595  0.999691  1
  Si  Si16  1  0.113113  0.378405  0.999705  1
  Si  Si17  1  0.269247  0.373255  0.500220  1
  Si  Si18  1  0.621329  0.885535  0.500210  1
  Si  Si19  1  0.377657  0.268589  0.000154  1
  Si  Si20  1  0.621325  0.735159  0.999243  1
  Si  Si21  1  0.367895  0.102317  0.499949  1
  Si  Si22  1  0.733608  0.623844  0.499751  1
  O  O23  1  0.086310  0.785836  0.995383  1
  O  O24  1  0.219314  0.921862  0.502482  1
  O  O25  1  0.136419  0.655892  0.357963  1
  O  O26  1  0.136268  0.655945  0.641835  1
  O  O27  1  0.143186  0.487385  0.141765  1
  O  O28  1  0.144149  0.488526  0.857970  1
  O  O29  1  0.349083  0.866348  0.857917  1
  O  O30  1  0.348183  0.865829  0.141806  1
  O  O31  1  0.085769  0.301066  0.504674  1
  O  O32  1  0.235223  0.309137  0.997320  1
  O  O33  1  0.511321  0.856336  0.359422  1
  O  O34  1  0.510324  0.855426  0.640660  1
  O  O35  1  0.350182  0.482887  0.359406  1
  O  O36  1  0.350999  0.483126  0.640637  1
  O  O37  1  0.306378  0.227904  0.502620  1
  O  O38  1  0.510043  0.651352  0.140478  1
  O  O39  1  0.508460  0.650370  0.859019  1
  O  O40  1  0.685842  0.918439  0.995029  1
  O  O41  1  0.309248  0.080706  0.997389  1
  O  O42  1  0.481742  0.344568  0.143151  1
  O  O43  1  0.481776  0.344316  0.856753  1
  O  O44  1  0.691291  0.764858  0.502664  1
  O  O45  1  0.655678  0.518119  0.358176  1
  O  O46  1  0.655988  0.518142  0.641778  1
  O  O47  1  0.473046  0.130467  0.359516  1
  O  O48  1  0.472672  0.130035  0.640884  1
  O  O49  1  0.760542  0.697055  0.994805  1
  O  O50  1  0.923464  0.699082  0.502453  1
  O  O51  1  0.650329  0.142175  0.850489  1
  O  O52  1  0.649210  0.142036  0.149349  1
  O  O53  1  0.862143  0.515797  0.148098  1
  O  O54  1  0.862744  0.517142  0.851160  1
  O  O55  1  0.862676  0.347988  0.354117  1
  O  O56  1  0.863331  0.347060  0.646495  1
  O  O57  1  0.766254  0.058360  0.504965  1
  O  O58  1  0.939732  0.233461  0.995030  1
