# generated using pymatgen
data_UO3
_symmetry_space_group_name_H-M   'P 1'
_cell_length_a   4.20346781
_cell_length_b   4.19645175
_cell_length_c   19.80309560
_cell_angle_alpha   96.88609444
_cell_angle_beta   90.00000000
_cell_angle_gamma   90.00000000
_symmetry_Int_Tables_number   1
_chemical_formula_structural   UO3
_chemical_formula_sum   'U5 O15'
_cell_volume   346.79984460
_cell_formula_units_Z   5
loop_
 _symmetry_equiv_pos_site_id
 _symmetry_equiv_pos_as_xyz
  1  'x, y, z'
loop_
 _atom_site_type_symbol
 _atom_site_label
 _atom_site_symmetry_multiplicity
 _atom_site_fract_x
 _atom_site_fract_y
 _atom_site_fract_z
 _atom_site_occupancy
  U  U0  1  0.000000  0.913986  0.334560  1
  U  U1  1  0.000000  0.860004  0.122349  1
  U  U2  1  0.000000  0.611957  0.904409  1
  U  U3  1  0.000000  0.049327  0.760212  1
  U  U4  1  0.000000  0.936957  0.546322  1
  O  O5  1  0.000000  0.770282  -0.000178  1
  O  O6  1  0.000000  0.905767  0.227496  1
  O  O7  1  0.000000  0.928870  0.441073  1
  O  O8  1  0.000000  0.993663  0.657683  1
  O  O9  1  0.752048  0.161790  0.881433  1
  O  O10  1  0.500000  0.927118  0.546216  1
  O  O11  1  0.500000  0.866493  0.118491  1
  O  O12  1  0.500000  0.021542  0.751743  1
  O  O13  1  0.500000  0.912464  0.333701  1
  O  O14  1  0.247952  0.161790  0.881433  1
  O  O15  1  0.000000  0.438167  0.549245  1
  O  O16  1  0.000000  0.415480  0.335218  1
  O  O17  1  0.000000  0.377448  0.153568  1
  O  O18  1  0.000000  0.336841  0.078788  1
  O  O19  1  0.000000  0.566054  0.792237  1
