# generated using pymatgen
data_MnAg4(SbS3)2
_symmetry_space_group_name_H-M   'P 1'
_cell_length_a   6.73285732
_cell_length_b   8.01126537
_cell_length_c   10.68349512
_cell_angle_alpha   90.00000000
_cell_angle_beta   91.58929882
_cell_angle_gamma   90.00000000
_symmetry_Int_Tables_number   1
_chemical_formula_structural   MnAg4(SbS3)2
_chemical_formula_sum   'Mn2 Ag8 Sb4 S12'
_cell_volume   576.03223188
_cell_formula_units_Z   2
loop_
 _symmetry_equiv_pos_site_id
 _symmetry_equiv_pos_as_xyz
  1  'x, y, z'
loop_
 _atom_site_type_symbol
 _atom_site_label
 _atom_site_symmetry_multiplicity
 _atom_site_fract_x
 _atom_site_fract_y
 _atom_site_fract_z
 _atom_site_occupancy
  S  S0  1  0.622887  0.907044  0.219397  1
  S  S1  1  0.656733  0.741891  0.894264  1
  S  S2  1  0.877113  0.407044  0.280603  1
  S  S3  1  0.377113  0.092956  0.780603  1
  S  S4  1  0.122887  0.592956  0.719397  1
  S  S5  1  0.829284  0.174568  0.986035  1
  S  S6  1  0.670716  0.674568  0.513965  1
  S  S7  1  0.170716  0.825432  0.013965  1
  S  S8  1  0.329284  0.325432  0.486035  1
  S  S9  1  0.156733  0.758109  0.394264  1
  S  S10  1  0.343267  0.258109  0.105736  1
  S  S11  1  0.843267  0.241891  0.605736  1
  Mn  Mn12  1  0.000000  0.500000  0.500000  1
  Mn  Mn13  1  0.500000  0.000000  0.000000  1
  Ag  Ag14  1  0.761387  0.967700  0.527615  1
  Ag  Ag15  1  0.261387  0.532300  0.027615  1
  Ag  Ag16  1  0.238613  0.032300  0.472385  1
  Ag  Ag17  1  0.931269  0.703730  0.182995  1
  Ag  Ag18  1  0.568731  0.203730  0.317005  1
  Ag  Ag19  1  0.068731  0.296270  0.817005  1
  Ag  Ag20  1  0.431269  0.796270  0.682995  1
  Ag  Ag21  1  0.738613  0.467700  0.972385  1
  Sb  Sb22  1  0.026925  0.149683  0.188636  1
  Sb  Sb23  1  0.526925  0.350317  0.688636  1
  Sb  Sb24  1  0.973075  0.850317  0.811364  1
  Sb  Sb25  1  0.473075  0.649683  0.311364  1
