# generated using pymatgen
data_MgSiO3
_symmetry_space_group_name_H-M   'P 1'
_cell_length_a   5.43706894
_cell_length_b   8.28487279
_cell_length_c   19.58167535
_cell_angle_alpha   90.00000000
_cell_angle_beta   90.00000000
_cell_angle_gamma   90.00000000
_symmetry_Int_Tables_number   1
_chemical_formula_structural   MgSiO3
_chemical_formula_sum   'Mg16 Si16 O48'
_cell_volume   882.06487892
_cell_formula_units_Z   16
loop_
 _symmetry_equiv_pos_site_id
 _symmetry_equiv_pos_as_xyz
  1  'x, y, z'
loop_
 _atom_site_type_symbol
 _atom_site_label
 _atom_site_symmetry_multiplicity
 _atom_site_fract_x
 _atom_site_fract_y
 _atom_site_fract_z
 _atom_site_occupancy
  Mg  Mg0  1  0.939830  0.561221  0.117035  1
  Mg  Mg1  1  0.939386  0.065849  0.131036  1
  Mg  Mg2  1  0.560614  0.565849  0.868964  1
  Mg  Mg3  1  0.060614  0.434151  0.631036  1
  Mg  Mg4  1  0.439386  0.434151  0.131036  1
  Mg  Mg5  1  0.560170  0.061221  0.882965  1
  Mg  Mg6  1  0.939386  0.565849  0.368964  1
  Mg  Mg7  1  0.939830  0.061221  0.382965  1
  Mg  Mg8  1  0.560614  0.065849  0.631036  1
  Mg  Mg9  1  0.439830  0.938779  0.117035  1
  Mg  Mg10  1  0.560170  0.561221  0.617035  1
  Mg  Mg11  1  0.060170  0.938779  0.617035  1
  Mg  Mg12  1  0.060614  0.934151  0.868964  1
  Mg  Mg13  1  0.060170  0.438779  0.882965  1
  Mg  Mg14  1  0.439830  0.438779  0.382965  1
  Mg  Mg15  1  0.439386  0.934151  0.368964  1
  Si  Si16  1  0.275473  0.148600  0.742070  1
  Si  Si17  1  0.224527  0.148600  0.242070  1
  Si  Si18  1  0.250763  0.650137  0.508606  1
  Si  Si19  1  0.249237  0.150137  0.491394  1
  Si  Si20  1  0.775473  0.351400  0.742070  1
  Si  Si21  1  0.724527  0.851400  0.257930  1
  Si  Si22  1  0.749237  0.849863  0.008606  1
  Si  Si23  1  0.749237  0.349863  0.491394  1
  Si  Si24  1  0.750763  0.849863  0.508606  1
  Si  Si25  1  0.249237  0.650137  0.008606  1
  Si  Si26  1  0.750763  0.349863  0.991394  1
  Si  Si27  1  0.275473  0.648600  0.757930  1
  Si  Si28  1  0.775473  0.851400  0.757930  1
  Si  Si29  1  0.250763  0.150137  0.991394  1
  Si  Si30  1  0.224527  0.648600  0.257930  1
  Si  Si31  1  0.724527  0.351400  0.242070  1
  O  O32  1  0.263839  0.624368  0.927529  1
  O  O33  1  0.236161  0.624368  0.427529  1
  O  O34  1  0.003730  0.751464  0.539557  1
  O  O35  1  0.716017  0.511176  0.194125  1
  O  O36  1  0.736161  0.875632  0.427529  1
  O  O37  1  0.273891  0.616094  0.676958  1
  O  O38  1  0.273891  0.116094  0.823042  1
  O  O39  1  0.216017  0.488824  0.305875  1
  O  O40  1  0.462534  0.760585  0.286664  1
  O  O41  1  0.226109  0.616094  0.176958  1
  O  O42  1  0.773891  0.883906  0.676958  1
  O  O43  1  0.236161  0.124368  0.072471  1
  O  O44  1  0.226109  0.116094  0.323042  1
  O  O45  1  0.537466  0.239415  0.713336  1
  O  O46  1  0.726754  0.513655  0.447004  1
  O  O47  1  0.263839  0.124368  0.572471  1
  O  O48  1  0.496270  0.751464  0.039557  1
  O  O49  1  0.503730  0.248536  0.960443  1
  O  O50  1  0.037466  0.260585  0.713336  1
  O  O51  1  0.537466  0.739415  0.786664  1
  O  O52  1  -0.037466  0.739415  0.286664  1
  O  O53  1  0.037466  0.760585  0.786664  1
  O  O54  1  -0.003730  0.248536  0.460443  1
  O  O55  1  0.773246  0.513655  0.947004  1
  O  O56  1  0.462534  0.260585  0.213336  1
  O  O57  1  0.763839  0.375632  0.572471  1
  O  O58  1  0.003730  0.251464  0.960443  1
  O  O59  1  0.283983  -0.011176  0.694125  1
  O  O60  1  0.783983  0.011176  0.805875  1
  O  O61  1  0.503730  0.748536  0.539557  1
  O  O62  1  0.726109  0.883906  0.176958  1
  O  O63  1  0.226754  0.986345  0.447004  1
  O  O64  1  0.273246  0.486345  0.552996  1
  O  O65  1  0.736161  0.375632  0.072471  1
  O  O66  1  0.226754  0.486345  0.052996  1
  O  O67  1  0.273246  0.986345  0.947004  1
  O  O68  1  0.783983  0.511176  0.694125  1
  O  O69  1  -0.003730  0.748536  0.039557  1
  O  O70  1  0.763839  0.875632  0.927529  1
  O  O71  1  0.216017  -0.011176  0.194125  1
  O  O72  1  0.496270  0.251464  0.460443  1
  O  O73  1  0.773246  0.013655  0.552996  1
  O  O74  1  0.283983  0.488824  0.805875  1
  O  O75  1  0.726109  0.383906  0.323042  1
  O  O76  1  0.716017  0.011176  0.305875  1
  O  O77  1  0.726754  0.013655  0.052996  1
  O  O78  1  -0.037466  0.239415  0.213336  1
  O  O79  1  0.773891  0.383906  0.823042  1
