# generated using pymatgen
data_Ba3NaBiO6
_symmetry_space_group_name_H-M   'P 1'
_cell_length_a   9.30231049
_cell_length_b   6.47800383
_cell_length_c   9.43108310
_cell_angle_alpha   86.02530140
_cell_angle_beta   119.54934842
_cell_angle_gamma   98.07972441
_symmetry_Int_Tables_number   1
_chemical_formula_structural   Ba3NaBiO6
_chemical_formula_sum   'Ba6 Na2 Bi2 O12'
_cell_volume   489.49240150
_cell_formula_units_Z   2
loop_
 _symmetry_equiv_pos_site_id
 _symmetry_equiv_pos_as_xyz
  1  'x, y, z'
loop_
 _atom_site_type_symbol
 _atom_site_label
 _atom_site_symmetry_multiplicity
 _atom_site_fract_x
 _atom_site_fract_y
 _atom_site_fract_z
 _atom_site_occupancy
  Ba  Ba0  1  0.164530  0.238500  0.741745  1
  Ba  Ba1  1  0.285008  0.750000  0.570017  1
  Ba  Ba2  1  0.577214  0.261500  0.741745  1
  Ba  Ba3  1  0.835470  0.761500  0.258255  1
  Ba  Ba4  1  0.714992  0.250000  0.429983  1
  Ba  Ba5  1  0.422785  0.738500  0.258255  1
  Na  Na6  1  0.520624  0.250000  0.041248  1
  Na  Na7  1  0.479376  0.750000  0.958752  1
  Bi  Bi8  1  0.000000  0.500000  0.000000  1
  Bi  Bi9  1  0.000000  0.000000  0.000000  1
  O  O10  1  0.596338  0.515420  0.217452  1
  O  O11  1  0.188334  0.291090  0.029166  1
  O  O12  1  0.434139  0.068648  0.448135  1
  O  O13  1  0.403662  0.484580  0.782548  1
  O  O14  1  0.811666  0.708910  0.970834  1
  O  O15  1  0.565861  0.931352  0.551865  1
  O  O16  1  0.159168  0.791090  0.970834  1
  O  O17  1  0.986004  0.568648  0.551865  1
  O  O18  1  0.378886  0.015420  0.782548  1
  O  O19  1  0.840832  0.208910  0.029166  1
  O  O20  1  0.013996  0.431352  0.448135  1
  O  O21  1  0.621114  0.984580  0.217452  1
