# generated using pymatgen
data_Sr5La3Mn8(O2F)8
_symmetry_space_group_name_H-M   'P 1'
_cell_length_a   5.78299714
_cell_length_b   5.85185419
_cell_length_c   15.71062489
_cell_angle_alpha   89.97025689
_cell_angle_beta   90.29872496
_cell_angle_gamma   89.45279928
_symmetry_Int_Tables_number   1
_chemical_formula_structural   Sr5La3Mn8(O2F)8
_chemical_formula_sum   'Sr5 La3 Mn8 O16 F8'
_cell_volume   531.63572056
_cell_formula_units_Z   1
loop_
 _symmetry_equiv_pos_site_id
 _symmetry_equiv_pos_as_xyz
  1  'x, y, z'
loop_
 _atom_site_type_symbol
 _atom_site_label
 _atom_site_symmetry_multiplicity
 _atom_site_fract_x
 _atom_site_fract_y
 _atom_site_fract_z
 _atom_site_occupancy
  Sr  Sr0  1  0.012034  0.509433  0.121088  1
  Sr  Sr1  1  0.009453  0.499525  0.624916  1
  Sr  Sr2  1  0.466831  0.002812  0.381753  1
  Sr  Sr3  1  0.492825  0.008933  0.873379  1
  Sr  Sr4  1  0.486837  0.999291  0.117987  1
  La  La5  1  0.547078  0.013400  0.618612  1
  La  La6  1  0.033982  0.497921  0.384717  1
  La  La7  1  0.988044  0.494234  0.876970  1
  Mn  Mn8  1  0.001972  0.003486  0.000141  1
  Mn  Mn9  1  0.014058  0.013394  0.501752  1
  Mn  Mn10  1  0.485555  0.514281  0.250302  1
  Mn  Mn11  1  0.497140  0.499195  0.749355  1
  Mn  Mn12  1  0.503969  0.502146  -0.000092  1
  Mn  Mn13  1  0.494149  0.490167  0.502739  1
  Mn  Mn14  1  0.007634  0.986186  0.250007  1
  Mn  Mn15  1  0.995908  0.995143  0.749265  1
  O  O16  1  0.027826  0.093567  0.374513  1
  O  O17  1  0.002188  0.088829  0.873372  1
  O  O18  1  0.239604  0.274922  0.012077  1
  O  O19  1  0.280548  0.235012  0.526576  1
  O  O20  1  0.220634  0.742574  0.484326  1
  O  O21  1  0.213386  0.720707  0.272856  1
  O  O22  1  0.209504  0.708548  0.771126  1
  O  O23  1  0.494025  0.579747  0.123443  1
  O  O24  1  0.520088  0.594975  0.623739  1
  O  O25  1  0.523989  0.426912  0.875859  1
  O  O26  1  0.463457  0.428868  0.377314  1
  O  O27  1  0.772372  0.251302  0.515131  1
  O  O28  1  0.753444  0.252350  0.729211  1
  O  O29  1  0.776007  0.724447  0.979460  1
  O  O30  1  0.954979  0.921821  0.623110  1
  O  O31  1  0.007740  0.932916  0.125027  1
  F  F32  1  0.269705  0.230269  0.224124  1
  F  F33  1  0.273776  0.216045  0.720148  1
  F  F34  1  0.264406  0.766524  0.970780  1
  F  F35  1  0.741203  0.237940  0.028520  1
  F  F36  1  0.761221  0.261599  0.230246  1
  F  F37  1  0.730104  0.754250  0.471826  1
  F  F38  1  0.733063  0.762375  0.284993  1
  F  F39  1  0.729259  0.763954  0.779333  1
