# generated using pymatgen
data_Pr6MnS10
_symmetry_space_group_name_H-M   'P 1'
_cell_length_a   7.45521525
_cell_length_b   7.44239824
_cell_length_c   37.31590384
_cell_angle_alpha   109.38224546
_cell_angle_beta   110.27403088
_cell_angle_gamma   108.77543863
_symmetry_Int_Tables_number   1
_chemical_formula_structural   Pr6MnS10
_chemical_formula_sum   'Pr24 Mn4 S40'
_cell_volume   1593.27934420
_cell_formula_units_Z   4
loop_
 _symmetry_equiv_pos_site_id
 _symmetry_equiv_pos_as_xyz
  1  'x, y, z'
loop_
 _atom_site_type_symbol
 _atom_site_label
 _atom_site_symmetry_multiplicity
 _atom_site_fract_x
 _atom_site_fract_y
 _atom_site_fract_z
 _atom_site_occupancy
  Pr  Pr0  1  0.119327  0.743032  0.974256  1
  Pr  Pr1  1  0.258211  0.625717  0.873941  1
  Pr  Pr2  1  0.118967  0.750001  0.775617  1
  Pr  Pr3  1  0.360077  0.237719  0.923662  1
  Pr  Pr4  1  0.259946  0.626166  0.674173  1
  Pr  Pr5  1  0.089391  0.729923  0.568859  1
  Pr  Pr6  1  0.628873  0.371432  0.849289  1
  Pr  Pr7  1  0.384155  0.258270  0.727839  1
  Pr  Pr8  1  0.252355  0.612868  0.475594  1
  Pr  Pr9  1  0.134639  0.762471  0.376059  1
  Pr  Pr10  1  0.626179  0.375629  0.650501  1
  Pr  Pr11  1  0.392019  0.258668  0.527115  1
  Pr  Pr12  1  0.758889  0.892062  0.626676  1
  Pr  Pr13  1  0.255861  0.629287  0.275529  1
  Pr  Pr14  1  0.118706  0.745748  0.173509  1
  Pr  Pr15  1  0.387384  0.260071  0.330213  1
  Pr  Pr16  1  0.749037  0.888097  0.430545  1
  Pr  Pr17  1  0.245803  0.627126  0.075462  1
  Pr  Pr18  1  0.613724  0.366457  0.246018  1
  Pr  Pr19  1  0.738491  0.852114  0.220765  1
  Pr  Pr20  1  0.877194  0.133886  0.351361  1
  Pr  Pr21  1  0.608213  0.365888  0.050471  1
  Pr  Pr22  1  0.763935  0.883505  0.026064  1
  Pr  Pr23  1  0.869523  0.124257  0.147134  1
  Mn  Mn24  1  0.740527  0.889602  0.827795  1
  Mn  Mn25  1  0.877720  0.129584  0.948755  1
  Mn  Mn26  1  0.857898  0.112639  0.751862  1
  Mn  Mn27  1  0.868981  0.101383  0.543323  1
  S  S28  1  0.965711  0.860815  0.892834  1
  S  S29  1  0.010321  0.369980  0.899335  1
  S  S30  1  0.113610  0.133793  0.822762  1
  S  S31  1  0.015267  0.369618  0.700029  1
  S  S32  1  0.403509  0.542367  0.804950  1
  S  S33  1  0.636908  0.623702  0.927255  1
  S  S34  1  0.503800  0.979589  0.774838  1
  S  S35  1  0.480257  0.988875  0.969288  1
  S  S36  1  0.521478  0.019677  0.877056  1
  S  S37  1  0.536331  0.022652  0.680112  1
  S  S38  1  0.149133  0.148823  0.627531  1
  S  S39  1  0.014097  0.351629  0.501876  1
  S  S40  1  0.380398  0.523899  0.603967  1
  S  S41  1  0.644731  0.632181  0.728354  1
  S  S42  1  0.479034  0.996108  0.573232  1
  S  S43  1  0.862886  0.454972  0.796049  1
  S  S44  1  0.520497  0.997256  0.478156  1
  S  S45  1  0.127113  0.133570  0.428601  1
  S  S46  1  0.996275  0.353820  0.298518  1
  S  S47  1  0.339885  0.502544  0.399598  1
  S  S48  1  0.000756  0.872803  0.703270  1
  S  S49  1  0.649872  0.661534  0.533577  1
  S  S50  1  0.503859  0.995548  0.368168  1
  S  S51  1  0.859153  0.480068  0.599409  1
  S  S52  1  0.144221  0.146768  0.229075  1
  S  S53  1  0.987325  0.349507  0.098298  1
  S  S54  1  0.342787  0.505433  0.200968  1
  S  S55  1  0.007284  0.887468  0.505524  1
  S  S56  1  0.649534  0.636950  0.327199  1
  S  S57  1  0.496719  0.988086  0.170755  1
  S  S58  1  0.864026  0.513192  0.399611  1
  S  S59  1  0.500019  0.007241  0.270977  1
  S  S60  1  0.111287  0.137719  0.016526  1
  S  S61  1  0.371034  0.511004  0.999881  1
  S  S62  1  0.000641  0.858851  0.300496  1
  S  S63  1  0.654010  0.658174  0.130139  1
  S  S64  1  0.862014  0.504607  0.201632  1
  S  S65  1  0.491255  0.990785  0.067279  1
  S  S66  1  0.992415  0.837048  0.098388  1
  S  S67  1  0.854524  0.472744  0.997102  1
