# generated using pymatgen
data_H3BrO
_symmetry_space_group_name_H-M   'P 1'
_cell_length_a   4.25314213
_cell_length_b   4.42975516
_cell_length_c   4.29932890
_cell_angle_alpha   71.47775006
_cell_angle_beta   70.76694315
_cell_angle_gamma   71.73839027
_symmetry_Int_Tables_number   1
_chemical_formula_structural   H3BrO
_chemical_formula_sum   'H3 Br1 O1'
_cell_volume   70.52028932
_cell_formula_units_Z   1
loop_
 _symmetry_equiv_pos_site_id
 _symmetry_equiv_pos_as_xyz
  1  'x, y, z'
loop_
 _atom_site_type_symbol
 _atom_site_label
 _atom_site_symmetry_multiplicity
 _atom_site_fract_x
 _atom_site_fract_y
 _atom_site_fract_z
 _atom_site_occupancy
  H  H0  1  0.334085  0.647559  0.310142  1
  H  H1  1  0.323224  0.319964  0.642675  1
  H  H2  1  0.663784  0.318702  0.310080  1
  Br  Br3  1  0.031369  0.011340  0.016087  1
  O  O4  1  0.477607  0.463714  0.458160  1
