# generated using pymatgen
data_Sr3U11O36
_symmetry_space_group_name_H-M   'P 1'
_cell_length_a   6.79020204
_cell_length_b   8.47887240
_cell_length_c   28.80258326
_cell_angle_alpha   90.00000000
_cell_angle_beta   90.00000000
_cell_angle_gamma   90.00000000
_symmetry_Int_Tables_number   1
_chemical_formula_structural   Sr3U11O36
_chemical_formula_sum   'Sr6 U22 O72'
_cell_volume   1658.25851871
_cell_formula_units_Z   2
loop_
 _symmetry_equiv_pos_site_id
 _symmetry_equiv_pos_as_xyz
  1  'x, y, z'
loop_
 _atom_site_type_symbol
 _atom_site_label
 _atom_site_symmetry_multiplicity
 _atom_site_fract_x
 _atom_site_fract_y
 _atom_site_fract_z
 _atom_site_occupancy
  Sr  Sr0  1  0.763845  0.250000  0.750000  1
  Sr  Sr1  1  0.236155  0.750000  0.250000  1
  Sr  Sr2  1  0.317489  0.750000  0.395157  1
  Sr  Sr3  1  0.317489  0.750000  0.104843  1
  Sr  Sr4  1  0.682511  0.250000  0.895157  1
  Sr  Sr5  1  0.682511  0.250000  0.604843  1
  U  U6  1  0.248963  0.250000  0.384325  1
  U  U7  1  0.777965  0.750000  0.322562  1
  U  U8  1  0.223853  0.750000  0.963186  1
  U  U9  1  0.751037  0.750000  0.615675  1
  U  U10  1  0.222035  0.250000  0.822562  1
  U  U11  1  0.773188  0.750000  0.031244  1
  U  U12  1  0.222035  0.250000  0.677438  1
  U  U13  1  0.776147  0.250000  0.036814  1
  U  U14  1  0.751037  0.750000  0.884325  1
  U  U15  1  0.223853  0.750000  0.536814  1
  U  U16  1  0.248963  0.250000  0.115675  1
  U  U17  1  0.321576  0.250000  0.250000  1
  U  U18  1  0.226812  0.250000  0.531244  1
  U  U19  1  0.219762  0.750000  0.821540  1
  U  U20  1  0.777965  0.750000  0.177438  1
  U  U21  1  0.776147  0.250000  0.463186  1
  U  U22  1  0.678424  0.750000  0.750000  1
  U  U23  1  0.780238  0.250000  0.178460  1
  U  U24  1  0.780238  0.250000  0.321540  1
  U  U25  1  0.773188  0.750000  0.468756  1
  U  U26  1  0.219762  0.750000  0.678460  1
  U  U27  1  0.226812  0.250000  0.968756  1
  O  O28  1  0.778557  0.014347  0.321775  1
  O  O29  1  0.250248  0.031948  0.114711  1
  O  O30  1  0.527344  0.250000  0.424444  1
  O  O31  1  0.710998  0.750000  0.100814  1
  O  O32  1  0.220885  0.977657  0.532794  1
  O  O33  1  0.466927  0.250000  0.324302  1
  O  O34  1  0.250248  0.468052  0.114711  1
  O  O35  1  0.779115  0.022343  0.032794  1
  O  O36  1  0.221443  0.985653  0.821775  1
  O  O37  1  0.778557  0.485653  0.178225  1
  O  O38  1  0.483651  0.750000  0.022380  1
  O  O39  1  0.688148  0.250000  0.250000  1
  O  O40  1  0.499782  0.750000  0.184838  1
  O  O41  1  0.749752  0.531948  0.614711  1
  O  O42  1  0.093780  0.750000  0.609137  1
  O  O43  1  0.093780  0.750000  0.890863  1
  O  O44  1  0.779115  0.477657  0.032794  1
  O  O45  1  0.749752  0.531948  0.885289  1
  O  O46  1  0.083679  0.250000  0.193247  1
  O  O47  1  0.906220  0.250000  0.390863  1
  O  O48  1  0.466927  0.250000  0.175698  1
  O  O49  1  0.311852  0.750000  0.750000  1
  O  O50  1  0.778557  0.485653  0.321775  1
  O  O51  1  0.778557  0.014347  0.178225  1
  O  O52  1  0.221443  0.985653  0.678225  1
  O  O53  1  0.083679  0.250000  0.306753  1
  O  O54  1  0.139208  0.250000  0.463716  1
  O  O55  1  0.779115  0.022343  0.467206  1
  O  O56  1  0.937877  0.250000  0.961068  1
  O  O57  1  0.062123  0.750000  0.461068  1
  O  O58  1  0.533073  0.750000  0.824302  1
  O  O59  1  0.318206  0.467785  0.250000  1
  O  O60  1  0.220885  0.977657  0.967206  1
  O  O61  1  0.483651  0.750000  0.477620  1
  O  O62  1  0.749752  0.968052  0.614711  1
  O  O63  1  0.779115  0.477657  0.467206  1
  O  O64  1  0.221443  0.514347  0.821775  1
  O  O65  1  0.139208  0.250000  0.036284  1
  O  O66  1  0.250248  0.031948  0.385289  1
  O  O67  1  0.289002  0.250000  0.899186  1
  O  O68  1  0.516349  0.250000  0.977620  1
  O  O69  1  0.946004  0.250000  0.668426  1
  O  O70  1  0.250248  0.468052  0.385289  1
  O  O71  1  0.500218  0.250000  0.684838  1
  O  O72  1  0.916321  0.750000  0.693247  1
  O  O73  1  0.860792  0.750000  0.963716  1
  O  O74  1  0.156351  0.250000  0.750000  1
  O  O75  1  0.681794  0.532215  0.750000  1
  O  O76  1  0.062123  0.750000  0.038932  1
  O  O77  1  0.937877  0.250000  0.538932  1
  O  O78  1  0.472656  0.750000  0.575556  1
  O  O79  1  0.843649  0.750000  0.250000  1
  O  O80  1  0.533073  0.750000  0.675698  1
  O  O81  1  0.318206  0.032215  0.250000  1
  O  O82  1  0.053996  0.750000  0.168426  1
  O  O83  1  0.472656  0.750000  0.924444  1
  O  O84  1  0.916321  0.750000  0.806753  1
  O  O85  1  0.500218  0.250000  0.815162  1
  O  O86  1  0.527344  0.250000  0.075556  1
  O  O87  1  0.220885  0.522343  0.532794  1
  O  O88  1  0.053996  0.750000  0.331574  1
  O  O89  1  0.946004  0.250000  0.831574  1
  O  O90  1  0.499782  0.750000  0.315162  1
  O  O91  1  0.220885  0.522343  0.967206  1
  O  O92  1  0.860792  0.750000  0.536284  1
  O  O93  1  0.681794  0.967785  0.750000  1
  O  O94  1  0.516349  0.250000  0.522380  1
  O  O95  1  0.289002  0.250000  0.600814  1
  O  O96  1  0.906220  0.250000  0.109137  1
  O  O97  1  0.710998  0.750000  0.399186  1
  O  O98  1  0.221443  0.514347  0.678225  1
  O  O99  1  0.749752  0.968052  0.885289  1
