# generated using pymatgen
data_Mn3Cu3O8
_symmetry_space_group_name_H-M   'P 1'
_cell_length_a   8.43833709
_cell_length_b   8.43833709
_cell_length_c   8.43833709
_cell_angle_alpha   90.00000000
_cell_angle_beta   90.00000000
_cell_angle_gamma   90.00000000
_symmetry_Int_Tables_number   1
_chemical_formula_structural   Mn3Cu3O8
_chemical_formula_sum   'Mn12 Cu12 O32'
_cell_volume   600.85628881
_cell_formula_units_Z   4
loop_
 _symmetry_equiv_pos_site_id
 _symmetry_equiv_pos_as_xyz
  1  'x, y, z'
loop_
 _atom_site_type_symbol
 _atom_site_label
 _atom_site_symmetry_multiplicity
 _atom_site_fract_x
 _atom_site_fract_y
 _atom_site_fract_z
 _atom_site_occupancy
  O  O0  1  0.863364  0.863364  0.863364  1
  O  O1  1  0.613364  0.886636  0.113364  1
  O  O2  1  0.886636  0.113364  0.613364  1
  O  O3  1  0.113364  0.613364  0.886636  1
  O  O4  1  0.363364  0.636636  0.136636  1
  O  O5  1  0.636636  0.136636  0.363364  1
  O  O6  1  0.136636  0.363364  0.636636  1
  O  O7  1  0.386636  0.386636  0.386636  1
  O  O8  1  0.109794  0.120796  0.389262  1
  O  O9  1  0.609794  0.379204  0.610738  1
  O  O10  1  0.120796  0.389262  0.109794  1
  O  O11  1  0.879204  0.889262  0.390206  1
  O  O12  1  0.389262  0.109794  0.120796  1
  O  O13  1  0.110738  0.890206  0.620796  1
  O  O14  1  0.359794  0.139262  0.629204  1
  O  O15  1  0.859794  0.360738  0.370796  1
  O  O16  1  0.640206  0.639262  0.870796  1
  O  O17  1  0.360738  0.370796  0.859794  1
  O  O18  1  0.870796  0.640206  0.639262  1
  O  O19  1  0.370796  0.859794  0.360738  1
  O  O20  1  0.139262  0.629204  0.359794  1
  O  O21  1  0.629204  0.359794  0.139262  1
  O  O22  1  0.639262  0.870796  0.640206  1
  O  O23  1  0.860738  0.129204  0.140206  1
  O  O24  1  0.140206  0.860738  0.129204  1
  O  O25  1  0.890206  0.620796  0.110738  1
  O  O26  1  0.390206  0.879204  0.889262  1
  O  O27  1  0.379204  0.610738  0.609794  1
  O  O28  1  0.620796  0.110738  0.890206  1
  O  O29  1  0.889262  0.390206  0.879204  1
  O  O30  1  0.610738  0.609794  0.379204  1
  O  O31  1  0.129204  0.140206  0.860738  1
  Mn  Mn32  1  0.625000  0.125159  0.124841  1
  Mn  Mn33  1  0.624841  0.875000  0.874841  1
  Mn  Mn34  1  0.625159  0.375159  0.375000  1
  Mn  Mn35  1  0.374841  0.875159  0.125000  1
  Mn  Mn36  1  0.875159  0.125000  0.374841  1
  Mn  Mn37  1  0.124841  0.625000  0.125159  1
  Mn  Mn38  1  0.375159  0.375000  0.625159  1
  Mn  Mn39  1  0.874841  0.624841  0.875000  1
  Mn  Mn40  1  0.125159  0.124841  0.625000  1
  Mn  Mn41  1  0.375000  0.625159  0.375159  1
  Mn  Mn42  1  0.875000  0.874841  0.624841  1
  Mn  Mn43  1  0.125000  0.374841  0.875159  1
  Cu  Cu44  1  0.125000  0.875000  0.375000  1
  Cu  Cu45  1  0.875000  0.375000  0.125000  1
  Cu  Cu46  1  0.375000  0.125000  0.875000  1
  Cu  Cu47  1  0.625000  0.625000  0.625000  1
  Cu  Cu48  1  0.247965  0.247965  0.247965  1
  Cu  Cu49  1  0.997965  0.502035  0.497965  1
  Cu  Cu50  1  0.502035  0.497965  0.997965  1
  Cu  Cu51  1  0.497965  0.997965  0.502035  1
  Cu  Cu52  1  0.747965  0.252035  0.752035  1
  Cu  Cu53  1  0.252035  0.752035  0.747965  1
  Cu  Cu54  1  0.752035  0.747965  0.252035  1
  Cu  Cu55  1  0.002035  0.002035  0.002035  1
