# generated using pymatgen
data_Pr(HO)3
_symmetry_space_group_name_H-M   'P 1'
_cell_length_a   6.49825446
_cell_length_b   6.49826884
_cell_length_c   3.79575511
_cell_angle_alpha   90.00000000
_cell_angle_beta   90.00000000
_cell_angle_gamma   120.00004115
_symmetry_Int_Tables_number   1
_chemical_formula_structural   Pr(HO)3
_chemical_formula_sum   'Pr2 H6 O6'
_cell_volume   138.81072589
_cell_formula_units_Z   2
loop_
 _symmetry_equiv_pos_site_id
 _symmetry_equiv_pos_as_xyz
  1  'x, y, z'
loop_
 _atom_site_type_symbol
 _atom_site_label
 _atom_site_symmetry_multiplicity
 _atom_site_fract_x
 _atom_site_fract_y
 _atom_site_fract_z
 _atom_site_occupancy
  Pr  Pr0  1  0.333336  0.666668  0.250000  1
  Pr  Pr1  1  0.666664  0.333332  0.750000  1
  H  H2  1  0.862377  0.724687  0.250000  1
  H  H3  1  0.862312  0.137624  0.250000  1
  H  H4  1  0.275313  0.137689  0.250000  1
  H  H5  1  0.137623  0.275313  0.750000  1
  H  H6  1  0.137688  0.862376  0.750000  1
  H  H7  1  0.724687  0.862311  0.750000  1
  O  O8  1  0.917333  0.610132  0.250000  1
  O  O9  1  0.692801  0.082668  0.250000  1
  O  O10  1  0.389868  0.307199  0.250000  1
  O  O11  1  0.082667  0.389868  0.750000  1
  O  O12  1  0.307199  0.917332  0.750000  1
  O  O13  1  0.610132  0.692801  0.750000  1
