# generated using pymatgen
data_Mg2SiO4
_symmetry_space_group_name_H-M   'P 1'
_cell_length_a   5.48175597
_cell_length_b   7.54887968
_cell_length_c   7.39215375
_cell_angle_alpha   90.04091217
_cell_angle_beta   90.22547019
_cell_angle_gamma   89.97148250
_symmetry_Int_Tables_number   1
_chemical_formula_structural   Mg2SiO4
_chemical_formula_sum   'Mg8 Si4 O16'
_cell_volume   305.89308994
_cell_formula_units_Z   4
loop_
 _symmetry_equiv_pos_site_id
 _symmetry_equiv_pos_as_xyz
  1  'x, y, z'
loop_
 _atom_site_type_symbol
 _atom_site_label
 _atom_site_symmetry_multiplicity
 _atom_site_fract_x
 _atom_site_fract_y
 _atom_site_fract_z
 _atom_site_occupancy
  Mg  Mg0  1  0.343001  0.857941  0.756083  1
  Mg  Mg1  1  0.844910  0.143757  0.742394  1
  Mg  Mg2  1  0.033164  -0.040826  0.063085  1
  Mg  Mg3  1  -0.033708  0.459480  0.936439  1
  Mg  Mg4  1  0.535811  0.040203  0.435923  1
  Mg  Mg5  1  0.464067  0.540867  0.564539  1
  Mg  Mg6  1  0.657472  0.357974  0.243897  1
  Mg  Mg7  1  0.155090  0.644139  0.257751  1
  Si  Si8  1  0.120354  0.234463  0.356168  1
  Si  Si9  1  0.381858  0.265115  0.857164  1
  Si  Si10  1  0.618344  0.765399  0.143100  1
  Si  Si11  1  0.879522  0.734074  0.643890  1
  O  O12  1  0.296417  0.460087  0.786761  1
  O  O13  1  0.374134  0.788260  0.013294  1
  O  O14  1  0.795700  0.539083  0.713933  1
  O  O15  1  0.975298  0.894126  0.782445  1
  O  O16  1  0.876543  0.212530  0.484922  1
  O  O17  1  0.703790  0.959636  0.213868  1
  O  O18  1  0.610199  0.807740  0.572965  1
  O  O19  1  0.389284  0.308077  0.427083  1
  O  O20  1  0.477625  0.106285  0.717160  1
  O  O21  1  0.203912  0.039143  0.286365  1
  O  O22  1  0.024816  0.394582  0.216877  1
  O  O23  1  0.113255  0.191033  0.927091  1
  O  O24  1  0.887039  0.691522  0.072549  1
  O  O25  1  0.625960  0.287510  0.986611  1
  O  O26  1  0.522741  0.606357  0.282735  1
  O  O27  1  0.123403  0.711442  0.514907  1
