# generated using pymatgen
data_Hg2AsF6
_symmetry_space_group_name_H-M   'P 1'
_cell_length_a   6.82695853
_cell_length_b   6.82695829
_cell_length_c   8.51103629
_cell_angle_alpha   113.57582981
_cell_angle_beta   113.57582747
_cell_angle_gamma   90.09561513
_symmetry_Int_Tables_number   1
_chemical_formula_structural   Hg2AsF6
_chemical_formula_sum   'Hg4 As2 F12'
_cell_volume   326.99354335
_cell_formula_units_Z   2
loop_
 _symmetry_equiv_pos_site_id
 _symmetry_equiv_pos_as_xyz
  1  'x, y, z'
loop_
 _atom_site_type_symbol
 _atom_site_label
 _atom_site_symmetry_multiplicity
 _atom_site_fract_x
 _atom_site_fract_y
 _atom_site_fract_z
 _atom_site_occupancy
  Hg  Hg0  1  0.000000  0.000000  0.500000  1
  Hg  Hg1  1  0.000000  0.000000  0.000000  1
  Hg  Hg2  1  0.500000  0.000000  0.500000  1
  Hg  Hg3  1  0.000000  0.500000  0.000000  1
  As  As4  1  0.374706  0.625294  0.750000  1
  As  As5  1  0.625294  0.374706  0.250000  1
  F  F6  1  0.190290  0.809710  0.750000  1
  F  F7  1  0.189791  0.440664  0.749798  1
  F  F8  1  0.249337  0.500090  0.499168  1
  F  F9  1  0.500090  0.249337  0.999168  1
  F  F10  1  0.558960  0.441040  0.750000  1
  F  F11  1  0.559336  0.810209  0.750202  1
  F  F12  1  0.440664  0.189791  0.249798  1
  F  F13  1  0.441040  0.558960  0.250000  1
  F  F14  1  0.499910  0.750663  0.000832  1
  F  F15  1  0.750663  0.499910  0.500832  1
  F  F16  1  0.810209  0.559336  0.250202  1
  F  F17  1  0.809710  0.190290  0.250000  1
