# generated using pymatgen
data_Tl3SiF7
_symmetry_space_group_name_H-M   'P 1'
_cell_length_a   8.22738795
_cell_length_b   8.32319241
_cell_length_c   6.95082945
_cell_angle_alpha   90.87870145
_cell_angle_beta   89.76223484
_cell_angle_gamma   120.82280313
_symmetry_Int_Tables_number   1
_chemical_formula_structural   Tl3SiF7
_chemical_formula_sum   'Tl6 Si2 F14'
_cell_volume   408.69866956
_cell_formula_units_Z   2
loop_
 _symmetry_equiv_pos_site_id
 _symmetry_equiv_pos_as_xyz
  1  'x, y, z'
loop_
 _atom_site_type_symbol
 _atom_site_label
 _atom_site_symmetry_multiplicity
 _atom_site_fract_x
 _atom_site_fract_y
 _atom_site_fract_z
 _atom_site_occupancy
  Tl  Tl0  1  0.140848  0.832851  0.233776  1
  Tl  Tl1  1  0.166192  0.355075  0.249648  1
  Tl  Tl2  1  0.336678  0.166240  0.737941  1
  Tl  Tl3  1  0.689851  0.858228  0.246836  1
  Tl  Tl4  1  0.840073  0.689434  0.740197  1
  Tl  Tl5  1  0.841495  0.157004  0.749955  1
  Si  Si6  1  0.291836  0.645555  0.757182  1
  Si  Si7  1  0.625513  0.285855  0.253270  1
  F  F8  1  0.999037  0.971883  0.498588  1
  F  F9  1  0.304702  0.843453  0.853295  1
  F  F10  1  0.263470  0.440638  0.660181  1
  F  F11  1  0.977552  0.021968  0.001750  1
  F  F12  1  0.478202  0.774027  0.607211  1
  F  F13  1  0.446883  0.654405  0.927976  1
  F  F14  1  0.420005  0.255540  0.150142  1
  F  F15  1  0.483402  0.088105  0.390288  1
  F  F16  1  0.760003  0.480080  0.121044  1
  F  F17  1  0.613983  0.422140  0.435778  1
  F  F18  1  0.632546  0.143626  0.074008  1
  F  F19  1  0.820582  0.297565  0.357062  1
  F  F20  1  0.105253  0.513116  0.911072  1
  F  F21  1  0.133895  0.635211  0.585799  1
