# generated using pymatgen
data_RbAg4I5
_symmetry_space_group_name_H-M   'P 1'
_cell_length_a   11.74786956
_cell_length_b   11.94251123
_cell_length_c   11.69049438
_cell_angle_alpha   90.98768798
_cell_angle_beta   90.43693476
_cell_angle_gamma   88.51547786
_symmetry_Int_Tables_number   1
_chemical_formula_structural   RbAg4I5
_chemical_formula_sum   'Rb4 Ag16 I20'
_cell_volume   1639.32901669
_cell_formula_units_Z   4
loop_
 _symmetry_equiv_pos_site_id
 _symmetry_equiv_pos_as_xyz
  1  'x, y, z'
loop_
 _atom_site_type_symbol
 _atom_site_label
 _atom_site_symmetry_multiplicity
 _atom_site_fract_x
 _atom_site_fract_y
 _atom_site_fract_z
 _atom_site_occupancy
  Rb  Rb0  1  0.164081  0.626895  0.857586  1
  Rb  Rb1  1  0.365410  0.354374  0.425994  1
  Rb  Rb2  1  0.582703  0.889299  0.154769  1
  Rb  Rb3  1  0.879057  0.120335  0.636626  1
  Ag  Ag4  1  0.260840  0.024623  0.616088  1
  Ag  Ag5  1  0.343239  0.184686  0.976292  1
  Ag  Ag6  1  0.429410  0.859813  0.715126  1
  Ag  Ag7  1  0.667944  0.475464  0.757795  1
  Ag  Ag8  1  0.705744  0.525389  0.515921  1
  Ag  Ag9  1  0.585597  0.258187  0.963663  1
  Ag  Ag10  1  0.686092  0.772539  0.477648  1
  Ag  Ag11  1  0.770351  0.460792  0.012986  1
  Ag  Ag12  1  0.779682  0.556675  0.269126  1
  Ag  Ag13  1  0.847804  0.196678  0.991372  1
  Ag  Ag14  1  0.941597  0.758859  0.548061  1
  Ag  Ag15  1  0.997692  0.423055  0.240978  1
  Ag  Ag16  1  0.020717  0.173685  0.227040  1
  Ag  Ag17  1  0.995807  0.686059  0.290515  1
  Ag  Ag18  1  0.102624  0.275103  0.997227  1
  Ag  Ag19  1  0.039498  0.927740  0.243068  1
  I  I20  1  0.050381  0.041803  0.029083  1
  I  I21  1  0.079318  0.887887  0.689184  1
  I  I22  1  0.118230  0.172340  0.441421  1
  I  I23  1  0.198874  0.444175  0.130470  1
  I  I24  1  0.210413  0.776485  0.292869  1
  I  I25  1  0.250265  0.222145  0.770679  1
  I  I26  1  0.308706  0.584366  0.603403  1
  I  I27  1  0.387839  0.816870  0.934359  1
  I  I28  1  0.461575  0.173745  0.173304  1
  I  I29  1  0.481478  0.968135  0.522314  1
  I  I30  1  0.536687  0.485040  0.958034  1
  I  I31  1  0.559252  0.622810  0.335652  1
  I  I32  1  0.638576  0.313012  0.583704  1
  I  I33  1  0.686389  0.060904  0.884267  1
  I  I34  1  0.738734  0.702535  0.704458  1
  I  I35  1  0.794488  0.299407  0.218461  1
  I  I36  1  0.829252  0.929334  0.372278  1
  I  I37  1  0.865328  0.677756  0.079889  1
  I  I38  1  0.927308  0.375274  0.843877  1
  I  I39  1  0.957318  0.527125  0.469216  1
