# generated using pymatgen
data_S
_symmetry_space_group_name_H-M   'P 1'
_cell_length_a   14.80039076
_cell_length_b   14.80039081
_cell_length_c   4.99538303
_cell_angle_alpha   90.00000000
_cell_angle_beta   90.00000000
_cell_angle_gamma   119.99999985
_symmetry_Int_Tables_number   1
_chemical_formula_structural   S
_chemical_formula_sum   S18
_cell_volume   947.64525346
_cell_formula_units_Z   18
loop_
 _symmetry_equiv_pos_site_id
 _symmetry_equiv_pos_as_xyz
  1  'x, y, z'
loop_
 _atom_site_type_symbol
 _atom_site_label
 _atom_site_symmetry_multiplicity
 _atom_site_fract_x
 _atom_site_fract_y
 _atom_site_fract_z
 _atom_site_occupancy
  S  S0  1  0.298452  0.724531  0.755623  1
  S  S1  1  0.216609  0.332253  0.366642  1
  S  S2  1  0.115644  0.783391  0.366642  1
  S  S3  1  0.667747  0.884356  0.366642  1
  S  S4  1  0.134466  0.389039  0.235376  1
  S  S5  1  0.275469  0.573921  0.755623  1
  S  S6  1  0.581233  0.062358  0.325140  1
  S  S7  1  0.426079  0.701548  0.755623  1
  S  S8  1  0.558934  0.495563  0.012786  1
  S  S9  1  0.937642  0.518875  0.325140  1
  S  S10  1  0.254573  0.865534  0.235376  1
  S  S11  1  0.504437  0.063372  0.012786  1
  S  S12  1  0.481125  0.418767  0.325140  1
  S  S13  1  0.936628  0.441066  0.012786  1
  S  S14  1  0.610961  0.745427  0.235376  1
  S  S15  1  0.856068  0.587517  0.318434  1
  S  S16  1  0.412483  0.268550  0.318434  1
  S  S17  1  0.731450  0.143932  0.318434  1
