# generated using pymatgen
data_H5N2Cl
_symmetry_space_group_name_H-M   'P 1'
_cell_length_a   13.81760396
_cell_length_b   8.84935457
_cell_length_c   10.68999731
_cell_angle_alpha   89.49700597
_cell_angle_beta   39.82284067
_cell_angle_gamma   50.68015336
_symmetry_Int_Tables_number   1
_chemical_formula_structural   H5N2Cl
_chemical_formula_sum   'H20 N8 Cl4'
_cell_volume   170.87643772
_cell_formula_units_Z   4
loop_
 _symmetry_equiv_pos_site_id
 _symmetry_equiv_pos_as_xyz
  1  'x, y, z'
loop_
 _atom_site_type_symbol
 _atom_site_label
 _atom_site_symmetry_multiplicity
 _atom_site_fract_x
 _atom_site_fract_y
 _atom_site_fract_z
 _atom_site_occupancy
  H  H0  1  0.617939  0.661454  0.450559  1
  H  H1  1  0.270048  0.450559  0.661454  1
  H  H2  1  0.799441  0.979952  0.632061  1
  H  H3  1  0.588546  0.632061  0.979952  1
  H  H4  1  0.733692  0.458456  0.238170  1
  H  H5  1  0.569681  0.238170  0.458456  1
  H  H6  1  0.011830  0.680319  0.516308  1
  H  H7  1  0.791544  0.516308  0.680319  1
  H  H8  1  0.820013  0.599072  0.085052  1
  H  H9  1  0.495863  0.085052  0.599072  1
  H  H10  1  0.164948  0.754137  0.429987  1
  H  H11  1  0.650928  0.429987  0.754137  1
  H  H12  1  0.687290  0.624672  0.083932  1
  H  H13  1  0.604106  0.083932  0.624672  1
  H  H14  1  0.166068  0.645894  0.562710  1
  H  H15  1  0.625328  0.562710  0.645894  1
  H  H16  1  0.153811  0.478020  0.634209  1
  H  H17  1  0.733960  0.634209  0.478020  1
  H  H18  1  0.615791  0.516040  0.096189  1
  H  H19  1  0.771980  0.096189  0.516040  1
  N  N20  1  0.685683  0.701992  0.429281  1
  N  N21  1  0.183044  0.429281  0.701992  1
  N  N22  1  0.820719  0.066956  0.564317  1
  N  N23  1  0.548008  0.564317  0.066956  1
  N  N24  1  0.733677  0.569801  0.136375  1
  N  N25  1  0.560147  0.136375  0.569801  1
  N  N26  1  0.113625  0.689853  0.516323  1
  N  N27  1  0.680199  0.516323  0.689853  1
  Cl  Cl28  1  0.298279  0.178844  0.336711  1
  Cl  Cl29  1  0.186166  0.336711  0.178844  1
  Cl  Cl30  1  0.913289  0.063834  -0.048279  1
  Cl  Cl31  1  0.071156  -0.048279  0.063834  1
