# generated using pymatgen
data_K3(MoO3)10
_symmetry_space_group_name_H-M   'P 1'
_cell_length_a   9.74778970
_cell_length_b   9.68994427
_cell_length_c   9.55653506
_cell_angle_alpha   110.15705188
_cell_angle_beta   100.82853234
_cell_angle_gamma   111.93597063
_symmetry_Int_Tables_number   1
_chemical_formula_structural   K3(MoO3)10
_chemical_formula_sum   'K3 Mo10 O30'
_cell_volume   732.23837413
_cell_formula_units_Z   1
loop_
 _symmetry_equiv_pos_site_id
 _symmetry_equiv_pos_as_xyz
  1  'x, y, z'
loop_
 _atom_site_type_symbol
 _atom_site_label
 _atom_site_symmetry_multiplicity
 _atom_site_fract_x
 _atom_site_fract_y
 _atom_site_fract_z
 _atom_site_occupancy
  K  K0  1  0.276661  0.747914  0.343577  1
  K  K1  1  0.500000  0.500000  0.000000  1
  K  K2  1  0.723339  0.252086  0.656423  1
  Mo  Mo3  1  0.701290  0.781180  0.480402  1
  Mo  Mo4  1  0.602737  0.910495  0.762083  1
  Mo  Mo5  1  0.685240  0.924523  0.178827  1
  Mo  Mo6  1  0.199811  0.577365  0.659384  1
  Mo  Mo7  1  0.963119  0.788514  0.012135  1
  Mo  Mo8  1  0.036881  0.211486  0.987865  1
  Mo  Mo9  1  0.800189  0.422635  0.340616  1
  Mo  Mo10  1  0.314760  0.075477  0.821173  1
  Mo  Mo11  1  0.397263  0.089505  0.237917  1
  Mo  Mo12  1  0.298710  0.218820  0.519598  1
  O  O13  1  0.354889  0.279446  0.347012  1
  O  O14  1  0.591827  0.910131  0.548259  1
  O  O15  1  0.173380  0.177793  0.882622  1
  O  O16  1  0.790236  0.332918  0.147108  1
  O  O17  1  0.619478  0.881793  0.963994  1
  O  O18  1  0.951967  0.847862  0.861451  1
  O  O19  1  0.822081  0.103236  0.852136  1
  O  O20  1  0.104947  0.068817  0.435213  1
  O  O21  1  0.174614  0.874801  0.678781  1
  O  O22  1  0.364638  0.714931  0.633927  1
  O  O23  1  0.500501  0.958752  0.191191  1
  O  O24  1  0.386689  0.234477  0.740372  1
  O  O25  1  0.762180  0.593850  0.358472  1
  O  O26  1  0.889006  0.570987  0.918161  1
  O  O27  1  0.110994  0.429013  0.081839  1
  O  O28  1  0.237820  0.406150  0.641528  1
  O  O29  1  0.613311  0.765523  0.259628  1
  O  O30  1  0.499499  0.041248  0.808809  1
  O  O31  1  0.635362  0.285069  0.366073  1
  O  O32  1  0.825386  0.125199  0.321219  1
  O  O33  1  0.000000  0.500000  0.500000  1
  O  O34  1  0.895053  0.931183  0.564787  1
  O  O35  1  0.177919  0.896764  0.147864  1
  O  O36  1  0.048033  0.152138  0.138549  1
  O  O37  1  0.380522  0.118207  0.036006  1
  O  O38  1  0.209764  0.667082  0.852892  1
  O  O39  1  0.826620  0.822207  0.117378  1
  O  O40  1  0.408173  0.089869  0.451741  1
  O  O41  1  0.500000  0.500000  0.500000  1
  O  O42  1  0.645111  0.720554  0.652988  1
