# generated using pymatgen
data_POs6C18ClO18
_symmetry_space_group_name_H-M   'P 1'
_cell_length_a   9.22224037
_cell_length_b   10.42822918
_cell_length_c   17.53574357
_cell_angle_alpha   91.50209890
_cell_angle_beta   90.87122021
_cell_angle_gamma   114.69370915
_symmetry_Int_Tables_number   1
_chemical_formula_structural   POs6C18ClO18
_chemical_formula_sum   'P2 Os12 C36 Cl2 O36'
_cell_volume   1531.06111313
_cell_formula_units_Z   2
loop_
 _symmetry_equiv_pos_site_id
 _symmetry_equiv_pos_as_xyz
  1  'x, y, z'
loop_
 _atom_site_type_symbol
 _atom_site_label
 _atom_site_symmetry_multiplicity
 _atom_site_fract_x
 _atom_site_fract_y
 _atom_site_fract_z
 _atom_site_occupancy
  P  P0  1  0.840380  0.697783  0.248833  1
  P  P1  1  0.159620  0.302217  0.751167  1
  Os  Os2  1  0.827343  0.874995  0.327967  1
  Os  Os3  1  0.755728  0.449620  0.249044  1
  Os  Os4  1  0.244272  0.550380  0.750956  1
  Os  Os5  1  0.430229  0.375193  0.776686  1
  Os  Os6  1  0.569771  0.624807  0.223314  1
  Os  Os7  1  0.938398  0.089385  0.798209  1
  Os  Os8  1  0.830039  0.639189  0.117967  1
  Os  Os9  1  0.966577  0.670125  0.369176  1
  Os  Os10  1  0.033423  0.329875  0.630824  1
  Os  Os11  1  0.169961  0.360811  0.882033  1
  Os  Os12  1  0.061602  0.910615  0.201791  1
  Os  Os13  1  0.172657  0.125005  0.672033  1
  C  C14  1  0.676314  0.825917  0.407836  1
  C  C15  1  0.801407  0.912799  0.749889  1
  C  C16  1  0.323686  0.174083  0.592164  1
  C  C17  1  0.434328  0.574569  0.309287  1
  C  C18  1  0.198593  0.087201  0.250111  1
  C  C19  1  0.004905  0.984138  0.611908  1
  C  C20  1  0.052574  0.999103  0.846847  1
  C  C21  1  0.477906  0.237551  0.827998  1
  C  C22  1  0.677728  0.487262  0.056405  1
  C  C23  1  0.995095  0.015862  0.388092  1
  C  C24  1  0.255935  0.001226  0.713878  1
  C  C25  1  0.169581  0.232934  0.958206  1
  C  C26  1  0.612493  0.300783  0.182350  1
  C  C27  1  0.655089  0.345166  0.335997  1
  C  C28  1  0.895651  0.204438  0.552409  1
  C  C29  1  0.322272  0.512738  0.943595  1
  C  C30  1  0.013408  0.512156  0.392213  1
  C  C31  1  0.387507  0.699217  0.817650  1
  C  C32  1  0.581666  0.525965  0.838412  1
  C  C33  1  0.192476  0.923341  0.114449  1
  C  C34  1  0.104349  0.795562  0.447591  1
  C  C35  1  0.418334  0.474035  0.161588  1
  C  C36  1  0.990782  0.395858  0.910327  1
  C  C37  1  0.807524  0.076659  0.885551  1
  C  C38  1  0.744065  0.998774  0.286122  1
  C  C39  1  0.344911  0.654834  0.664003  1
  C  C40  1  0.210475  0.396028  0.566648  1
  C  C41  1  0.565672  0.425431  0.690713  1
  C  C42  1  0.928054  0.395872  0.235309  1
  C  C43  1  0.830419  0.767066  0.041794  1
  C  C44  1  0.009218  0.604142  0.089673  1
  C  C45  1  0.789525  0.603972  0.433352  1
  C  C46  1  0.986592  0.487844  0.607787  1
  C  C47  1  0.071946  0.604128  0.764691  1
  C  C48  1  0.522094  0.762449  0.172002  1
  C  C49  1  0.947426  0.000897  0.153152  1
  Cl  Cl50  1  0.191376  0.782358  0.278444  1
  Cl  Cl51  1  0.808624  0.217642  0.721556  1
  O  O52  1  0.028752  0.413813  0.413715  1
  O  O53  1  0.593486  0.277566  0.387718  1
  O  O54  1  0.678664  0.618471  0.874303  1
  O  O55  1  0.587513  0.401496  0.014684  1
  O  O56  1  0.418421  0.197997  0.545405  1
  O  O57  1  0.412487  0.598504  0.985316  1
  O  O58  1  0.809041  0.132505  0.504651  1
  O  O59  1  0.167368  0.158363  0.006921  1
  O  O60  1  0.278902  0.197491  0.277362  1
  O  O61  1  0.487293  0.841689  0.139242  1
  O  O62  1  0.721098  0.802509  0.722638  1
  O  O63  1  0.525744  0.203756  0.145470  1
  O  O64  1  0.901180  0.896975  0.576261  1
  O  O65  1  0.682443  0.561170  0.473865  1
  O  O66  1  0.881874  0.418942  0.926976  1
  O  O67  1  0.832632  0.841637  0.993079  1
  O  O68  1  0.649964  0.458703  0.639243  1
  O  O69  1  0.406514  0.722434  0.612282  1
  O  O70  1  0.321336  0.381529  0.125697  1
  O  O71  1  0.190959  0.867495  0.495349  1
  O  O72  1  0.121268  0.940886  0.875665  1
  O  O73  1  0.512707  0.158311  0.860758  1
  O  O74  1  0.118126  0.581058  0.073024  1
  O  O75  1  0.970134  0.640835  0.773756  1
  O  O76  1  0.263286  0.934979  0.059217  1
  O  O77  1  0.878732  0.059114  0.124335  1
  O  O78  1  0.581579  0.802003  0.454595  1
  O  O79  1  0.350036  0.541297  0.360756  1
  O  O80  1  0.736714  0.065021  0.940783  1
  O  O81  1  0.474256  0.796244  0.854530  1
  O  O82  1  0.029866  0.359165  0.226244  1
  O  O83  1  0.688659  0.073478  0.264468  1
  O  O84  1  0.311341  0.926522  0.735532  1
  O  O85  1  0.317557  0.438830  0.526135  1
  O  O86  1  0.098820  0.103025  0.423739  1
  O  O87  1  0.971248  0.586187  0.586285  1
