# generated using pymatgen
data_Li6Br3N
_symmetry_space_group_name_H-M   'P 1'
_cell_length_a   6.38527557
_cell_length_b   6.33003263
_cell_length_c   6.38934460
_cell_angle_alpha   60.26420571
_cell_angle_beta   59.40758986
_cell_angle_gamma   60.52899486
_symmetry_Int_Tables_number   1
_chemical_formula_structural   Li6Br3N
_chemical_formula_sum   'Li6 Br3 N1'
_cell_volume   182.84997344
_cell_formula_units_Z   1
loop_
 _symmetry_equiv_pos_site_id
 _symmetry_equiv_pos_as_xyz
  1  'x, y, z'
loop_
 _atom_site_type_symbol
 _atom_site_label
 _atom_site_symmetry_multiplicity
 _atom_site_fract_x
 _atom_site_fract_y
 _atom_site_fract_z
 _atom_site_occupancy
  Li  Li0  1  0.295861  0.704140  0.134657  1
  Li  Li1  1  0.246988  0.183921  0.818708  1
  Li  Li2  1  0.138587  0.861413  0.734138  1
  Li  Li3  1  0.887817  0.112183  0.294531  1
  Li  Li4  1  0.740596  0.259404  0.893354  1
  Li  Li5  1  0.816079  0.753012  0.249618  1
  Br  Br6  1  0.250677  0.249631  0.250346  1
  Br  Br7  1  0.501439  0.498561  0.502021  1
  Br  Br8  1  0.750369  0.749323  0.750654  1
  N  N9  1  0.013788  0.986212  0.014172  1
