# generated using pymatgen
data_Sr(H2N)2
_symmetry_space_group_name_H-M   'P 1'
_cell_length_a   7.76665338
_cell_length_b   7.77998039
_cell_length_c   6.69307242
_cell_angle_alpha   90.00000000
_cell_angle_beta   124.89866072
_cell_angle_gamma   90.00000000
_symmetry_Int_Tables_number   1
_chemical_formula_structural   Sr(H2N)2
_chemical_formula_sum   'Sr4 H16 N8'
_cell_volume   331.69529712
_cell_formula_units_Z   4
loop_
 _symmetry_equiv_pos_site_id
 _symmetry_equiv_pos_as_xyz
  1  'x, y, z'
loop_
 _atom_site_type_symbol
 _atom_site_label
 _atom_site_symmetry_multiplicity
 _atom_site_fract_x
 _atom_site_fract_y
 _atom_site_fract_z
 _atom_site_occupancy
  Sr  Sr0  1  0.249397  0.377588  0.251042  1
  Sr  Sr1  1  0.750603  0.877588  0.248958  1
  Sr  Sr2  1  0.750603  0.622412  0.748958  1
  Sr  Sr3  1  0.249397  0.122412  0.751042  1
  H  H4  1  0.065697  0.034331  0.186465  1
  H  H5  1  0.934303  0.534331  0.313535  1
  H  H6  1  0.934303  0.965669  0.813535  1
  H  H7  1  0.065697  0.465669  0.686465  1
  H  H8  1  0.892166  0.177651  0.134275  1
  H  H9  1  0.107834  0.677651  0.365725  1
  H  H10  1  0.107834  0.822349  0.865725  1
  H  H11  1  0.892166  0.322349  0.634275  1
  H  H12  1  0.626187  0.225691  0.298315  1
  H  H13  1  0.373813  0.725691  0.201685  1
  H  H14  1  0.373813  0.774309  0.701685  1
  H  H15  1  0.626187  0.274309  0.798315  1
  H  H16  1  0.523897  0.088404  0.383723  1
  H  H17  1  0.476103  0.588404  0.116277  1
  H  H18  1  0.476103  0.911596  0.616277  1
  H  H19  1  0.523897  0.411596  0.883723  1
  N  N20  1  0.023933  0.115196  0.274226  1
  N  N21  1  0.976067  0.615196  0.225774  1
  N  N22  1  0.976067  0.884804  0.725774  1
  N  N23  1  0.023933  0.384804  0.774226  1
  N  N24  1  0.503247  0.140022  0.229441  1
  N  N25  1  0.496753  0.640022  0.270559  1
  N  N26  1  0.496753  0.859978  0.770559  1
  N  N27  1  0.503247  0.359978  0.729441  1
