# generated using pymatgen
data_Sr3Nd4O9
_symmetry_space_group_name_H-M   'P 1'
_cell_length_a   8.20365325
_cell_length_b   7.53263623
_cell_length_c   9.61256640
_cell_angle_alpha   100.34146639
_cell_angle_beta   96.58848629
_cell_angle_gamma   106.20998632
_symmetry_Int_Tables_number   1
_chemical_formula_structural   Sr3Nd4O9
_chemical_formula_sum   'Sr6 Nd8 O18'
_cell_volume   552.51883175
_cell_formula_units_Z   2
loop_
 _symmetry_equiv_pos_site_id
 _symmetry_equiv_pos_as_xyz
  1  'x, y, z'
loop_
 _atom_site_type_symbol
 _atom_site_label
 _atom_site_symmetry_multiplicity
 _atom_site_fract_x
 _atom_site_fract_y
 _atom_site_fract_z
 _atom_site_occupancy
  Sr  Sr0  1  0.282945  0.734256  0.011126  1
  Sr  Sr1  1  0.249473  0.388573  0.626943  1
  Sr  Sr2  1  0.435778  0.364148  0.949860  1
  Sr  Sr3  1  0.909839  0.033156  0.585058  1
  Sr  Sr4  1  0.644351  0.095131  0.095200  1
  Sr  Sr5  1  0.920345  0.418914  0.363350  1
  Nd  Nd6  1  0.887076  0.441918  0.913361  1
  Nd  Nd7  1  0.050093  0.055463  0.974111  1
  Nd  Nd8  1  0.373640  0.896209  0.351567  1
  Nd  Nd9  1  0.411511  0.418472  0.300504  1
  Nd  Nd10  1  0.643689  0.757381  0.712165  1
  Nd  Nd11  1  0.200086  0.825695  0.649153  1
  Nd  Nd12  1  0.835113  0.785127  0.223339  1
  Nd  Nd13  1  0.629841  0.270440  0.582893  1
  O  O14  1  0.951214  0.814917  0.755253  1
  O  O15  1  0.031146  0.823413  0.423690  1
  O  O16  1  0.241752  0.565097  0.418378  1
  O  O17  1  0.946358  0.366861  0.629157  1
  O  O18  1  0.374246  0.699418  0.787898  1
  O  O19  1  0.150840  0.397100  -0.007438  1
  O  O20  1  0.498962  0.935339  0.579759  1
  O  O21  1  0.505370  0.712075  0.186864  1
  O  O22  1  0.355935  0.200762  0.442010  1
  O  O23  1  0.231579  0.130528  0.745886  1
  O  O24  1  0.348362  0.113003  0.098072  1
  O  O25  1  0.644393  0.551148  0.485166  1
  O  O26  1  0.625370  0.478475  0.792126  1
  O  O27  1  0.009005  0.748402  0.057763  1
  O  O28  1  0.737319  0.435536  0.119888  1
  O  O29  1  0.779582  0.097740  0.853657  1
  O  O30  1  0.674275  0.108893  0.365914  1
  O  O31  1  0.921110  0.081807  0.173327  1
