# generated using pymatgen
data_NiPS3
_symmetry_space_group_name_H-M   'P 1'
_cell_length_a   5.81954920
_cell_length_b   5.82144437
_cell_length_c   6.89594751
_cell_angle_alpha   81.97228078
_cell_angle_beta   73.77902304
_cell_angle_gamma   60.00989692
_symmetry_Int_Tables_number   1
_chemical_formula_structural   NiPS3
_chemical_formula_sum   'Ni2 P2 S6'
_cell_volume   194.28793159
_cell_formula_units_Z   2
loop_
 _symmetry_equiv_pos_site_id
 _symmetry_equiv_pos_as_xyz
  1  'x, y, z'
loop_
 _atom_site_type_symbol
 _atom_site_label
 _atom_site_symmetry_multiplicity
 _atom_site_fract_x
 _atom_site_fract_y
 _atom_site_fract_z
 _atom_site_occupancy
  Ni  Ni0  1  0.333132  0.333724  -0.000001  1
  Ni  Ni1  1  0.666868  0.666276  0.000001  1
  P  P2  1  0.055203  0.000010  0.835118  1
  P  P3  1  0.944797  0.999990  0.164882  1
  S  S4  1  0.076291  0.345745  0.770768  1
  S  S5  1  0.577974  0.345720  0.229227  1
  S  S6  1  0.269526  0.999979  0.229346  1
  S  S7  1  0.730474  0.000021  0.770654  1
  S  S8  1  0.422026  0.654280  0.770773  1
  S  S9  1  0.923709  0.654255  0.229232  1
