# generated using pymatgen
data_Si3Ru2
_symmetry_space_group_name_H-M   'P 1'
_cell_length_a   5.76999373
_cell_length_b   8.84220663
_cell_length_c   11.10406132
_cell_angle_alpha   90.00000000
_cell_angle_beta   90.00000000
_cell_angle_gamma   90.00000000
_symmetry_Int_Tables_number   1
_chemical_formula_structural   Si3Ru2
_chemical_formula_sum   'Si24 Ru16'
_cell_volume   566.52339906
_cell_formula_units_Z   8
loop_
 _symmetry_equiv_pos_site_id
 _symmetry_equiv_pos_as_xyz
  1  'x, y, z'
loop_
 _atom_site_type_symbol
 _atom_site_label
 _atom_site_symmetry_multiplicity
 _atom_site_fract_x
 _atom_site_fract_y
 _atom_site_fract_z
 _atom_site_occupancy
  Si  Si0  1  0.994446  0.873559  0.537992  1
  Si  Si1  1  0.494446  0.626441  0.962008  1
  Si  Si2  1  0.499097  0.503069  0.626009  1
  Si  Si3  1  0.999097  0.496931  0.626009  1
  Si  Si4  1  0.005554  0.626441  0.037992  1
  Si  Si5  1  0.505554  0.873559  0.462008  1
  Si  Si6  1  0.775083  0.807917  0.268924  1
  Si  Si7  1  0.500903  0.996931  0.126009  1
  Si  Si8  1  0.000903  0.503069  0.373991  1
  Si  Si9  1  0.500903  0.496931  0.373991  1
  Si  Si10  1  0.724917  0.307917  0.768924  1
  Si  Si11  1  0.994446  0.373559  0.962008  1
  Si  Si12  1  0.275083  0.192083  0.268924  1
  Si  Si13  1  0.000903  0.003069  0.126009  1
  Si  Si14  1  0.775083  0.307917  0.231076  1
  Si  Si15  1  0.005554  0.126441  0.462008  1
  Si  Si16  1  0.275083  0.692083  0.231076  1
  Si  Si17  1  0.224917  0.192083  0.731076  1
  Si  Si18  1  0.224917  0.692083  0.768924  1
  Si  Si19  1  0.724917  0.807917  0.731076  1
  Si  Si20  1  0.499097  0.003069  0.873991  1
  Si  Si21  1  0.999097  0.996931  0.873991  1
  Si  Si22  1  0.494446  0.126441  0.537992  1
  Si  Si23  1  0.505554  0.373559  0.037992  1
  Ru  Ru24  1  0.250000  0.670835  0.500000  1
  Ru  Ru25  1  0.750000  0.829165  0.000000  1
  Ru  Ru26  1  0.250000  0.344649  0.500000  1
  Ru  Ru27  1  0.863502  0.569473  0.821168  1
  Ru  Ru28  1  0.636498  0.069473  0.321168  1
  Ru  Ru29  1  0.750000  0.655351  0.500000  1
  Ru  Ru30  1  0.136498  0.430527  0.178832  1
  Ru  Ru31  1  0.750000  0.155351  0.000000  1
  Ru  Ru32  1  0.863502  0.069473  0.678832  1
  Ru  Ru33  1  0.250000  0.844649  0.000000  1
  Ru  Ru34  1  0.636498  0.569473  0.178832  1
  Ru  Ru35  1  0.250000  0.170835  0.000000  1
  Ru  Ru36  1  0.363502  0.930527  0.678832  1
  Ru  Ru37  1  0.136498  0.930527  0.321168  1
  Ru  Ru38  1  0.750000  0.329165  0.500000  1
  Ru  Ru39  1  0.363502  0.430527  0.821168  1
