# generated using pymatgen
data_Na3LaTi2Nb2O12
_symmetry_space_group_name_H-M   'P 1'
_cell_length_a   11.13779060
_cell_length_b   7.82634420
_cell_length_c   7.78856742
_cell_angle_alpha   90.09000254
_cell_angle_beta   90.06324339
_cell_angle_gamma   45.35728783
_symmetry_Int_Tables_number   1
_chemical_formula_structural   Na3LaTi2Nb2O12
_chemical_formula_sum   'Na6 La2 Ti4 Nb4 O24'
_cell_volume   483.04925807
_cell_formula_units_Z   2
loop_
 _symmetry_equiv_pos_site_id
 _symmetry_equiv_pos_as_xyz
  1  'x, y, z'
loop_
 _atom_site_type_symbol
 _atom_site_label
 _atom_site_symmetry_multiplicity
 _atom_site_fract_x
 _atom_site_fract_y
 _atom_site_fract_z
 _atom_site_occupancy
  Na  Na0  1  0.995126  0.504874  0.250000  1
  Na  Na1  1  0.499345  0.000655  0.250000  1
  Na  Na2  1  0.000655  -0.000655  0.750000  1
  Na  Na3  1  0.504874  0.495126  0.750000  1
  Na  Na4  1  0.507721  0.492279  0.250000  1
  Na  Na5  1  0.992279  0.507721  0.750000  1
  La  La6  1  0.007807  0.992193  0.250000  1
  La  La7  1  0.492193  0.007807  0.750000  1
  Ti  Ti8  1  0.250000  0.500000  0.000000  1
  Ti  Ti9  1  0.250000  0.000000  0.500000  1
  Ti  Ti10  1  0.750000  0.500000  0.000000  1
  Ti  Ti11  1  0.750000  0.000000  0.500000  1
  Nb  Nb12  1  0.250000  0.000000  0.000000  1
  Nb  Nb13  1  0.250000  0.500000  0.500000  1
  Nb  Nb14  1  0.750000  0.000000  0.000000  1
  Nb  Nb15  1  0.750000  0.500000  0.500000  1
  O  O16  1  0.997713  0.252944  0.030954  1
  O  O17  1  0.002539  0.247879  0.468927  1
  O  O18  1  0.232804  0.070855  0.747663  1
  O  O19  1  0.265054  0.237175  0.042527  1
  O  O20  1  0.265054  0.232717  0.457473  1
  O  O21  1  0.232804  0.463537  0.752337  1
  O  O22  1  0.267196  0.536463  0.247663  1
  O  O23  1  0.234946  0.767283  0.542527  1
  O  O24  1  0.234946  0.762825  0.957473  1
  O  O25  1  0.497461  0.252956  0.968927  1
  O  O26  1  0.502287  0.248370  0.530954  1
  O  O27  1  0.267196  0.929145  0.252337  1
  O  O28  1  0.770905  0.022780  0.748046  1
  O  O29  1  0.497461  0.752121  0.531073  1
  O  O30  1  0.502287  0.747056  0.969046  1
  O  O31  1  0.755131  0.247361  0.054241  1
  O  O32  1  0.755131  0.242377  0.445759  1
  O  O33  1  0.770905  0.435410  0.751954  1
  O  O34  1  0.729095  0.564590  0.248046  1
  O  O35  1  0.744869  0.757623  0.554241  1
  O  O36  1  0.744869  0.752639  0.945759  1
  O  O37  1  0.729095  0.977220  0.251954  1
  O  O38  1  0.997713  0.751630  0.469046  1
  O  O39  1  0.002539  0.747044  0.031073  1
