# generated using pymatgen
data_RhC2IO2
_symmetry_space_group_name_H-M   'P 1'
_cell_length_a   9.53865487
_cell_length_b   9.72047695
_cell_length_c   11.47676719
_cell_angle_alpha   90.00000000
_cell_angle_beta   96.16892578
_cell_angle_gamma   90.00000000
_symmetry_Int_Tables_number   1
_chemical_formula_structural   RhC2IO2
_chemical_formula_sum   'Rh8 C16 I8 O16'
_cell_volume   1057.96705216
_cell_formula_units_Z   8
loop_
 _symmetry_equiv_pos_site_id
 _symmetry_equiv_pos_as_xyz
  1  'x, y, z'
loop_
 _atom_site_type_symbol
 _atom_site_label
 _atom_site_symmetry_multiplicity
 _atom_site_fract_x
 _atom_site_fract_y
 _atom_site_fract_z
 _atom_site_occupancy
  Rh  Rh0  1  0.897820  0.789960  0.687313  1
  Rh  Rh1  1  0.858202  0.441476  0.630642  1
  Rh  Rh2  1  0.397820  0.710040  0.187313  1
  Rh  Rh3  1  0.102180  0.210040  0.312687  1
  Rh  Rh4  1  0.641798  0.941476  0.869358  1
  Rh  Rh5  1  0.602180  0.289960  0.812687  1
  Rh  Rh6  1  0.358202  0.058524  0.130642  1
  Rh  Rh7  1  0.141798  0.558524  0.369358  1
  C  C8  1  0.228154  0.643807  0.502844  1
  C  C9  1  -0.000274  0.690440  0.354706  1
  C  C10  1  0.771846  0.356193  0.497156  1
  C  C11  1  0.271846  0.143807  0.997156  1
  C  C12  1  0.852720  0.930993  0.580749  1
  C  C13  1  0.352720  0.569007  0.080749  1
  C  C14  1  0.433973  0.376423  0.759113  1
  C  C15  1  0.000274  0.309560  0.645294  1
  C  C16  1  0.500274  0.190440  0.145294  1
  C  C17  1  0.147280  0.069007  0.419251  1
  C  C18  1  0.566027  0.623577  0.240887  1
  C  C19  1  0.728154  0.856193  0.002844  1
  C  C20  1  0.647280  0.430993  0.919251  1
  C  C21  1  0.933973  0.123577  0.259113  1
  C  C22  1  0.499726  0.809560  0.854706  1
  C  C23  1  0.066027  0.876423  0.740887  1
  I  I24  1  0.519160  0.072566  0.674222  1
  I  I25  1  0.019160  0.427434  0.174222  1
  I  I26  1  0.980840  0.572566  0.825778  1
  I  I27  1  0.663868  0.645974  0.605323  1
  I  I28  1  0.480840  0.927434  0.325778  1
  I  I29  1  0.836132  0.145974  0.894677  1
  I  I30  1  0.163868  0.854026  0.105323  1
  I  I31  1  0.336132  0.354026  0.394677  1
  O  O32  1  0.667107  0.520367  0.986037  1
  O  O33  1  0.332893  0.479633  0.013963  1
  O  O34  1  0.412718  0.725698  0.848249  1
  O  O35  1  0.167107  0.979633  0.486037  1
  O  O36  1  0.781195  0.799244  0.084927  1
  O  O37  1  0.218805  0.200756  0.915073  1
  O  O38  1  0.087282  0.225698  0.651751  1
  O  O39  1  0.912718  0.774302  0.348249  1
  O  O40  1  0.718805  0.299244  0.415073  1
  O  O41  1  0.671265  0.568738  0.272774  1
  O  O42  1  0.587282  0.274302  0.151751  1
  O  O43  1  0.281195  0.700756  0.584927  1
  O  O44  1  0.832893  0.020367  0.513963  1
  O  O45  1  0.828735  0.068738  0.227226  1
  O  O46  1  0.171265  0.931262  0.772774  1
  O  O47  1  0.328735  0.431262  0.727226  1
