# generated using pymatgen
data_Fe2CoSe4
_symmetry_space_group_name_H-M   'P 1'
_cell_length_a   4.67136311
_cell_length_b   5.89686908
_cell_length_c   5.06173871
_cell_angle_alpha   114.58416300
_cell_angle_beta   89.40639281
_cell_angle_gamma   112.70170942
_symmetry_Int_Tables_number   1
_chemical_formula_structural   Fe2CoSe4
_chemical_formula_sum   'Fe2 Co1 Se4'
_cell_volume   115.08012913
_cell_formula_units_Z   1
loop_
 _symmetry_equiv_pos_site_id
 _symmetry_equiv_pos_as_xyz
  1  'x, y, z'
loop_
 _atom_site_type_symbol
 _atom_site_label
 _atom_site_symmetry_multiplicity
 _atom_site_fract_x
 _atom_site_fract_y
 _atom_site_fract_z
 _atom_site_occupancy
  Fe  Fe0  1  0.136053  0.158809  0.398789  1
  Fe  Fe1  1  0.389173  0.771889  0.206961  1
  Co  Co2  1  0.912088  0.747310  0.540575  1
  Se  Se3  1  0.869453  0.692218  0.049099  1
  Se  Se4  1  0.375824  0.673234  0.612710  1
  Se  Se5  1  0.668582  0.229552  0.306359  1
  Se  Se6  1  0.148828  0.226988  0.885505  1
