# generated using pymatgen
data_Na2H6C4O7
_symmetry_space_group_name_H-M   'P 1'
_cell_length_a   8.35764196
_cell_length_b   8.35764196
_cell_length_c   14.79774067
_cell_angle_alpha   64.91782281
_cell_angle_beta   115.08217719
_cell_angle_gamma   155.21912904
_symmetry_Int_Tables_number   1
_chemical_formula_structural   Na2H6C4O7
_chemical_formula_sum   'Na4 H12 C8 O14'
_cell_volume   390.30837518
_cell_formula_units_Z   2
loop_
 _symmetry_equiv_pos_site_id
 _symmetry_equiv_pos_as_xyz
  1  'x, y, z'
loop_
 _atom_site_type_symbol
 _atom_site_label
 _atom_site_symmetry_multiplicity
 _atom_site_fract_x
 _atom_site_fract_y
 _atom_site_fract_z
 _atom_site_occupancy
  Na  Na0  1  0.105714  0.401400  0.778970  1
  Na  Na1  1  0.401400  0.105714  0.721030  1
  Na  Na2  1  0.894286  0.598600  0.221030  1
  Na  Na3  1  0.598600  0.894286  0.278970  1
  H  H4  1  0.099775  0.163221  0.690671  1
  H  H5  1  0.163221  0.099775  0.809329  1
  H  H6  1  0.900225  0.836779  0.309329  1
  H  H7  1  0.836779  0.900225  0.190671  1
  H  H8  1  0.742569  0.765959  0.913864  1
  H  H9  1  0.765959  0.742569  0.586136  1
  H  H10  1  0.257431  0.234041  0.086136  1
  H  H11  1  0.234041  0.257431  0.413864  1
  H  H12  1  0.710396  0.889387  0.948956  1
  H  H13  1  0.889387  0.710396  0.551044  1
  H  H14  1  0.289604  0.110613  0.051044  1
  H  H15  1  0.110613  0.289604  0.448956  1
  C  C16  1  0.994085  0.510280  0.926173  1
  C  C17  1  0.510280  0.994085  0.573827  1
  C  C18  1  0.005915  0.489720  0.073827  1
  C  C19  1  0.489720  0.005915  0.426173  1
  C  C20  1  0.040382  0.671784  0.976128  1
  C  C21  1  0.671784  0.040382  0.523872  1
  C  C22  1  0.959618  0.328216  0.023872  1
  C  C23  1  0.328216  0.959618  0.476128  1
  O  O24  1  0.988766  0.525762  0.836262  1
  O  O25  1  0.525762  0.988766  0.663738  1
  O  O26  1  0.011234  0.474238  0.163738  1
  O  O27  1  0.474238  0.011234  0.336262  1
  O  O28  1  0.093431  0.883511  0.946983  1
  O  O29  1  0.883511  0.093431  0.553017  1
  O  O30  1  0.906569  0.116489  0.053017  1
  O  O31  1  0.116489  0.906569  0.446983  1
  O  O32  1  0.291900  0.291900  0.750000  1
  O  O33  1  0.708100  0.708100  0.250000  1
  O  O34  1  0.657468  0.813255  0.890412  1
  O  O35  1  0.813255  0.657468  0.609588  1
  O  O36  1  0.342532  0.186745  0.109588  1
  O  O37  1  0.186745  0.342532  0.390412  1
