# generated using pymatgen
data_BaHfMo
_symmetry_space_group_name_H-M   'P 1'
_cell_length_a   4.87792472
_cell_length_b   4.87792543
_cell_length_c   4.87792678
_cell_angle_alpha   59.99996264
_cell_angle_beta   59.99995919
_cell_angle_gamma   59.99998724
_symmetry_Int_Tables_number   1
_chemical_formula_structural   BaHfMo
_chemical_formula_sum   'Ba1 Hf1 Mo1'
_cell_volume   82.07109574
_cell_formula_units_Z   1
loop_
 _symmetry_equiv_pos_site_id
 _symmetry_equiv_pos_as_xyz
  1  'x, y, z'
loop_
 _atom_site_type_symbol
 _atom_site_label
 _atom_site_symmetry_multiplicity
 _atom_site_fract_x
 _atom_site_fract_y
 _atom_site_fract_z
 _atom_site_occupancy
  Ba  Ba0  1  1.000000  0.000000  0.000000  1
  Hf  Hf1  1  0.500000  0.500000  0.500000  1
  Mo  Mo2  1  0.750000  0.750000  0.750000  1
