# generated using pymatgen
data_K3Cr4PO16
_symmetry_space_group_name_H-M   'P 1'
_cell_length_a   7.72572929
_cell_length_b   7.72572953
_cell_length_c   15.09081933
_cell_angle_alpha   99.92050079
_cell_angle_beta   99.92050110
_cell_angle_gamma   102.21114140
_symmetry_Int_Tables_number   1
_chemical_formula_structural   K3Cr4PO16
_chemical_formula_sum   'K6 Cr8 P2 O32'
_cell_volume   846.55787979
_cell_formula_units_Z   2
loop_
 _symmetry_equiv_pos_site_id
 _symmetry_equiv_pos_as_xyz
  1  'x, y, z'
loop_
 _atom_site_type_symbol
 _atom_site_label
 _atom_site_symmetry_multiplicity
 _atom_site_fract_x
 _atom_site_fract_y
 _atom_site_fract_z
 _atom_site_occupancy
  K  K0  1  0.322474  0.251414  0.827702  1
  K  K1  1  0.251414  0.322474  0.327702  1
  K  K2  1  0.822678  0.802577  0.337853  1
  K  K3  1  0.802577  0.822678  0.837853  1
  K  K4  1  0.581094  0.131862  0.109824  1
  K  K5  1  0.131862  0.581094  0.609824  1
  Cr  Cr6  1  0.318962  0.792737  0.857662  1
  Cr  Cr7  1  0.723200  0.602084  0.067572  1
  Cr  Cr8  1  0.822782  0.279533  0.737196  1
  Cr  Cr9  1  0.107717  0.232551  0.041158  1
  Cr  Cr10  1  0.602084  0.723200  0.567572  1
  Cr  Cr11  1  0.279533  0.822782  0.237196  1
  Cr  Cr12  1  0.792737  0.318962  0.357662  1
  Cr  Cr13  1  0.232551  0.107717  0.541158  1
  P  P14  1  0.111525  0.647769  0.016854  1
  P  P15  1  0.647769  0.111525  0.516854  1
  O  O16  1  0.956956  0.481974  0.763964  1
  O  O17  1  0.959624  0.493725  0.409552  1
  O  O18  1  0.097300  0.157385  0.459991  1
  O  O19  1  0.622402  0.390836  0.312120  1
  O  O20  1  0.641421  0.281104  0.776679  1
  O  O21  1  0.390836  0.622402  0.812120  1
  O  O22  1  0.249071  0.255854  0.138114  1
  O  O23  1  0.727946  0.179014  0.439519  1
  O  O24  1  0.157385  0.097300  0.959991  1
  O  O25  1  0.493725  0.959624  0.909552  1
  O  O26  1  0.255854  0.249071  0.638114  1
  O  O27  1  0.136564  0.925231  0.278101  1
  O  O28  1  0.782450  0.649265  0.590218  1
  O  O29  1  0.856564  0.192547  0.277849  1
  O  O30  1  0.281104  0.641421  0.276679  1
  O  O31  1  0.542704  0.798607  0.662330  1
  O  O32  1  0.128559  0.450822  0.003899  1
  O  O33  1  0.649265  0.782450  0.090218  1
  O  O34  1  0.436601  0.565208  0.499003  1
  O  O35  1  0.225520  0.764872  0.109665  1
  O  O36  1  0.153266  0.900324  0.549351  1
  O  O37  1  0.450822  0.128559  0.503899  1
  O  O38  1  0.657558  0.910568  0.505725  1
  O  O39  1  0.179014  0.727946  0.939519  1
  O  O40  1  0.798607  0.542704  0.162330  1
  O  O41  1  0.900324  0.153266  0.049351  1
  O  O42  1  0.764872  0.225520  0.609665  1
  O  O43  1  0.481974  0.956956  0.263964  1
  O  O44  1  0.192547  0.856564  0.777849  1
  O  O45  1  0.925231  0.136564  0.778101  1
  O  O46  1  0.565208  0.436601  0.999003  1
  O  O47  1  0.910568  0.657558  0.005725  1
