# generated using pymatgen
data_LaRe2Ag
_symmetry_space_group_name_H-M   'P 1'
_cell_length_a   4.78457158
_cell_length_b   4.78383575
_cell_length_c   4.78464223
_cell_angle_alpha   59.98548126
_cell_angle_beta   59.99328485
_cell_angle_gamma   60.00140102
_symmetry_Int_Tables_number   1
_chemical_formula_structural   LaRe2Ag
_chemical_formula_sum   'La1 Re2 Ag1'
_cell_volume   77.42632888
_cell_formula_units_Z   1
loop_
 _symmetry_equiv_pos_site_id
 _symmetry_equiv_pos_as_xyz
  1  'x, y, z'
loop_
 _atom_site_type_symbol
 _atom_site_label
 _atom_site_symmetry_multiplicity
 _atom_site_fract_x
 _atom_site_fract_y
 _atom_site_fract_z
 _atom_site_occupancy
  La  La0  1  0.250069  0.250003  0.250088  1
  Re  Re1  1  0.000007  0.999989  0.000019  1
  Re  Re2  1  0.749880  0.749959  0.749871  1
  Ag  Ag3  1  0.500044  0.500048  0.500022  1
