# generated using pymatgen
data_BaBe2Si2O7
_symmetry_space_group_name_H-M   'P 1'
_cell_length_a   4.73264959
_cell_length_b   9.91805148
_cell_length_c   11.84159534
_cell_angle_alpha   90.00000000
_cell_angle_beta   90.00000000
_cell_angle_gamma   90.00000000
_symmetry_Int_Tables_number   1
_chemical_formula_structural   BaBe2Si2O7
_chemical_formula_sum   'Ba4 Be8 Si8 O28'
_cell_volume   555.82864441
_cell_formula_units_Z   4
loop_
 _symmetry_equiv_pos_site_id
 _symmetry_equiv_pos_as_xyz
  1  'x, y, z'
loop_
 _atom_site_type_symbol
 _atom_site_label
 _atom_site_symmetry_multiplicity
 _atom_site_fract_x
 _atom_site_fract_y
 _atom_site_fract_z
 _atom_site_occupancy
  Be  Be0  1  0.704957  0.162935  0.500555  1
  Be  Be1  1  0.704957  0.162935  0.999445  1
  Be  Be2  1  0.204957  0.337065  0.000555  1
  Be  Be3  1  0.795043  0.662935  0.500555  1
  Be  Be4  1  0.295043  0.837065  0.499445  1
  Be  Be5  1  0.204957  0.337065  0.499445  1
  Be  Be6  1  0.795043  0.662935  0.999445  1
  Be  Be7  1  0.295043  0.837065  0.000555  1
  O  O8  1  0.703133  0.856180  0.750000  1
  O  O9  1  0.296867  0.143820  0.250000  1
  O  O10  1  0.796867  0.356180  0.750000  1
  O  O11  1  0.203133  0.643820  0.250000  1
  O  O12  1  0.861685  0.109952  0.112145  1
  O  O13  1  0.361685  0.390048  0.887855  1
  O  O14  1  0.638315  0.609952  0.387855  1
  O  O15  1  0.138315  0.890048  0.612145  1
  O  O16  1  0.138315  0.890048  0.887855  1
  O  O17  1  0.638315  0.609952  0.112145  1
  O  O18  1  0.361685  0.390048  0.612145  1
  O  O19  1  0.861685  0.109952  0.387855  1
  O  O20  1  0.215244  0.430340  0.386941  1
  O  O21  1  0.715244  0.069660  0.613059  1
  O  O22  1  0.284756  0.930340  0.113059  1
  O  O23  1  0.784756  0.569660  0.886941  1
  O  O24  1  0.784756  0.569660  0.613059  1
  O  O25  1  0.284756  0.930340  0.386941  1
  O  O26  1  0.715244  0.069660  0.886941  1
  O  O27  1  0.215244  0.430340  0.113059  1
  O  O28  1  0.363090  0.189168  0.469006  1
  O  O29  1  0.863090  0.310832  0.530994  1
  O  O30  1  0.136910  0.689168  0.030994  1
  O  O31  1  0.636910  0.810832  0.969006  1
  O  O32  1  0.636910  0.810832  0.530994  1
  O  O33  1  0.136910  0.689168  0.469006  1
  O  O34  1  0.863090  0.310832  0.969006  1
  O  O35  1  0.363090  0.189168  0.030994  1
  Si  Si36  1  0.202313  0.088807  0.121606  1
  Si  Si37  1  0.702313  0.411193  0.878394  1
  Si  Si38  1  0.297687  0.588807  0.378394  1
  Si  Si39  1  0.797687  0.911193  0.621606  1
  Si  Si40  1  0.797687  0.911193  0.878394  1
  Si  Si41  1  0.297687  0.588807  0.121606  1
  Si  Si42  1  0.702313  0.411193  0.621606  1
  Si  Si43  1  0.202313  0.088807  0.378394  1
  Ba  Ba44  1  0.749536  0.848245  0.250000  1
  Ba  Ba45  1  0.249535  0.651755  0.750000  1
  Ba  Ba46  1  0.750464  0.348245  0.250000  1
  Ba  Ba47  1  0.250464  0.151755  0.750000  1
