# generated using pymatgen
data_Gd3Co29(Si2B5)2
_symmetry_space_group_name_H-M   'P 1'
_cell_length_a   7.81672572
_cell_length_b   11.15207421
_cell_length_c   11.15207421
_cell_angle_alpha   90.00000000
_cell_angle_beta   90.00000000
_cell_angle_gamma   90.00000000
_symmetry_Int_Tables_number   1
_chemical_formula_structural   Gd3Co29(Si2B5)2
_chemical_formula_sum   'Gd6 Co58 Si8 B20'
_cell_volume   972.15647869
_cell_formula_units_Z   2
loop_
 _symmetry_equiv_pos_site_id
 _symmetry_equiv_pos_as_xyz
  1  'x, y, z'
loop_
 _atom_site_type_symbol
 _atom_site_label
 _atom_site_symmetry_multiplicity
 _atom_site_fract_x
 _atom_site_fract_y
 _atom_site_fract_z
 _atom_site_occupancy
  Gd  Gd0  1  0.000000  0.500000  0.000000  1
  Gd  Gd1  1  0.500000  0.750000  0.250000  1
  Gd  Gd2  1  0.500000  0.250000  0.750000  1
  Gd  Gd3  1  0.000000  0.500000  0.500000  1
  Gd  Gd4  1  0.000000  0.000000  0.500000  1
  Gd  Gd5  1  0.000000  0.000000  0.000000  1
  Co  Co6  1  0.697507  0.140035  0.140035  1
  Co  Co7  1  0.888258  0.860022  0.250000  1
  Co  Co8  1  0.663900  0.575479  0.088652  1
  Co  Co9  1  0.249735  0.364264  0.135736  1
  Co  Co10  1  0.697507  0.359965  0.140035  1
  Co  Co11  1  0.111742  0.750000  0.139978  1
  Co  Co12  1  0.888258  0.250000  0.860022  1
  Co  Co13  1  0.030212  0.750000  0.914892  1
  Co  Co14  1  0.249735  0.364264  0.364264  1
  Co  Co15  1  0.336100  0.075479  0.588652  1
  Co  Co16  1  0.527157  0.750000  0.522558  1
  Co  Co17  1  0.302493  0.640035  0.859965  1
  Co  Co18  1  0.336100  0.911348  0.424521  1
  Co  Co19  1  0.302493  0.640035  0.640035  1
  Co  Co20  1  0.527157  0.750000  0.977442  1
  Co  Co21  1  0.336100  0.075479  0.911348  1
  Co  Co22  1  0.472843  0.250000  0.022558  1
  Co  Co23  1  0.532251  0.750000  0.750000  1
  Co  Co24  1  0.030212  0.750000  0.585108  1
  Co  Co25  1  0.888258  0.250000  0.639978  1
  Co  Co26  1  0.472843  0.250000  0.477442  1
  Co  Co27  1  0.336100  0.588652  0.075479  1
  Co  Co28  1  0.111742  0.139978  0.750000  1
  Co  Co29  1  0.663900  0.088652  0.924521  1
  Co  Co30  1  0.663900  0.088652  0.575479  1
  Co  Co31  1  0.249735  0.135736  0.135736  1
  Co  Co32  1  0.663900  0.924521  0.411348  1
  Co  Co33  1  0.697507  0.140035  0.359965  1
  Co  Co34  1  0.336100  0.424521  0.588652  1
  Co  Co35  1  0.249735  0.135736  0.364264  1
  Co  Co36  1  0.663900  0.924521  0.088652  1
  Co  Co37  1  0.302493  0.859965  0.640035  1
  Co  Co38  1  0.888258  0.639978  0.250000  1
  Co  Co39  1  0.969788  0.250000  0.085108  1
  Co  Co40  1  0.472843  0.022558  0.250000  1
  Co  Co41  1  0.527157  0.977442  0.750000  1
  Co  Co42  1  0.663900  0.411348  0.924521  1
  Co  Co43  1  0.969788  0.414892  0.250000  1
  Co  Co44  1  0.750265  0.635736  0.864264  1
  Co  Co45  1  0.750265  0.864264  0.864264  1
  Co  Co46  1  0.750265  0.864264  0.635736  1
  Co  Co47  1  0.111742  0.750000  0.360022  1
  Co  Co48  1  0.750265  0.635736  0.635736  1
  Co  Co49  1  0.111742  0.360022  0.750000  1
  Co  Co50  1  0.663900  0.575479  0.411348  1
  Co  Co51  1  0.030212  0.914892  0.750000  1
  Co  Co52  1  0.030212  0.585108  0.750000  1
  Co  Co53  1  0.663900  0.411348  0.575479  1
  Co  Co54  1  0.969788  0.250000  0.414892  1
  Co  Co55  1  0.697507  0.359965  0.359965  1
  Co  Co56  1  0.472843  0.477442  0.250000  1
  Co  Co57  1  0.302493  0.859965  0.859965  1
  Co  Co58  1  0.467749  0.250000  0.250000  1
  Co  Co59  1  0.336100  0.588652  0.424521  1
  Co  Co60  1  0.336100  0.911348  0.075479  1
  Co  Co61  1  0.336100  0.424521  0.911348  1
  Co  Co62  1  0.969788  0.085108  0.250000  1
  Co  Co63  1  0.527157  0.522558  0.750000  1
  Si  Si64  1  0.825088  0.750000  0.431399  1
  Si  Si65  1  0.825088  0.750000  0.068601  1
  Si  Si66  1  0.825088  0.431399  0.750000  1
  Si  Si67  1  0.174912  0.250000  0.568601  1
  Si  Si68  1  0.174912  0.931399  0.250000  1
  Si  Si69  1  0.825088  0.068601  0.750000  1
  Si  Si70  1  0.174912  0.568601  0.250000  1
  Si  Si71  1  0.174912  0.250000  0.931399  1
  B  B72  1  0.481217  0.436318  0.063682  1
  B  B73  1  0.101067  0.250000  0.250000  1
  B  B74  1  0.736471  0.505779  0.250000  1
  B  B75  1  0.481217  0.063682  0.436318  1
  B  B76  1  0.848714  0.250000  0.250000  1
  B  B77  1  0.518783  0.563682  0.936318  1
  B  B78  1  0.518783  0.563682  0.563682  1
  B  B79  1  0.518783  0.936318  0.936318  1
  B  B80  1  0.263529  0.750000  0.494221  1
  B  B81  1  0.898933  0.750000  0.750000  1
  B  B82  1  0.736471  0.250000  0.994221  1
  B  B83  1  0.151286  0.750000  0.750000  1
  B  B84  1  0.481217  0.436318  0.436318  1
  B  B85  1  0.736471  0.250000  0.505779  1
  B  B86  1  0.263529  0.005779  0.750000  1
  B  B87  1  0.481217  0.063682  0.063682  1
  B  B88  1  0.263529  0.494221  0.750000  1
  B  B89  1  0.263529  0.750000  0.005779  1
  B  B90  1  0.736471  0.994221  0.250000  1
  B  B91  1  0.518783  0.936318  0.563682  1
