# generated using pymatgen
data_Nb2Pb3O8
_symmetry_space_group_name_H-M   'P 1'
_cell_length_a   15.34007797
_cell_length_b   10.84602343
_cell_length_c   7.67507505
_cell_angle_alpha   89.97750609
_cell_angle_beta   59.94088859
_cell_angle_gamma   44.94206769
_symmetry_Int_Tables_number   1
_chemical_formula_structural   Nb2Pb3O8
_chemical_formula_sum   'Nb6 Pb9 O24'
_cell_volume   636.40419142
_cell_formula_units_Z   3
loop_
 _symmetry_equiv_pos_site_id
 _symmetry_equiv_pos_as_xyz
  1  'x, y, z'
loop_
 _atom_site_type_symbol
 _atom_site_label
 _atom_site_symmetry_multiplicity
 _atom_site_fract_x
 _atom_site_fract_y
 _atom_site_fract_z
 _atom_site_occupancy
  Nb  Nb0  1  0.990696  0.009011  0.000362  1
  Nb  Nb1  1  0.500014  0.995672  0.990936  1
  Nb  Nb2  1  0.507396  0.994850  0.483038  1
  Nb  Nb3  1  0.747960  0.003801  0.508860  1
  Nb  Nb4  1  0.749333  0.501413  0.998849  1
  Nb  Nb5  1  0.998463  0.007073  0.493815  1
  Pb  Pb6  1  0.020874  0.481237  0.989960  1
  Pb  Pb7  1  0.014543  0.483296  0.480259  1
  Pb  Pb8  1  0.249135  0.002024  0.503703  1
  Pb  Pb9  1  0.248177  0.503004  0.002323  1
  Pb  Pb10  1  0.250006  0.501429  0.498731  1
  Pb  Pb11  1  0.249691  0.002867  0.992283  1
  Pb  Pb12  1  0.485807  0.521381  0.012881  1
  Pb  Pb13  1  0.477849  0.523967  0.530857  1
  Pb  Pb14  1  0.748819  0.001051  0.999387  1
  O  O15  1  0.983764  0.345532  0.762065  1
  O  O16  1  0.297690  0.084962  0.246123  1
  O  O17  1  0.293143  0.327530  0.172769  1
  O  O18  1  0.299377  0.081935  0.663582  1
  O  O19  1  0.505846  0.060589  0.244753  1
  O  O20  1  0.203919  0.676576  0.262201  1
  O  O21  1  0.291319  0.327454  0.746159  1
  O  O22  1  0.992641  0.942146  0.758128  1
  O  O23  1  0.198414  0.920663  0.345732  1
  O  O24  1  0.207080  0.675348  0.829005  1
  O  O25  1  0.196821  0.923921  0.766635  1
  O  O26  1  0.514296  0.316752  0.733224  1
  O  O27  1  0.511665  0.657599  0.234217  1
  O  O28  1  0.825090  0.043882  0.236973  1
  O  O29  1  0.826119  0.301270  0.106126  1
  O  O30  1  0.823574  0.044607  0.618783  1
  O  O31  1  0.001982  0.045908  0.248392  1
  O  O32  1  0.668614  0.703564  0.262997  1
  O  O33  1  0.822668  0.300971  0.746538  1
  O  O34  1  0.493920  0.957450  0.755848  1
  O  O35  1  0.673329  0.957269  0.389390  1
  O  O36  1  0.671576  0.703809  0.897153  1
  O  O37  1  0.673649  0.958600  0.768407  1
  O  O38  1  0.983228  0.685582  0.265191  1
