# generated using pymatgen
data_Nd(MnSn)6
_symmetry_space_group_name_H-M   'P 1'
_cell_length_a   5.50269682
_cell_length_b   9.05269665
_cell_length_c   15.21419190
_cell_angle_alpha   107.32612412
_cell_angle_beta   100.42568930
_cell_angle_gamma   90.00443469
_symmetry_Int_Tables_number   1
_chemical_formula_structural   Nd(MnSn)6
_chemical_formula_sum   'Nd3 Mn18 Sn18'
_cell_volume   710.37344657
_cell_formula_units_Z   3
loop_
 _symmetry_equiv_pos_site_id
 _symmetry_equiv_pos_as_xyz
  1  'x, y, z'
loop_
 _atom_site_type_symbol
 _atom_site_label
 _atom_site_symmetry_multiplicity
 _atom_site_fract_x
 _atom_site_fract_y
 _atom_site_fract_z
 _atom_site_occupancy
  Nd  Nd0  1  0.329745  0.829961  0.661181  1
  Nd  Nd1  1  0.668600  0.168809  0.339043  1
  Nd  Nd2  1  0.999684  0.998970  0.000791  1
  Mn  Mn3  1  0.167582  0.414552  0.334301  1
  Mn  Mn4  1  0.332346  0.834817  0.167618  1
  Mn  Mn5  1  0.668284  0.667889  0.833715  1
  Mn  Mn6  1  0.500493  0.752580  0.000492  1
  Mn  Mn7  1  0.164231  0.164603  0.832521  1
  Mn  Mn8  1  0.835011  0.331214  0.167846  1
  Mn  Mn9  1  0.829629  0.079711  0.666065  1
  Mn  Mn10  1  0.164878  0.667782  0.833184  1
  Mn  Mn11  1  0.498737  0.997957  0.500250  1
  Mn  Mn12  1  0.500960  0.246223  0.000444  1
  Mn  Mn13  1  0.999002  0.997747  0.500498  1
  Mn  Mn14  1  0.000057  0.498261  0.499900  1
  Mn  Mn15  1  0.834855  0.835078  0.167441  1
  Mn  Mn16  1  0.832875  0.583722  0.666361  1
  Mn  Mn17  1  0.332577  0.331336  0.167896  1
  Mn  Mn18  1  0.166562  0.917898  0.334094  1
  Mn  Mn19  1  0.666156  0.164140  0.832543  1
  Mn  Mn20  1  0.499732  0.498162  0.500246  1
  Sn  Sn21  1  0.001224  0.333863  0.000653  1
  Sn  Sn22  1  0.886720  0.886908  0.775587  1
  Sn  Sn23  1  0.112297  0.112249  0.225243  1
  Sn  Sn24  1  0.224564  0.223622  0.450567  1
  Sn  Sn25  1  0.444031  0.444365  0.889773  1
  Sn  Sn26  1  0.109851  0.609287  0.219849  1
  Sn  Sn27  1  0.780484  0.279378  0.562722  1
  Sn  Sn28  1  0.888393  0.389319  0.780335  1
  Sn  Sn29  1  0.218626  0.717450  0.437732  1
  Sn  Sn30  1  0.334420  0.497925  0.668447  1
  Sn  Sn31  1  0.556807  0.056312  0.113887  1
  Sn  Sn32  1  0.666060  0.501007  0.332392  1
  Sn  Sn33  1  0.441987  0.942645  0.886399  1
  Sn  Sn34  1  0.331187  0.169502  0.667561  1
  Sn  Sn35  1  0.774212  0.773130  0.550451  1
  Sn  Sn36  1  0.666167  0.829740  0.332535  1
  Sn  Sn37  1  0.556197  0.554553  0.111587  1
  Sn  Sn38  1  0.000035  0.663381  0.000216  1
