# generated using pymatgen
data_Lu5(In2Ni)2
_symmetry_space_group_name_H-M   'P 1'
_cell_length_a   3.53172512
_cell_length_b   7.88045340
_cell_length_c   17.66641617
_cell_angle_alpha   89.99982546
_cell_angle_beta   90.00026256
_cell_angle_gamma   90.00004413
_symmetry_Int_Tables_number   1
_chemical_formula_structural   Lu5(In2Ni)2
_chemical_formula_sum   'Lu10 In8 Ni4'
_cell_volume   491.68454400
_cell_formula_units_Z   2
loop_
 _symmetry_equiv_pos_site_id
 _symmetry_equiv_pos_as_xyz
  1  'x, y, z'
loop_
 _atom_site_type_symbol
 _atom_site_label
 _atom_site_symmetry_multiplicity
 _atom_site_fract_x
 _atom_site_fract_y
 _atom_site_fract_z
 _atom_site_occupancy
  Lu  Lu0  1  0.000002  0.884004  0.588062  1
  Lu  Lu1  1  0.000000  0.754605  0.779343  1
  Lu  Lu2  1  0.999991  0.745383  0.279330  1
  Lu  Lu3  1  0.999999  0.383998  0.911934  1
  Lu  Lu4  1  0.000003  0.115987  0.411897  1
  Lu  Lu5  1  0.999989  0.245380  0.220670  1
  Lu  Lu6  1  0.000002  0.499993  0.499994  1
  Lu  Lu7  1  0.000002  0.254639  0.720663  1
  Lu  Lu8  1  0.999996  0.615979  0.088107  1
  Lu  Lu9  1  0.999994  0.999977  0.000006  1
  In  In10  1  0.500008  0.206357  0.567767  1
  In  In11  1  0.499998  0.424876  0.348063  1
  In  In12  1  0.500002  0.575144  0.651956  1
  In  In13  1  0.499998  0.075135  0.848039  1
  In  In14  1  0.499999  0.924925  0.151935  1
  In  In15  1  0.500001  0.793644  0.432228  1
  In  In16  1  0.499998  0.706350  0.932228  1
  In  In17  1  0.499988  0.293631  0.067737  1
  Ni  Ni18  1  0.500016  0.975884  0.696456  1
  Ni  Ni19  1  0.499990  0.024132  0.303529  1
  Ni  Ni20  1  0.500019  0.524122  0.196501  1
  Ni  Ni21  1  0.500007  0.475854  0.803557  1
