# generated using pymatgen
data_Ba4NaCu(CO5)2
_symmetry_space_group_name_H-M   'P 1'
_cell_length_a   5.91011968
_cell_length_b   5.91011968
_cell_length_c   8.87900128
_cell_angle_alpha   109.43968986
_cell_angle_beta   109.43968989
_cell_angle_gamma   89.99999995
_symmetry_Int_Tables_number   1
_chemical_formula_structural   Ba4NaCu(CO5)2
_chemical_formula_sum   'Ba4 Na1 Cu1 C2 O10'
_cell_volume   273.63859866
_cell_formula_units_Z   1
loop_
 _symmetry_equiv_pos_site_id
 _symmetry_equiv_pos_as_xyz
  1  'x, y, z'
loop_
 _atom_site_type_symbol
 _atom_site_label
 _atom_site_symmetry_multiplicity
 _atom_site_fract_x
 _atom_site_fract_y
 _atom_site_fract_z
 _atom_site_occupancy
  C  C0  1  0.233525  0.233525  0.467051  1
  C  C1  1  0.766475  0.766475  0.532949  1
  O  O2  1  0.590592  0.862670  0.453262  1
  O  O3  1  0.137330  0.137330  0.546738  1
  O  O4  1  0.850370  0.850370  0.700739  1
  O  O5  1  0.149630  0.149630  0.299261  1
  O  O6  1  0.409408  0.409408  0.546738  1
  O  O7  1  0.862670  0.590592  0.453262  1
  O  O8  1  0.720553  0.273874  0.994427  1
  O  O9  1  0.279447  0.279447  0.005573  1
  O  O10  1  0.726126  0.726126  0.005573  1
  O  O11  1  0.273874  0.720553  0.994427  1
  Na  Na12  1  0.000000  0.000000  0.000000  1
  Cu  Cu13  1  0.500000  0.500000  0.000000  1
  Ba  Ba14  1  0.116944  0.616944  0.233888  1
  Ba  Ba15  1  0.383056  0.883056  0.766112  1
  Ba  Ba16  1  0.883056  0.383056  0.766112  1
  Ba  Ba17  1  0.616944  0.116944  0.233888  1
