# generated using pymatgen
data_K10Zr3Cd(MoO4)12
_symmetry_space_group_name_H-M   'P 1'
_cell_length_a   14.29875572
_cell_length_b   14.29875520
_cell_length_c   14.29875548
_cell_angle_alpha   44.66522037
_cell_angle_beta   44.66522245
_cell_angle_gamma   44.66521946
_symmetry_Int_Tables_number   1
_chemical_formula_structural   K10Zr3Cd(MoO4)12
_chemical_formula_sum   'K10 Zr3 Cd1 Mo12 O48'
_cell_volume   1313.95345909
_cell_formula_units_Z   1
loop_
 _symmetry_equiv_pos_site_id
 _symmetry_equiv_pos_as_xyz
  1  'x, y, z'
loop_
 _atom_site_type_symbol
 _atom_site_label
 _atom_site_symmetry_multiplicity
 _atom_site_fract_x
 _atom_site_fract_y
 _atom_site_fract_z
 _atom_site_occupancy
  K  K0  1  0.104921  0.104921  0.104921  1
  K  K1  1  0.399043  0.399043  0.399043  1
  K  K2  1  0.121005  0.492997  0.885018  1
  K  K3  1  0.492997  0.885018  0.121005  1
  K  K4  1  0.885018  0.121005  0.492997  1
  K  K5  1  0.602153  0.602153  0.602153  1
  K  K6  1  0.389502  0.993240  0.616300  1
  K  K7  1  0.616300  0.389502  0.993240  1
  K  K8  1  0.993240  0.616300  0.389502  1
  K  K9  1  0.896007  0.896007  0.896007  1
  Zr  Zr10  1  0.999278  0.999278  0.999278  1
  Zr  Zr11  1  0.248922  0.248922  0.248922  1
  Zr  Zr12  1  0.751323  0.751323  0.751323  1
  Cd  Cd13  1  0.499495  0.499495  0.499495  1
  Mo  Mo14  1  0.011660  0.368669  0.770073  1
  Mo  Mo15  1  0.368669  0.770073  0.011660  1
  Mo  Mo16  1  0.129094  0.731305  0.482138  1
  Mo  Mo17  1  0.770073  0.011660  0.368669  1
  Mo  Mo18  1  0.482138  0.129094  0.731305  1
  Mo  Mo19  1  0.731305  0.482138  0.129094  1
  Mo  Mo20  1  0.267494  0.871232  0.514903  1
  Mo  Mo21  1  0.514903  0.267494  0.871232  1
  Mo  Mo22  1  0.228900  0.631190  0.985504  1
  Mo  Mo23  1  0.871232  0.514903  0.267494  1
  Mo  Mo24  1  0.631190  0.985504  0.228900  1
  Mo  Mo25  1  0.985504  0.228900  0.631190  1
  O  O26  1  0.052761  0.356362  0.242385  1
  O  O27  1  0.242385  0.052761  0.356362  1
  O  O28  1  0.356362  0.242385  0.052761  1
  O  O29  1  0.140931  0.256067  0.452231  1
  O  O30  1  0.043207  0.074388  0.784887  1
  O  O31  1  0.074388  0.784887  0.043207  1
  O  O32  1  0.256067  0.452231  0.140931  1
  O  O33  1  0.452231  0.140931  0.256067  1
  O  O34  1  0.134997  0.348803  0.604486  1
  O  O35  1  0.784887  0.043207  0.074388  1
  O  O36  1  0.348803  0.604486  0.134997  1
  O  O37  1  0.127684  0.684696  0.397443  1
  O  O38  1  0.097814  0.366198  0.816934  1
  O  O39  1  0.604486  0.134997  0.348803  1
  O  O40  1  0.397443  0.127684  0.684696  1
  O  O41  1  0.366198  0.816934  0.097814  1
  O  O42  1  0.157855  0.893487  0.356992  1
  O  O43  1  0.684696  0.397443  0.127684  1
  O  O44  1  0.268668  0.576081  0.549228  1
  O  O45  1  0.356992  0.157855  0.893487  1
  O  O46  1  0.816934  0.097814  0.366198  1
  O  O47  1  0.549228  0.268668  0.576081  1
  O  O48  1  0.103248  0.846882  0.638155  1
  O  O49  1  0.576081  0.549228  0.268668  1
  O  O50  1  0.893487  0.356992  0.157855  1
  O  O51  1  0.420554  0.731613  0.447225  1
  O  O52  1  0.447225  0.420554  0.731613  1
  O  O53  1  0.181503  0.630955  0.901865  1
  O  O54  1  0.638155  0.103248  0.846882  1
  O  O55  1  0.731613  0.447225  0.420554  1
  O  O56  1  0.314290  0.868994  0.602276  1
  O  O57  1  0.846882  0.638155  0.103248  1
  O  O58  1  0.630955  0.901865  0.181503  1
  O  O59  1  0.602276  0.314290  0.868994  1
  O  O60  1  0.392541  0.655453  0.860557  1
  O  O61  1  0.901865  0.181503  0.630955  1
  O  O62  1  0.868994  0.602276  0.314290  1
  O  O63  1  0.655453  0.860557  0.392541  1
  O  O64  1  0.213777  0.922833  0.954796  1
  O  O65  1  0.860557  0.392541  0.655453  1
  O  O66  1  0.547907  0.745188  0.855892  1
  O  O67  1  0.745188  0.855892  0.547907  1
  O  O68  1  0.922833  0.954796  0.213777  1
  O  O69  1  0.954796  0.213777  0.922833  1
  O  O70  1  0.855892  0.547907  0.745188  1
  O  O71  1  0.640610  0.947755  0.758582  1
  O  O72  1  0.758582  0.640610  0.947755  1
  O  O73  1  0.947755  0.758582  0.640610  1
