# generated using pymatgen
data_NaIn(SiO3)2
_symmetry_space_group_name_H-M   'P 1'
_cell_length_a   5.44675344
_cell_length_b   6.84615551
_cell_length_c   6.84615552
_cell_angle_alpha   85.24893952
_cell_angle_beta   77.17608557
_cell_angle_gamma   77.17608552
_symmetry_Int_Tables_number   1
_chemical_formula_structural   NaIn(SiO3)2
_chemical_formula_sum   'Na2 In2 Si4 O12'
_cell_volume   242.56061727
_cell_formula_units_Z   2
loop_
 _symmetry_equiv_pos_site_id
 _symmetry_equiv_pos_as_xyz
  1  'x, y, z'
loop_
 _atom_site_type_symbol
 _atom_site_label
 _atom_site_symmetry_multiplicity
 _atom_site_fract_x
 _atom_site_fract_y
 _atom_site_fract_z
 _atom_site_occupancy
  O  O0  1  0.319801  0.398588  0.885707  1
  O  O1  1  0.979913  0.358164  0.337078  1
  O  O2  1  0.479913  0.337078  0.358164  1
  O  O3  1  0.020087  0.641836  0.662922  1
  O  O4  1  0.847006  0.199621  0.039428  1
  O  O5  1  0.652994  0.960572  0.800379  1
  O  O6  1  0.180199  0.114293  0.601412  1
  O  O7  1  0.347006  0.039428  0.199621  1
  O  O8  1  0.680199  0.601412  0.114293  1
  O  O9  1  0.819801  0.885707  0.398588  1
  O  O10  1  0.152994  0.800379  0.960572  1
  O  O11  1  0.520087  0.662922  0.641836  1
  Na  Na12  1  0.750000  0.302169  0.697831  1
  Na  Na13  1  0.250000  0.697831  0.302169  1
  Si  Si14  1  0.251633  0.205436  0.377254  1
  Si  Si15  1  0.248367  0.622746  0.794564  1
  Si  Si16  1  0.751633  0.377254  0.205436  1
  Si  Si17  1  0.748367  0.794564  0.622746  1
  In  In18  1  0.750000  0.893558  0.106442  1
  In  In19  1  0.250000  0.106442  0.893558  1
