# generated using pymatgen
data_RbVI3
_symmetry_space_group_name_H-M   'P 1'
_cell_length_a   14.03014042
_cell_length_b   14.03014027
_cell_length_c   7.02979157
_cell_angle_alpha   90.00000000
_cell_angle_beta   90.00000000
_cell_angle_gamma   120.00000035
_symmetry_Int_Tables_number   1
_chemical_formula_structural   RbVI3
_chemical_formula_sum   'Rb6 V6 I18'
_cell_volume   1198.38705590
_cell_formula_units_Z   6
loop_
 _symmetry_equiv_pos_site_id
 _symmetry_equiv_pos_as_xyz
  1  'x, y, z'
loop_
 _atom_site_type_symbol
 _atom_site_label
 _atom_site_symmetry_multiplicity
 _atom_site_fract_x
 _atom_site_fract_y
 _atom_site_fract_z
 _atom_site_occupancy
  Rb  Rb0  1  0.668610  0.668610  0.795347  1
  Rb  Rb1  1  0.331390  0.000000  0.795347  1
  Rb  Rb2  1  0.331390  0.331390  0.295347  1
  Rb  Rb3  1  1.000000  0.668610  0.295347  1
  Rb  Rb4  1  0.000000  0.331390  0.795347  1
  Rb  Rb5  1  0.668610  0.000000  0.295347  1
  V  V6  1  0.333333  0.666667  0.095385  1
  V  V7  1  0.000000  0.000000  0.999755  1
  V  V8  1  0.666667  0.333333  0.095385  1
  V  V9  1  0.333333  0.666667  0.595385  1
  V  V10  1  0.666667  0.333333  0.595385  1
  V  V11  1  0.000000  0.000000  0.499755  1
  I  I12  1  0.000000  0.839895  0.747940  1
  I  I13  1  0.506038  0.332440  0.846602  1
  I  I14  1  0.173598  0.506038  0.346602  1
  I  I15  1  0.160105  0.000000  0.247940  1
  I  I16  1  0.826402  0.493962  0.846602  1
  I  I17  1  0.506038  0.173598  0.346602  1
  I  I18  1  0.493962  0.826402  0.846602  1
  I  I19  1  0.493962  0.667560  0.346602  1
  I  I20  1  0.839895  0.839895  0.247940  1
  I  I21  1  0.826402  0.332440  0.346602  1
  I  I22  1  0.173598  0.667560  0.846602  1
  I  I23  1  1.000000  0.160105  0.247940  1
  I  I24  1  0.332440  0.826402  0.346602  1
  I  I25  1  0.667560  0.493962  0.346602  1
  I  I26  1  0.332440  0.506038  0.846602  1
  I  I27  1  0.839895  0.000000  0.747940  1
  I  I28  1  0.667560  0.173598  0.846602  1
  I  I29  1  0.160105  0.160105  0.747940  1
