# generated using pymatgen
data_Fe3(GeO4)2
_symmetry_space_group_name_H-M   'P 1'
_cell_length_a   8.47158884
_cell_length_b   8.62723675
_cell_length_c   9.31908337
_cell_angle_alpha   117.40875299
_cell_angle_beta   90.00000000
_cell_angle_gamma   90.00000000
_symmetry_Int_Tables_number   1
_chemical_formula_structural   Fe3(GeO4)2
_chemical_formula_sum   'Fe12 Ge8 O32'
_cell_volume   604.64163933
_cell_formula_units_Z   4
loop_
 _symmetry_equiv_pos_site_id
 _symmetry_equiv_pos_as_xyz
  1  'x, y, z'
loop_
 _atom_site_type_symbol
 _atom_site_label
 _atom_site_symmetry_multiplicity
 _atom_site_fract_x
 _atom_site_fract_y
 _atom_site_fract_z
 _atom_site_occupancy
  Fe  Fe0  1  0.116558  0.705696  0.363095  1
  Fe  Fe1  1  0.640703  0.961965  0.890116  1
  Fe  Fe2  1  0.885140  0.678053  0.872944  1
  Fe  Fe3  1  0.616558  0.794304  0.136905  1
  Fe  Fe4  1  0.883442  0.294304  0.636905  1
  Fe  Fe5  1  0.359297  0.038035  0.109884  1
  Fe  Fe6  1  0.385140  0.821947  0.627056  1
  Fe  Fe7  1  0.859297  0.461965  0.390116  1
  Fe  Fe8  1  0.383442  0.205696  0.863095  1
  Fe  Fe9  1  0.114860  0.321947  0.127056  1
  Fe  Fe10  1  0.614860  0.178053  0.372944  1
  Fe  Fe11  1  0.140703  0.538035  0.609884  1
  Ge  Ge12  1  0.751653  0.382384  0.011714  1
  Ge  Ge13  1  0.251653  0.117616  0.488286  1
  Ge  Ge14  1  0.248347  0.617616  0.988286  1
  Ge  Ge15  1  0.748347  0.882384  0.511714  1
  Ge  Ge16  1  0.519712  0.513411  0.733399  1
  Ge  Ge17  1  0.480288  0.486589  0.266601  1
  Ge  Ge18  1  0.019712  0.986589  0.766601  1
  Ge  Ge19  1  0.980288  0.013411  0.233399  1
  O  O20  1  0.378093  0.583593  0.635448  1
  O  O21  1  0.349106  0.048922  0.614918  1
  O  O22  1  0.150894  0.548922  0.114918  1
  O  O23  1  0.121907  0.083593  0.135448  1
  O  O24  1  0.891269  0.048230  0.639830  1
  O  O25  1  0.372925  0.677543  0.384712  1
  O  O26  1  0.097231  0.459885  0.372855  1
  O  O27  1  0.902769  0.540115  0.627145  1
  O  O28  1  0.880707  0.342971  0.139873  1
  O  O29  1  0.650894  0.951078  0.385082  1
  O  O30  1  0.119293  0.657029  0.860127  1
  O  O31  1  0.391269  0.451770  0.860170  1
  O  O32  1  0.627075  0.322457  0.615288  1
  O  O33  1  0.127075  0.177543  0.884712  1
  O  O34  1  0.631270  0.198542  0.901517  1
  O  O35  1  0.868730  0.698542  0.401517  1
  O  O36  1  0.597231  0.040115  0.127145  1
  O  O37  1  0.368730  0.801458  0.098483  1
  O  O38  1  0.619293  0.842971  0.639873  1
  O  O39  1  0.621907  0.416407  0.364551  1
  O  O40  1  0.860357  0.195219  0.368159  1
  O  O41  1  0.360357  0.304781  0.131841  1
  O  O42  1  0.131270  0.301458  0.598483  1
  O  O43  1  0.139643  0.804781  0.631841  1
  O  O44  1  0.878093  0.916407  0.864552  1
  O  O45  1  0.849106  0.451078  0.885082  1
  O  O46  1  0.380707  0.157029  0.360127  1
  O  O47  1  0.108731  0.951770  0.360170  1
  O  O48  1  0.872925  0.822457  0.115288  1
  O  O49  1  0.639643  0.695219  0.868159  1
  O  O50  1  0.402769  0.959885  0.872855  1
  O  O51  1  0.608731  0.548230  0.139830  1
