# generated using pymatgen
data_Ce6Th4O19
_symmetry_space_group_name_H-M   'P 1'
_cell_length_a   7.88364083
_cell_length_b   19.65292904
_cell_length_c   6.81802801
_cell_angle_alpha   29.85311617
_cell_angle_beta   54.64967293
_cell_angle_gamma   59.88084194
_symmetry_Int_Tables_number   1
_chemical_formula_structural   Ce6Th4O19
_chemical_formula_sum   'Ce6 Th4 O19'
_cell_volume   428.88594254
_cell_formula_units_Z   1
loop_
 _symmetry_equiv_pos_site_id
 _symmetry_equiv_pos_as_xyz
  1  'x, y, z'
loop_
 _atom_site_type_symbol
 _atom_site_label
 _atom_site_symmetry_multiplicity
 _atom_site_fract_x
 _atom_site_fract_y
 _atom_site_fract_z
 _atom_site_occupancy
  Ce  Ce0  1  0.995554  0.000000  0.979012  1
  Ce  Ce1  1  0.524775  1.000000  0.979395  1
  Ce  Ce2  1  0.497660  0.193878  0.020513  1
  Ce  Ce3  1  0.995164  0.211563  0.980582  1
  Ce  Ce4  1  0.497660  0.806122  0.989903  1
  Ce  Ce5  1  0.995164  0.788437  0.038396  1
  Th  Th6  1  0.000301  0.606201  0.989073  1
  Th  Th7  1  0.495733  0.397297  0.010406  1
  Th  Th8  1  0.495733  0.602703  0.996891  1
  Th  Th9  1  0.000301  0.393799  0.020079  1
  O  O10  1  0.124355  0.200797  0.243932  1
  O  O11  1  0.122644  0.404040  0.246386  1
  O  O12  1  0.122644  0.595960  0.266585  1
  O  O13  1  0.629547  0.201397  0.243033  1
  O  O14  1  0.354356  0.183986  0.785679  1
  O  O15  1  0.621454  0.388606  0.283434  1
  O  O16  1  0.124355  0.799203  0.247919  1
  O  O17  1  0.375139  0.397826  0.759139  1
  O  O18  1  0.621454  0.611394  0.226466  1
  O  O19  1  0.375139  0.602174  0.748267  1
  O  O20  1  0.899772  0.182975  0.788882  1
  O  O21  1  0.629547  0.798603  0.250016  1
  O  O22  1  0.354356  0.816014  0.705608  1
  O  O23  1  0.870795  0.402427  0.748457  1
  O  O24  1  0.628797  0.000000  0.241722  1
  O  O25  1  0.870795  0.597573  0.760592  1
  O  O26  1  0.358913  1.000000  0.782754  1
  O  O27  1  0.899772  0.817025  0.703758  1
  O  O28  1  0.893125  0.000000  0.713122  1
