# generated using pymatgen
data_Ca17(Y7S19)2
_symmetry_space_group_name_H-M   'P 1'
_cell_length_a   6.91418288
_cell_length_b   6.91418259
_cell_length_c   131.36547927
_cell_angle_alpha   33.73545813
_cell_angle_beta   33.73546180
_cell_angle_gamma   33.75852138
_symmetry_Int_Tables_number   1
_chemical_formula_structural   Ca17(Y7S19)2
_chemical_formula_sum   'Ca17 Y14 S38'
_cell_volume   1726.47880258
_cell_formula_units_Z   1
loop_
 _symmetry_equiv_pos_site_id
 _symmetry_equiv_pos_as_xyz
  1  'x, y, z'
loop_
 _atom_site_type_symbol
 _atom_site_label
 _atom_site_symmetry_multiplicity
 _atom_site_fract_x
 _atom_site_fract_y
 _atom_site_fract_z
 _atom_site_occupancy
  Ca  Ca0  1  0.003876  0.003876  0.000087  1
  Ca  Ca1  1  0.998582  0.998582  0.421239  1
  Ca  Ca2  1  0.997789  0.997789  0.473939  1
  Ca  Ca3  1  0.501642  0.501642  0.552504  1
  Ca  Ca4  1  0.498994  0.498994  0.605397  1
  Ca  Ca5  1  0.502060  0.502060  0.657575  1
  Ca  Ca6  1  0.993646  0.993646  0.737523  1
  Ca  Ca7  1  0.499299  0.499299  0.710691  1
  Ca  Ca8  1  0.993199  0.993199  0.790252  1
  Ca  Ca9  1  0.493932  0.493932  0.763872  1
  Ca  Ca10  1  0.992940  0.992940  0.842915  1
  Ca  Ca11  1  0.492977  0.492977  0.816593  1
  Ca  Ca12  1  0.993583  0.993583  0.895488  1
  Ca  Ca13  1  0.493372  0.493372  0.869186  1
  Ca  Ca14  1  0.995260  0.995260  0.947938  1
  Ca  Ca15  1  0.493742  0.493742  0.921763  1
  Ca  Ca16  1  0.483877  0.483877  0.975390  1
  Y  Y17  1  0.002113  0.002113  0.052355  1
  Y  Y18  1  0.000403  0.000403  0.105263  1
  Y  Y19  1  0.999782  0.999782  0.210544  1
  Y  Y20  1  0.000411  0.000411  0.157850  1
  Y  Y21  1  0.997652  0.997652  0.263478  1
  Y  Y22  1  0.027955  0.027955  0.364825  1
  Y  Y23  1  0.019227  0.019227  0.313524  1
  Y  Y24  1  0.517195  0.517195  0.392725  1
  Y  Y25  1  0.491232  0.491232  0.448501  1
  Y  Y26  1  0.003350  0.003350  0.525765  1
  Y  Y27  1  0.498926  0.498926  0.500224  1
  Y  Y28  1  0.999374  0.999374  0.578952  1
  Y  Y29  1  0.007147  0.007147  0.683444  1
  Y  Y30  1  0.001552  0.001552  0.631418  1
  S  S31  1  0.248575  0.248575  0.014231  1
  S  S32  1  0.260009  0.260009  0.066305  1
  S  S33  1  0.728238  0.728238  0.040412  1
  S  S34  1  0.262031  0.262031  0.118764  1
  S  S35  1  0.738349  0.738349  0.091694  1
  S  S36  1  0.261217  0.261217  0.171482  1
  S  S37  1  0.739096  0.739096  0.144294  1
  S  S38  1  0.261076  0.261076  0.224171  1
  S  S39  1  0.740554  0.740554  0.196784  1
  S  S40  1  0.261769  0.261769  0.276529  1
  S  S41  1  0.740571  0.740571  0.249321  1
  S  S42  1  0.247811  0.247811  0.330663  1
  S  S43  1  0.734226  0.734226  0.302732  1
  S  S44  1  0.234341  0.234341  0.383314  1
  S  S45  1  0.716644  0.716644  0.358353  1
  S  S46  1  0.246090  0.246090  0.434147  1
  S  S47  1  0.748711  0.748711  0.408760  1
  S  S48  1  0.247948  0.247948  0.486957  1
  S  S49  1  0.750467  0.750467  0.460699  1
  S  S50  1  0.251205  0.251205  0.539533  1
  S  S51  1  0.749545  0.749545  0.513256  1
  S  S52  1  0.251837  0.251837  0.592132  1
  S  S53  1  0.749169  0.749169  0.565565  1
  S  S54  1  0.252133  0.252133  0.644760  1
  S  S55  1  0.750401  0.750401  0.618084  1
  S  S56  1  0.259750  0.259750  0.696650  1
  S  S57  1  0.749171  0.749171  0.670886  1
  S  S58  1  0.257141  0.257141  0.749091  1
  S  S59  1  0.760737  0.760737  0.722248  1
  S  S60  1  0.257925  0.257925  0.801703  1
  S  S61  1  0.758277  0.758277  0.775384  1
  S  S62  1  0.257812  0.257812  0.854355  1
  S  S63  1  0.758130  0.758130  0.828018  1
  S  S64  1  0.256060  0.256060  0.907185  1
  S  S65  1  0.757388  0.757388  0.880740  1
  S  S66  1  0.250224  0.250224  0.960345  1
  S  S67  1  0.754902  0.754902  0.933695  1
  S  S68  1  0.755380  0.755380  0.986056  1
