# generated using pymatgen
data_Mn4Si7
_symmetry_space_group_name_H-M   'P 1'
_cell_length_a   5.50715672
_cell_length_b   5.50715672
_cell_length_c   17.38958736
_cell_angle_alpha   90.00000000
_cell_angle_beta   90.00000000
_cell_angle_gamma   90.00000000
_symmetry_Int_Tables_number   1
_chemical_formula_structural   Mn4Si7
_chemical_formula_sum   'Mn16 Si28'
_cell_volume   527.40488480
_cell_formula_units_Z   4
loop_
 _symmetry_equiv_pos_site_id
 _symmetry_equiv_pos_as_xyz
  1  'x, y, z'
loop_
 _atom_site_type_symbol
 _atom_site_label
 _atom_site_symmetry_multiplicity
 _atom_site_fract_x
 _atom_site_fract_y
 _atom_site_fract_z
 _atom_site_occupancy
  Mn  Mn0  1  0.000000  0.000000  0.250000  1
  Mn  Mn1  1  0.000000  0.500000  0.807987  1
  Mn  Mn2  1  0.500000  0.000000  0.692013  1
  Mn  Mn3  1  0.500000  0.500000  0.369357  1
  Mn  Mn4  1  0.000000  0.000000  0.000000  1
  Mn  Mn5  1  0.500000  0.500000  0.130643  1
  Mn  Mn6  1  0.500000  0.000000  0.434555  1
  Mn  Mn7  1  0.000000  0.000000  0.750000  1
  Mn  Mn8  1  0.500000  0.000000  0.934555  1
  Mn  Mn9  1  0.500000  0.500000  0.630643  1
  Mn  Mn10  1  0.000000  0.500000  0.065445  1
  Mn  Mn11  1  0.000000  0.500000  0.307987  1
  Mn  Mn12  1  0.000000  0.000000  0.500000  1
  Mn  Mn13  1  0.500000  0.000000  0.192013  1
  Mn  Mn14  1  0.000000  0.500000  0.565445  1
  Mn  Mn15  1  0.500000  0.500000  0.869357  1
  Si  Si16  1  0.800308  0.843551  0.113171  1
  Si  Si17  1  0.770555  0.348273  0.460874  1
  Si  Si18  1  0.800308  0.156449  0.613171  1
  Si  Si19  1  0.348273  0.229445  0.539126  1
  Si  Si20  1  0.679160  0.158619  0.316942  1
  Si  Si21  1  0.229445  0.348273  0.960874  1
  Si  Si22  1  0.679160  0.841381  0.816942  1
  Si  Si23  1  0.158619  0.679160  0.183058  1
  Si  Si24  1  0.651727  0.229445  0.039126  1
  Si  Si25  1  0.156449  0.800308  0.886829  1
  Si  Si26  1  0.666498  0.333502  0.750000  1
  Si  Si27  1  0.770555  0.651727  0.960874  1
  Si  Si28  1  0.158619  0.320840  0.683058  1
  Si  Si29  1  0.333502  0.333502  0.250000  1
  Si  Si30  1  0.320840  0.841381  0.316942  1
  Si  Si31  1  0.651727  0.770555  0.539126  1
  Si  Si32  1  0.841381  0.320840  0.183058  1
  Si  Si33  1  0.843551  0.800308  0.386829  1
  Si  Si34  1  0.843551  0.199692  0.886829  1
  Si  Si35  1  0.199692  0.156449  0.113171  1
  Si  Si36  1  0.841381  0.679160  0.683058  1
  Si  Si37  1  0.229445  0.651727  0.460874  1
  Si  Si38  1  0.199692  0.843551  0.613171  1
  Si  Si39  1  0.156449  0.199692  0.386829  1
  Si  Si40  1  0.320840  0.158619  0.816942  1
  Si  Si41  1  0.666498  0.666498  0.250000  1
  Si  Si42  1  0.333502  0.666498  0.750000  1
  Si  Si43  1  0.348273  0.770555  0.039126  1
