# generated using pymatgen
data_Ni3Sn2
_symmetry_space_group_name_H-M   'P 1'
_cell_length_a   5.21755254
_cell_length_b   7.12700421
_cell_length_c   8.20788163
_cell_angle_alpha   90.01303355
_cell_angle_beta   89.99902634
_cell_angle_gamma   89.99671247
_symmetry_Int_Tables_number   1
_chemical_formula_structural   Ni3Sn2
_chemical_formula_sum   'Ni12 Sn8'
_cell_volume   305.21432941
_cell_formula_units_Z   4
loop_
 _symmetry_equiv_pos_site_id
 _symmetry_equiv_pos_as_xyz
  1  'x, y, z'
loop_
 _atom_site_type_symbol
 _atom_site_label
 _atom_site_symmetry_multiplicity
 _atom_site_fract_x
 _atom_site_fract_y
 _atom_site_fract_z
 _atom_site_occupancy
  Ni  Ni0  1  0.249993  0.410908  0.625450  1
  Ni  Ni1  1  0.749991  0.589119  0.374589  1
  Ni  Ni2  1  0.495461  0.736618  0.623599  1
  Ni  Ni3  1  0.995500  0.263319  0.376382  1
  Ni  Ni4  1  0.504549  0.763366  0.123707  1
  Ni  Ni5  1  0.995446  0.763358  0.123723  1
  Ni  Ni6  1  0.504517  0.263318  0.376367  1
  Ni  Ni7  1  0.004522  0.736614  0.623626  1
  Ni  Ni8  1  0.495493  0.236688  0.876297  1
  Ni  Ni9  1  0.249992  0.910864  0.874408  1
  Ni  Ni10  1  0.004545  0.236673  0.876306  1
  Ni  Ni11  1  0.750024  0.089117  0.125594  1
  Sn  Sn12  1  0.249995  0.061173  0.597040  1
  Sn  Sn13  1  0.249950  0.598373  0.357374  1
  Sn  Sn14  1  0.749965  0.401617  0.642641  1
  Sn  Sn15  1  0.750003  0.901544  0.857422  1
  Sn  Sn16  1  0.249998  0.098469  0.142598  1
  Sn  Sn17  1  0.250015  0.561254  0.902945  1
  Sn  Sn18  1  0.750005  0.938784  0.402906  1
  Sn  Sn19  1  0.750035  0.438825  0.097026  1
