# generated using pymatgen
data_U2AsSe
_symmetry_space_group_name_H-M   'P 1'
_cell_length_a   8.17493591
_cell_length_b   10.82332418
_cell_length_c   7.08719031
_cell_angle_alpha   29.16488574
_cell_angle_beta   54.69217476
_cell_angle_gamma   40.85003034
_symmetry_Int_Tables_number   1
_chemical_formula_structural   U2AsSe
_chemical_formula_sum   'U4 As2 Se2'
_cell_volume   193.05948472
_cell_formula_units_Z   2
loop_
 _symmetry_equiv_pos_site_id
 _symmetry_equiv_pos_as_xyz
  1  'x, y, z'
loop_
 _atom_site_type_symbol
 _atom_site_label
 _atom_site_symmetry_multiplicity
 _atom_site_fract_x
 _atom_site_fract_y
 _atom_site_fract_z
 _atom_site_occupancy
  U  U0  1  0.249227  0.004827  0.491166  1
  U  U1  1  0.755035  0.996658  0.503440  1
  U  U2  1  0.498107  0.501776  0.501206  1
  U  U3  1  0.997393  0.500312  0.498025  1
  As  As4  1  0.497318  0.005170  0.992681  1
  As  As5  1  0.255192  0.496691  0.004122  1
  Se  Se6  1  0.000351  0.996992  0.001192  1
  Se  Se7  1  0.746854  0.504455  0.996135  1
