# generated using pymatgen
data_Yb(HO)3
_symmetry_space_group_name_H-M   'P 1'
_cell_length_a   6.19647042
_cell_length_b   6.40000412
_cell_length_c   3.53943358
_cell_angle_alpha   90.00000000
_cell_angle_beta   90.00000000
_cell_angle_gamma   120.21688724
_symmetry_Int_Tables_number   1
_chemical_formula_structural   Yb(HO)3
_chemical_formula_sum   'Yb2 H6 O6'
_cell_volume   121.29299718
_cell_formula_units_Z   2
loop_
 _symmetry_equiv_pos_site_id
 _symmetry_equiv_pos_as_xyz
  1  'x, y, z'
loop_
 _atom_site_type_symbol
 _atom_site_label
 _atom_site_symmetry_multiplicity
 _atom_site_fract_x
 _atom_site_fract_y
 _atom_site_fract_z
 _atom_site_occupancy
  Yb  Yb0  1  0.332468  0.678534  0.250000  1
  Yb  Yb1  1  0.667532  0.321466  0.750000  1
  H  H2  1  0.805803  0.682159  0.250000  1
  H  H3  1  0.885721  0.153431  0.250000  1
  H  H4  1  0.269416  0.125623  0.250000  1
  H  H5  1  0.194197  0.317841  0.750000  1
  H  H6  1  0.114279  0.846569  0.750000  1
  H  H7  1  0.730584  0.874377  0.750000  1
  O  O8  1  0.910270  0.607580  0.250000  1
  O  O9  1  0.703522  0.077787  0.250000  1
  O  O10  1  0.379618  0.302000  0.250000  1
  O  O11  1  0.089730  0.392420  0.750000  1
  O  O12  1  0.296478  0.922213  0.750000  1
  O  O13  1  0.620382  0.698000  0.750000  1
