# generated using pymatgen
data_H9BrO4
_symmetry_space_group_name_H-M   'P 1'
_cell_length_a   7.45465363
_cell_length_b   11.59689471
_cell_length_c   7.16129132
_cell_angle_alpha   90.00023664
_cell_angle_beta   109.12274077
_cell_angle_gamma   90.01047167
_symmetry_Int_Tables_number   1
_chemical_formula_structural   H9BrO4
_chemical_formula_sum   'H36 Br4 O16'
_cell_volume   584.93703350
_cell_formula_units_Z   4
loop_
 _symmetry_equiv_pos_site_id
 _symmetry_equiv_pos_as_xyz
  1  'x, y, z'
loop_
 _atom_site_type_symbol
 _atom_site_label
 _atom_site_symmetry_multiplicity
 _atom_site_fract_x
 _atom_site_fract_y
 _atom_site_fract_z
 _atom_site_occupancy
  H  H0  1  0.352315  0.308948  0.990186  1
  H  H1  1  0.167266  0.249965  0.001576  1
  H  H2  1  0.647481  0.808881  0.009843  1
  H  H3  1  0.832666  0.750109  0.998466  1
  H  H4  1  0.881531  0.306599  0.114659  1
  H  H5  1  0.975519  0.181890  0.174508  1
  H  H6  1  0.117489  0.807176  0.882729  1
  H  H7  1  0.024761  0.681980  0.825405  1
  H  H8  1  0.632263  0.187517  0.833730  1
  H  H9  1  0.625842  0.321068  0.838358  1
  H  H10  1  0.363701  0.688325  0.165306  1
  H  H11  1  0.373390  0.821581  0.162897  1
  H  H12  1  0.663338  0.303262  0.354868  1
  H  H13  1  0.666637  0.250108  0.567811  1
  H  H14  1  0.336844  0.803351  0.644999  1
  H  H15  1  0.333686  0.750075  0.432229  1
  H  H16  1  0.188728  0.236049  0.718143  1
  H  H17  1  0.992733  0.244436  0.537746  1
  H  H18  1  0.811048  0.735915  0.281885  1
  H  H19  1  0.007279  0.744430  0.461894  1
  H  H20  1  0.347056  0.365940  0.374307  1
  H  H21  1  0.205906  0.321529  0.499342  1
  H  H22  1  0.652782  0.865936  0.625681  1
  H  H23  1  0.794059  0.821462  0.500584  1
  H  H24  1  0.522365  0.541085  0.832769  1
  H  H25  1  0.403363  0.491917  0.611247  1
  H  H26  1  0.405372  0.641176  0.642818  1
  H  H27  1  0.477636  0.041113  0.167196  1
  H  H28  1  0.594737  0.141291  0.357319  1
  H  H29  1  0.596564  0.991991  0.388652  1
  H  H30  1  0.026888  0.506788  0.053602  1
  H  H31  1  0.137294  0.467203  0.311820  1
  H  H32  1  0.937443  0.552915  0.227620  1
  H  H33  1  0.062407  0.053256  0.772192  1
  H  H34  1  0.973376  0.006733  0.946463  1
  H  H35  1  0.862769  0.967180  0.688129  1
  Br  Br36  1  0.982958  0.481755  0.776960  1
  Br  Br37  1  0.016831  0.981831  0.222990  1
  Br  Br38  1  0.580196  0.447349  0.135526  1
  Br  Br39  1  0.420525  0.947812  0.864102  1
  O  O40  1  0.278552  0.236854  0.956039  1
  O  O41  1  0.721390  0.736861  0.043899  1
  O  O42  1  0.978275  0.253570  0.100157  1
  O  O43  1  0.024608  0.752956  0.902411  1
  O  O44  1  0.589598  0.254449  0.749391  1
  O  O45  1  0.410253  0.754453  0.250571  1
  O  O46  1  0.696748  0.233632  0.440522  1
  O  O47  1  0.303320  0.733677  0.559470  1
  O  O48  1  0.129721  0.230799  0.568305  1
  O  O49  1  0.870320  0.730821  0.431729  1
  O  O50  1  0.268363  0.397255  0.447976  1
  O  O51  1  0.731713  0.897152  0.552166  1
  O  O52  1  0.483950  0.557651  0.688487  1
  O  O53  1  0.515999  0.057676  0.311486  1
  O  O54  1  0.056811  0.532148  0.205951  1
  O  O55  1  0.943328  0.032063  0.794087  1
