# generated using pymatgen
data_Rb3FeF3
_symmetry_space_group_name_H-M   'P 1'
_cell_length_a   6.73106539
_cell_length_b   6.38552440
_cell_length_c   12.28318750
_cell_angle_alpha   64.54573755
_cell_angle_beta   59.42911763
_cell_angle_gamma   56.56805589
_symmetry_Int_Tables_number   1
_chemical_formula_structural   Rb3FeF3
_chemical_formula_sum   'Rb6 Fe2 F6'
_cell_volume   371.04167290
_cell_formula_units_Z   2
loop_
 _symmetry_equiv_pos_site_id
 _symmetry_equiv_pos_as_xyz
  1  'x, y, z'
loop_
 _atom_site_type_symbol
 _atom_site_label
 _atom_site_symmetry_multiplicity
 _atom_site_fract_x
 _atom_site_fract_y
 _atom_site_fract_z
 _atom_site_occupancy
  Rb  Rb0  1  0.245047  0.237031  0.142824  1
  Rb  Rb1  1  0.508978  0.495132  0.251559  1
  Rb  Rb2  1  0.271097  0.238449  0.628509  1
  Rb  Rb3  1  0.511738  0.496529  0.762079  1
  Rb  Rb4  1  0.749936  0.738023  0.380443  1
  Rb  Rb5  1  0.776015  0.753130  0.878984  1
  Fe  Fe6  1  0.027960  0.981873  0.011952  1
  Fe  Fe7  1  0.024267  0.977807  0.510522  1
  F  F8  1  0.247455  0.196293  0.390757  1
  F  F9  1  0.208774  0.235055  0.912583  1
  F  F10  1  0.787601  0.247210  0.398436  1
  F  F11  1  0.760683  0.815836  0.113463  1
  F  F12  1  0.862428  0.175503  0.867836  1
  F  F13  1  0.758021  0.812128  0.620054  1
