# generated using pymatgen
data_Co(CO)4
_symmetry_space_group_name_H-M   'P 1'
_cell_length_a   6.48400327
_cell_length_b   11.08712835
_cell_length_c   15.35048928
_cell_angle_alpha   90.00000000
_cell_angle_beta   90.00000000
_cell_angle_gamma   90.54050348
_symmetry_Int_Tables_number   1
_chemical_formula_structural   Co(CO)4
_chemical_formula_sum   'Co8 C32 O32'
_cell_volume   1103.48185926
_cell_formula_units_Z   8
loop_
 _symmetry_equiv_pos_site_id
 _symmetry_equiv_pos_as_xyz
  1  'x, y, z'
loop_
 _atom_site_type_symbol
 _atom_site_label
 _atom_site_symmetry_multiplicity
 _atom_site_fract_x
 _atom_site_fract_y
 _atom_site_fract_z
 _atom_site_occupancy
  Co  Co0  1  0.756323  0.552107  0.666558  1
  Co  Co1  1  0.247770  0.083219  0.666718  1
  Co  Co2  1  0.752230  0.916781  0.333282  1
  Co  Co3  1  0.243677  0.447893  0.166558  1
  Co  Co4  1  0.752230  0.916781  0.166718  1
  Co  Co5  1  0.247770  0.083219  0.833282  1
  Co  Co6  1  0.756323  0.552107  0.833442  1
  Co  Co7  1  0.243677  0.447893  0.333442  1
  C  C8  1  0.377337  0.194209  0.602836  1
  C  C9  1  0.000432  0.073933  0.613542  1
  C  C10  1  0.978759  0.569039  0.750000  1
  C  C11  1  0.377337  0.194209  0.897164  1
  C  C12  1  0.322673  0.934585  0.866447  1
  C  C13  1  0.493359  0.442609  0.383989  1
  C  C14  1  0.169577  0.301278  0.127837  1
  C  C15  1  0.887427  0.441530  0.604173  1
  C  C16  1  0.999568  0.926067  0.113542  1
  C  C17  1  0.622663  0.805791  0.102836  1
  C  C18  1  0.493359  0.442609  0.116011  1
  C  C19  1  0.471576  0.073696  0.750000  1
  C  C20  1  0.021241  0.430961  0.250000  1
  C  C21  1  0.112573  0.558470  0.104173  1
  C  C22  1  0.677327  0.065415  0.133553  1
  C  C23  1  0.830423  0.698722  0.872163  1
  C  C24  1  0.124753  0.192596  0.750000  1
  C  C25  1  0.830423  0.698722  0.627837  1
  C  C26  1  0.506641  0.557391  0.883989  1
  C  C27  1  0.000432  0.073933  0.886458  1
  C  C28  1  0.169577  0.301278  0.372163  1
  C  C29  1  0.875247  0.807404  0.250000  1
  C  C30  1  0.999568  0.926067  0.386458  1
  C  C31  1  0.677327  0.065415  0.366447  1
  C  C32  1  0.887427  0.441530  0.895827  1
  C  C33  1  0.112573  0.558470  0.395827  1
  C  C34  1  0.322673  0.934585  0.633553  1
  C  C35  1  0.634447  0.441411  0.750000  1
  C  C36  1  0.528424  0.926304  0.250000  1
  C  C37  1  0.622663  0.805791  0.397164  1
  C  C38  1  0.506641  0.557391  0.616011  1
  C  C39  1  0.365553  0.558589  0.250000  1
  O  O40  1  0.648276  0.443987  0.078703  1
  O  O41  1  0.375560  0.839350  0.612639  1
  O  O42  1  0.849327  0.071350  0.573497  1
  O  O43  1  0.029226  0.628708  0.061118  1
  O  O44  1  0.970774  0.371292  0.561118  1
  O  O45  1  0.648276  0.443987  0.421297  1
  O  O46  1  0.158715  0.586899  0.750000  1
  O  O47  1  0.541292  0.734860  0.058986  1
  O  O48  1  0.119108  0.207709  0.398760  1
  O  O49  1  0.880892  0.792291  0.601240  1
  O  O50  1  0.468138  0.647244  0.250000  1
  O  O51  1  0.351724  0.556013  0.921297  1
  O  O52  1  0.347482  0.938478  0.250000  1
  O  O53  1  0.841285  0.413101  0.250000  1
  O  O54  1  0.976149  0.719312  0.250000  1
  O  O55  1  0.624440  0.160650  0.112639  1
  O  O56  1  0.029226  0.628708  0.438882  1
  O  O57  1  0.458708  0.265140  0.941014  1
  O  O58  1  0.458708  0.265140  0.558986  1
  O  O59  1  0.531862  0.352756  0.750000  1
  O  O60  1  0.541292  0.734860  0.441014  1
  O  O61  1  0.119108  0.207709  0.101240  1
  O  O62  1  0.849327  0.071350  0.926503  1
  O  O63  1  0.351724  0.556013  0.578703  1
  O  O64  1  0.880892  0.792291  0.898760  1
  O  O65  1  0.970774  0.371292  0.938882  1
  O  O66  1  0.150673  0.928650  0.426503  1
  O  O67  1  0.023851  0.280688  0.750000  1
  O  O68  1  0.652518  0.061522  0.750000  1
  O  O69  1  0.624440  0.160650  0.387361  1
  O  O70  1  0.375560  0.839350  0.887361  1
  O  O71  1  0.150673  0.928650  0.073497  1
