# generated using pymatgen
data_Na2H6PtO6
_symmetry_space_group_name_H-M   'P 1'
_cell_length_a   5.91768318
_cell_length_b   5.91765782
_cell_length_c   4.61623322
_cell_angle_alpha   89.99962920
_cell_angle_beta   90.00113293
_cell_angle_gamma   119.99981375
_symmetry_Int_Tables_number   1
_chemical_formula_structural   Na2H6PtO6
_chemical_formula_sum   'Na2 H6 Pt1 O6'
_cell_volume   139.99765074
_cell_formula_units_Z   1
loop_
 _symmetry_equiv_pos_site_id
 _symmetry_equiv_pos_as_xyz
  1  'x, y, z'
loop_
 _atom_site_type_symbol
 _atom_site_label
 _atom_site_symmetry_multiplicity
 _atom_site_fract_x
 _atom_site_fract_y
 _atom_site_fract_z
 _atom_site_occupancy
  Na  Na0  1  0.666676  0.333338  0.954132  1
  Na  Na1  1  0.333324  0.666662  0.045868  1
  H  H2  1  0.184960  0.324612  0.593330  1
  H  H3  1  0.139648  0.815033  0.593329  1
  H  H4  1  0.675388  0.860350  0.593314  1
  H  H5  1  0.815040  0.675388  0.406670  1
  H  H6  1  0.860352  0.184967  0.406671  1
  H  H7  1  0.324612  0.139650  0.406686  1
  Pt  Pt8  1  0.000000  0.000000  0.000000  1
  O  O9  1  0.279350  0.294718  0.751789  1
  O  O10  1  0.015366  0.720644  0.751791  1
  O  O11  1  0.705283  0.984639  0.751788  1
  O  O12  1  0.720650  0.705282  0.248211  1
  O  O13  1  0.984634  0.279356  0.248209  1
  O  O14  1  0.294717  0.015361  0.248212  1
