# generated using pymatgen
data_Mn3Bi(CO)15
_symmetry_space_group_name_H-M   'P 1'
_cell_length_a   6.70947761
_cell_length_b   17.32615799
_cell_length_c   19.91271537
_cell_angle_alpha   90.00000000
_cell_angle_beta   99.15692287
_cell_angle_gamma   90.00000000
_symmetry_Int_Tables_number   1
_chemical_formula_structural   Mn3Bi(CO)15
_chemical_formula_sum   'Mn12 Bi4 C60 O60'
_cell_volume   2285.34267849
_cell_formula_units_Z   4
loop_
 _symmetry_equiv_pos_site_id
 _symmetry_equiv_pos_as_xyz
  1  'x, y, z'
loop_
 _atom_site_type_symbol
 _atom_site_label
 _atom_site_symmetry_multiplicity
 _atom_site_fract_x
 _atom_site_fract_y
 _atom_site_fract_z
 _atom_site_occupancy
  Mn  Mn0  1  0.094556  0.315148  0.886428  1
  Mn  Mn1  1  0.585545  0.454853  0.362475  1
  Mn  Mn2  1  0.491775  0.299916  0.164802  1
  Mn  Mn3  1  0.905444  0.684852  0.113572  1
  Mn  Mn4  1  0.991775  0.200084  0.664802  1
  Mn  Mn5  1  0.508225  0.700084  0.835198  1
  Mn  Mn6  1  0.405444  0.815148  0.613572  1
  Mn  Mn7  1  0.594556  0.184852  0.386428  1
  Mn  Mn8  1  0.914455  0.954853  0.137525  1
  Mn  Mn9  1  0.085545  0.045147  0.862475  1
  Mn  Mn10  1  0.414455  0.545147  0.637525  1
  Mn  Mn11  1  0.008225  0.799916  0.335198  1
  Bi  Bi12  1  0.403230  0.311007  0.304445  1
  Bi  Bi13  1  0.903230  0.188993  0.804445  1
  Bi  Bi14  1  0.596770  0.688993  0.695555  1
  Bi  Bi15  1  0.096770  0.811007  0.195555  1
  C  C16  1  0.741230  0.263020  0.204136  1
  C  C17  1  0.373381  0.204056  0.165732  1
  C  C18  1  0.758770  0.763020  0.295864  1
  C  C19  1  0.263493  0.842207  0.356033  1
  C  C20  1  0.135262  0.367595  0.809015  1
  C  C21  1  0.126619  0.704056  0.334268  1
  C  C22  1  0.236507  0.342207  0.143967  1
  C  C23  1  0.920623  0.008964  0.786467  1
  C  C24  1  0.211821  0.390639  0.942081  1
  C  C25  1  0.829097  0.051601  0.112788  1
  C  C26  1  0.037919  0.213555  0.578997  1
  C  C27  1  0.537919  0.286445  0.078997  1
  C  C28  1  0.364490  0.452920  0.407117  1
  C  C29  1  0.963203  0.742517  0.040662  1
  C  C30  1  0.735300  0.411478  0.439019  1
  C  C31  1  0.420623  0.491036  0.286467  1
  C  C32  1  0.670903  0.551601  0.387212  1
  C  C33  1  0.906975  0.898683  0.337102  1
  C  C34  1  0.329097  0.448399  0.612788  1
  C  C35  1  0.173440  0.758719  0.616440  1
  C  C36  1  0.593025  0.398683  0.162898  1
  C  C37  1  0.163531  0.643996  0.122489  1
  C  C38  1  0.794982  0.433474  0.315150  1
  C  C39  1  0.170903  0.948399  0.887212  1
  C  C40  1  0.235300  0.088522  0.939019  1
  C  C41  1  0.711821  0.109361  0.442081  1
  C  C42  1  0.962081  0.786445  0.421003  1
  C  C43  1  0.463203  0.757483  0.540662  1
  C  C44  1  0.763493  0.657793  0.856033  1
  C  C45  1  0.536797  0.242517  0.459338  1
  C  C46  1  0.764700  0.911478  0.060981  1
  C  C47  1  0.336469  0.143996  0.377511  1
  C  C48  1  0.626619  0.795944  0.834268  1
  C  C49  1  0.205018  0.566526  0.684850  1
  C  C50  1  0.705018  0.933474  0.184850  1
  C  C51  1  0.736507  0.157793  0.643967  1
  C  C52  1  0.635510  0.547080  0.592883  1
  C  C53  1  0.462081  0.713555  0.921003  1
  C  C54  1  0.826560  0.241281  0.383560  1
  C  C55  1  0.635262  0.132405  0.309015  1
  C  C56  1  0.864490  0.047080  0.907117  1
  C  C57  1  0.326560  0.258719  0.883560  1
  C  C58  1  0.093025  0.101317  0.662898  1
  C  C59  1  0.241230  0.236980  0.704136  1
  C  C60  1  0.364738  0.867595  0.690985  1
  C  C61  1  0.836469  0.356004  0.877511  1
  C  C62  1  0.036797  0.257483  0.959338  1
  C  C63  1  0.579377  0.508964  0.713533  1
  C  C64  1  0.079377  0.991036  0.213533  1
  C  C65  1  0.406975  0.601317  0.837102  1
  C  C66  1  0.873381  0.295944  0.665732  1
  C  C67  1  0.294982  0.066526  0.815150  1
  C  C68  1  0.663531  0.856004  0.622489  1
  C  C69  1  0.264700  0.588522  0.560981  1
  C  C70  1  0.673440  0.741281  0.116440  1
  C  C71  1  0.288179  0.890639  0.557919  1
  C  C72  1  0.788179  0.609361  0.057919  1
  C  C73  1  0.864738  0.632405  0.190985  1
  C  C74  1  0.135510  0.952920  0.092883  1
  C  C75  1  0.258770  0.736980  0.795864  1
  O  O76  1  0.675999  0.382165  0.874359  1
  O  O77  1  0.315046  0.515815  0.239581  1
  O  O78  1  0.772575  0.547709  0.563760  1
  O  O79  1  0.834766  0.596836  0.237781  1
  O  O80  1  0.023759  0.725065  0.616976  1
  O  O81  1  0.423944  0.868586  0.370378  1
  O  O82  1  0.289383  0.145300  0.161666  1
  O  O83  1  0.726790  0.613910  0.401216  1
  O  O84  1  0.578936  0.279443  0.024798  1
  O  O85  1  0.934954  0.421846  0.288832  1
  O  O86  1  0.334766  0.903164  0.737781  1
  O  O87  1  0.773210  0.113910  0.098784  1
  O  O88  1  0.214411  0.938157  0.520802  1
  O  O89  1  0.151981  0.039394  0.655816  1
  O  O90  1  0.789383  0.354700  0.661666  1
  O  O91  1  0.576056  0.131414  0.629622  1
  O  O92  1  0.476241  0.225065  0.883024  1
  O  O93  1  0.815046  0.984185  0.739581  1
  O  O94  1  0.500875  0.275693  0.506695  1
  O  O95  1  0.499125  0.724307  0.493305  1
  O  O96  1  0.076056  0.368586  0.129622  1
  O  O97  1  0.523759  0.774935  0.116976  1
  O  O98  1  0.226790  0.886090  0.901216  1
  O  O99  1  0.097423  0.759014  0.774271  1
  O  O100  1  0.165234  0.403164  0.762219  1
  O  O101  1  0.285589  0.438157  0.979198  1
  O  O102  1  0.921064  0.779443  0.475202  1
  O  O103  1  0.402577  0.259014  0.725729  1
  O  O104  1  0.999125  0.775693  0.993305  1
  O  O105  1  0.710617  0.854700  0.838334  1
  O  O106  1  0.684954  0.484185  0.760419  1
  O  O107  1  0.078936  0.220557  0.524798  1
  O  O108  1  0.714411  0.561843  0.020802  1
  O  O109  1  0.434954  0.078154  0.788832  1
  O  O110  1  0.824001  0.882165  0.625641  1
  O  O111  1  0.421064  0.720557  0.975202  1
  O  O112  1  0.227425  0.452291  0.436240  1
  O  O113  1  0.065046  0.578154  0.711168  1
  O  O114  1  0.348019  0.539394  0.844184  1
  O  O115  1  0.727425  0.047709  0.936240  1
  O  O116  1  0.324001  0.617835  0.125641  1
  O  O117  1  0.184954  0.015815  0.260419  1
  O  O118  1  0.330780  0.111059  0.988882  1
  O  O119  1  0.565046  0.921846  0.211168  1
  O  O120  1  0.976241  0.274935  0.383024  1
  O  O121  1  0.272575  0.952291  0.063760  1
  O  O122  1  0.210617  0.645300  0.338334  1
  O  O123  1  0.665234  0.096836  0.262219  1
  O  O124  1  0.848019  0.960606  0.344184  1
  O  O125  1  0.669220  0.888941  0.011118  1
  O  O126  1  0.175999  0.117835  0.374359  1
  O  O127  1  0.597423  0.740986  0.274271  1
  O  O128  1  0.923944  0.631414  0.870378  1
  O  O129  1  0.785589  0.061843  0.479198  1
  O  O130  1  0.273210  0.386090  0.598784  1
  O  O131  1  0.902577  0.240986  0.225729  1
  O  O132  1  0.651981  0.460606  0.155816  1
  O  O133  1  0.000875  0.224307  0.006695  1
  O  O134  1  0.169220  0.611059  0.511118  1
  O  O135  1  0.830780  0.388941  0.488882  1
