# generated using pymatgen
data_YIn2Ni9
_symmetry_space_group_name_H-M   'P 1'
_cell_length_a   4.84194359
_cell_length_b   8.23747337
_cell_length_c   8.23747337
_cell_angle_alpha   90.00000000
_cell_angle_beta   90.00000000
_cell_angle_gamma   90.00000000
_symmetry_Int_Tables_number   1
_chemical_formula_structural   YIn2Ni9
_chemical_formula_sum   'Y2 In4 Ni18'
_cell_volume   328.55476698
_cell_formula_units_Z   2
loop_
 _symmetry_equiv_pos_site_id
 _symmetry_equiv_pos_as_xyz
  1  'x, y, z'
loop_
 _atom_site_type_symbol
 _atom_site_label
 _atom_site_symmetry_multiplicity
 _atom_site_fract_x
 _atom_site_fract_y
 _atom_site_fract_z
 _atom_site_occupancy
  Y  Y0  1  0.000000  0.500000  0.500000  1
  Y  Y1  1  0.000000  0.000000  0.000000  1
  In  In2  1  0.000000  0.375236  0.124764  1
  In  In3  1  0.000000  0.124764  0.624764  1
  In  In4  1  0.000000  0.875236  0.375236  1
  In  In5  1  0.000000  0.624764  0.875236  1
  Ni  Ni6  1  0.248371  0.323274  0.823274  1
  Ni  Ni7  1  0.751629  0.323274  0.823274  1
  Ni  Ni8  1  0.248371  0.823274  0.676726  1
  Ni  Ni9  1  0.500000  0.936510  0.206316  1
  Ni  Ni10  1  0.751629  0.823274  0.676726  1
  Ni  Ni11  1  0.500000  0.206316  0.063490  1
  Ni  Ni12  1  0.500000  0.436510  0.293684  1
  Ni  Ni13  1  0.248371  0.676726  0.176726  1
  Ni  Ni14  1  0.500000  0.293684  0.563490  1
  Ni  Ni15  1  0.751629  0.676726  0.176726  1
  Ni  Ni16  1  0.500000  0.706316  0.436510  1
  Ni  Ni17  1  0.751629  0.176726  0.323274  1
  Ni  Ni18  1  0.500000  0.563490  0.706316  1
  Ni  Ni19  1  0.500000  0.063490  0.793684  1
  Ni  Ni20  1  0.248371  0.176726  0.323274  1
  Ni  Ni21  1  0.500000  0.793684  0.936510  1
  Ni  Ni22  1  0.500000  0.000000  0.500000  1
  Ni  Ni23  1  0.500000  0.500000  0.000000  1
