# generated using pymatgen
data_SrUO4
_symmetry_space_group_name_H-M   'P 1'
_cell_length_a   18.38316901
_cell_length_b   6.51094956
_cell_length_c   9.40107142
_cell_angle_alpha   157.73295947
_cell_angle_beta   167.88181894
_cell_angle_gamma   18.82306472
_symmetry_Int_Tables_number   1
_chemical_formula_structural   SrUO4
_chemical_formula_sum   'Sr1 U1 O4'
_cell_volume   76.21517020
_cell_formula_units_Z   1
loop_
 _symmetry_equiv_pos_site_id
 _symmetry_equiv_pos_as_xyz
  1  'x, y, z'
loop_
 _atom_site_type_symbol
 _atom_site_label
 _atom_site_symmetry_multiplicity
 _atom_site_fract_x
 _atom_site_fract_y
 _atom_site_fract_z
 _atom_site_occupancy
  Sr  Sr0  1  0.000000  0.500000  0.000000  1
  U  U1  1  0.000000  0.000000  0.000000  1
  O  O2  1  0.239021  0.163813  1.000000  1
  O  O3  1  0.760979  0.836187  0.000000  1
  O  O4  1  0.341519  0.312577  1.000000  1
  O  O5  1  0.658482  0.687423  0.000000  1
