# generated using pymatgen
data_KMnH24(C7N4)2
_symmetry_space_group_name_H-M   'P 1'
_cell_length_a   8.87257194
_cell_length_b   8.87257194
_cell_length_c   8.87257194
_cell_angle_alpha   119.32462396
_cell_angle_beta   119.32462396
_cell_angle_gamma   91.17382110
_symmetry_Int_Tables_number   1
_chemical_formula_structural   KMnH24(C7N4)2
_chemical_formula_sum   'K1 Mn1 H24 C14 N8'
_cell_volume   498.82232913
_cell_formula_units_Z   1
loop_
 _symmetry_equiv_pos_site_id
 _symmetry_equiv_pos_as_xyz
  1  'x, y, z'
loop_
 _atom_site_type_symbol
 _atom_site_label
 _atom_site_symmetry_multiplicity
 _atom_site_fract_x
 _atom_site_fract_y
 _atom_site_fract_z
 _atom_site_occupancy
  K  K0  1  0.500000  0.500000  0.000000  1
  Mn  Mn1  1  0.000000  0.000000  0.000000  1
  H  H2  1  0.023656  0.346088  0.773956  1
  H  H3  1  0.572132  0.249700  0.226044  1
  H  H4  1  0.249700  0.023656  0.677568  1
  H  H5  1  0.346088  0.572132  0.322432  1
  H  H6  1  0.976344  0.653912  0.226044  1
  H  H7  1  0.427868  0.750300  0.773956  1
  H  H8  1  0.750300  0.976344  0.322432  1
  H  H9  1  0.653912  0.427868  0.677568  1
  H  H10  1  0.998562  0.455579  0.644736  1
  H  H11  1  0.810843  0.353825  0.355264  1
  H  H12  1  0.353825  0.998562  0.542982  1
  H  H13  1  0.455579  0.810843  0.457018  1
  H  H14  1  0.001438  0.544421  0.355264  1
  H  H15  1  0.189157  0.646175  0.644736  1
  H  H16  1  0.646175  0.001438  0.457018  1
  H  H17  1  0.544421  0.189157  0.542982  1
  H  H18  1  0.910703  0.512193  0.799954  1
  H  H19  1  0.712240  0.110749  0.200046  1
  H  H20  1  0.110749  0.910703  0.398510  1
  H  H21  1  0.512193  0.712240  0.601490  1
  H  H22  1  0.089297  0.487807  0.200046  1
  H  H23  1  0.287760  0.889251  0.799954  1
  H  H24  1  0.889251  0.089297  0.601490  1
  H  H25  1  0.487807  0.287760  0.398510  1
  C  C26  1  0.840360  0.840360  0.000000  1
  C  C27  1  0.159640  0.159640  0.000000  1
  C  C28  1  0.177996  0.866048  0.044045  1
  C  C29  1  0.822004  0.133952  0.955955  1
  C  C30  1  0.133952  0.177996  0.311948  1
  C  C31  1  0.866048  0.822004  0.688052  1
  C  C32  1  0.933700  0.401507  0.693550  1
  C  C33  1  0.707957  0.240150  0.306450  1
  C  C34  1  0.240150  0.933700  0.532193  1
  C  C35  1  0.401507  0.707957  0.467807  1
  C  C36  1  0.066300  0.598493  0.306450  1
  C  C37  1  0.292043  0.759850  0.693550  1
  C  C38  1  0.759850  0.066300  0.467807  1
  C  C39  1  0.598493  0.292043  0.532193  1
  N  N40  1  0.745237  0.745237  0.000000  1
  N  N41  1  0.254763  0.254763  0.000000  1
  N  N42  1  0.281041  0.784579  0.065620  1
  N  N43  1  0.718959  0.215421  0.934380  1
  N  N44  1  0.215421  0.281041  0.496462  1
  N  N45  1  0.784579  0.718959  0.503538  1
  N  N46  1  0.750000  0.250000  0.500000  1
  N  N47  1  0.250000  0.750000  0.500000  1
