# generated using pymatgen
data_Ba20Y10Cu(Ru3O20)3
_symmetry_space_group_name_H-M   'P 1'
_cell_length_a   5.96972906
_cell_length_b   11.97234425
_cell_length_c   59.80977026
_cell_angle_alpha   60.01107950
_cell_angle_beta   60.06272252
_cell_angle_gamma   60.08997033
_symmetry_Int_Tables_number   1
_chemical_formula_structural   Ba20Y10Cu(Ru3O20)3
_chemical_formula_sum   'Ba40 Y20 Cu2 Ru18 O120'
_cell_volume   3026.40845535
_cell_formula_units_Z   2
loop_
 _symmetry_equiv_pos_site_id
 _symmetry_equiv_pos_as_xyz
  1  'x, y, z'
loop_
 _atom_site_type_symbol
 _atom_site_label
 _atom_site_symmetry_multiplicity
 _atom_site_fract_x
 _atom_site_fract_y
 _atom_site_fract_z
 _atom_site_occupancy
  Ba  Ba0  1  0.252310  0.125436  0.024452  1
  Ba  Ba1  1  0.249957  0.124772  0.125055  1
  Ba  Ba2  1  0.256082  0.629170  0.022948  1
  Ba  Ba3  1  0.250101  0.125156  0.224948  1
  Ba  Ba4  1  0.250399  0.625179  0.124884  1
  Ba  Ba5  1  0.750389  0.376380  0.074645  1
  Ba  Ba6  1  0.750152  0.374945  0.174981  1
  Ba  Ba7  1  0.249993  0.125134  0.324975  1
  Ba  Ba8  1  0.250048  0.625077  0.224974  1
  Ba  Ba9  1  0.751772  0.874438  0.074757  1
  Ba  Ba10  1  0.249966  0.125056  0.424996  1
  Ba  Ba11  1  0.250069  0.625044  0.324978  1
  Ba  Ba12  1  0.750072  0.374964  0.274993  1
  Ba  Ba13  1  0.750019  0.874881  0.175020  1
  Ba  Ba14  1  0.750049  0.374885  0.375014  1
  Ba  Ba15  1  0.249877  0.125059  0.525014  1
  Ba  Ba16  1  0.249975  0.625010  0.425003  1
  Ba  Ba17  1  0.750067  0.875007  0.274986  1
  Ba  Ba18  1  0.249470  0.123640  0.625378  1
  Ba  Ba19  1  0.749975  0.874975  0.375011  1
  Ba  Ba20  1  0.749921  0.374863  0.475042  1
  Ba  Ba21  1  0.250007  0.625123  0.524975  1
  Ba  Ba22  1  0.248230  0.625468  0.625261  1
  Ba  Ba23  1  0.749975  0.874943  0.475016  1
  Ba  Ba24  1  0.749970  0.375193  0.574967  1
  Ba  Ba25  1  0.254029  0.115897  0.726015  1
  Ba  Ba26  1  0.249333  0.125231  0.825088  1
  Ba  Ba27  1  0.747749  0.374487  0.675552  1
  Ba  Ba28  1  0.749574  0.874810  0.575123  1
  Ba  Ba29  1  0.238908  0.629488  0.726320  1
  Ba  Ba30  1  0.256089  0.117304  0.925321  1
  Ba  Ba31  1  0.743677  0.870835  0.677096  1
  Ba  Ba32  1  0.255487  0.627521  0.823399  1
  Ba  Ba33  1  0.743765  0.382864  0.774674  1
  Ba  Ba34  1  0.240693  0.630359  0.925790  1
  Ba  Ba35  1  0.750658  0.374770  0.874914  1
  Ba  Ba36  1  0.759537  0.869511  0.774190  1
  Ba  Ba37  1  0.746116  0.383927  0.973992  1
  Ba  Ba38  1  0.744641  0.872521  0.876569  1
  Ba  Ba39  1  0.760797  0.870613  0.973719  1
  Y  Y40  1  0.005406  0.998520  0.999215  1
  Y  Y41  1  0.000920  0.000568  0.099703  1
  Y  Y42  1  0.000645  0.504580  0.998956  1
  Y  Y43  1  0.000130  0.000158  0.199942  1
  Y  Y44  1  0.001590  0.500449  0.099592  1
  Y  Y45  1  0.000050  0.000011  0.299987  1
  Y  Y46  1  0.000389  0.500039  0.199914  1
  Y  Y47  1  0.000040  0.999994  0.399993  1
  Y  Y48  1  0.000024  0.500049  0.299986  1
  Y  Y49  1  0.000010  0.500031  0.399991  1
  Y  Y50  1  0.999665  -0.000005  0.500068  1
  Y  Y51  1  0.998344  0.999551  0.600421  1
  Y  Y52  1  0.999930  0.499879  0.500039  1
  Y  Y53  1  0.004147  0.997671  0.799636  1
  Y  Y54  1  0.994484  0.501479  0.700808  1
  Y  Y55  1  0.999303  0.995308  0.701078  1
  Y  Y56  1  0.999074  0.499363  0.600313  1
  Y  Y57  1  0.000086  0.995801  0.900823  1
  Y  Y58  1  0.999871  0.504329  0.799160  1
  Y  Y59  1  0.995945  0.502247  0.900361  1
  Cu  Cu60  1  0.499844  0.750036  0.750022  1
  Cu  Cu61  1  0.500122  0.749951  0.949990  1
  Ru  Ru62  1  0.501220  0.250599  0.049646  1
  Ru  Ru63  1  0.500339  0.750307  0.049874  1
  Ru  Ru64  1  0.500329  0.250014  0.149933  1
  Ru  Ru65  1  0.499961  0.250021  0.250005  1
  Ru  Ru66  1  0.500026  0.749965  0.150007  1
  Ru  Ru67  1  0.500026  0.250025  0.349984  1
  Ru  Ru68  1  0.500006  0.749976  0.250002  1
  Ru  Ru69  1  0.500203  0.249993  0.449962  1
  Ru  Ru70  1  0.500027  0.750025  0.349984  1
  Ru  Ru71  1  0.500150  0.750036  0.449966  1
  Ru  Ru72  1  0.499767  0.250034  0.550039  1
  Ru  Ru73  1  0.500032  0.750121  0.549963  1
  Ru  Ru74  1  0.498906  0.249477  0.650330  1
  Ru  Ru75  1  0.500074  0.249762  0.750031  1
  Ru  Ru76  1  0.499670  0.749749  0.650119  1
  Ru  Ru77  1  0.499857  0.249943  0.850034  1
  Ru  Ru78  1  0.499797  0.250117  0.950017  1
  Ru  Ru79  1  0.499872  0.749927  0.850035  1
  O  O80  1  0.265092  0.132453  0.073615  1
  O  O81  1  0.263341  0.366179  0.026854  1
  O  O82  1  0.733825  0.132112  0.026813  1
  O  O83  1  0.265819  0.366078  0.073620  1
  O  O84  1  0.733857  0.132454  0.073615  1
  O  O85  1  0.735764  0.366181  0.026854  1
  O  O86  1  0.264762  0.632533  0.073735  1
  O  O87  1  0.262728  0.867549  0.027045  1
  O  O88  1  0.264926  0.132596  0.173508  1
  O  O89  1  0.264875  0.367181  0.126558  1
  O  O90  1  0.732682  0.631745  0.027115  1
  O  O91  1  0.734610  0.132460  0.126585  1
  O  O92  1  0.264388  0.867116  0.073700  1
  O  O93  1  0.265294  0.367080  0.173526  1
  O  O94  1  0.734802  0.132590  0.173509  1
  O  O95  1  0.735185  0.367176  0.126559  1
  O  O96  1  0.732827  0.632534  0.073735  1
  O  O97  1  0.731720  0.867549  0.027045  1
  O  O98  1  0.264552  0.867302  0.126633  1
  O  O99  1  0.264862  0.367331  0.226560  1
  O  O100  1  0.264778  0.632612  0.173541  1
  O  O101  1  0.264864  0.132591  0.273505  1
  O  O102  1  0.734672  0.132531  0.226559  1
  O  O103  1  0.734562  0.632366  0.126614  1
  O  O104  1  0.264975  0.867302  0.173545  1
  O  O105  1  0.265088  0.367350  0.273513  1
  O  O106  1  0.734511  0.867298  0.126635  1
  O  O107  1  0.734903  0.132587  0.273506  1
  O  O108  1  0.734870  0.367326  0.226561  1
  O  O109  1  0.734596  0.632606  0.173542  1
  O  O110  1  0.264900  0.132592  0.373480  1
  O  O111  1  0.264934  0.367399  0.326521  1
  O  O112  1  0.264839  0.632605  0.273507  1
  O  O113  1  0.264828  0.867326  0.226559  1
  O  O114  1  0.734838  0.132577  0.326517  1
  O  O115  1  0.734681  0.632549  0.226553  1
  O  O116  1  0.265127  0.367452  0.373484  1
  O  O117  1  0.265102  0.867338  0.273512  1
  O  O118  1  0.735109  0.132590  0.373480  1
  O  O119  1  0.734931  0.867322  0.226560  1
  O  O120  1  0.735056  0.367394  0.326522  1
  O  O121  1  0.734878  0.632602  0.273508  1
  O  O122  1  0.265061  0.132638  0.473444  1
  O  O123  1  0.264890  0.632608  0.373480  1
  O  O124  1  0.264965  0.867382  0.326521  1
  O  O125  1  0.265098  0.367411  0.426493  1
  O  O126  1  0.734927  0.132651  0.426484  1
  O  O127  1  0.265247  0.367515  0.473448  1
  O  O128  1  0.734827  0.632592  0.326516  1
  O  O129  1  0.265136  0.867437  0.373485  1
  O  O130  1  0.735219  0.132639  0.473445  1
  O  O131  1  0.735068  0.867377  0.326522  1
  O  O132  1  0.735140  0.367411  0.426494  1
  O  O133  1  0.735080  0.632607  0.373481  1
  O  O134  1  0.264712  0.132767  0.573452  1
  O  O135  1  0.265157  0.367422  0.526489  1
  O  O136  1  0.264999  0.632642  0.473446  1
  O  O137  1  0.265126  0.867395  0.426491  1
  O  O138  1  0.265274  0.367595  0.573427  1
  O  O139  1  0.734917  0.632659  0.426484  1
  O  O140  1  0.265238  0.867498  0.473454  1
  O  O141  1  0.734757  0.132891  0.526470  1
  O  O142  1  0.735234  0.132767  0.573453  1
  O  O143  1  0.735112  0.367422  0.526489  1
  O  O144  1  0.735254  0.632644  0.473446  1
  O  O145  1  0.735164  0.867397  0.426491  1
  O  O146  1  0.263974  0.133680  0.673176  1
  O  O147  1  0.265860  0.367682  0.626359  1
  O  O148  1  0.265379  0.632645  0.573377  1
  O  O149  1  0.265365  0.867406  0.526456  1
  O  O150  1  0.734487  0.133762  0.626350  1
  O  O151  1  0.265323  0.867686  0.573399  1
  O  O152  1  0.265863  0.368034  0.673220  1
  O  O153  1  0.735074  0.632670  0.526451  1
  O  O154  1  0.736905  0.133680  0.673177  1
  O  O155  1  0.735561  0.632646  0.573377  1
  O  O156  1  0.735265  0.867406  0.526456  1
  O  O157  1  0.735185  0.367681  0.626359  1
  O  O158  1  0.268071  0.632354  0.672975  1
  O  O159  1  0.266996  0.867552  0.626246  1
  O  O160  1  0.265215  0.133898  0.773420  1
  O  O161  1  0.268403  0.366192  0.726401  1
  O  O162  1  0.267108  0.868363  0.672905  1
  O  O163  1  0.735795  0.632798  0.626281  1
  O  O164  1  0.266444  0.365878  0.773536  1
  O  O165  1  0.734108  0.134353  0.726307  1
  O  O166  1  0.737478  0.632349  0.672976  1
  O  O167  1  0.735444  0.867550  0.626246  1
  O  O168  1  0.732785  0.133894  0.773421  1
  O  O169  1  0.735200  0.366188  0.726402  1
  O  O170  1  0.264113  0.133410  0.873324  1
  O  O171  1  0.264082  0.630925  0.773797  1
  O  O172  1  0.264148  0.366606  0.826674  1
  O  O173  1  0.264989  0.869141  0.726102  1
  O  O174  1  0.266386  0.366776  0.873368  1
  O  O175  1  0.733641  0.133213  0.826629  1
  O  O176  1  0.739170  0.630790  0.726009  1
  O  O177  1  0.260500  0.869913  0.773918  1
  O  O178  1  0.735822  0.133407  0.873325  1
  O  O179  1  0.735901  0.366604  0.826674  1
  O  O180  1  0.736103  0.630922  0.773797  1
  O  O181  1  0.735718  0.869137  0.726101  1
  O  O182  1  0.265053  0.133944  0.973573  1
  O  O183  1  0.267725  0.632709  0.873225  1
  O  O184  1  0.267366  0.366028  0.926594  1
  O  O185  1  0.265300  0.867340  0.826767  1
  O  O186  1  0.266135  0.365523  0.973668  1
  O  O187  1  0.733743  0.632176  0.826816  1
  O  O188  1  0.266327  0.867783  0.873178  1
  O  O189  1  0.733407  0.134197  0.926479  1
  O  O190  1  0.731332  0.133942  0.973573  1
  O  O191  1  0.734626  0.366029  0.926595  1
  O  O192  1  0.734602  0.632707  0.873226  1
  O  O193  1  0.732352  0.867336  0.826767  1
  O  O194  1  0.265066  0.631248  0.973822  1
  O  O195  1  0.264619  0.868706  0.926280  1
  O  O196  1  0.261480  0.868890  0.973926  1
  O  O197  1  0.738890  0.630382  0.926145  1
  O  O198  1  0.734221  0.631246  0.973822  1
  O  O199  1  0.735166  0.868706  0.926279  1
