# generated using pymatgen
data_Sc2H10S3O17
_symmetry_space_group_name_H-M   'P 1'
_cell_length_a   6.79736439
_cell_length_b   11.23958163
_cell_length_c   12.40332540
_cell_angle_alpha   91.82328171
_cell_angle_beta   85.14090134
_cell_angle_gamma   78.96036020
_symmetry_Int_Tables_number   1
_chemical_formula_structural   Sc2H10S3O17
_chemical_formula_sum   'Sc4 H20 S6 O34'
_cell_volume   925.61140482
_cell_formula_units_Z   2
loop_
 _symmetry_equiv_pos_site_id
 _symmetry_equiv_pos_as_xyz
  1  'x, y, z'
loop_
 _atom_site_type_symbol
 _atom_site_label
 _atom_site_symmetry_multiplicity
 _atom_site_fract_x
 _atom_site_fract_y
 _atom_site_fract_z
 _atom_site_occupancy
  Sc  Sc0  1  0.413508  0.765103  0.238920  1
  Sc  Sc1  1  0.000000  0.500000  0.000000  1
  Sc  Sc2  1  0.586492  0.234897  0.761080  1
  Sc  Sc3  1  0.000000  0.500000  0.500000  1
  H  H4  1  0.595405  0.093827  0.020697  1
  H  H5  1  0.823383  0.736684  0.520807  1
  H  H6  1  0.769976  0.865510  0.204611  1
  H  H7  1  0.719969  0.364119  0.322780  1
  H  H8  1  0.786012  -0.047679  0.722501  1
  H  H9  1  0.374083  0.065076  0.877151  1
  H  H10  1  0.353027  0.542087  0.216706  1
  H  H11  1  0.646973  0.457913  0.783294  1
  H  H12  1  0.712430  0.619437  0.921390  1
  H  H13  1  0.454810  0.341735  0.378037  1
  H  H14  1  0.203530  0.386024  0.124182  1
  H  H15  1  0.625917  0.934924  0.122849  1
  H  H16  1  0.287570  0.380563  0.078610  1
  H  H17  1  0.545190  0.658265  0.621963  1
  H  H18  1  0.176617  0.263316  0.479193  1
  H  H19  1  0.280031  0.635881  0.677220  1
  H  H20  1  0.213988  0.047679  0.277499  1
  H  H21  1  0.230024  0.134490  0.795389  1
  H  H22  1  0.404595  0.906173  0.979303  1
  H  H23  1  0.796470  0.613976  0.875818  1
  S  S24  1  0.158256  0.764975  0.031620  1
  S  S25  1  0.185579  0.751152  0.494522  1
  S  S26  1  0.795003  0.532590  0.268321  1
  S  S27  1  0.814421  0.248848  0.505478  1
  S  S28  1  0.841744  0.235025  -0.031620  1
  S  S29  1  0.204997  0.467410  0.731679  1
  O  O30  1  0.396269  0.996945  -0.010567  1
  O  O31  1  0.022386  0.180416  0.485230  1
  O  O32  1  0.977000  0.828470  0.989866  1
  O  O33  1  0.174038  0.816394  0.145917  1
  O  O34  1  0.287413  0.797060  0.396283  1
  O  O35  1  0.135948  0.632000  0.042510  1
  O  O36  1  0.580984  0.394162  0.810783  1
  O  O37  1  0.300633  0.343580  0.696681  1
  O  O38  1  0.814700  0.381442  0.533179  1
  O  O39  1  0.308985  0.355808  0.370565  1
  O  O40  1  0.629340  0.881280  0.188120  1
  O  O41  1  0.849258  0.519521  0.150988  1
  O  O42  1  0.419016  0.605838  0.189217  1
  O  O43  1  0.971038  0.488341  0.328140  1
  O  O44  1  0.349262  0.557763  0.707144  1
  O  O45  1  0.349712  0.765334  0.966491  1
  O  O46  1  0.864052  0.368000  0.957490  1
  O  O47  1  0.150742  0.480479  0.849012  1
  O  O48  1  0.691015  0.644192  0.629435  1
  O  O49  1  0.762134  0.659212  0.516860  1
  O  O50  1  0.650288  0.234666  0.033509  1
  O  O51  1  0.696409  0.244891  0.411589  1
  O  O52  1  0.028962  0.511659  0.671860  1
  O  O53  1  0.023000  0.171530  0.010134  1
  O  O54  1  0.237866  0.340788  0.483140  1
  O  O55  1  0.712588  0.202940  0.603717  1
  O  O56  1  0.699367  0.656420  0.303319  1
  O  O57  1  0.650738  0.442237  0.292856  1
  O  O58  1  0.825962  0.183606  0.854083  1
  O  O59  1  0.603731  0.003055  0.010567  1
  O  O60  1  0.185300  0.618558  0.466821  1
  O  O61  1  0.303591  0.755109  0.588411  1
  O  O62  1  0.370660  0.118720  0.811880  1
  O  O63  1  0.977614  0.819584  0.514770  1
