# generated using pymatgen
data_CaSiSnO5
_symmetry_space_group_name_H-M   'P 1'
_cell_length_a   5.63706220
_cell_length_b   5.63706220
_cell_length_c   7.26657657
_cell_angle_alpha   103.97740197
_cell_angle_beta   103.97740203
_cell_angle_gamma   105.86789331
_symmetry_Int_Tables_number   1
_chemical_formula_structural   CaSiSnO5
_chemical_formula_sum   'Ca2 Si2 Sn2 O10'
_cell_volume   203.49314026
_cell_formula_units_Z   2
loop_
 _symmetry_equiv_pos_site_id
 _symmetry_equiv_pos_as_xyz
  1  'x, y, z'
loop_
 _atom_site_type_symbol
 _atom_site_label
 _atom_site_symmetry_multiplicity
 _atom_site_fract_x
 _atom_site_fract_y
 _atom_site_fract_z
 _atom_site_occupancy
  O  O0  1  0.395032  0.822818  0.128026  1
  O  O1  1  0.177182  0.604968  0.371974  1
  O  O2  1  0.604968  0.177182  0.871974  1
  O  O3  1  0.822818  0.395032  0.628026  1
  O  O4  1  0.759949  0.891114  0.589098  1
  O  O5  1  0.108886  0.240051  0.910902  1
  O  O6  1  0.588613  0.411387  0.250000  1
  O  O7  1  0.411387  0.588613  0.750000  1
  O  O8  1  0.891114  0.759949  0.089098  1
  O  O9  1  0.240051  0.108886  0.410902  1
  Si  Si10  1  0.819018  0.180982  0.750000  1
  Si  Si11  1  0.180982  0.819018  0.250000  1
  Ca  Ca12  1  0.837076  0.162924  0.250000  1
  Ca  Ca13  1  0.162924  0.837076  0.750000  1
  Sn  Sn14  1  0.500000  0.500000  0.000000  1
  Sn  Sn15  1  0.500000  0.500000  0.500000  1
