# generated using pymatgen
data_K4Ba2N7O16
_symmetry_space_group_name_H-M   'P 1'
_cell_length_a   9.06962482
_cell_length_b   9.05578055
_cell_length_c   13.25779894
_cell_angle_alpha   69.07994514
_cell_angle_beta   110.97525252
_cell_angle_gamma   93.88741919
_symmetry_Int_Tables_number   1
_chemical_formula_structural   K4Ba2N7O16
_chemical_formula_sum   'K8 Ba4 N14 O32'
_cell_volume   947.46552738
_cell_formula_units_Z   2
loop_
 _symmetry_equiv_pos_site_id
 _symmetry_equiv_pos_as_xyz
  1  'x, y, z'
loop_
 _atom_site_type_symbol
 _atom_site_label
 _atom_site_symmetry_multiplicity
 _atom_site_fract_x
 _atom_site_fract_y
 _atom_site_fract_z
 _atom_site_occupancy
  K  K0  1  0.910471  0.587381  0.834850  1
  K  K1  1  0.408910  0.090120  0.833025  1
  K  K2  1  0.089104  0.409438  0.164089  1
  K  K3  1  0.594406  0.908627  0.167438  1
  K  K4  1  0.071662  0.427040  0.661823  1
  K  K5  1  0.571868  0.928681  0.662574  1
  K  K6  1  0.927710  0.570993  0.335023  1
  K  K7  1  0.427024  0.069982  0.336386  1
  Ba  Ba8  1  0.999363  0.999980  0.999265  1
  Ba  Ba9  1  0.001057  0.000632  0.500485  1
  Ba  Ba10  1  0.497867  0.502400  0.999021  1
  Ba  Ba11  1  0.496109  0.498215  0.499387  1
  N  N12  1  0.989964  0.009067  0.733742  1
  N  N13  1  0.011319  0.989980  0.266015  1
  N  N14  1  0.753879  0.242842  0.767147  1
  N  N15  1  0.245739  0.754228  0.233221  1
  N  N16  1  0.507989  0.491534  0.266804  1
  N  N17  1  0.491690  0.507650  0.732883  1
  N  N18  1  0.741685  0.259516  0.234803  1
  N  N19  1  0.259543  0.742953  0.767061  1
  N  N20  1  0.267938  0.267503  0.999733  1
  N  N21  1  0.733111  0.730883  0.002235  1
  N  N22  1  0.771296  0.231676  0.005529  1
  N  N23  1  0.229969  0.772381  0.994777  1
  N  N24  1  0.768633  0.231868  0.496947  1
  N  N25  1  0.232843  0.768532  0.503419  1
  O  O26  1  0.077647  0.093616  0.786852  1
  O  O27  1  0.903996  0.921521  0.784941  1
  O  O28  1  0.923453  0.904305  0.214465  1
  O  O29  1  0.096396  0.076973  0.213165  1
  O  O30  1  0.786744  0.381163  0.714941  1
  O  O31  1  0.616131  0.206207  0.717081  1
  O  O32  1  0.210476  0.617087  0.285789  1
  O  O33  1  0.384274  0.788807  0.283554  1
  O  O34  1  0.597700  0.577154  0.218142  1
  O  O35  1  0.423920  0.405092  0.213913  1
  O  O36  1  0.403366  0.424097  0.784300  1
  O  O37  1  0.576202  0.597430  0.782342  1
  O  O38  1  0.880714  0.292212  0.286193  1
  O  O39  1  0.706952  0.120466  0.283855  1
  O  O40  1  0.122565  0.708079  0.714174  1
  O  O41  1  0.295368  0.881003  0.716517  1
  O  O42  1  0.120761  0.306774  0.945613  1
  O  O43  1  0.692976  0.877779  0.947160  1
  O  O44  1  0.880692  0.694239  0.055168  1
  O  O45  1  0.305191  0.120444  0.055593  1
  O  O46  1  0.198537  0.244800  0.533181  1
  O  O47  1  0.756591  0.810066  0.532610  1
  O  O48  1  0.805154  0.761915  0.463103  1
  O  O49  1  0.242250  0.195104  0.462220  1
  O  O50  1  0.632407  0.197379  0.002995  1
  O  O51  1  0.806366  0.368876  0.007597  1
  O  O52  1  0.369748  0.802966  0.997158  1
  O  O53  1  0.191545  0.635493  0.993424  1
  O  O54  1  0.804520  0.369405  0.497312  1
  O  O55  1  0.628875  0.199710  0.493624  1
  O  O56  1  0.196174  0.631102  0.502735  1
  O  O57  1  0.372283  0.800407  0.505370  1
