# generated using pymatgen
data_Ti45Se16
_symmetry_space_group_name_H-M   'P 1'
_cell_length_a   3.46536282
_cell_length_b   16.45968224
_cell_length_c   17.78670870
_cell_angle_alpha   91.56831113
_cell_angle_beta   95.59008319
_cell_angle_gamma   90.00577989
_symmetry_Int_Tables_number   1
_chemical_formula_structural   Ti45Se16
_chemical_formula_sum   'Ti45 Se16'
_cell_volume   1009.32503290
_cell_formula_units_Z   1
loop_
 _symmetry_equiv_pos_site_id
 _symmetry_equiv_pos_as_xyz
  1  'x, y, z'
loop_
 _atom_site_type_symbol
 _atom_site_label
 _atom_site_symmetry_multiplicity
 _atom_site_fract_x
 _atom_site_fract_y
 _atom_site_fract_z
 _atom_site_occupancy
  Ti  Ti0  1  0.272082  0.343642  0.544038  1
  Ti  Ti1  1  0.658624  0.932465  0.315007  1
  Ti  Ti2  1  0.648011  0.530293  0.287668  1
  Ti  Ti3  1  0.622681  0.332741  0.243109  1
  Ti  Ti4  1  0.440853  0.440657  0.880934  1
  Ti  Ti5  1  0.358548  0.470068  0.713078  1
  Ti  Ti6  1  0.381169  0.667896  0.756511  1
  Ti  Ti7  1  0.473383  0.631721  0.942270  1
  Ti  Ti8  1  0.567851  0.165725  0.134175  1
  Ti  Ti9  1  0.965648  0.955208  0.926487  1
  Ti  Ti10  1  0.733436  0.657964  0.456053  1
  Ti  Ti11  1  0.561692  0.558872  0.118842  1
  Ti  Ti12  1  0.697818  0.099882  0.400997  1
  Ti  Ti13  1  0.134378  0.066220  0.268462  1
  Ti  Ti14  1  0.740246  0.860882  0.473486  1
  Ti  Ti15  1  0.302717  0.900804  0.598986  1
  Ti  Ti16  1  0.782087  0.019702  0.561967  1
  Ti  Ti17  1  0.184938  0.251365  0.372788  1
  Ti  Ti18  1  0.782024  0.485622  0.559007  1
  Ti  Ti19  1  0.183947  0.795530  0.359799  1
  Ti  Ti20  1  0.262028  0.139767  0.526533  1
  Ti  Ti21  1  0.994819  0.796265  0.986150  1
  Ti  Ti22  1  0.092357  0.875056  0.178633  1
  Ti  Ti23  1  0.000769  0.500121  0.999669  1
  Ti  Ti24  1  0.897653  0.336388  0.793906  1
  Ti  Ti25  1  0.912761  0.125263  0.821081  1
  Ti  Ti26  1  0.915658  0.550664  0.827504  1
  Ti  Ti27  1  0.088223  0.449430  0.172967  1
  Ti  Ti28  1  0.523201  0.908822  0.042390  1
  Ti  Ti29  1  0.435002  0.834475  0.865738  1
  Ti  Ti30  1  0.528904  0.368709  0.057756  1
  Ti  Ti31  1  0.554731  0.753876  0.104718  1
  Ti  Ti32  1  0.293221  0.614649  0.579614  1
  Ti  Ti33  1  0.106672  0.663323  0.206116  1
  Ti  Ti34  1  0.821458  0.205706  0.639975  1
  Ti  Ti35  1  0.447315  0.246110  0.895126  1
  Ti  Ti36  1  0.007373  0.203530  0.013517  1
  Ti  Ti37  1  0.868313  0.934692  0.730169  1
  Ti  Ti38  1  0.711706  0.386290  0.420649  1
  Ti  Ti39  1  0.223617  0.515476  0.440904  1
  Ti  Ti40  1  0.344974  0.068765  0.683853  1
  Ti  Ti41  1  0.218809  0.980607  0.437200  1
  Ti  Ti42  1  0.480250  0.091335  0.956440  1
  Ti  Ti43  1  0.817958  0.749450  0.627750  1
  Ti  Ti44  1  0.038417  0.045042  0.072395  1
  Se  Se45  1  0.029395  0.650241  0.054005  1
  Se  Se46  1  0.179616  0.636394  0.347170  1
  Se  Se47  1  0.376481  0.218502  0.749891  1
  Se  Se48  1  0.638736  0.184352  0.278979  1
  Se  Se49  1  0.972623  0.349580  0.946172  1
  Se  Se50  1  0.263599  0.758323  0.518521  1
  Se  Se51  1  0.589437  0.997881  0.174861  1
  Se  Se52  1  0.070873  0.288873  0.140507  1
  Se  Se53  1  0.364239  0.816545  0.721096  1
  Se  Se54  1  0.161505  0.415381  0.318544  1
  Se  Se55  1  0.843720  0.584734  0.681752  1
  Se  Se56  1  0.628981  0.781879  0.249919  1
  Se  Se57  1  0.827394  0.364680  0.653012  1
  Se  Se58  1  0.739463  0.242646  0.482073  1
  Se  Se59  1  0.414655  0.002713  0.823807  1
  Se  Se60  1  0.932009  0.711228  0.859153  1
