# generated using pymatgen
data_Co17Se20
_symmetry_space_group_name_H-M   'P 1'
_cell_length_a   31.53941905
_cell_length_b   23.74262718
_cell_length_c   18.13331218
_cell_angle_alpha   30.82354198
_cell_angle_beta   22.06256575
_cell_angle_gamma   14.29774489
_symmetry_Int_Tables_number   1
_chemical_formula_structural   Co17Se20
_chemical_formula_sum   'Co34 Se40'
_cell_volume   1140.86235853
_cell_formula_units_Z   2
loop_
 _symmetry_equiv_pos_site_id
 _symmetry_equiv_pos_as_xyz
  1  'x, y, z'
loop_
 _atom_site_type_symbol
 _atom_site_label
 _atom_site_symmetry_multiplicity
 _atom_site_fract_x
 _atom_site_fract_y
 _atom_site_fract_z
 _atom_site_occupancy
  Co  Co0  1  0.107556  0.987191  0.501220  1
  Co  Co1  1  0.105314  0.500496  0.990994  1
  Co  Co2  1  0.067845  0.221073  0.498320  1
  Co  Co3  1  0.301054  0.999350  0.498540  1
  Co  Co4  1  0.022744  0.770286  0.015729  1
  Co  Co5  1  0.298930  0.501198  0.000526  1
  Co  Co6  1  0.266039  0.223194  0.499963  1
  Co  Co7  1  0.498946  0.000650  0.501460  1
  Co  Co8  1  0.218132  0.772584  0.020364  1
  Co  Co9  1  0.198749  0.500979  0.500981  1
  Co  Co10  1  0.501070  0.498802  0.999474  1
  Co  Co11  1  0.178945  0.227101  0.984219  1
  Co  Co12  1  0.461063  0.225023  0.506638  1
  Co  Co13  1  0.142531  0.763636  0.504518  1
  Co  Co14  1  0.692444  0.012809  0.498780  1
  Co  Co15  1  0.428808  0.766022  0.009694  1
  Co  Co16  1  0.694686  0.499504  0.009006  1
  Co  Co17  1  0.371192  0.233978  0.990306  1
  Co  Co18  1  0.657469  0.236364  0.495482  1
  Co  Co19  1  0.338937  0.774977  0.493362  1
  Co  Co20  1  0.900000  0.000000  0.500000  1
  Co  Co21  1  0.621055  0.772899  0.015781  1
  Co  Co22  1  0.601251  0.499021  0.499019  1
  Co  Co23  1  0.900000  0.500000  0.000000  1
  Co  Co24  1  0.581868  0.227416  0.979636  1
  Co  Co25  1  0.860698  0.224459  0.508866  1
  Co  Co26  1  0.533961  0.776806  0.500037  1
  Co  Co27  1  0.827360  0.768288  0.008580  1
  Co  Co28  1  0.800730  0.499819  0.498876  1
  Co  Co29  1  0.777256  0.229714  0.984271  1
  Co  Co30  1  0.732155  0.778927  0.501680  1
  Co  Co31  1  0.999270  0.500181  0.501124  1
  Co  Co32  1  0.972640  0.231712  0.991420  1
  Co  Co33  1  0.939302  0.775541  0.491134  1
  Se  Se34  1  0.020313  0.044770  0.334330  1
  Se  Se35  1  0.217406  0.050158  0.329730  1
  Se  Se36  1  0.165123  0.469233  0.169814  1
  Se  Se37  1  0.127615  0.041148  0.833898  1
  Se  Se38  1  0.417723  0.049710  0.331579  1
  Se  Se39  1  0.126182  0.541495  0.332302  1
  Se  Se40  1  0.071149  0.461184  0.668719  1
  Se  Se41  1  0.370189  0.465872  0.164880  1
  Se  Se42  1  0.328283  0.041324  0.831907  1
  Se  Se43  1  0.616641  0.050218  0.332401  1
  Se  Se44  1  0.071713  0.958121  0.168996  1
  Se  Se45  1  0.031640  0.531629  0.834084  1
  Se  Se46  1  0.330133  0.537717  0.329868  1
  Se  Se47  1  0.258686  0.471496  0.672779  1
  Se  Se48  1  0.564131  0.470761  0.167620  1
  Se  Se49  1  0.528923  0.042640  0.830352  1
  Se  Se50  1  0.810869  0.058320  0.333368  1
  Se  Se51  1  0.271077  0.957360  0.169648  1
  Se  Se52  1  0.235869  0.529239  0.832380  1
  Se  Se53  1  0.541314  0.528504  0.327221  1
  Se  Se54  1  0.469867  0.462283  0.670132  1
  Se  Se55  1  0.768360  0.468371  0.165916  1
  Se  Se56  1  0.728287  0.041879  0.831004  1
  Se  Se57  1  0.183359  0.949782  0.667599  1
  Se  Se58  1  0.471717  0.958676  0.168093  1
  Se  Se59  1  0.429811  0.534128  0.835120  1
  Se  Se60  1  0.728851  0.538816  0.331281  1
  Se  Se61  1  0.673818  0.458505  0.667698  1
  Se  Se62  1  0.966330  0.469912  0.165967  1
  Se  Se63  1  0.930062  0.038823  0.831917  1
  Se  Se64  1  0.382277  0.950290  0.668421  1
  Se  Se65  1  0.672385  0.958852  0.166102  1
  Se  Se66  1  0.634877  0.530767  0.830186  1
  Se  Se67  1  0.931079  0.537217  0.328964  1
  Se  Se68  1  0.868921  0.462783  0.671036  1
  Se  Se69  1  0.582594  0.949842  0.670270  1
  Se  Se70  1  0.869938  0.961177  0.168083  1
  Se  Se71  1  0.833670  0.530088  0.834033  1
  Se  Se72  1  0.779687  0.955230  0.665670  1
  Se  Se73  1  0.989131  0.941680  0.666632  1
