# generated using pymatgen
data_NaAgO
_symmetry_space_group_name_H-M   'P 1'
_cell_length_a   4.68953157
_cell_length_b   7.18078816
_cell_length_c   7.18078816
_cell_angle_alpha   83.87926354
_cell_angle_beta   70.94151019
_cell_angle_gamma   70.94151025
_symmetry_Int_Tables_number   1
_chemical_formula_structural   NaAgO
_chemical_formula_sum   'Na4 Ag4 O4'
_cell_volume   216.02698567
_cell_formula_units_Z   4
loop_
 _symmetry_equiv_pos_site_id
 _symmetry_equiv_pos_as_xyz
  1  'x, y, z'
loop_
 _atom_site_type_symbol
 _atom_site_label
 _atom_site_symmetry_multiplicity
 _atom_site_fract_x
 _atom_site_fract_y
 _atom_site_fract_z
 _atom_site_occupancy
  O  O0  1  0.691060  0.308940  0.308940  1
  O  O1  1  0.000000  0.691060  0.308940  1
  O  O2  1  0.000000  0.308940  0.691060  1
  O  O3  1  0.308940  0.691060  0.691060  1
  Na  Na4  1  0.160257  0.339743  0.339743  1
  Na  Na5  1  0.500000  0.660257  0.339743  1
  Na  Na6  1  0.500000  0.339743  0.660257  1
  Na  Na7  1  0.839743  0.660257  0.660257  1
  Ag  Ag8  1  0.842734  0.000000  0.314532  1
  Ag  Ag9  1  0.157266  0.685468  0.000000  1
  Ag  Ag10  1  0.842734  0.314532  0.000000  1
  Ag  Ag11  1  0.157266  0.000000  0.685468  1
