# generated using pymatgen
data_Ce5NiPb3
_symmetry_space_group_name_H-M   'P 1'
_cell_length_a   9.60609466
_cell_length_b   9.60609486
_cell_length_c   6.41984512
_cell_angle_alpha   90.00000000
_cell_angle_beta   90.00000000
_cell_angle_gamma   119.99999930
_symmetry_Int_Tables_number   1
_chemical_formula_structural   Ce5NiPb3
_chemical_formula_sum   'Ce10 Ni2 Pb6'
_cell_volume   513.03727304
_cell_formula_units_Z   2
loop_
 _symmetry_equiv_pos_site_id
 _symmetry_equiv_pos_as_xyz
  1  'x, y, z'
loop_
 _atom_site_type_symbol
 _atom_site_label
 _atom_site_symmetry_multiplicity
 _atom_site_fract_x
 _atom_site_fract_y
 _atom_site_fract_z
 _atom_site_occupancy
  Ce  Ce0  1  0.238530  0.238530  0.750000  1
  Ce  Ce1  1  0.761470  0.761470  0.250000  1
  Ce  Ce2  1  0.238530  0.000000  0.250000  1
  Ce  Ce3  1  0.761470  0.000000  0.750000  1
  Ce  Ce4  1  0.333333  0.666667  0.500000  1
  Ce  Ce5  1  0.666667  0.333333  0.500000  1
  Ce  Ce6  1  0.000000  0.238530  0.250000  1
  Ce  Ce7  1  1.000000  0.761470  0.750000  1
  Ce  Ce8  1  0.333333  0.666667  0.000000  1
  Ce  Ce9  1  0.666667  0.333333  0.000000  1
  Ni  Ni10  1  0.000000  0.000000  0.000000  1
  Ni  Ni11  1  0.000000  0.000000  0.500000  1
  Pb  Pb12  1  0.395440  0.395440  0.250000  1
  Pb  Pb13  1  0.604560  0.604560  0.750000  1
  Pb  Pb14  1  0.000000  0.395440  0.750000  1
  Pb  Pb15  1  0.604560  0.000000  0.250000  1
  Pb  Pb16  1  0.395440  0.000000  0.750000  1
  Pb  Pb17  1  1.000000  0.604560  0.250000  1
