# generated using pymatgen
data_S4N5Cl
_symmetry_space_group_name_H-M   'P 1'
_cell_length_a   5.06448899
_cell_length_b   8.07223034
_cell_length_c   18.21841798
_cell_angle_alpha   90.00000000
_cell_angle_beta   90.00000000
_cell_angle_gamma   90.00000000
_symmetry_Int_Tables_number   1
_chemical_formula_structural   S4N5Cl
_chemical_formula_sum   'S16 N20 Cl4'
_cell_volume   744.80029334
_cell_formula_units_Z   4
loop_
 _symmetry_equiv_pos_site_id
 _symmetry_equiv_pos_as_xyz
  1  'x, y, z'
loop_
 _atom_site_type_symbol
 _atom_site_label
 _atom_site_symmetry_multiplicity
 _atom_site_fract_x
 _atom_site_fract_y
 _atom_site_fract_z
 _atom_site_occupancy
  S  S0  1  0.467269  0.250000  0.050942  1
  S  S1  1  0.590169  0.750000  0.796818  1
  S  S2  1  0.032731  0.250000  0.550942  1
  S  S3  1  0.170532  0.504977  0.118583  1
  S  S4  1  0.329468  0.995023  0.618583  1
  S  S5  1  0.670532  0.004977  0.381417  1
  S  S6  1  0.670532  0.495023  0.381417  1
  S  S7  1  0.409831  0.250000  0.203182  1
  S  S8  1  0.829468  0.004977  0.881417  1
  S  S9  1  0.829468  0.495023  0.881417  1
  S  S10  1  0.532731  0.750000  0.949058  1
  S  S11  1  0.170532  0.995023  0.118583  1
  S  S12  1  0.967269  0.750000  0.449058  1
  S  S13  1  0.329468  0.504977  0.618583  1
  S  S14  1  0.909831  0.750000  0.296818  1
  S  S15  1  0.090169  0.250000  0.703182  1
  N  N16  1  0.753721  0.588657  0.453315  1
  N  N17  1  0.204774  0.086483  0.194154  1
  N  N18  1  0.253721  0.411343  0.046685  1
  N  N19  1  0.795226  0.913517  0.805846  1
  N  N20  1  0.246279  0.088657  0.546685  1
  N  N21  1  0.606738  0.250000  0.131543  1
  N  N22  1  0.795226  0.586483  0.805846  1
  N  N23  1  0.253721  0.088657  0.046685  1
  N  N24  1  0.893262  0.250000  0.631543  1
  N  N25  1  0.746279  0.588657  0.953315  1
  N  N26  1  0.246279  0.411343  0.546685  1
  N  N27  1  0.393262  0.750000  0.868457  1
  N  N28  1  0.295226  0.413517  0.694154  1
  N  N29  1  0.704774  0.913517  0.305846  1
  N  N30  1  0.704774  0.586483  0.305846  1
  N  N31  1  0.746279  0.911343  0.953315  1
  N  N32  1  0.295226  0.086483  0.694154  1
  N  N33  1  0.204774  0.413517  0.194154  1
  N  N34  1  0.753721  0.911343  0.453315  1
  N  N35  1  0.106738  0.750000  0.368457  1
  Cl  Cl36  1  0.937442  0.750000  0.630294  1
  Cl  Cl37  1  0.437442  0.250000  0.869706  1
  Cl  Cl38  1  0.562558  0.750000  0.130294  1
  Cl  Cl39  1  0.062558  0.250000  0.369706  1
