# generated using pymatgen
data_ReNCl4O3
_symmetry_space_group_name_H-M   'P 1'
_cell_length_a   9.80023437
_cell_length_b   10.87828523
_cell_length_c   14.98680967
_cell_angle_alpha   90.00000000
_cell_angle_beta   94.78525944
_cell_angle_gamma   90.00000000
_symmetry_Int_Tables_number   1
_chemical_formula_structural   ReNCl4O3
_chemical_formula_sum   'Re8 N8 Cl32 O24'
_cell_volume   1592.17079831
_cell_formula_units_Z   8
loop_
 _symmetry_equiv_pos_site_id
 _symmetry_equiv_pos_as_xyz
  1  'x, y, z'
loop_
 _atom_site_type_symbol
 _atom_site_label
 _atom_site_symmetry_multiplicity
 _atom_site_fract_x
 _atom_site_fract_y
 _atom_site_fract_z
 _atom_site_occupancy
  Re  Re0  1  0.410019  0.780637  0.780492  1
  Re  Re1  1  0.217363  0.227749  0.969339  1
  Re  Re2  1  0.782637  0.727749  0.530661  1
  Re  Re3  1  0.589981  0.219363  0.219508  1
  Re  Re4  1  0.782637  0.772251  0.030661  1
  Re  Re5  1  0.410019  0.719363  0.280492  1
  Re  Re6  1  0.589981  0.280637  0.719508  1
  Re  Re7  1  0.217363  0.272251  0.469339  1
  N  N8  1  0.850055  0.136859  0.517693  1
  N  N9  1  0.834125  0.513545  0.258835  1
  N  N10  1  0.149945  0.636859  0.982307  1
  N  N11  1  0.149945  0.863141  0.482307  1
  N  N12  1  0.165875  0.486455  0.741165  1
  N  N13  1  0.850055  0.363141  0.017693  1
  N  N14  1  0.834125  0.986455  0.758835  1
  N  N15  1  0.165875  0.013545  0.241165  1
  Cl  Cl16  1  0.923199  0.910279  0.610316  1
  Cl  Cl17  1  0.855340  0.303182  0.201178  1
  Cl  Cl18  1  0.144660  0.803182  0.298822  1
  Cl  Cl19  1  0.076801  0.089721  0.389684  1
  Cl  Cl20  1  0.454395  0.595797  0.864828  1
  Cl  Cl21  1  0.387942  0.853036  0.159062  1
  Cl  Cl22  1  0.612058  0.353036  0.340938  1
  Cl  Cl23  1  0.622177  0.128428  0.083973  1
  Cl  Cl24  1  0.612058  0.146964  0.840938  1
  Cl  Cl25  1  0.176686  0.337938  0.094300  1
  Cl  Cl26  1  0.812867  0.639984  0.669271  1
  Cl  Cl27  1  0.923199  0.589721  0.110316  1
  Cl  Cl28  1  0.034364  0.661260  0.521689  1
  Cl  Cl29  1  0.823314  0.662062  0.905700  1
  Cl  Cl30  1  0.622177  0.371572  0.583973  1
  Cl  Cl31  1  0.454395  0.904203  0.364828  1
  Cl  Cl32  1  0.034364  0.838740  0.021689  1
  Cl  Cl33  1  0.144660  0.696818  0.798822  1
  Cl  Cl34  1  0.377823  0.628428  0.416027  1
  Cl  Cl35  1  0.387942  0.646964  0.659062  1
  Cl  Cl36  1  0.076801  0.410279  0.889684  1
  Cl  Cl37  1  0.545605  0.095797  0.635172  1
  Cl  Cl38  1  0.965636  0.161260  0.978311  1
  Cl  Cl39  1  0.187133  0.360016  0.330729  1
  Cl  Cl40  1  0.855340  0.196818  0.701178  1
  Cl  Cl41  1  0.377823  0.871572  0.916027  1
  Cl  Cl42  1  0.965636  0.338740  0.478311  1
  Cl  Cl43  1  0.176686  0.162062  0.594300  1
  Cl  Cl44  1  0.187133  0.139984  0.830729  1
  Cl  Cl45  1  0.823314  0.837938  0.405700  1
  Cl  Cl46  1  0.545605  0.404203  0.135172  1
  Cl  Cl47  1  0.812867  0.860016  0.169271  1
  O  O48  1  0.680626  0.106939  0.280332  1
  O  O49  1  0.907241  0.960732  0.818111  1
  O  O50  1  0.319374  0.606939  0.219668  1
  O  O51  1  0.364898  0.304319  0.949169  1
  O  O52  1  0.742257  0.125123  0.486203  1
  O  O53  1  0.577645  0.678067  0.274128  1
  O  O54  1  0.092759  0.039268  0.181889  1
  O  O55  1  0.724526  0.597686  0.474588  1
  O  O56  1  0.635102  0.695681  0.050831  1
  O  O57  1  0.422355  0.321933  0.725872  1
  O  O58  1  0.275474  0.402314  0.525412  1
  O  O59  1  0.257743  0.625123  0.013797  1
  O  O60  1  0.724526  0.902314  0.974588  1
  O  O61  1  0.907241  0.539268  0.318111  1
  O  O62  1  0.275474  0.097686  0.025412  1
  O  O63  1  0.319374  0.893061  0.719668  1
  O  O64  1  0.742257  0.374877  0.986203  1
  O  O65  1  0.364898  0.195681  0.449169  1
  O  O66  1  0.422355  0.178067  0.225872  1
  O  O67  1  0.577645  0.821933  0.774128  1
  O  O68  1  0.680626  0.393061  0.780332  1
  O  O69  1  0.257743  0.874877  0.513797  1
  O  O70  1  0.635102  0.804319  0.550831  1
  O  O71  1  0.092759  0.460732  0.681889  1
