# generated using pymatgen
data_Co5Te4(ClO6)2
_symmetry_space_group_name_H-M   'P 1'
_cell_length_a   5.32872717
_cell_length_b   10.43641358
_cell_length_c   13.84160804
_cell_angle_alpha   84.77290361
_cell_angle_beta   78.90189909
_cell_angle_gamma   75.20893930
_symmetry_Int_Tables_number   1
_chemical_formula_structural   Co5Te4(ClO6)2
_chemical_formula_sum   'Co10 Te8 Cl4 O24'
_cell_volume   729.62980785
_cell_formula_units_Z   2
loop_
 _symmetry_equiv_pos_site_id
 _symmetry_equiv_pos_as_xyz
  1  'x, y, z'
loop_
 _atom_site_type_symbol
 _atom_site_label
 _atom_site_symmetry_multiplicity
 _atom_site_fract_x
 _atom_site_fract_y
 _atom_site_fract_z
 _atom_site_occupancy
  Co  Co0  1  0.125459  0.706510  0.475545  1
  Co  Co1  1  0.692486  0.206510  0.975545  1
  Co  Co2  1  0.307514  0.793490  0.024455  1
  Co  Co3  1  0.773092  0.898389  0.118287  1
  Co  Co4  1  0.210233  0.398389  0.618287  1
  Co  Co5  1  0.233842  0.750000  0.250000  1
  Co  Co6  1  0.226908  0.101611  0.881713  1
  Co  Co7  1  0.789767  0.601611  0.381713  1
  Co  Co8  1  0.874541  0.293490  0.524455  1
  Co  Co9  1  0.766158  0.250000  0.750000  1
  Te  Te10  1  0.438357  0.085919  0.622179  1
  Te  Te11  1  0.557560  0.612261  0.639666  1
  Te  Te12  1  0.146455  0.414081  0.877821  1
  Te  Te13  1  0.809486  0.887739  0.860334  1
  Te  Te14  1  0.190514  0.112261  0.139666  1
  Te  Te15  1  0.853545  0.585919  0.122179  1
  Te  Te16  1  0.442440  0.387739  0.360334  1
  Te  Te17  1  0.561643  0.914081  0.377821  1
  Cl  Cl18  1  0.901279  0.123311  0.406804  1
  Cl  Cl19  1  0.568607  0.623311  0.906804  1
  Cl  Cl20  1  0.098721  0.876689  0.593196  1
  Cl  Cl21  1  0.431393  0.376689  0.093196  1
  O  O22  1  0.455579  0.019161  0.751055  1
  O  O23  1  0.314870  0.571813  0.569295  1
  O  O24  1  0.445212  0.259746  0.867239  1
  O  O25  1  0.953293  0.826314  0.977885  1
  O  O26  1  0.202695  0.560579  0.357589  1
  O  O27  1  0.427803  0.759745  0.367239  1
  O  O28  1  0.066733  0.700027  0.143772  1
  O  O29  1  0.120863  0.939421  0.142411  1
  O  O30  1  0.544022  0.071813  0.069295  1
  O  O31  1  0.774205  0.519161  0.251055  1
  O  O32  1  0.757492  0.673686  0.522115  1
  O  O33  1  0.455978  0.928187  0.930705  1
  O  O34  1  0.879137  0.060579  0.857589  1
  O  O35  1  0.544421  0.980839  0.248945  1
  O  O36  1  0.225795  0.480839  0.748945  1
  O  O37  1  0.933267  0.299973  0.856228  1
  O  O38  1  0.572197  0.240255  0.632761  1
  O  O39  1  0.242508  0.326314  0.477885  1
  O  O40  1  0.797305  0.439421  0.642411  1
  O  O41  1  0.685130  0.428187  0.430705  1
  O  O42  1  0.554788  0.740255  0.132761  1
  O  O43  1  0.046707  0.173686  0.022115  1
  O  O44  1  0.089467  0.200027  0.643772  1
  O  O45  1  0.910533  0.799973  0.356228  1
