# generated using pymatgen
data_UW3O11
_symmetry_space_group_name_H-M   'P 1'
_cell_length_a   14.19261275
_cell_length_b   7.62296232
_cell_length_c   3.92663983
_cell_angle_alpha   90.00000000
_cell_angle_beta   90.00000000
_cell_angle_gamma   90.00000000
_symmetry_Int_Tables_number   1
_chemical_formula_structural   UW3O11
_chemical_formula_sum   'U2 W6 O22'
_cell_volume   424.82219025
_cell_formula_units_Z   2
loop_
 _symmetry_equiv_pos_site_id
 _symmetry_equiv_pos_as_xyz
  1  'x, y, z'
loop_
 _atom_site_type_symbol
 _atom_site_label
 _atom_site_symmetry_multiplicity
 _atom_site_fract_x
 _atom_site_fract_y
 _atom_site_fract_z
 _atom_site_occupancy
  U  U0  1  0.017697  0.500000  0.000000  1
  U  U1  1  0.982303  0.000000  0.000000  1
  W  W2  1  0.500000  0.250000  0.000000  1
  W  W3  1  0.500000  0.750000  0.000000  1
  W  W4  1  0.767413  0.251012  0.000000  1
  W  W5  1  0.767413  0.748988  0.000000  1
  W  W6  1  0.232587  0.751012  0.000000  1
  W  W7  1  0.232587  0.248988  0.000000  1
  O  O8  1  0.037920  0.500000  0.500000  1
  O  O9  1  0.962080  0.000000  0.500000  1
  O  O10  1  0.500000  0.250000  0.500000  1
  O  O11  1  0.500000  0.750000  0.500000  1
  O  O12  1  0.771265  0.249578  0.500000  1
  O  O13  1  0.771265  0.750422  0.500000  1
  O  O14  1  0.228735  0.749578  0.500000  1
  O  O15  1  0.228735  0.250422  0.500000  1
  O  O16  1  0.751438  0.500000  0.000000  1
  O  O17  1  0.248562  0.000000  0.000000  1
  O  O18  1  0.521061  0.500000  0.000000  1
  O  O19  1  0.478939  0.000000  0.000000  1
  O  O20  1  0.194253  0.500000  0.000000  1
  O  O21  1  0.805747  0.000000  0.000000  1
  O  O22  1  0.910020  0.288438  0.000000  1
  O  O23  1  0.910020  0.711562  0.000000  1
  O  O24  1  0.089980  0.788438  0.000000  1
  O  O25  1  0.089980  0.211562  0.000000  1
  O  O26  1  0.637486  0.207952  0.000000  1
  O  O27  1  0.637486  0.792048  0.000000  1
  O  O28  1  0.362514  0.707952  0.000000  1
  O  O29  1  0.362514  0.292048  0.000000  1
