# generated using pymatgen
data_ZnSiO3
_symmetry_space_group_name_H-M   'P 1'
_cell_length_a   5.24059819
_cell_length_b   6.80090854
_cell_length_c   6.80090860
_cell_angle_alpha   86.57282179
_cell_angle_beta   75.95497132
_cell_angle_gamma   75.95497248
_symmetry_Int_Tables_number   1
_chemical_formula_structural   ZnSiO3
_chemical_formula_sum   'Zn4 Si4 O12'
_cell_volume   228.11418939
_cell_formula_units_Z   4
loop_
 _symmetry_equiv_pos_site_id
 _symmetry_equiv_pos_as_xyz
  1  'x, y, z'
loop_
 _atom_site_type_symbol
 _atom_site_label
 _atom_site_symmetry_multiplicity
 _atom_site_fract_x
 _atom_site_fract_y
 _atom_site_fract_z
 _atom_site_occupancy
  Zn  Zn0  1  0.250000  0.753434  0.246566  1
  Zn  Zn1  1  0.250000  0.110106  0.889894  1
  Zn  Zn2  1  0.750000  0.889894  0.110106  1
  Zn  Zn3  1  0.750000  0.246566  0.753434  1
  Si  Si4  1  0.253518  0.213094  0.383421  1
  Si  Si5  1  0.753518  0.383421  0.213094  1
  Si  Si6  1  0.246482  0.616579  0.786906  1
  Si  Si7  1  0.746482  0.786906  0.616579  1
  O  O8  1  0.515146  0.308479  0.388100  1
  O  O9  1  0.123580  0.145772  0.612353  1
  O  O10  1  0.376420  0.387647  0.854228  1
  O  O11  1  0.860053  0.212876  0.030588  1
  O  O12  1  0.984854  0.611900  0.691521  1
  O  O13  1  0.623580  0.612353  0.145772  1
  O  O14  1  0.015146  0.388100  0.308479  1
  O  O15  1  0.639947  0.969412  0.787124  1
  O  O16  1  0.876420  0.854228  0.387647  1
  O  O17  1  0.139947  0.787124  0.969412  1
  O  O18  1  0.360053  0.030588  0.212876  1
  O  O19  1  0.484854  0.691521  0.611900  1
