# generated using pymatgen
data_Mo6PbBr14
_symmetry_space_group_name_H-M   'P 1'
_cell_length_a   13.87193993
_cell_length_b   13.87193993
_cell_length_c   13.87193993
_cell_angle_alpha   90.00000000
_cell_angle_beta   90.00000000
_cell_angle_gamma   90.00000000
_symmetry_Int_Tables_number   1
_chemical_formula_structural   Mo6PbBr14
_chemical_formula_sum   'Mo24 Pb4 Br56'
_cell_volume   2669.38735276
_cell_formula_units_Z   4
loop_
 _symmetry_equiv_pos_site_id
 _symmetry_equiv_pos_as_xyz
  1  'x, y, z'
loop_
 _atom_site_type_symbol
 _atom_site_label
 _atom_site_symmetry_multiplicity
 _atom_site_fract_x
 _atom_site_fract_y
 _atom_site_fract_z
 _atom_site_occupancy
  Mo  Mo0  1  0.127888  0.527375  0.465212  1
  Mo  Mo1  1  0.027375  0.965212  0.872112  1
  Mo  Mo2  1  0.034788  0.127888  0.972625  1
  Mo  Mo3  1  0.372112  0.972625  0.465212  1
  Mo  Mo4  1  0.972625  0.465212  0.372112  1
  Mo  Mo5  1  0.034788  0.372112  0.527375  1
  Mo  Mo6  1  0.627888  0.472625  0.965212  1
  Mo  Mo7  1  0.627888  0.027375  0.534788  1
  Mo  Mo8  1  0.465212  0.372112  0.972625  1
  Mo  Mo9  1  0.534788  0.627888  0.027375  1
  Mo  Mo10  1  0.127888  0.972625  0.034788  1
  Mo  Mo11  1  0.027375  0.534788  0.627888  1
  Mo  Mo12  1  0.872112  0.472625  0.534788  1
  Mo  Mo13  1  0.972625  0.034788  0.127888  1
  Mo  Mo14  1  0.534788  0.872112  0.472625  1
  Mo  Mo15  1  0.965212  0.872112  0.027375  1
  Mo  Mo16  1  0.527375  0.465212  0.127888  1
  Mo  Mo17  1  0.472625  0.534788  0.872112  1
  Mo  Mo18  1  0.965212  0.627888  0.472625  1
  Mo  Mo19  1  0.372112  0.527375  0.034788  1
  Mo  Mo20  1  0.527375  0.034788  0.372112  1
  Mo  Mo21  1  0.472625  0.965212  0.627888  1
  Mo  Mo22  1  0.465212  0.127888  0.527375  1
  Mo  Mo23  1  0.872112  0.027375  0.965212  1
  Pb  Pb24  1  0.000000  0.000000  0.500000  1
  Pb  Pb25  1  0.500000  0.500000  0.500000  1
  Pb  Pb26  1  0.500000  0.000000  0.000000  1
  Pb  Pb27  1  0.000000  0.500000  0.000000  1
  Br  Br28  1  0.633724  0.633724  0.866276  1
  Br  Br29  1  0.380889  0.812920  0.564144  1
  Br  Br30  1  0.807020  0.428912  0.911720  1
  Br  Br31  1  0.071088  0.911720  0.692980  1
  Br  Br32  1  0.428912  0.588280  0.692980  1
  Br  Br33  1  0.064144  0.619111  0.312920  1
  Br  Br34  1  0.571088  0.088280  0.192980  1
  Br  Br35  1  0.880889  0.187080  0.064144  1
  Br  Br36  1  0.312920  0.435856  0.880889  1
  Br  Br37  1  0.571088  0.411720  0.307020  1
  Br  Br38  1  0.366276  0.133724  0.366276  1
  Br  Br39  1  0.366276  0.366276  0.133724  1
  Br  Br40  1  0.071088  0.588280  0.807020  1
  Br  Br41  1  0.119111  0.812920  0.935856  1
  Br  Br42  1  0.307020  0.571088  0.411720  1
  Br  Br43  1  0.428912  0.911720  0.807020  1
  Br  Br44  1  0.866276  0.633724  0.633724  1
  Br  Br45  1  0.812920  0.564144  0.380889  1
  Br  Br46  1  0.935856  0.380889  0.687080  1
  Br  Br47  1  0.619111  0.187080  0.435856  1
  Br  Br48  1  0.692980  0.071088  0.911720  1
  Br  Br49  1  0.807020  0.071088  0.588280  1
  Br  Br50  1  0.133724  0.133724  0.133724  1
  Br  Br51  1  0.307020  0.928912  0.088280  1
  Br  Br52  1  0.564144  0.119111  0.687080  1
  Br  Br53  1  0.187080  0.435856  0.619111  1
  Br  Br54  1  0.633724  0.866276  0.633724  1
  Br  Br55  1  0.687080  0.935856  0.380889  1
  Br  Br56  1  0.187080  0.064144  0.880889  1
  Br  Br57  1  0.928912  0.088280  0.307020  1
  Br  Br58  1  0.088280  0.307020  0.928912  1
  Br  Br59  1  0.312920  0.064144  0.619111  1
  Br  Br60  1  0.435856  0.880889  0.312920  1
  Br  Br61  1  0.192980  0.571088  0.088280  1
  Br  Br62  1  0.380889  0.687080  0.935856  1
  Br  Br63  1  0.619111  0.312920  0.064144  1
  Br  Br64  1  0.192980  0.928912  0.411720  1
  Br  Br65  1  0.911720  0.807020  0.428912  1
  Br  Br66  1  0.119111  0.687080  0.564144  1
  Br  Br67  1  0.133724  0.366276  0.366276  1
  Br  Br68  1  0.588280  0.807020  0.071088  1
  Br  Br69  1  0.064144  0.880889  0.187080  1
  Br  Br70  1  0.588280  0.692980  0.428912  1
  Br  Br71  1  0.928912  0.411720  0.192980  1
  Br  Br72  1  0.911720  0.692980  0.071088  1
  Br  Br73  1  0.812920  0.935856  0.119111  1
  Br  Br74  1  0.435856  0.619111  0.187080  1
  Br  Br75  1  0.687080  0.564144  0.119111  1
  Br  Br76  1  0.411720  0.307020  0.571088  1
  Br  Br77  1  0.935856  0.119111  0.812920  1
  Br  Br78  1  0.866276  0.866276  0.866276  1
  Br  Br79  1  0.564144  0.380889  0.812920  1
  Br  Br80  1  0.880889  0.312920  0.435856  1
  Br  Br81  1  0.088280  0.192980  0.571088  1
  Br  Br82  1  0.692980  0.428912  0.588280  1
  Br  Br83  1  0.411720  0.192980  0.928912  1
