# generated using pymatgen
data_RbPO3
_symmetry_space_group_name_H-M   'P 1'
_cell_length_a   4.62081093
_cell_length_b   12.28849644
_cell_length_c   14.46938514
_cell_angle_alpha   114.60132862
_cell_angle_beta   90.00000000
_cell_angle_gamma   90.00000000
_symmetry_Int_Tables_number   1
_chemical_formula_structural   RbPO3
_chemical_formula_sum   'Rb8 P8 O24'
_cell_volume   747.03179606
_cell_formula_units_Z   8
loop_
 _symmetry_equiv_pos_site_id
 _symmetry_equiv_pos_as_xyz
  1  'x, y, z'
loop_
 _atom_site_type_symbol
 _atom_site_label
 _atom_site_symmetry_multiplicity
 _atom_site_fract_x
 _atom_site_fract_y
 _atom_site_fract_z
 _atom_site_occupancy
  Rb  Rb0  1  0.785825  0.811063  0.379353  1
  Rb  Rb1  1  0.267868  0.169726  0.082016  1
  Rb  Rb2  1  0.732132  0.830274  0.917984  1
  Rb  Rb3  1  0.214175  0.188937  0.620647  1
  Rb  Rb4  1  0.767868  0.330274  0.417984  1
  Rb  Rb5  1  0.714175  0.311063  0.879353  1
  Rb  Rb6  1  0.232132  0.669726  0.582016  1
  Rb  Rb7  1  0.285825  0.688937  0.120647  1
  P  P8  1  0.680131  0.486128  0.690443  1
  P  P9  1  0.817712  0.451074  0.164254  1
  P  P10  1  0.819869  0.986128  0.190443  1
  P  P11  1  0.182288  0.548926  0.835746  1
  P  P12  1  0.319869  0.513872  0.309557  1
  P  P13  1  0.682288  0.951074  0.664254  1
  P  P14  1  0.317712  0.048926  0.335746  1
  P  P15  1  0.180131  0.013872  0.809557  1
  O  O16  1  0.248151  0.171759  0.415412  1
  O  O17  1  0.251849  0.671759  0.915412  1
  O  O18  1  0.203701  0.146949  0.846479  1
  O  O19  1  0.296299  0.646949  0.346479  1
  O  O20  1  0.796299  0.853051  0.153521  1
  O  O21  1  0.712605  0.058533  0.641312  1
  O  O22  1  0.245130  0.456506  0.380113  1
  O  O23  1  0.212605  0.441467  0.858688  1
  O  O24  1  0.147314  0.443895  0.201980  1
  O  O25  1  0.287395  0.941467  0.358688  1
  O  O26  1  0.646786  0.469411  0.268949  1
  O  O27  1  0.146786  0.030589  0.231051  1
  O  O28  1  0.353214  0.530589  0.731051  1
  O  O29  1  0.852686  0.556105  0.798020  1
  O  O30  1  0.787395  0.558533  0.141312  1
  O  O31  1  0.751849  0.828241  0.584588  1
  O  O32  1  0.352686  0.943895  0.701980  1
  O  O33  1  0.254870  0.956506  0.880113  1
  O  O34  1  0.703701  0.353051  0.653521  1
  O  O35  1  0.853214  0.969411  0.768949  1
  O  O36  1  0.745130  0.043494  0.119887  1
  O  O37  1  0.754870  0.543494  0.619887  1
  O  O38  1  0.647314  0.056105  0.298020  1
  O  O39  1  0.748151  0.328241  0.084588  1
