# generated using pymatgen
data_Na2MoC3SeN3
_symmetry_space_group_name_H-M   'P 1'
_cell_length_a   11.11277816
_cell_length_b   12.25005912
_cell_length_c   12.25005976
_cell_angle_alpha   78.12720449
_cell_angle_beta   63.02271505
_cell_angle_gamma   63.02271585
_symmetry_Int_Tables_number   1
_chemical_formula_structural   Na2MoC3SeN3
_chemical_formula_sum   'Na16 Mo8 C24 Se8 N24'
_cell_volume   1324.45186163
_cell_formula_units_Z   8
loop_
 _symmetry_equiv_pos_site_id
 _symmetry_equiv_pos_as_xyz
  1  'x, y, z'
loop_
 _atom_site_type_symbol
 _atom_site_label
 _atom_site_symmetry_multiplicity
 _atom_site_fract_x
 _atom_site_fract_y
 _atom_site_fract_z
 _atom_site_occupancy
  Na  Na0  1  1.000000  0.140939  0.359061  1
  Na  Na1  1  0.232814  0.616313  0.383687  1
  Na  Na2  1  0.150880  0.616316  0.116316  1
  Na  Na3  1  0.859057  0.140949  0.140950  1
  Na  Na4  1  0.883498  0.883686  0.383686  1
  Na  Na5  1  0.116502  0.116314  0.616314  1
  Na  Na6  1  0.767186  0.383687  0.616313  1
  Na  Na7  1  0.000000  0.859061  0.640939  1
  Na  Na8  1  0.232814  0.883687  0.116313  1
  Na  Na9  1  0.500000  0.640941  0.859059  1
  Na  Na10  1  0.849120  0.383684  0.883684  1
  Na  Na11  1  0.500000  0.359059  0.140941  1
  Na  Na12  1  0.140943  0.359050  0.359051  1
  Na  Na13  1  0.767186  0.116313  0.883687  1
  Na  Na14  1  0.859057  0.640950  0.640949  1
  Na  Na15  1  0.140943  0.859051  0.859050  1
  Mo  Mo16  1  0.279802  0.154591  0.845401  1
  Mo  Mo17  1  0.625203  0.654596  0.154596  1
  Mo  Mo18  1  0.720198  0.654599  0.345409  1
  Mo  Mo19  1  0.279802  0.345401  0.654591  1
  Mo  Mo20  1  0.374797  0.345404  0.845404  1
  Mo  Mo21  1  0.434368  0.845409  0.345409  1
  Mo  Mo22  1  0.565632  0.154591  0.654591  1
  Mo  Mo23  1  0.720198  0.845409  0.154599  1
  C  C24  1  0.306512  0.039429  0.362840  1
  C  C25  1  0.654044  0.637162  0.539435  1
  C  C26  1  0.088074  0.357821  0.642196  1
  C  C27  1  0.830654  0.862843  0.960571  1
  C  C28  1  0.708773  0.637157  0.960566  1
  C  C29  1  0.654044  0.039435  0.137162  1
  C  C30  1  0.230308  0.857787  0.357787  1
  C  C31  1  0.911926  0.642179  0.357804  1
  C  C32  1  0.306512  0.862840  0.539429  1
  C  C33  1  0.830654  0.460571  0.362843  1
  C  C34  1  0.769692  0.142213  0.642213  1
  C  C35  1  0.693488  0.137160  0.460571  1
  C  C36  1  0.708773  0.460566  0.137157  1
  C  C37  1  0.169346  0.539429  0.637157  1
  C  C38  1  0.291227  0.539434  0.862843  1
  C  C39  1  0.911926  0.857804  0.142179  1
  C  C40  1  0.693488  0.960571  0.637160  1
  C  C41  1  0.345956  0.362838  0.460565  1
  C  C42  1  0.445902  0.642180  0.142180  1
  C  C43  1  0.554098  0.357820  0.857820  1
  C  C44  1  0.169346  0.137157  0.039429  1
  C  C45  1  0.345956  0.960565  0.862838  1
  C  C46  1  0.088074  0.142196  0.857821  1
  C  C47  1  0.291227  0.362843  0.039434  1
  Se  Se48  1  0.500113  0.117567  0.882432  1
  Se  Se49  1  0.499887  0.617568  0.382433  1
  Se  Se50  1  0.617629  0.882444  0.382444  1
  Se  Se51  1  0.500113  0.382432  0.617567  1
  Se  Se52  1  0.382371  0.117556  0.617556  1
  Se  Se53  1  0.499887  0.882433  0.117568  1
  Se  Se54  1  0.882580  0.617559  0.117559  1
  Se  Se55  1  0.117420  0.382441  0.882441  1
  N  N56  1  0.637314  0.614697  0.642625  1
  N  N57  1  0.252006  0.642638  0.885307  1
  N  N58  1  0.220060  0.142627  0.385305  1
  N  N59  1  0.982841  0.370293  0.629705  1
  N  N60  1  0.747994  0.357362  0.114693  1
  N  N61  1  0.105363  0.114696  0.142627  1
  N  N62  1  0.894637  0.357373  0.385304  1
  N  N63  1  0.017159  0.870295  0.129707  1
  N  N64  1  0.887451  0.129708  0.629708  1
  N  N65  1  0.982841  0.129705  0.870293  1
  N  N66  1  0.353119  0.629699  0.129699  1
  N  N67  1  0.220060  0.885305  0.642627  1
  N  N68  1  0.894637  0.885304  0.857373  1
  N  N69  1  0.362686  0.857375  0.885303  1
  N  N70  1  0.646881  0.370301  0.870301  1
  N  N71  1  0.779940  0.114695  0.357373  1
  N  N72  1  0.112549  0.870292  0.370292  1
  N  N73  1  0.105363  0.642627  0.614696  1
  N  N74  1  0.252006  0.385307  0.142638  1
  N  N75  1  0.747994  0.614693  0.857362  1
  N  N76  1  0.637314  0.142625  0.114697  1
  N  N77  1  0.017159  0.629707  0.370295  1
  N  N78  1  0.362686  0.385303  0.357375  1
  N  N79  1  0.779940  0.857373  0.614695  1
