# generated using pymatgen
data_SiO2
_symmetry_space_group_name_H-M   'P 1'
_cell_length_a   4.74014163
_cell_length_b   4.74014184
_cell_length_c   6.75948836
_cell_angle_alpha   90.00000000
_cell_angle_beta   90.00000000
_cell_angle_gamma   119.99999849
_symmetry_Int_Tables_number   1
_chemical_formula_structural   SiO2
_chemical_formula_sum   'Si3 O6'
_cell_volume   131.53069590
_cell_formula_units_Z   3
loop_
 _symmetry_equiv_pos_site_id
 _symmetry_equiv_pos_as_xyz
  1  'x, y, z'
loop_
 _atom_site_type_symbol
 _atom_site_label
 _atom_site_symmetry_multiplicity
 _atom_site_fract_x
 _atom_site_fract_y
 _atom_site_fract_z
 _atom_site_occupancy
  Si  Si0  1  0.918393  0.000000  0.666667  1
  Si  Si1  1  0.081607  0.081607  0.000000  1
  Si  Si2  1  1.000000  0.918393  0.333333  1
  O  O3  1  0.109975  0.441576  0.922833  1
  O  O4  1  0.558424  0.668399  0.589499  1
  O  O5  1  0.441576  0.109975  0.077167  1
  O  O6  1  0.331601  0.890025  0.256166  1
  O  O7  1  0.890025  0.331601  0.743834  1
  O  O8  1  0.668399  0.558424  0.410501  1
