# generated using pymatgen
data_Li10Si(PS6)2
_symmetry_space_group_name_H-M   'P 1'
_cell_length_a   8.78389592
_cell_length_b   8.78389592
_cell_length_c   12.60642480
_cell_angle_alpha   90.00000000
_cell_angle_beta   90.00000000
_cell_angle_gamma   90.00000000
_symmetry_Int_Tables_number   1
_chemical_formula_structural   Li10Si(PS6)2
_chemical_formula_sum   'Li20 Si2 P4 S24'
_cell_volume   972.67174411
_cell_formula_units_Z   2
loop_
 _symmetry_equiv_pos_site_id
 _symmetry_equiv_pos_as_xyz
  1  'x, y, z'
loop_
 _atom_site_type_symbol
 _atom_site_label
 _atom_site_symmetry_multiplicity
 _atom_site_fract_x
 _atom_site_fract_y
 _atom_site_fract_z
 _atom_site_occupancy
  Li  Li0  1  0.230322  0.773425  0.294901  1
  Li  Li1  1  0.769678  0.226575  0.294901  1
  Li  Li2  1  0.273425  0.269678  0.794901  1
  Li  Li3  1  0.726575  0.730322  0.794901  1
  Li  Li4  1  0.230322  0.226575  0.294901  1
  Li  Li5  1  0.769678  0.773425  0.294901  1
  Li  Li6  1  0.273425  0.730322  0.794901  1
  Li  Li7  1  0.726575  0.269678  0.794901  1
  Li  Li8  1  0.000000  0.500000  0.939561  1
  Li  Li9  1  0.000000  0.500000  0.439561  1
  Li  Li10  1  0.500000  0.000000  0.548050  1
  Li  Li11  1  0.500000  0.000000  0.048050  1
  Li  Li12  1  0.256778  0.224704  0.036261  1
  Li  Li13  1  0.743222  0.775296  0.036261  1
  Li  Li14  1  0.275296  0.756778  0.536261  1
  Li  Li15  1  0.724704  0.243222  0.536261  1
  Li  Li16  1  0.275296  0.243222  0.536261  1
  Li  Li17  1  0.724704  0.756778  0.536261  1
  Li  Li18  1  0.256778  0.775296  0.036261  1
  Li  Li19  1  0.743222  0.224704  0.036261  1
  Si  Si20  1  0.500000  0.000000  0.801233  1
  Si  Si21  1  0.500000  0.000000  0.301233  1
  P  P22  1  0.000000  0.500000  0.685959  1
  P  P23  1  0.000000  0.500000  0.185959  1
  P  P24  1  0.000000  0.000000  0.503889  1
  P  P25  1  0.500000  0.500000  0.003889  1
  S  S26  1  0.000000  0.194721  0.411624  1
  S  S27  1  0.000000  0.805279  0.411624  1
  S  S28  1  0.305279  0.500000  0.911624  1
  S  S29  1  0.694721  0.500000  0.911624  1
  S  S30  1  0.500000  0.689941  0.097383  1
  S  S31  1  0.500000  0.310059  0.097383  1
  S  S32  1  0.189941  0.000000  0.597383  1
  S  S33  1  0.810059  0.000000  0.597383  1
  S  S34  1  0.000000  0.304079  0.094122  1
  S  S35  1  0.000000  0.695921  0.094122  1
  S  S36  1  0.195921  0.500000  0.594122  1
  S  S37  1  0.804079  0.500000  0.594122  1
  S  S38  1  0.500000  0.798295  0.399629  1
  S  S39  1  0.500000  0.201705  0.399629  1
  S  S40  1  0.298295  0.000000  0.899629  1
  S  S41  1  0.701705  0.000000  0.899629  1
  S  S42  1  0.000000  0.692538  0.777237  1
  S  S43  1  0.000000  0.307462  0.777237  1
  S  S44  1  0.807462  0.500000  0.277237  1
  S  S45  1  0.192538  0.500000  0.277237  1
  S  S46  1  0.500000  0.198738  0.701940  1
  S  S47  1  0.500000  0.801262  0.701940  1
  S  S48  1  0.698738  0.000000  0.201940  1
  S  S49  1  0.301262  0.000000  0.201940  1
