# generated using pymatgen
data_Li4CO4
_symmetry_space_group_name_H-M   'P 1'
_cell_length_a   4.59863986
_cell_length_b   4.55059362
_cell_length_c   4.55059387
_cell_angle_alpha   94.21405083
_cell_angle_beta   115.01127981
_cell_angle_gamma   115.01127717
_symmetry_Int_Tables_number   1
_chemical_formula_structural   Li4CO4
_chemical_formula_sum   'Li4 C1 O4'
_cell_volume   74.42527105
_cell_formula_units_Z   1
loop_
 _symmetry_equiv_pos_site_id
 _symmetry_equiv_pos_as_xyz
  1  'x, y, z'
loop_
 _atom_site_type_symbol
 _atom_site_label
 _atom_site_symmetry_multiplicity
 _atom_site_fract_x
 _atom_site_fract_y
 _atom_site_fract_z
 _atom_site_occupancy
  Li  Li0  1  0.150398  0.177865  0.177865  1
  Li  Li1  1  0.883125  0.590284  0.119070  1
  Li  Li2  1  -0.248160  0.558295  0.558295  1
  Li  Li3  1  0.883125  0.119070  0.590284  1
  C  C4  1  0.402651  -0.129562  -0.129562  1
  O  O5  1  0.665109  0.825023  0.825023  1
  O  O6  1  0.594247  0.163098  0.163098  1
  O  O7  1  0.174068  0.922980  0.574866  1
  O  O8  1  0.174068  0.574866  0.922980  1
