# generated using pymatgen
data_Cs4CO4
_symmetry_space_group_name_H-M   'P 1'
_cell_length_a   5.95577424
_cell_length_b   7.52267133
_cell_length_c   7.52267076
_cell_angle_alpha   80.98452641
_cell_angle_beta   66.68068874
_cell_angle_gamma   66.68068645
_symmetry_Int_Tables_number   1
_chemical_formula_structural   Cs4CO4
_chemical_formula_sum   'Cs4 C1 O4'
_cell_volume   284.22602359
_cell_formula_units_Z   1
loop_
 _symmetry_equiv_pos_site_id
 _symmetry_equiv_pos_as_xyz
  1  'x, y, z'
loop_
 _atom_site_type_symbol
 _atom_site_label
 _atom_site_symmetry_multiplicity
 _atom_site_fract_x
 _atom_site_fract_y
 _atom_site_fract_z
 _atom_site_occupancy
  Cs  Cs0  1  0.663206  0.000000  0.333000  1
  Cs  Cs1  1  0.003794  0.333000  1.000000  1
  Cs  Cs2  1  0.996206  0.000000  0.667000  1
  Cs  Cs3  1  0.336794  0.667000  0.000000  1
  C  C4  1  0.500000  0.000000  0.000000  1
  O  O5  1  0.722868  0.827885  0.000000  1
  O  O6  1  0.449247  1.000000  0.827885  1
  O  O7  1  0.277132  1.000000  0.172115  1
  O  O8  1  0.550753  0.172115  1.000000  1
