# generated using pymatgen
data_Si2H2O3
_symmetry_space_group_name_H-M   'P 1'
_cell_length_a   12.79516258
_cell_length_b   10.62434663
_cell_length_c   12.93075568
_cell_angle_alpha   98.03985459
_cell_angle_beta   143.48226348
_cell_angle_gamma   97.25486623
_symmetry_Int_Tables_number   1
_chemical_formula_structural   Si2H2O3
_chemical_formula_sum   'Si20 H20 O30'
_cell_volume   946.95585114
_cell_formula_units_Z   10
loop_
 _symmetry_equiv_pos_site_id
 _symmetry_equiv_pos_as_xyz
  1  'x, y, z'
loop_
 _atom_site_type_symbol
 _atom_site_label
 _atom_site_symmetry_multiplicity
 _atom_site_fract_x
 _atom_site_fract_y
 _atom_site_fract_z
 _atom_site_occupancy
  Si  Si0  1  0.651016  0.817902  0.526717  1
  Si  Si1  1  0.692835  0.636474  0.335561  1
  Si  Si2  1  0.314427  0.072687  0.406188  1
  Si  Si3  1  0.410792  0.490832  0.825992  1
  Si  Si4  1  0.108021  0.094261  0.823953  1
  Si  Si5  1  0.713121  0.385705  0.538468  1
  Si  Si6  1  0.878797  0.875208  0.114904  1
  Si  Si7  1  0.361527  0.575429  0.552758  1
  Si  Si8  1  0.412943  0.006891  0.193842  1
  Si  Si9  1  0.175554  0.484246  0.873083  1
  Si  Si10  1  0.579248  0.994526  0.786236  1
  Si  Si11  1  0.724387  0.445752  0.014817  1
  Si  Si12  1  0.398738  0.767024  0.945112  1
  Si  Si13  1  0.288655  0.771906  0.230709  1
  Si  Si14  1  0.561812  0.197693  0.026034  1
  Si  Si15  1  0.836796  0.294236  0.886572  1
  Si  Si16  1  0.076686  0.862047  0.575145  1
  Si  Si17  1  0.666315  0.624844  0.703437  1
  Si  Si18  1  0.932385  0.174005  0.418688  1
  Si  Si19  1  0.293549  0.380199  0.281476  1
  H  H20  1  0.947068  0.943803  0.835947  1
  H  H21  1  0.672045  0.406048  0.301725  1
  H  H22  1  0.260063  0.926797  0.884930  1
  H  H23  1  0.867466  0.685061  0.179123  1
  H  H24  1  0.062623  0.632424  0.688636  1
  H  H25  1  0.919816  0.162225  0.074553  1
  H  H26  1  0.866010  0.304122  0.198482  1
  H  H27  1  0.977586  0.756172  0.032651  1
  H  H28  1  0.120193  0.147014  0.101079  1
  H  H29  1  0.058700  0.408860  0.506065  1
  H  H30  1  0.788398  0.661201  0.597055  1
  H  H31  1  0.448577  0.268168  0.647281  1
  H  H32  1  0.983254  0.055413  0.551850  1
  H  H33  1  0.943359  0.592312  0.840115  1
  H  H34  1  0.093851  0.163587  0.396645  1
  H  H35  1  0.253232  0.320835  0.424147  1
  H  H36  1  0.552502  0.827158  0.229576  1
  H  H37  1  0.156107  0.532076  0.066608  1
  H  H38  1  0.653942  0.025354  0.021982  1
  H  H39  1  0.017873  0.440605  0.186357  1
  O  O40  1  0.869876  0.966473  0.725239  1
  O  O41  1  0.695769  0.483225  0.377488  1
  O  O42  1  0.076081  0.982123  0.220714  1
  O  O43  1  0.368102  0.524619  0.676294  1
  O  O44  1  0.242487  0.010727  0.968862  1
  O  O45  1  0.936880  0.410839  0.689766  1
  O  O46  1  0.702340  0.907907  0.922685  1
  O  O47  1  0.866968  0.596546  0.195963  1
  O  O48  1  0.255838  0.876755  0.127127  1
  O  O49  1  0.180315  0.629049  0.812571  1
  O  O50  1  0.813504  0.149331  0.940859  1
  O  O51  1  0.764865  0.339696  0.132815  1
  O  O52  1  0.276033  0.873487  0.826915  1
  O  O53  1  0.843275  0.702003  0.941640  1
  O  O54  1  0.715982  0.184467  0.235866  1
  O  O55  1  0.075400  0.358204  0.053389  1
  O  O56  1  0.666994  0.757357  0.648747  1
  O  O57  1  0.926368  0.708802  0.494053  1
  O  O58  1  0.246593  0.203922  0.236166  1
  O  O59  1  0.098190  0.353448  0.578825  1
  O  O60  1  0.730671  0.707060  0.507407  1
  O  O61  1  0.320083  0.208412  0.511465  1
  O  O62  1  0.021923  0.989220  0.632162  1
  O  O63  1  0.801747  0.563907  0.709313  1
  O  O64  1  0.962180  0.154267  0.309203  1
  O  O65  1  0.226105  0.395972  0.371754  1
  O  O66  1  0.477827  0.865643  0.132510  1
  O  O67  1  0.182703  0.613406  0.050700  1
  O  O68  1  0.575284  0.066321  0.928695  1
  O  O69  1  0.886980  0.418404  0.052122  1
