# generated using pymatgen
data_Tl2Te3
_symmetry_space_group_name_H-M   'P 1'
_cell_length_a   6.77209850
_cell_length_b   6.94984816
_cell_length_c   11.00594994
_cell_angle_alpha   120.57276508
_cell_angle_beta   90.00000000
_cell_angle_gamma   119.15749693
_symmetry_Int_Tables_number   1
_chemical_formula_structural   Tl2Te3
_chemical_formula_sum   'Tl4 Te6'
_cell_volume   367.71043021
_cell_formula_units_Z   2
loop_
 _symmetry_equiv_pos_site_id
 _symmetry_equiv_pos_as_xyz
  1  'x, y, z'
loop_
 _atom_site_type_symbol
 _atom_site_label
 _atom_site_symmetry_multiplicity
 _atom_site_fract_x
 _atom_site_fract_y
 _atom_site_fract_z
 _atom_site_occupancy
  Tl  Tl0  1  0.546123  0.799246  0.305016  1
  Tl  Tl1  1  0.868832  0.113464  0.040747  1
  Tl  Tl2  1  0.244631  0.113464  0.540747  1
  Tl  Tl3  1  0.253122  0.799246  0.805016  1
  Te  Te4  1  0.832687  0.581370  0.017684  1
  Te  Te5  1  0.803237  0.157835  0.738640  1
  Te  Te6  1  0.079410  0.420086  0.408913  1
  Te  Te7  1  0.748682  0.581370  0.517684  1
  Te  Te8  1  0.354598  0.157835  0.238640  1
  Te  Te9  1  0.340676  0.420086  0.908913  1
