# generated using pymatgen
data_H6N4O9
_symmetry_space_group_name_H-M   'P 1'
_cell_length_a   6.98425283
_cell_length_b   13.64467619
_cell_length_c   4.60743817
_cell_angle_alpha   90.00000000
_cell_angle_beta   91.60336480
_cell_angle_gamma   90.00000000
_symmetry_Int_Tables_number   1
_chemical_formula_structural   H6N4O9
_chemical_formula_sum   'H12 N8 O18'
_cell_volume   438.90712509
_cell_formula_units_Z   2
loop_
 _symmetry_equiv_pos_site_id
 _symmetry_equiv_pos_as_xyz
  1  'x, y, z'
loop_
 _atom_site_type_symbol
 _atom_site_label
 _atom_site_symmetry_multiplicity
 _atom_site_fract_x
 _atom_site_fract_y
 _atom_site_fract_z
 _atom_site_occupancy
  H  H0  1  0.866853  0.943443  0.525088  1
  H  H1  1  0.133147  0.443443  0.974912  1
  H  H2  1  0.252948  0.038424  0.162363  1
  H  H3  1  0.275590  0.957050  0.903809  1
  H  H4  1  0.724410  0.457050  0.596191  1
  H  H5  1  0.747052  0.538424  0.337637  1
  H  H6  1  0.845934  0.620247  0.815151  1
  H  H7  1  0.887876  0.442665  0.367046  1
  H  H8  1  0.112124  0.942665  0.132954  1
  H  H9  1  0.154066  0.120247  0.684849  1
  H  H10  1  0.904994  0.155307  0.174171  1
  H  H11  1  0.095006  0.655307  0.325829  1
  N  N12  1  0.822294  0.496500  0.484747  1
  N  N13  1  0.177706  0.996500  0.015253  1
  N  N14  1  0.612524  0.997406  0.505089  1
  N  N15  1  0.387476  0.497406  0.994911  1
  N  N16  1  0.756393  0.740204  0.046159  1
  N  N17  1  0.810088  0.261933  0.937491  1
  N  N18  1  0.189912  0.761933  0.562509  1
  N  N19  1  0.243607  0.240204  0.453841  1
  O  O20  1  0.812809  0.009700  0.547776  1
  O  O21  1  0.187191  0.509700  0.952224  1
  O  O22  1  0.555727  0.917609  0.418385  1
  O  O23  1  0.522324  0.071119  0.560800  1
  O  O24  1  0.477676  0.571119  0.939200  1
  O  O25  1  0.444273  0.417609  0.081615  1
  O  O26  1  0.673276  0.715198  0.260751  1
  O  O27  1  0.694063  0.285605  0.750657  1
  O  O28  1  0.305937  0.785605  0.749343  1
  O  O29  1  0.326724  0.215198  0.239249  1
  O  O30  1  0.907724  0.669638  0.948447  1
  O  O31  1  0.938392  0.312386  0.052391  1
  O  O32  1  0.061608  0.812386  0.447609  1
  O  O33  1  0.092276  0.169638  0.551553  1
  O  O34  1  0.748251  0.815937  0.910019  1
  O  O35  1  0.794754  0.165323  0.036116  1
  O  O36  1  0.205246  0.665323  0.463884  1
  O  O37  1  0.251749  0.315937  0.589981  1
