# generated using pymatgen
data_H8N2O
_symmetry_space_group_name_H-M   'P 1'
_cell_length_a   8.60398859
_cell_length_b   8.61354716
_cell_length_c   4.35020248
_cell_angle_alpha   90.00000000
_cell_angle_beta   90.00000000
_cell_angle_gamma   90.00000000
_symmetry_Int_Tables_number   1
_chemical_formula_structural   H8N2O
_chemical_formula_sum   'H32 N8 O4'
_cell_volume   322.39725342
_cell_formula_units_Z   4
loop_
 _symmetry_equiv_pos_site_id
 _symmetry_equiv_pos_as_xyz
  1  'x, y, z'
loop_
 _atom_site_type_symbol
 _atom_site_label
 _atom_site_symmetry_multiplicity
 _atom_site_fract_x
 _atom_site_fract_y
 _atom_site_fract_z
 _atom_site_occupancy
  H  H0  1  0.298289  0.855026  0.257798  1
  H  H1  1  0.498023  0.830861  0.547771  1
  H  H2  1  0.369794  0.588247  0.564108  1
  H  H3  1  0.583659  0.570646  0.251236  1
  H  H4  1  0.367730  0.588934  0.934431  1
  H  H5  1  0.498165  0.831530  0.950605  1
  H  H6  1  0.174064  0.682404  0.249365  1
  H  H7  1  0.425211  0.017378  0.248411  1
  H  H8  1  0.201711  0.355026  0.257798  1
  H  H9  1  0.325936  0.182404  0.249365  1
  H  H10  1  0.130206  0.088247  0.564108  1
  H  H11  1  0.001977  0.330861  0.547771  1
  H  H12  1  0.916341  0.070646  0.251236  1
  H  H13  1  0.074789  0.517378  0.248411  1
  H  H14  1  0.001835  0.331530  0.950605  1
  H  H15  1  0.132270  0.088934  0.934431  1
  H  H16  1  0.701711  0.144974  0.757798  1
  H  H17  1  0.501835  0.168470  0.450605  1
  H  H18  1  0.632270  0.411066  0.434431  1
  H  H19  1  0.574789  -0.017378  0.748411  1
  H  H20  1  0.501977  0.169139  0.047771  1
  H  H21  1  0.630206  0.411753  0.064108  1
  H  H22  1  0.416341  0.429354  0.751236  1
  H  H23  1  0.825936  0.317596  0.749365  1
  H  H24  1  0.798289  0.644974  0.757798  1
  H  H25  1  -0.001977  0.669139  0.047771  1
  H  H26  1  0.083659  0.929354  0.751236  1
  H  H27  1  0.674064  0.817596  0.749365  1
  H  H28  1  -0.001835  0.668470  0.450605  1
  H  H29  1  0.925211  0.482622  0.748411  1
  H  H30  1  0.869794  0.911753  0.064108  1
  H  H31  1  0.867730  0.911066  0.434431  1
  N  N32  1  0.063806  0.636783  0.248959  1
  N  N33  1  0.436194  0.136783  0.248959  1
  N  N34  1  0.936194  0.363217  0.748959  1
  N  N35  1  0.563806  0.863217  0.748959  1
  N  N36  1  0.658094  0.478935  0.248200  1
  N  N37  1  0.841906  -0.021065  0.248200  1
  N  N38  1  0.341906  0.521065  0.748200  1
  N  N39  1  0.158094  0.021065  0.748200  1
  O  O40  1  0.392484  0.792542  0.250437  1
  O  O41  1  0.107516  0.292542  0.250437  1
  O  O42  1  0.607516  0.207458  0.750437  1
  O  O43  1  0.892484  0.707458  0.750437  1
