# generated using pymatgen
data_CdI2
_symmetry_space_group_name_H-M   'P 1'
_cell_length_a   36.42773717
_cell_length_b   36.42773718
_cell_length_c   36.42773758
_cell_angle_alpha   6.86266739
_cell_angle_beta   6.86266734
_cell_angle_gamma   6.86266750
_symmetry_Int_Tables_number   1
_chemical_formula_structural   CdI2
_chemical_formula_sum   'Cd5 I10'
_cell_volume   598.42388639
_cell_formula_units_Z   5
loop_
 _symmetry_equiv_pos_site_id
 _symmetry_equiv_pos_as_xyz
  1  'x, y, z'
loop_
 _atom_site_type_symbol
 _atom_site_label
 _atom_site_symmetry_multiplicity
 _atom_site_fract_x
 _atom_site_fract_y
 _atom_site_fract_z
 _atom_site_occupancy
  Cd  Cd0  1  0.683339  0.683339  0.683339  1
  Cd  Cd1  1  0.883354  0.883354  0.883354  1
  Cd  Cd2  1  0.283315  0.283315  0.283315  1
  Cd  Cd3  1  0.149986  0.149986  0.149986  1
  Cd  Cd4  1  0.750001  0.750001  0.750001  1
  I  I5  1  0.365761  0.365761  0.365761  1
  I  I6  1  0.432424  0.432424  0.432424  1
  I  I7  1  0.800901  0.800901  0.800901  1
  I  I8  1  0.200920  0.200920  0.200920  1
  I  I9  1  0.632421  0.632421  0.632421  1
  I  I10  1  0.565774  0.565774  0.565774  1
  I  I11  1  0.000909  0.000909  0.000909  1
  I  I12  1  0.499087  0.499087  0.499087  1
  I  I13  1  0.934230  0.934230  0.934230  1
  I  I14  1  0.067577  0.067577  0.067577  1
