# generated using pymatgen
data_Rb2U2O7
_symmetry_space_group_name_H-M   'P 1'
_cell_length_a   7.53415601
_cell_length_b   15.07702412
_cell_length_c   21.90153939
_cell_angle_alpha   20.75403780
_cell_angle_beta   27.71056113
_cell_angle_gamma   31.02196886
_symmetry_Int_Tables_number   1
_chemical_formula_structural   Rb2U2O7
_chemical_formula_sum   'Rb4 U4 O14'
_cell_volume   403.49574913
_cell_formula_units_Z   2
loop_
 _symmetry_equiv_pos_site_id
 _symmetry_equiv_pos_as_xyz
  1  'x, y, z'
loop_
 _atom_site_type_symbol
 _atom_site_label
 _atom_site_symmetry_multiplicity
 _atom_site_fract_x
 _atom_site_fract_y
 _atom_site_fract_z
 _atom_site_occupancy
  Rb  Rb0  1  0.494494  0.129309  0.241901  1
  Rb  Rb1  1  0.482397  0.607262  0.264447  1
  Rb  Rb2  1  0.505506  0.370691  0.758099  1
  Rb  Rb3  1  0.517603  0.892738  0.735553  1
  U  U4  1  0.970312  0.966208  0.030313  1
  U  U5  1  0.029688  0.533792  0.969687  1
  U  U6  1  0.000000  0.250000  0.500000  1
  U  U7  1  0.000000  0.750000  0.500000  1
  O  O8  1  0.069763  0.997179  0.063367  1
  O  O9  1  0.211948  0.117697  0.191769  1
  O  O10  1  0.120369  0.561162  0.008451  1
  O  O11  1  0.422365  0.511597  0.191848  1
  O  O12  1  0.042497  0.278251  0.554947  1
  O  O13  1  0.957503  0.221749  0.445053  1
  O  O14  1  0.624997  0.629729  0.365381  1
  O  O15  1  0.111863  0.743197  0.555131  1
  O  O16  1  0.888137  0.756803  0.444869  1
  O  O17  1  0.788052  0.382303  0.808231  1
  O  O18  1  0.375003  0.870271  0.634619  1
  O  O19  1  0.930237  0.502821  0.936633  1
  O  O20  1  0.577635  0.988403  0.808152  1
  O  O21  1  0.879631  0.938838  0.991549  1
