# generated using pymatgen
data_Ba2Zn(HO)6
_symmetry_space_group_name_H-M   'P 1'
_cell_length_a   9.78286206
_cell_length_b   5.91695545
_cell_length_c   9.45233219
_cell_angle_alpha   90.00000000
_cell_angle_beta   84.67048942
_cell_angle_gamma   90.00000000
_symmetry_Int_Tables_number   1
_chemical_formula_structural   Ba2Zn(HO)6
_chemical_formula_sum   'Ba4 Zn2 H12 O12'
_cell_volume   544.78065315
_cell_formula_units_Z   2
loop_
 _symmetry_equiv_pos_site_id
 _symmetry_equiv_pos_as_xyz
  1  'x, y, z'
loop_
 _atom_site_type_symbol
 _atom_site_label
 _atom_site_symmetry_multiplicity
 _atom_site_fract_x
 _atom_site_fract_y
 _atom_site_fract_z
 _atom_site_occupancy
  Ba  Ba0  1  -0.008968  0.513078  0.290258  1
  Ba  Ba1  1  0.491032  -0.013078  0.790258  1
  Ba  Ba2  1  0.008968  0.486922  0.709742  1
  Ba  Ba3  1  0.508968  0.013078  0.209742  1
  Zn  Zn4  1  0.500000  0.500000  0.000000  1
  Zn  Zn5  1  0.000000  0.000000  0.500000  1
  H  H6  1  0.480798  0.641769  0.419904  1
  H  H7  1  0.980798  0.858231  0.919904  1
  H  H8  1  0.519202  0.358231  0.580096  1
  H  H9  1  0.019202  0.141769  0.080096  1
  H  H10  1  0.562740  0.303438  0.518303  1
  H  H11  1  0.062740  0.196562  0.018303  1
  H  H12  1  0.437260  0.696562  0.481697  1
  H  H13  1  0.937260  0.803438  -0.018303  1
  H  H14  1  0.733895  0.288659  0.308609  1
  H  H15  1  0.233895  0.211341  0.808609  1
  H  H16  1  0.266105  0.711341  0.691391  1
  H  H17  1  0.766105  0.788659  0.191391  1
  O  O18  1  0.288830  0.654167  0.784619  1
  O  O19  1  0.788830  0.845833  0.284619  1
  O  O20  1  0.711170  0.345833  0.215381  1
  O  O21  1  0.211170  0.154167  0.715381  1
  O  O22  1  0.071246  0.054483  0.752846  1
  O  O23  1  0.571246  0.445517  0.252846  1
  O  O24  1  0.928754  0.945517  0.247154  1
  O  O25  1  0.428754  0.554483  0.747154  1
  O  O26  1  0.421192  0.221710  0.006746  1
  O  O27  1  0.921192  0.278290  0.506746  1
  O  O28  1  0.578808  0.778290  -0.006746  1
  O  O29  1  0.078808  0.721710  0.493254  1
