# generated using pymatgen
data_SnSO4
_symmetry_space_group_name_H-M   'P 1'
_cell_length_a   5.45167025
_cell_length_b   7.12637607
_cell_length_c   9.12792100
_cell_angle_alpha   90.07339078
_cell_angle_beta   88.05035745
_cell_angle_gamma   90.77391995
_symmetry_Int_Tables_number   1
_chemical_formula_structural   SnSO4
_chemical_formula_sum   'Sn4 S4 O16'
_cell_volume   354.38794679
_cell_formula_units_Z   4
loop_
 _symmetry_equiv_pos_site_id
 _symmetry_equiv_pos_as_xyz
  1  'x, y, z'
loop_
 _atom_site_type_symbol
 _atom_site_label
 _atom_site_symmetry_multiplicity
 _atom_site_fract_x
 _atom_site_fract_y
 _atom_site_fract_z
 _atom_site_occupancy
  Sn  Sn0  1  0.303660  0.698479  0.719088  1
  Sn  Sn1  1  0.696340  0.301521  0.280912  1
  Sn  Sn2  1  0.785274  0.204417  0.783127  1
  Sn  Sn3  1  0.214726  0.795583  0.216873  1
  S  S4  1  0.765452  0.681743  0.927932  1
  S  S5  1  0.735758  0.818744  0.431136  1
  S  S6  1  0.264242  0.181256  0.568864  1
  S  S7  1  0.234548  0.318257  0.072068  1
  O  O8  1  0.216546  0.011344  0.661628  1
  O  O9  1  0.487243  0.285740  0.619492  1
  O  O10  1  0.249016  0.475667  0.180926  1
  O  O11  1  0.957875  0.696829  0.406955  1
  O  O12  1  0.042125  0.303171  0.593045  1
  O  O13  1  0.004060  0.207219  0.103626  1
  O  O14  1  0.750984  0.524333  0.819074  1
  O  O15  1  0.700500  0.861985  0.588030  1
  O  O16  1  0.783454  -0.011344  0.338372  1
  O  O17  1  0.512757  0.714260  0.380508  1
  O  O18  1  0.995940  0.792781  0.896374  1
  O  O19  1  0.242840  0.382058  0.918898  1
  O  O20  1  0.545483  0.803699  0.902189  1
  O  O21  1  0.454517  0.196301  0.097811  1
  O  O22  1  0.757160  0.617942  0.081102  1
  O  O23  1  0.299500  0.138015  0.411970  1
