# generated using pymatgen
data_NaPH3NO3
_symmetry_space_group_name_H-M   'P 1'
_cell_length_a   5.80670538
_cell_length_b   5.80580981
_cell_length_c   6.14105217
_cell_angle_alpha   90.00000000
_cell_angle_beta   90.00000000
_cell_angle_gamma   119.99581267
_symmetry_Int_Tables_number   1
_chemical_formula_structural   NaPH3NO3
_chemical_formula_sum   'Na2 P2 H6 N2 O6'
_cell_volume   179.30167129
_cell_formula_units_Z   2
loop_
 _symmetry_equiv_pos_site_id
 _symmetry_equiv_pos_as_xyz
  1  'x, y, z'
loop_
 _atom_site_type_symbol
 _atom_site_label
 _atom_site_symmetry_multiplicity
 _atom_site_fract_x
 _atom_site_fract_y
 _atom_site_fract_z
 _atom_site_occupancy
  Na  Na0  1  0.000001  0.000001  0.499307  1
  Na  Na1  1  -0.000001  -0.000001  0.999307  1
  P  P2  1  0.666866  0.333531  0.807647  1
  P  P3  1  0.333134  0.666469  0.307647  1
  H  H4  1  0.844989  0.491768  0.162469  1
  H  H5  1  0.646769  0.155048  0.162462  1
  H  H6  1  0.508198  0.353218  0.162486  1
  H  H7  1  0.155011  0.508232  0.662469  1
  H  H8  1  0.353231  0.844952  0.662462  1
  H  H9  1  0.491802  0.646782  0.662486  1
  N  N10  1  0.666652  0.333262  0.101767  1
  N  N11  1  0.333348  0.666738  0.601767  1
  O  O12  1  0.374825  0.147964  0.749994  1
  O  O13  1  0.773035  0.624929  0.750040  1
  O  O14  1  0.851913  0.226904  0.750028  1
  O  O15  1  0.625175  0.852036  0.249994  1
  O  O16  1  0.226965  0.375071  0.250040  1
  O  O17  1  0.148087  0.773096  0.250028  1
