# generated using pymatgen
data_MnH12(C2N5)2
_symmetry_space_group_name_H-M   'P 1'
_cell_length_a   6.14523359
_cell_length_b   6.25113137
_cell_length_c   12.68987944
_cell_angle_alpha   90.00000000
_cell_angle_beta   90.00000000
_cell_angle_gamma   89.77777993
_symmetry_Int_Tables_number   1
_chemical_formula_structural   MnH12(C2N5)2
_chemical_formula_sum   'Mn2 H24 C8 N20'
_cell_volume   487.47376900
_cell_formula_units_Z   2
loop_
 _symmetry_equiv_pos_site_id
 _symmetry_equiv_pos_as_xyz
  1  'x, y, z'
loop_
 _atom_site_type_symbol
 _atom_site_label
 _atom_site_symmetry_multiplicity
 _atom_site_fract_x
 _atom_site_fract_y
 _atom_site_fract_z
 _atom_site_occupancy
  Mn  Mn0  1  0.999187  0.003165  0.247022  1
  Mn  Mn1  1  0.000813  0.996835  0.747022  1
  H  H2  1  0.673137  0.343519  0.588231  1
  H  H3  1  0.211165  0.404519  0.577907  1
  H  H4  1  0.788835  0.595481  0.077907  1
  H  H5  1  0.523387  0.874882  0.519226  1
  H  H6  1  0.674135  0.192452  0.919105  1
  H  H7  1  0.173389  0.437047  0.437096  1
  H  H8  1  0.481194  0.531877  0.333165  1
  H  H9  1  0.277737  0.361529  0.893955  1
  H  H10  1  0.751416  0.622529  0.585554  1
  H  H11  1  0.481408  0.459411  0.160607  1
  H  H12  1  0.351573  0.233001  0.486537  1
  H  H13  1  0.326863  0.656481  0.088231  1
  H  H14  1  0.518806  0.468123  0.833165  1
  H  H15  1  0.741569  0.217932  0.057511  1
  H  H16  1  0.248584  0.377471  0.085554  1
  H  H17  1  0.258431  0.782068  0.557511  1
  H  H18  1  0.476613  0.125118  0.019226  1
  H  H19  1  0.518592  0.540589  0.660607  1
  H  H20  1  0.330579  0.646596  0.898825  1
  H  H21  1  0.826611  0.562953  0.937096  1
  H  H22  1  0.648427  0.766999  0.986537  1
  H  H23  1  0.325865  0.807548  0.419105  1
  H  H24  1  0.669421  0.353404  0.398825  1
  H  H25  1  0.722263  0.638471  0.393955  1
  C  C26  1  0.612719  0.229372  0.998192  1
  C  C27  1  0.402563  0.486108  0.898057  1
  C  C28  1  0.615640  0.509582  0.589813  1
  C  C29  1  0.597437  0.513892  0.398057  1
  C  C30  1  0.387281  0.770628  0.498192  1
  C  C31  1  0.713128  0.606341  0.000097  1
  C  C32  1  0.286872  0.393659  0.500097  1
  C  C33  1  0.384360  0.490418  0.089813  1
  N  N34  1  0.677747  0.947725  0.770488  1
  N  N35  1  0.078867  0.981427  0.090002  1
  N  N36  1  0.064983  0.974016  -0.003557  1
  N  N37  1  0.058081  0.676218  0.728796  1
  N  N38  1  0.496889  -0.000790  0.746575  1
  N  N39  1  0.996880  0.502262  0.247571  1
  N  N40  1  0.683138  0.946518  0.223085  1
  N  N41  1  0.052010  0.681753  0.265745  1
  N  N42  1  0.069647  0.959065  0.902764  1
  N  N43  1  0.503111  0.000790  0.246575  1
  N  N44  1  0.935017  0.025984  0.496443  1
  N  N45  1  0.921133  0.018573  0.590002  1
  N  N46  1  0.472035  0.546586  0.497031  1
  N  N47  1  0.930353  0.040935  0.402764  1
  N  N48  1  0.322253  0.052275  0.270488  1
  N  N49  1  0.316862  0.053482  0.723085  1
  N  N50  1  0.941919  0.323782  0.228796  1
  N  N51  1  0.947990  0.318247  0.765745  1
  N  N52  1  0.003120  0.497738  0.747571  1
  N  N53  1  0.527965  0.453414  0.997031  1
