# generated using pymatgen
data_La3Zn3Ge2SbO14
_symmetry_space_group_name_H-M   'P 1'
_cell_length_a   5.28477671
_cell_length_b   8.40314107
_cell_length_c   8.40314148
_cell_angle_alpha   60.63744134
_cell_angle_beta   89.90306527
_cell_angle_gamma   89.90306594
_symmetry_Int_Tables_number   1
_chemical_formula_structural   La3Zn3Ge2SbO14
_chemical_formula_sum   'La3 Zn3 Ge2 Sb1 O14'
_cell_volume   325.23230805
_cell_formula_units_Z   1
loop_
 _symmetry_equiv_pos_site_id
 _symmetry_equiv_pos_as_xyz
  1  'x, y, z'
loop_
 _atom_site_type_symbol
 _atom_site_label
 _atom_site_symmetry_multiplicity
 _atom_site_fract_x
 _atom_site_fract_y
 _atom_site_fract_z
 _atom_site_occupancy
  La  La0  1  0.998291  0.415289  0.003638  1
  La  La1  1  0.001709  0.996362  0.584711  1
  La  La2  1  0.000000  0.578274  0.421726  1
  Zn  Zn3  1  0.495036  0.753192  0.009137  1
  Zn  Zn4  1  0.504964  0.990863  0.246808  1
  Zn  Zn5  1  0.500000  0.233678  0.766322  1
  Ge  Ge6  1  0.551750  0.659509  0.671188  1
  Ge  Ge7  1  0.448250  0.328812  0.340491  1
  Sb  Sb8  1  1.000000  0.994690  0.005310  1
  O  O9  1  0.704065  0.466457  0.678871  1
  O  O10  1  0.779750  0.075888  0.782513  1
  O  O11  1  0.218028  0.661276  0.666225  1
  O  O12  1  0.706378  0.842419  0.481591  1
  O  O13  1  0.781972  0.333775  0.338724  1
  O  O14  1  0.224397  0.852769  0.224930  1
  O  O15  1  0.295935  0.321129  0.533543  1
  O  O16  1  0.784910  0.136231  0.092517  1
  O  O17  1  0.305176  0.139181  0.336344  1
  O  O18  1  0.694824  0.663656  0.860819  1
  O  O19  1  0.220250  0.217487  0.924112  1
  O  O20  1  0.293622  0.518409  0.157581  1
  O  O21  1  0.215090  0.907483  0.863769  1
  O  O22  1  0.775603  0.775070  0.147231  1
