# generated using pymatgen
data_ZnH8C2I2(N2O)2
_symmetry_space_group_name_H-M   'P 1'
_cell_length_a   13.84277117
_cell_length_b   6.94142054
_cell_length_c   12.53673209
_cell_angle_alpha   90.00000000
_cell_angle_beta   113.25553004
_cell_angle_gamma   90.00000000
_symmetry_Int_Tables_number   1
_chemical_formula_structural   ZnH8C2I2(N2O)2
_chemical_formula_sum   'Zn4 H32 C8 I8 N16 O8'
_cell_volume   1106.76282170
_cell_formula_units_Z   4
loop_
 _symmetry_equiv_pos_site_id
 _symmetry_equiv_pos_as_xyz
  1  'x, y, z'
loop_
 _atom_site_type_symbol
 _atom_site_label
 _atom_site_symmetry_multiplicity
 _atom_site_fract_x
 _atom_site_fract_y
 _atom_site_fract_z
 _atom_site_occupancy
  Zn  Zn0  1  0.251124  0.910882  0.122326  1
  Zn  Zn1  1  0.248876  0.410882  0.877674  1
  Zn  Zn2  1  0.748876  0.089118  0.877674  1
  Zn  Zn3  1  0.751124  0.589118  0.122326  1
  H  H4  1  0.323570  0.333807  0.738033  1
  H  H5  1  0.176430  0.833807  0.261967  1
  H  H6  1  0.676430  0.666193  0.261967  1
  H  H7  1  0.823570  0.166193  0.738033  1
  H  H8  1  0.412014  0.495594  0.818328  1
  H  H9  1  0.087986  0.995594  0.181672  1
  H  H10  1  0.587986  0.504406  0.181672  1
  H  H11  1  0.912014  0.004406  0.818328  1
  H  H12  1  0.574596  0.358336  0.932985  1
  H  H13  1  0.925404  0.858336  0.067015  1
  H  H14  1  0.425404  0.641664  0.067015  1
  H  H15  1  0.074596  0.141664  0.932985  1
  H  H16  1  0.578490  0.136906  0.005341  1
  H  H17  1  0.921510  0.636906  0.994659  1
  H  H18  1  0.421510  0.863094  0.994659  1
  H  H19  1  0.078490  0.363094  0.005341  1
  H  H20  1  0.944290  0.459463  0.574149  1
  H  H21  1  0.555710  0.959463  0.425851  1
  H  H22  1  0.055710  0.540537  0.425851  1
  H  H23  1  0.444290  0.040537  0.574149  1
  H  H24  1  0.070399  0.557823  0.645755  1
  H  H25  1  0.429601  0.057823  0.354245  1
  H  H26  1  0.929601  0.442177  0.354245  1
  H  H27  1  0.570399  0.942177  0.645755  1
  H  H28  1  0.932410  0.128818  0.556790  1
  H  H29  1  0.567590  0.628818  0.443210  1
  H  H30  1  0.067590  0.871182  0.443210  1
  H  H31  1  0.432410  0.371182  0.556790  1
  H  H32  1  0.039825  0.987178  0.647563  1
  H  H33  1  0.460175  0.487178  0.352437  1
  H  H34  1  0.960175  0.012822  0.352437  1
  H  H35  1  0.539825  0.512822  0.647563  1
  C  C36  1  0.433746  0.210560  0.885597  1
  C  C37  1  0.066254  0.710560  0.114403  1
  C  C38  1  0.566254  0.789440  0.114403  1
  C  C39  1  0.933746  0.289440  0.885597  1
  C  C40  1  0.060562  0.274254  0.673494  1
  C  C41  1  0.439438  0.774254  0.326506  1
  C  C42  1  0.939438  0.725746  0.326506  1
  C  C43  1  0.560562  0.225746  0.673494  1
  I  I44  1  0.230114  0.720946  0.608138  1
  I  I45  1  0.269886  0.220946  0.391862  1
  I  I46  1  0.769886  0.279054  0.391862  1
  I  I47  1  0.730114  0.779054  0.608138  1
  I  I48  1  0.186069  0.761742  0.904636  1
  I  I49  1  0.313931  0.261742  0.095364  1
  I  I50  1  0.813931  0.238258  0.095364  1
  I  I51  1  0.686069  0.738258  0.904636  1
  N  N52  1  0.372256  0.371887  0.821485  1
  N  N53  1  0.127744  0.871887  0.178515  1
  N  N54  1  0.627744  0.628113  0.178515  1
  N  N55  1  0.872256  0.128113  0.821485  1
  N  N56  1  0.536533  0.242289  0.947620  1
  N  N57  1  0.963467  0.742289  0.052380  1
  N  N58  1  0.463467  0.757711  0.052380  1
  N  N59  1  0.036533  0.257711  0.947620  1
  N  N60  1  0.017790  0.449524  0.639434  1
  N  N61  1  0.482210  0.949524  0.360566  1
  N  N62  1  0.982210  0.550476  0.360566  1
  N  N63  1  0.517790  0.050476  0.639434  1
  N  N64  1  0.001948  0.116396  0.628542  1
  N  N65  1  0.498052  0.616396  0.371458  1
  N  N66  1  0.998052  0.883604  0.371458  1
  N  N67  1  0.501948  0.383604  0.628542  1
  O  O68  1  0.386882  0.059674  0.886766  1
  O  O69  1  0.113118  0.559674  0.113234  1
  O  O70  1  0.613118  0.940326  0.113234  1
  O  O71  1  0.886882  0.440326  0.886766  1
  O  O72  1  0.154211  0.252889  0.750436  1
  O  O73  1  0.345789  0.752889  0.249564  1
  O  O74  1  0.845789  0.747111  0.249564  1
  O  O75  1  0.654211  0.247111  0.750436  1
