# generated using pymatgen
data_Eu(AsRh)2
_symmetry_space_group_name_H-M   'P 1'
_cell_length_a   4.09055098
_cell_length_b   4.09712412
_cell_length_c   6.44634638
_cell_angle_alpha   108.95975687
_cell_angle_beta   108.33946940
_cell_angle_gamma   90.00312211
_symmetry_Int_Tables_number   1
_chemical_formula_structural   Eu(AsRh)2
_chemical_formula_sum   'Eu1 As2 Rh2'
_cell_volume   96.35491809
_cell_formula_units_Z   1
loop_
 _symmetry_equiv_pos_site_id
 _symmetry_equiv_pos_as_xyz
  1  'x, y, z'
loop_
 _atom_site_type_symbol
 _atom_site_label
 _atom_site_symmetry_multiplicity
 _atom_site_fract_x
 _atom_site_fract_y
 _atom_site_fract_z
 _atom_site_occupancy
  Eu  Eu0  1  0.001942  0.997196  0.000904  1
  As  As1  1  0.631027  0.626858  0.257812  1
  As  As2  1  0.370181  0.378187  0.744243  1
  Rh  Rh3  1  0.251261  0.754246  0.501678  1
  Rh  Rh4  1  0.749603  0.252220  0.500305  1
