# generated using pymatgen
data_Nd(Sn2Rh)2
_symmetry_space_group_name_H-M   'P 1'
_cell_length_a   4.52594087
_cell_length_b   7.25809234
_cell_length_c   18.70703960
_cell_angle_alpha   89.99978056
_cell_angle_beta   89.99993308
_cell_angle_gamma   89.99990956
_symmetry_Int_Tables_number   1
_chemical_formula_structural   Nd(Sn2Rh)2
_chemical_formula_sum   'Nd4 Sn16 Rh8'
_cell_volume   614.52057813
_cell_formula_units_Z   4
loop_
 _symmetry_equiv_pos_site_id
 _symmetry_equiv_pos_as_xyz
  1  'x, y, z'
loop_
 _atom_site_type_symbol
 _atom_site_label
 _atom_site_symmetry_multiplicity
 _atom_site_fract_x
 _atom_site_fract_y
 _atom_site_fract_z
 _atom_site_occupancy
  Nd  Nd0  1  0.250004  0.502407  0.358202  1
  Nd  Nd1  1  0.749997  0.497558  0.641792  1
  Nd  Nd2  1  0.750001  0.002425  0.141780  1
  Nd  Nd3  1  0.250000  0.997556  0.858236  1
  Sn  Sn4  1  0.249999  0.777500  0.694691  1
  Sn  Sn5  1  0.750001  0.483329  0.068199  1
  Sn  Sn6  1  0.750002  0.802069  0.317895  1
  Sn  Sn7  1  0.249999  0.634686  0.531473  1
  Sn  Sn8  1  0.749985  0.697943  0.817910  1
  Sn  Sn9  1  0.250000  0.983338  0.431792  1
  Sn  Sn10  1  0.750005  0.365316  0.468503  1
  Sn  Sn11  1  0.250000  0.865339  0.031507  1
  Sn  Sn12  1  0.249999  0.197910  0.682095  1
  Sn  Sn13  1  0.750000  0.016658  0.568194  1
  Sn  Sn14  1  0.750003  0.222471  0.305311  1
  Sn  Sn15  1  0.250001  0.516692  0.931815  1
  Sn  Sn16  1  0.750000  0.277502  0.805315  1
  Sn  Sn17  1  0.750001  0.134698  0.968529  1
  Sn  Sn18  1  0.250000  0.722472  0.194691  1
  Sn  Sn19  1  0.250002  0.302025  0.182113  1
  Rh  Rh20  1  0.250002  0.017325  0.286202  1
  Rh  Rh21  1  0.249999  0.250193  0.534994  1
  Rh  Rh22  1  0.750001  0.750243  0.964992  1
  Rh  Rh23  1  0.249999  0.482680  0.786288  1
  Rh  Rh24  1  0.250000  0.249880  0.035016  1
  Rh  Rh25  1  0.750001  0.749782  0.464964  1
  Rh  Rh26  1  0.749999  0.517327  0.213732  1
  Rh  Rh27  1  0.749999  0.982679  0.713767  1
