# generated using pymatgen
data_KNd(PO3)4
_symmetry_space_group_name_H-M   'P 1'
_cell_length_a   7.41405035
_cell_length_b   8.10889664
_cell_length_c   8.59038105
_cell_angle_alpha   90.00000000
_cell_angle_beta   90.00000000
_cell_angle_gamma   91.74908861
_symmetry_Int_Tables_number   1
_chemical_formula_structural   KNd(PO3)4
_chemical_formula_sum   'K2 Nd2 P8 O24'
_cell_volume   516.21108873
_cell_formula_units_Z   2
loop_
 _symmetry_equiv_pos_site_id
 _symmetry_equiv_pos_as_xyz
  1  'x, y, z'
loop_
 _atom_site_type_symbol
 _atom_site_label
 _atom_site_symmetry_multiplicity
 _atom_site_fract_x
 _atom_site_fract_y
 _atom_site_fract_z
 _atom_site_occupancy
  O  O0  1  0.392689  0.432054  0.439171  1
  O  O1  1  0.607311  0.567946  0.939171  1
  O  O2  1  0.970323  0.067701  0.204183  1
  O  O3  1  0.029677  0.932299  0.704183  1
  O  O4  1  0.532935  0.350967  0.152547  1
  O  O5  1  0.467065  0.649033  0.652547  1
  O  O6  1  0.459801  0.728666  0.365115  1
  O  O7  1  0.540199  0.271334  0.865115  1
  O  O8  1  0.174778  0.658218  0.509141  1
  O  O9  1  0.825222  0.341782  0.009141  1
  O  O10  1  0.031160  0.466649  0.303416  1
  O  O11  1  0.968840  0.533351  0.803416  1
  O  O12  1  0.911670  0.824655  0.011928  1
  O  O13  1  0.088330  0.175345  0.511928  1
  O  O14  1  0.309220  0.121580  0.722147  1
  O  O15  1  0.690780  0.878420  0.222147  1
  O  O16  1  0.990989  0.220960  0.791135  1
  O  O17  1  0.009011  0.779040  0.291135  1
  O  O18  1  0.161835  0.385062  0.002556  1
  O  O19  1  0.838165  0.614938  0.502556  1
  O  O20  1  0.317943  0.073733  0.017799  1
  O  O21  1  0.682057  0.926267  0.517799  1
  O  O22  1  0.560387  0.960171  0.842672  1
  O  O23  1  0.439613  0.039829  0.342672  1
  P  P24  1  0.002280  0.618076  0.400000  1
  P  P25  1  0.997720  0.381924  0.900000  1
  P  P26  1  0.617691  0.394993  0.999219  1
  P  P27  1  0.382309  0.605007  0.499219  1
  P  P28  1  0.432113  0.095855  0.874865  1
  P  P29  1  0.567887  0.904145  0.374865  1
  P  P30  1  0.100280  0.104727  0.672479  1
  P  P31  1  0.899720  0.895273  0.172479  1
  K  K32  1  0.731369  0.282533  0.436368  1
  K  K33  1  0.268631  0.717467  0.936368  1
  Nd  Nd34  1  0.236758  0.241757  0.250358  1
  Nd  Nd35  1  0.763242  0.758243  0.750358  1
