# generated using pymatgen
data_H4SO5
_symmetry_space_group_name_H-M   'P 1'
_cell_length_a   8.38609855
_cell_length_b   6.93861319
_cell_length_c   7.16583926
_cell_angle_alpha   90.39569577
_cell_angle_beta   103.57339757
_cell_angle_gamma   89.88166663
_symmetry_Int_Tables_number   1
_chemical_formula_structural   H4SO5
_chemical_formula_sum   'H16 S4 O20'
_cell_volume   405.30958227
_cell_formula_units_Z   4
loop_
 _symmetry_equiv_pos_site_id
 _symmetry_equiv_pos_as_xyz
  1  'x, y, z'
loop_
 _atom_site_type_symbol
 _atom_site_label
 _atom_site_symmetry_multiplicity
 _atom_site_fract_x
 _atom_site_fract_y
 _atom_site_fract_z
 _atom_site_occupancy
  H  H0  1  0.954676  0.341009  0.051375  1
  H  H1  1  0.389438  0.171067  0.389015  1
  H  H2  1  0.099027  0.675141  0.601973  1
  H  H3  1  0.602789  0.820074  0.604457  1
  H  H4  1  0.858229  0.347680  0.658534  1
  H  H5  1  0.793475  0.140226  0.727339  1
  H  H6  1  0.700242  0.367211  0.759687  1
  H  H7  1  0.596777  0.816285  0.101088  1
  H  H8  1  0.695402  0.663394  0.269662  1
  H  H9  1  0.779012  0.885522  0.237171  1
  H  H10  1  0.092135  0.691153  0.107466  1
  H  H11  1  0.205542  0.844181  0.264045  1
  H  H12  1  0.277736  0.617251  0.224930  1
  H  H13  1  0.238613  0.115089  0.783056  1
  H  H14  1  0.419451  0.205499  0.911422  1
  H  H15  1  0.299593  0.330245  0.724746  1
  S  S16  1  0.532716  0.347903  0.241247  1
  S  S17  1  0.963607  0.836258  0.766226  1
  S  S18  1  0.458541  0.657954  0.754606  1
  S  S19  1  0.050364  0.158846  0.293088  1
  O  O20  1  0.540289  0.200011  0.094446  1
  O  O21  1  0.960996  0.682126  0.904702  1
  O  O22  1  0.470653  0.812460  0.897238  1
  O  O23  1  0.064060  0.310159  0.129571  1
  O  O24  1  0.499865  0.239541  0.421893  1
  O  O25  1  0.986717  0.736088  0.575082  1
  O  O26  1  0.494649  0.752397  0.567101  1
  O  O27  1  0.028131  0.266028  0.459761  1
  O  O28  1  0.399210  0.484054  0.168201  1
  O  O29  1  0.093517  0.976364  0.831883  1
  O  O30  1  0.579012  0.504194  0.818998  1
  O  O31  1  0.920069  0.024860  0.205539  1
  O  O32  1  0.690588  0.443461  0.319597  1
  O  O33  1  0.799343  0.930178  0.700302  1
  O  O34  1  0.291847  0.578265  0.685334  1
  O  O35  1  0.214398  0.063112  0.326767  1
  O  O36  1  0.805809  0.290554  0.754544  1
  O  O37  1  0.675993  0.806404  0.233184  1
  O  O38  1  0.178460  0.701697  0.233108  1
  O  O39  1  0.334656  0.198728  0.776335  1
