# generated using pymatgen
data_MoPNCl6O
_symmetry_space_group_name_H-M   'P 1'
_cell_length_a   12.07517757
_cell_length_b   13.27682247
_cell_length_c   15.13850079
_cell_angle_alpha   90.00000000
_cell_angle_beta   90.00000000
_cell_angle_gamma   113.49934876
_symmetry_Int_Tables_number   1
_chemical_formula_structural   MoPNCl6O
_chemical_formula_sum   'Mo8 P8 N8 Cl48 O8'
_cell_volume   2225.71972404
_cell_formula_units_Z   8
loop_
 _symmetry_equiv_pos_site_id
 _symmetry_equiv_pos_as_xyz
  1  'x, y, z'
loop_
 _atom_site_type_symbol
 _atom_site_label
 _atom_site_symmetry_multiplicity
 _atom_site_fract_x
 _atom_site_fract_y
 _atom_site_fract_z
 _atom_site_occupancy
  Mo  Mo0  1  0.191774  0.943087  0.016292  1
  Mo  Mo1  1  0.466367  0.482037  0.324531  1
  Mo  Mo2  1  0.533633  0.517963  0.675469  1
  Mo  Mo3  1  0.308226  0.556913  0.516292  1
  Mo  Mo4  1  0.033633  0.017963  0.824531  1
  Mo  Mo5  1  0.691774  0.443087  0.483708  1
  Mo  Mo6  1  0.808226  0.056913  0.983708  1
  Mo  Mo7  1  0.966367  0.982037  0.175469  1
  P  P8  1  0.688005  0.468010  0.881503  1
  P  P9  1  0.151822  0.576464  0.736313  1
  P  P10  1  0.811995  0.031990  0.381503  1
  P  P11  1  0.311995  0.531990  0.118497  1
  P  P12  1  0.848178  0.423536  0.263687  1
  P  P13  1  0.348178  0.923536  0.236313  1
  P  P14  1  0.188005  0.968010  0.618497  1
  P  P15  1  0.651822  0.076464  0.763687  1
  N  N16  1  0.364612  0.526405  0.421725  1
  N  N17  1  0.433779  0.534700  0.603689  1
  N  N18  1  0.135388  0.973595  0.921725  1
  N  N19  1  0.864612  0.026405  0.078275  1
  N  N20  1  0.566221  0.465300  0.396311  1
  N  N21  1  0.066221  0.965300  0.103689  1
  N  N22  1  0.933779  0.034700  0.896311  1
  N  N23  1  0.635388  0.473595  0.578275  1
  Cl  Cl24  1  0.962622  0.063699  0.694314  1
  Cl  Cl25  1  0.961330  0.144177  0.436062  1
  Cl  Cl26  1  0.000615  0.406907  0.295390  1
  Cl  Cl27  1  0.152030  0.602341  0.466782  1
  Cl  Cl28  1  0.194108  0.188883  0.840586  1
  Cl  Cl29  1  0.598335  0.925325  0.712920  1
  Cl  Cl30  1  0.815413  0.410372  0.904002  1
  Cl  Cl31  1  0.500615  0.906907  0.204610  1
  Cl  Cl32  1  0.061291  0.171442  0.192231  1
  Cl  Cl33  1  0.183744  0.376930  0.556748  1
  Cl  Cl34  1  0.652030  0.102341  0.033218  1
  Cl  Cl35  1  0.219948  0.679428  0.837281  1
  Cl  Cl36  1  0.438709  0.328558  0.692231  1
  Cl  Cl37  1  0.315413  0.910372  0.595998  1
  Cl  Cl38  1  0.805892  0.811117  0.159414  1
  Cl  Cl39  1  0.847970  0.397659  0.533218  1
  Cl  Cl40  1  0.901665  0.574675  0.212920  1
  Cl  Cl41  1  0.038670  0.855823  0.563938  1
  Cl  Cl42  1  0.462622  0.563699  0.805686  1
  Cl  Cl43  1  0.267005  0.399334  0.041595  1
  Cl  Cl44  1  0.499385  0.093093  0.795390  1
  Cl  Cl45  1  0.816256  0.623070  0.443252  1
  Cl  Cl46  1  0.280052  0.820572  0.337281  1
  Cl  Cl47  1  0.538670  0.355823  0.936062  1
  Cl  Cl48  1  0.347970  0.897659  0.966782  1
  Cl  Cl49  1  0.184587  0.589628  0.095998  1
  Cl  Cl50  1  0.561291  0.671442  0.307769  1
  Cl  Cl51  1  0.445803  0.741320  0.527396  1
  Cl  Cl52  1  0.037378  0.936301  0.305686  1
  Cl  Cl53  1  0.999385  0.593093  0.704610  1
  Cl  Cl54  1  0.098335  0.425325  0.787080  1
  Cl  Cl55  1  0.305892  0.311117  0.340586  1
  Cl  Cl56  1  0.401665  0.074675  0.287080  1
  Cl  Cl57  1  0.694108  0.688883  0.659414  1
  Cl  Cl58  1  0.554197  0.258680  0.472604  1
  Cl  Cl59  1  0.461330  0.644177  0.063938  1
  Cl  Cl60  1  0.945803  0.241320  0.972604  1
  Cl  Cl61  1  0.537378  0.436301  0.194314  1
  Cl  Cl62  1  0.938709  0.828558  0.807769  1
  Cl  Cl63  1  0.054197  0.758680  0.027396  1
  Cl  Cl64  1  0.780052  0.320572  0.162719  1
  Cl  Cl65  1  0.232995  0.100666  0.541595  1
  Cl  Cl66  1  0.683744  0.876930  0.943252  1
  Cl  Cl67  1  0.767005  0.899334  0.458405  1
  Cl  Cl68  1  0.316256  0.123070  0.056748  1
  Cl  Cl69  1  0.684587  0.089628  0.404002  1
  Cl  Cl70  1  0.732995  0.600666  0.958405  1
  Cl  Cl71  1  0.719948  0.179428  0.662719  1
  O  O72  1  0.238407  0.598823  0.662035  1
  O  O73  1  0.261593  0.901177  0.162035  1
  O  O74  1  0.738407  0.098823  0.837965  1
  O  O75  1  0.676853  0.488754  0.786494  1
  O  O76  1  0.323147  0.511246  0.213506  1
  O  O77  1  0.823147  0.011246  0.286494  1
  O  O78  1  0.761593  0.401177  0.337965  1
  O  O79  1  0.176853  0.988754  0.713506  1
