# generated using pymatgen
data_SiO2
_symmetry_space_group_name_H-M   'P 1'
_cell_length_a   13.17607462
_cell_length_b   13.17607462
_cell_length_c   4.99911480
_cell_angle_alpha   90.00000000
_cell_angle_beta   90.00000000
_cell_angle_gamma   90.00000000
_symmetry_Int_Tables_number   1
_chemical_formula_structural   SiO2
_chemical_formula_sum   'Si17 O34'
_cell_volume   867.89103332
_cell_formula_units_Z   17
loop_
 _symmetry_equiv_pos_site_id
 _symmetry_equiv_pos_as_xyz
  1  'x, y, z'
loop_
 _atom_site_type_symbol
 _atom_site_label
 _atom_site_symmetry_multiplicity
 _atom_site_fract_x
 _atom_site_fract_y
 _atom_site_fract_z
 _atom_site_occupancy
  Si  Si0  1  0.215051  0.050201  0.736239  1
  Si  Si1  1  0.050201  0.784949  0.263761  1
  Si  Si2  1  0.949799  0.215051  0.263761  1
  Si  Si3  1  0.784949  0.949799  0.736239  1
  Si  Si4  1  0.833634  0.287601  0.760225  1
  Si  Si5  1  0.287601  0.166366  0.239775  1
  Si  Si6  1  0.712399  0.833634  0.239775  1
  Si  Si7  1  0.166366  0.712399  0.760225  1
  Si  Si8  1  0.652829  0.146904  0.757283  1
  Si  Si9  1  0.146904  0.347171  0.242717  1
  Si  Si10  1  0.853096  0.652829  0.242717  1
  Si  Si11  1  0.347171  0.853096  0.757283  1
  Si  Si12  1  0.518481  0.115175  0.281150  1
  Si  Si13  1  0.115175  0.481519  0.718850  1
  Si  Si14  1  0.884825  0.518481  0.718850  1
  Si  Si15  1  0.481519  0.884825  0.281150  1
  Si  Si16  1  0.000000  0.000000  0.500000  1
  O  O17  1  0.093660  0.035309  0.691102  1
  O  O18  1  0.035309  0.906340  0.308898  1
  O  O19  1  0.964691  0.093660  0.308898  1
  O  O20  1  0.906340  0.964691  0.691102  1
  O  O21  1  0.256137  0.142596  0.549271  1
  O  O22  1  0.142596  0.743863  0.450729  1
  O  O23  1  0.857404  0.256137  0.450729  1
  O  O24  1  0.743863  0.857404  0.549271  1
  O  O25  1  0.237700  0.078741  0.047682  1
  O  O26  1  0.078741  0.762300  0.952318  1
  O  O27  1  0.921259  0.237700  0.952318  1
  O  O28  1  0.762300  0.921259  0.047682  1
  O  O29  1  0.274080  0.946027  0.657516  1
  O  O30  1  0.946027  0.725920  0.342484  1
  O  O31  1  0.053973  0.274080  0.342484  1
  O  O32  1  0.725920  0.053973  0.657516  1
  O  O33  1  0.722733  0.243469  0.843659  1
  O  O34  1  0.243469  0.277267  0.156341  1
  O  O35  1  0.756531  0.722733  0.156341  1
  O  O36  1  0.277267  0.756531  0.843659  1
  O  O37  1  0.831946  0.410153  0.787658  1
  O  O38  1  0.410153  0.168054  0.212342  1
  O  O39  1  0.589847  0.831946  0.212342  1
  O  O40  1  0.168054  0.589847  0.787658  1
  O  O41  1  0.577867  0.179517  0.511939  1
  O  O42  1  0.179517  0.422133  0.488061  1
  O  O43  1  0.820483  0.577867  0.488061  1
  O  O44  1  0.422133  0.820483  0.511939  1
  O  O45  1  0.586571  0.109680  0.011556  1
  O  O46  1  0.109680  0.413429  0.988444  1
  O  O47  1  0.890320  0.586571  0.988444  1
  O  O48  1  0.413429  0.890320  0.011556  1
  O  O49  1  0.500000  0.000000  0.393537  1
  O  O50  1  0.000000  0.500000  0.606463  1
