# generated using pymatgen
data_SiO2
_symmetry_space_group_name_H-M   'P 1'
_cell_length_a   9.76883368
_cell_length_b   12.32280845
_cell_length_c   23.00046973
_cell_angle_alpha   90.00000000
_cell_angle_beta   90.00000000
_cell_angle_gamma   90.00000000
_symmetry_Int_Tables_number   1
_chemical_formula_structural   SiO2
_chemical_formula_sum   'Si48 O96'
_cell_volume   2768.78426887
_cell_formula_units_Z   48
loop_
 _symmetry_equiv_pos_site_id
 _symmetry_equiv_pos_as_xyz
  1  'x, y, z'
loop_
 _atom_site_type_symbol
 _atom_site_label
 _atom_site_symmetry_multiplicity
 _atom_site_fract_x
 _atom_site_fract_y
 _atom_site_fract_z
 _atom_site_occupancy
  Si  Si0  1  0.334208  0.876318  0.862924  1
  Si  Si1  1  0.834208  0.623682  0.637076  1
  Si  Si2  1  0.665792  0.376318  0.137076  1
  Si  Si3  1  0.165792  0.123682  0.362924  1
  Si  Si4  1  0.665792  0.123682  0.137076  1
  Si  Si5  1  0.165792  0.376318  0.362924  1
  Si  Si6  1  0.334208  0.623682  0.862924  1
  Si  Si7  1  0.834208  0.876318  0.637076  1
  Si  Si8  1  0.652176  0.876995  0.527931  1
  Si  Si9  1  0.152176  0.623005  0.972069  1
  Si  Si10  1  0.347824  0.376995  0.472069  1
  Si  Si11  1  0.847824  0.123005  0.027931  1
  Si  Si12  1  0.347824  0.123005  0.472069  1
  Si  Si13  1  0.847824  0.376995  0.027931  1
  Si  Si14  1  0.652176  0.623005  0.527931  1
  Si  Si15  1  0.152176  0.876995  0.972069  1
  Si  Si16  1  0.883381  0.527729  0.922278  1
  Si  Si17  1  0.383381  0.972271  0.577722  1
  Si  Si18  1  0.116619  0.027729  0.077722  1
  Si  Si19  1  0.616619  0.472271  0.422278  1
  Si  Si20  1  0.116619  0.472271  0.077722  1
  Si  Si21  1  0.616619  0.027729  0.422278  1
  Si  Si22  1  0.883381  0.972271  0.922278  1
  Si  Si23  1  0.383381  0.527729  0.577722  1
  Si  Si24  1  0.145768  0.873899  0.654734  1
  Si  Si25  1  0.645768  0.626101  0.845266  1
  Si  Si26  1  0.854232  0.373899  0.345266  1
  Si  Si27  1  0.354232  0.126101  0.154734  1
  Si  Si28  1  0.854232  0.126101  0.345266  1
  Si  Si29  1  0.354232  0.373899  0.154734  1
  Si  Si30  1  0.145768  0.626101  0.654734  1
  Si  Si31  1  0.645768  0.873899  0.845266  1
  Si  Si32  1  0.974321  0.125464  0.818396  1
  Si  Si33  1  0.474321  0.374536  0.681604  1
  Si  Si34  1  0.025679  0.625464  0.181604  1
  Si  Si35  1  0.525679  0.874536  0.318396  1
  Si  Si36  1  0.025679  0.874536  0.181604  1
  Si  Si37  1  0.525679  0.625464  0.318396  1
  Si  Si38  1  0.974321  0.374536  0.818396  1
  Si  Si39  1  0.474321  0.125464  0.681604  1
  Si  Si40  1  0.232610  0.470910  0.758088  1
  Si  Si41  1  0.732610  0.029090  0.741912  1
  Si  Si42  1  0.767390  0.970910  0.241912  1
  Si  Si43  1  0.267390  0.529090  0.258088  1
  Si  Si44  1  0.767390  0.529090  0.241912  1
  Si  Si45  1  0.267390  0.970910  0.258088  1
  Si  Si46  1  0.232610  0.029090  0.758088  1
  Si  Si47  1  0.732610  0.470910  0.741912  1
  O  O48  1  0.294592  0.750000  0.849648  1
  O  O49  1  0.794592  0.750000  0.650352  1
  O  O50  1  0.705408  0.250000  0.150352  1
  O  O51  1  0.205408  0.250000  0.349648  1
  O  O52  1  0.249232  0.919130  0.919085  1
  O  O53  1  0.749232  0.580870  0.580915  1
  O  O54  1  0.750768  0.419130  0.080915  1
  O  O55  1  0.250768  0.080870  0.419085  1
  O  O56  1  0.750768  0.080870  0.080915  1
  O  O57  1  0.250768  0.419130  0.419085  1
  O  O58  1  0.249232  0.580870  0.919085  1
  O  O59  1  0.749232  0.919130  0.580915  1
  O  O60  1  0.497284  0.886353  0.876798  1
  O  O61  1  0.997284  0.613647  0.623202  1
  O  O62  1  0.502716  0.386353  0.123202  1
  O  O63  1  0.002716  0.113647  0.376798  1
  O  O64  1  0.502716  0.113647  0.123202  1
  O  O65  1  0.002716  0.386353  0.376798  1
  O  O66  1  0.497284  0.613647  0.876798  1
  O  O67  1  0.997284  0.886353  0.623202  1
  O  O68  1  0.296881  0.948868  0.806811  1
  O  O69  1  0.796881  0.551132  0.693189  1
  O  O70  1  0.703119  0.448868  0.193189  1
  O  O71  1  0.203119  0.051132  0.306811  1
  O  O72  1  0.703119  0.051132  0.193189  1
  O  O73  1  0.203119  0.448868  0.306811  1
  O  O74  1  0.296881  0.551132  0.806811  1
  O  O75  1  0.796881  0.948868  0.693189  1
  O  O76  1  0.683168  0.750000  0.514437  1
  O  O77  1  0.183168  0.750000  0.985563  1
  O  O78  1  0.316832  0.250000  0.485563  1
  O  O79  1  0.816832  0.250000  0.014437  1
  O  O80  1  0.686239  0.947776  0.470197  1
  O  O81  1  0.186239  0.552224  0.029803  1
  O  O82  1  0.313761  0.447776  0.529803  1
  O  O83  1  0.813761  0.052224  0.970197  1
  O  O84  1  0.313761  0.052224  0.529803  1
  O  O85  1  0.813761  0.447776  0.970197  1
  O  O86  1  0.686239  0.552224  0.470197  1
  O  O87  1  0.186239  0.947776  0.029803  1
  O  O88  1  0.491673  0.891579  0.545837  1
  O  O89  1  0.991673  0.608421  0.954163  1
  O  O90  1  0.508327  0.391579  0.454163  1
  O  O91  1  0.008327  0.108421  0.045837  1
  O  O92  1  0.508327  0.108421  0.454163  1
  O  O93  1  0.008327  0.391579  0.045837  1
  O  O94  1  0.491673  0.608421  0.545837  1
  O  O95  1  0.991673  0.891579  0.954163  1
  O  O96  1  0.963261  0.456204  0.873531  1
  O  O97  1  0.463261  0.043796  0.626469  1
  O  O98  1  0.036739  0.956204  0.126469  1
  O  O99  1  0.536739  0.543796  0.373531  1
  O  O100  1  0.036739  0.543796  0.126469  1
  O  O101  1  0.536739  0.956204  0.373531  1
  O  O102  1  0.963261  0.043796  0.873531  1
  O  O103  1  0.463261  0.456204  0.626469  1
  O  O104  1  0.765191  0.600692  0.892194  1
  O  O105  1  0.265191  0.899308  0.607806  1
  O  O106  1  0.234809  0.100692  0.107806  1
  O  O107  1  0.734809  0.399308  0.392194  1
  O  O108  1  0.234809  0.399308  0.107806  1
  O  O109  1  0.734809  0.100692  0.392194  1
  O  O110  1  0.765191  0.899308  0.892194  1
  O  O111  1  0.265191  0.600692  0.607806  1
  O  O112  1  0.163578  0.750000  0.678739  1
  O  O113  1  0.663578  0.750000  0.821261  1
  O  O114  1  0.836422  0.250000  0.321261  1
  O  O115  1  0.336422  0.250000  0.178739  1
  O  O116  1  0.154187  0.542662  0.708967  1
  O  O117  1  0.654187  0.957338  0.791033  1
  O  O118  1  0.845813  0.042662  0.291033  1
  O  O119  1  0.345813  0.457338  0.208967  1
  O  O120  1  0.845813  0.457338  0.291033  1
  O  O121  1  0.345813  0.042662  0.208967  1
  O  O122  1  0.154187  0.957338  0.708967  1
  O  O123  1  0.654187  0.542662  0.791033  1
  O  O124  1  0.958598  0.250000  0.841018  1
  O  O125  1  0.458598  0.250000  0.658982  1
  O  O126  1  0.041402  0.750000  0.158982  1
  O  O127  1  0.541402  0.750000  0.341018  1
  O  O128  1  0.353994  0.400646  0.728407  1
  O  O129  1  0.853994  0.099354  0.771593  1
  O  O130  1  0.646006  0.900646  0.271593  1
  O  O131  1  0.146006  0.599354  0.228407  1
  O  O132  1  0.646006  0.599354  0.271593  1
  O  O133  1  0.146006  0.900646  0.228407  1
  O  O134  1  0.353994  0.099354  0.728407  1
  O  O135  1  0.853994  0.400646  0.771593  1
  O  O136  1  0.123577  0.388708  0.787979  1
  O  O137  1  0.623577  0.111292  0.712021  1
  O  O138  1  0.876423  0.888708  0.212021  1
  O  O139  1  0.376423  0.611292  0.287979  1
  O  O140  1  0.876423  0.611292  0.212021  1
  O  O141  1  0.376423  0.888708  0.287979  1
  O  O142  1  0.123577  0.111292  0.787979  1
  O  O143  1  0.623577  0.388708  0.712021  1
