# generated using pymatgen
data_CuH2(CO2)2
_symmetry_space_group_name_H-M   'P 1'
_cell_length_a   6.82674973
_cell_length_b   11.48050086
_cell_length_c   12.19424935
_cell_angle_alpha   90.00000000
_cell_angle_beta   90.00000000
_cell_angle_gamma   90.00000000
_symmetry_Int_Tables_number   1
_chemical_formula_structural   CuH2(CO2)2
_chemical_formula_sum   'Cu8 H16 C16 O32'
_cell_volume   955.71827063
_cell_formula_units_Z   8
loop_
 _symmetry_equiv_pos_site_id
 _symmetry_equiv_pos_as_xyz
  1  'x, y, z'
loop_
 _atom_site_type_symbol
 _atom_site_label
 _atom_site_symmetry_multiplicity
 _atom_site_fract_x
 _atom_site_fract_y
 _atom_site_fract_z
 _atom_site_occupancy
  Cu  Cu0  1  0.704713  0.886665  0.519623  1
  Cu  Cu1  1  0.704713  0.386665  0.980377  1
  Cu  Cu2  1  0.795287  0.886665  0.019623  1
  Cu  Cu3  1  0.204713  0.113335  0.980377  1
  Cu  Cu4  1  0.204713  0.613335  0.519623  1
  Cu  Cu5  1  0.795287  0.386665  0.480377  1
  Cu  Cu6  1  0.295287  0.113335  0.480377  1
  Cu  Cu7  1  0.295287  0.613335  0.019623  1
  H  H8  1  0.480615  0.829414  0.787068  1
  H  H9  1  0.480615  0.329414  0.712932  1
  H  H10  1  0.980615  0.670586  0.787068  1
  H  H11  1  0.519385  0.670586  0.287068  1
  H  H12  1  0.019385  0.829414  0.287068  1
  H  H13  1  0.519385  0.170586  0.212932  1
  H  H14  1  0.562801  0.656374  0.583305  1
  H  H15  1  0.937199  0.656374  0.083305  1
  H  H16  1  0.562801  0.156374  0.916695  1
  H  H17  1  0.980615  0.170586  0.712932  1
  H  H18  1  0.437199  0.843626  0.083305  1
  H  H19  1  0.062801  0.343626  0.916695  1
  H  H20  1  0.437199  0.343626  0.416695  1
  H  H21  1  0.062801  0.843626  0.583305  1
  H  H22  1  0.019385  0.329414  0.212932  1
  H  H23  1  0.937199  0.156374  0.416695  1
  C  C24  1  0.163389  0.612631  0.679105  1
  C  C25  1  0.663389  0.887369  0.679105  1
  C  C26  1  0.181166  0.856086  0.521883  1
  C  C27  1  0.336611  0.612631  0.179105  1
  C  C28  1  0.663389  0.387369  0.820895  1
  C  C29  1  0.836611  0.887369  0.179105  1
  C  C30  1  0.163389  0.112631  0.820895  1
  C  C31  1  0.181166  0.356086  0.978117  1
  C  C32  1  0.681166  0.143914  0.978117  1
  C  C33  1  0.681166  0.643914  0.521883  1
  C  C34  1  0.818834  0.643914  0.021883  1
  C  C35  1  0.818834  0.143914  0.478117  1
  C  C36  1  0.318834  0.356086  0.478117  1
  C  C37  1  0.836611  0.387369  0.320895  1
  C  C38  1  0.318834  0.856086  0.021883  1
  C  C39  1  0.336611  0.112631  0.320895  1
  O  O40  1  0.524795  0.310052  0.788013  1
  O  O41  1  0.524795  0.810052  0.711987  1
  O  O42  1  0.744148  0.045274  0.489051  1
  O  O43  1  0.744148  0.545274  0.010949  1
  O  O44  1  0.762865  0.732793  0.966160  1
  O  O45  1  0.743858  0.456841  0.760600  1
  O  O46  1  0.244148  0.954726  0.010949  1
  O  O47  1  0.237135  0.767207  0.466160  1
  O  O48  1  0.256142  0.043159  0.260600  1
  O  O49  1  0.262865  0.267207  0.533840  1
  O  O50  1  0.737135  0.232793  0.033840  1
  O  O51  1  0.475205  0.189948  0.288013  1
  O  O52  1  0.255852  0.454726  0.989051  1
  O  O53  1  0.475205  0.689948  0.211987  1
  O  O54  1  0.756142  0.956841  0.239400  1
  O  O55  1  0.743858  0.956841  0.739400  1
  O  O56  1  0.237135  0.267207  0.033840  1
  O  O57  1  0.975205  0.810052  0.211987  1
  O  O58  1  0.256142  0.543159  0.239400  1
  O  O59  1  0.255852  0.954726  0.510949  1
  O  O60  1  0.737135  0.732793  0.466160  1
  O  O61  1  0.755852  0.545274  0.510949  1
  O  O62  1  0.243858  0.543159  0.739400  1
  O  O63  1  0.262865  0.767207  0.966160  1
  O  O64  1  0.244148  0.454726  0.489051  1
  O  O65  1  0.755852  0.045274  0.989051  1
  O  O66  1  0.756142  0.456841  0.260600  1
  O  O67  1  0.024795  0.689948  0.711987  1
  O  O68  1  0.024795  0.189948  0.788013  1
  O  O69  1  0.243858  0.043159  0.760600  1
  O  O70  1  0.762865  0.232793  0.533840  1
  O  O71  1  0.975205  0.310052  0.288013  1
