# generated using pymatgen
data_YbBeF4
_symmetry_space_group_name_H-M   'P 1'
_cell_length_a   7.32741965
_cell_length_b   7.87133267
_cell_length_c   5.53893284
_cell_angle_alpha   92.51884501
_cell_angle_beta   90.36724221
_cell_angle_gamma   101.61736382
_symmetry_Int_Tables_number   1
_chemical_formula_structural   YbBeF4
_chemical_formula_sum   'Yb4 Be4 F16'
_cell_volume   312.58172185
_cell_formula_units_Z   4
loop_
 _symmetry_equiv_pos_site_id
 _symmetry_equiv_pos_as_xyz
  1  'x, y, z'
loop_
 _atom_site_type_symbol
 _atom_site_label
 _atom_site_symmetry_multiplicity
 _atom_site_fract_x
 _atom_site_fract_y
 _atom_site_fract_z
 _atom_site_occupancy
  Yb  Yb0  1  0.851385  0.909665  0.741598  1
  Yb  Yb1  1  0.356449  0.937194  0.746846  1
  Yb  Yb2  1  0.144652  0.089860  0.256999  1
  Yb  Yb3  1  0.640192  0.065011  0.251940  1
  Be  Be4  1  0.795917  0.541509  0.243217  1
  Be  Be5  1  0.207537  0.457682  0.758021  1
  Be  Be6  1  0.798287  0.427115  0.740057  1
  Be  Be7  1  0.207375  0.571084  0.260889  1
  F  F8  1  0.105718  0.871615  0.500548  1
  F  F9  1  0.294127  0.556790  0.506961  1
  F  F10  1  0.580482  0.868348  0.516969  1
  F  F11  1  0.894281  0.124487  0.019444  1
  F  F12  1  0.002113  0.502170  0.251270  1
  F  F13  1  0.002801  0.499691  0.750520  1
  F  F14  1  0.710547  0.435560  0.986626  1
  F  F15  1  0.890635  0.129421  0.500127  1
  F  F16  1  0.205956  0.275388  0.752913  1
  F  F17  1  0.102425  0.875242  0.978764  1
  F  F18  1  0.294134  0.561707  0.014143  1
  F  F19  1  0.585232  0.867362  0.963215  1
  F  F20  1  0.792493  0.723023  0.247247  1
  F  F21  1  0.415735  0.133411  0.480770  1
  F  F22  1  0.410885  0.134145  0.036420  1
  F  F23  1  0.710642  0.442523  0.494494  1
