# generated using pymatgen
data_PNCl2
_symmetry_space_group_name_H-M   'P 1'
_cell_length_a   6.06702639
_cell_length_b   15.50838857
_cell_length_c   15.50838857
_cell_angle_alpha   90.00000000
_cell_angle_beta   90.00000000
_cell_angle_gamma   90.00000000
_symmetry_Int_Tables_number   1
_chemical_formula_structural   PNCl2
_chemical_formula_sum   'P16 N16 Cl32'
_cell_volume   1459.18122107
_cell_formula_units_Z   16
loop_
 _symmetry_equiv_pos_site_id
 _symmetry_equiv_pos_as_xyz
  1  'x, y, z'
loop_
 _atom_site_type_symbol
 _atom_site_label
 _atom_site_symmetry_multiplicity
 _atom_site_fract_x
 _atom_site_fract_y
 _atom_site_fract_z
 _atom_site_occupancy
  P  P0  1  0.856957  0.108662  0.062519  1
  P  P1  1  0.985760  0.935041  0.111777  1
  P  P2  1  0.356957  0.937481  0.608662  1
  P  P3  1  0.485760  0.888223  0.435041  1
  P  P4  1  0.985760  0.564959  0.388223  1
  P  P5  1  0.514240  0.111777  0.564959  1
  P  P6  1  0.856957  0.391338  0.437482  1
  P  P7  1  0.485760  0.611777  0.064959  1
  P  P8  1  0.014240  0.064959  0.888223  1
  P  P9  1  0.643043  0.062519  0.391338  1
  P  P10  1  0.643043  0.437482  0.108662  1
  P  P11  1  0.143043  0.891338  0.937481  1
  P  P12  1  0.356957  0.562519  0.891338  1
  P  P13  1  0.514240  0.388223  0.935041  1
  P  P14  1  0.014240  0.435041  0.611777  1
  P  P15  1  0.143043  0.608662  0.562519  1
  N  N16  1  0.342139  0.886976  0.520459  1
  N  N17  1  0.842139  0.020459  0.113024  1
  N  N18  1  0.989170  0.117203  0.974907  1
  N  N19  1  0.842139  0.479541  0.386976  1
  N  N20  1  0.010830  0.882797  0.025093  1
  N  N21  1  0.010830  0.617203  0.474907  1
  N  N22  1  0.489170  0.474907  0.882797  1
  N  N23  1  0.489170  0.025093  0.617203  1
  N  N24  1  0.510830  0.974907  0.382797  1
  N  N25  1  0.510830  0.525093  0.117203  1
  N  N26  1  0.657861  0.386976  0.020459  1
  N  N27  1  0.157861  0.520459  0.613024  1
  N  N28  1  0.157861  0.979541  0.886976  1
  N  N29  1  0.342139  0.613024  0.979541  1
  N  N30  1  0.657861  0.113024  0.479541  1
  N  N31  1  0.989170  0.382797  0.525093  1
  Cl  Cl32  1  0.512120  0.140652  0.300246  1
  Cl  Cl33  1  0.012120  0.800246  0.859348  1
  Cl  Cl34  1  0.160496  0.144830  0.803587  1
  Cl  Cl35  1  0.285779  0.956878  0.165394  1
  Cl  Cl36  1  0.512120  0.359348  0.199754  1
  Cl  Cl37  1  0.839504  0.644830  0.303587  1
  Cl  Cl38  1  0.214221  0.334606  0.956878  1
  Cl  Cl39  1  0.660496  0.196413  0.644830  1
  Cl  Cl40  1  0.339504  0.803587  0.355170  1
  Cl  Cl41  1  0.487880  0.859348  0.699754  1
  Cl  Cl42  1  0.457755  0.851649  0.952268  1
  Cl  Cl43  1  0.339504  0.696413  0.144830  1
  Cl  Cl44  1  0.785779  0.834606  0.456878  1
  Cl  Cl45  1  0.839504  0.855170  0.196413  1
  Cl  Cl46  1  0.214221  0.165394  0.543122  1
  Cl  Cl47  1  0.487880  0.640652  0.800246  1
  Cl  Cl48  1  0.714221  0.456878  0.665394  1
  Cl  Cl49  1  0.957755  0.047732  0.351649  1
  Cl  Cl50  1  0.285779  0.543122  0.334606  1
  Cl  Cl51  1  0.457755  0.648351  0.547732  1
  Cl  Cl52  1  0.542245  0.148351  0.047732  1
  Cl  Cl53  1  0.160496  0.355170  0.696413  1
  Cl  Cl54  1  0.042245  0.952268  0.648351  1
  Cl  Cl55  1  0.957755  0.452268  0.148351  1
  Cl  Cl56  1  0.987880  0.300246  0.359348  1
  Cl  Cl57  1  0.012120  0.699754  0.640652  1
  Cl  Cl58  1  0.542245  0.351649  0.452268  1
  Cl  Cl59  1  0.714221  0.043122  0.834606  1
  Cl  Cl60  1  0.042245  0.547732  0.851649  1
  Cl  Cl61  1  0.987880  0.199754  0.140652  1
  Cl  Cl62  1  0.660496  0.303587  0.855170  1
  Cl  Cl63  1  0.785779  0.665394  0.043122  1
