# generated using pymatgen
data_LiMg6Sc(SiO3)8
_symmetry_space_group_name_H-M   'P 1'
_cell_length_a   7.94350307
_cell_length_b   7.82860299
_cell_length_c   14.03478518
_cell_angle_alpha   90.00000000
_cell_angle_beta   90.00000000
_cell_angle_gamma   93.72698279
_symmetry_Int_Tables_number   1
_chemical_formula_structural   LiMg6Sc(SiO3)8
_chemical_formula_sum   'Li2 Mg12 Sc2 Si16 O48'
_cell_volume   870.92879964
_cell_formula_units_Z   2
loop_
 _symmetry_equiv_pos_site_id
 _symmetry_equiv_pos_as_xyz
  1  'x, y, z'
loop_
 _atom_site_type_symbol
 _atom_site_label
 _atom_site_symmetry_multiplicity
 _atom_site_fract_x
 _atom_site_fract_y
 _atom_site_fract_z
 _atom_site_occupancy
  Li  Li0  1  0.900049  0.429625  0.285130  1
  Li  Li1  1  0.900049  0.929625  0.464870  1
  Mg  Mg2  1  0.472291  0.291330  0.620305  1
  Mg  Mg3  1  0.242630  0.055779  0.046691  1
  Mg  Mg4  1  0.472291  0.791330  0.129695  1
  Mg  Mg5  1  0.242630  0.555779  0.703309  1
  Mg  Mg6  1  0.277245  0.192339  0.237344  1
  Mg  Mg7  1  0.308162  0.182725  0.848984  1
  Mg  Mg8  1  0.277245  0.692339  0.512656  1
  Mg  Mg9  1  0.308162  0.682725  0.901016  1
  Mg  Mg10  1  0.708895  0.094224  0.725111  1
  Mg  Mg11  1  0.924368  0.335752  0.925920  1
  Mg  Mg12  1  0.924368  0.835752  0.824080  1
  Mg  Mg13  1  0.708895  0.594224  0.024889  1
  Sc  Sc14  1  0.624411  0.688068  0.620871  1
  Sc  Sc15  1  0.624411  0.188068  0.129129  1
  Si  Si16  1  0.904927  0.467654  0.712024  1
  Si  Si17  1  0.069468  0.644609  0.113534  1
  Si  Si18  1  0.069468  0.144609  0.636466  1
  Si  Si19  1  0.904927  0.967654  0.037976  1
  Si  Si20  1  0.433337  0.441429  0.397885  1
  Si  Si21  1  0.587352  0.452951  0.814908  1
  Si  Si22  1  0.433337  0.941429  0.352115  1
  Si  Si23  1  0.587352  -0.047049  0.935092  1
  Si  Si24  1  0.311559  0.908113  0.697464  1
  Si  Si25  1  0.860070  0.585034  0.472948  1
  Si  Si26  1  0.860070  0.085034  0.277052  1
  Si  Si27  1  0.311559  0.408113  0.052536  1
  Si  Si28  1  0.623639  0.132348  0.473665  1
  Si  Si29  1  0.623639  0.632348  0.276335  1
  Si  Si30  1  0.061392  0.261906  0.428789  1
  Si  Si31  1  0.061392  0.761906  0.321211  1
  O  O32  1  0.916462  0.390922  0.441713  1
  O  O33  1  0.244810  0.402123  0.940989  1
  O  O34  1  0.244810  0.902123  0.809011  1
  O  O35  1  0.916462  0.890922  0.308287  1
  O  O36  1  0.856636  0.798205  0.970007  1
  O  O37  1  0.052106  0.689563  0.434024  1
  O  O38  1  0.052106  0.189563  0.315976  1
  O  O39  1  0.856636  0.298205  0.779993  1
  O  O40  1  0.768867  0.586741  0.352056  1
  O  O41  1  0.028505  0.604846  0.777207  1
  O  O42  1  0.768867  0.086741  0.397944  1
  O  O43  1  0.028505  0.104846  0.972793  1
  O  O44  1  0.671906  0.652712  0.164185  1
  O  O45  1  0.419461  0.564588  0.804804  1
  O  O46  1  0.419461  0.064588  0.945196  1
  O  O47  1  0.671906  0.152712  0.585815  1
  O  O48  1  0.755699  0.752043  0.503727  1
  O  O49  1  0.274274  0.608443  0.092242  1
  O  O50  1  0.274274  0.108443  0.657758  1
  O  O51  1  0.755699  0.252043  0.246273  1
  O  O52  1  0.511499  0.389734  0.070977  1
  O  O53  1  0.418921  0.529187  0.605115  1
  O  O54  1  0.418921  0.029187  0.144885  1
  O  O55  1  0.511499  0.889734  0.679023  1
  O  O56  1  0.689103  -0.057940  0.836080  1
  O  O57  1  0.443371  0.140992  0.325466  1
  O  O58  1  0.443371  0.640992  0.424534  1
  O  O59  1  0.689103  0.442060  0.913920  1
  O  O60  1  0.553891  0.830179  0.283849  1
  O  O61  1  0.053898  0.119933  0.516078  1
  O  O62  1  0.053898  0.619933  0.233922  1
  O  O63  1  0.553891  0.330179  0.466151  1
  O  O64  1  0.241728  0.369473  0.426964  1
  O  O65  1  0.512216  0.767156  0.983020  1
  O  O66  1  0.241728  0.869473  0.323036  1
  O  O67  1  0.512216  0.267156  0.766980  1
  O  O68  1  0.201764  0.774715  0.631236  1
  O  O69  1  0.714932  0.064797  0.010371  1
  O  O70  1  0.201764  0.274715  0.118764  1
  O  O71  1  0.714932  0.564797  0.739629  1
  O  O72  1  0.473067  0.966547  0.468474  1
  O  O73  1  0.473067  0.466547  0.281526  1
  O  O74  1  0.946917  0.007661  0.693239  1
  O  O75  1  0.946917  0.507661  0.056761  1
  O  O76  1  0.082677  0.352522  0.660022  1
  O  O77  1  0.857494  0.030971  0.153745  1
  O  O78  1  0.082677  0.852522  0.089978  1
  O  O79  1  0.857494  0.530971  0.596255  1
