# generated using pymatgen
data_H5NO2
_symmetry_space_group_name_H-M   'P 1'
_cell_length_a   7.19181045
_cell_length_b   7.91417282
_cell_length_c   5.82378128
_cell_angle_alpha   90.00000000
_cell_angle_beta   116.69068043
_cell_angle_gamma   90.00000000
_symmetry_Int_Tables_number   1
_chemical_formula_structural   H5NO2
_chemical_formula_sum   'H20 N4 O8'
_cell_volume   296.15316524
_cell_formula_units_Z   4
loop_
 _symmetry_equiv_pos_site_id
 _symmetry_equiv_pos_as_xyz
  1  'x, y, z'
loop_
 _atom_site_type_symbol
 _atom_site_label
 _atom_site_symmetry_multiplicity
 _atom_site_fract_x
 _atom_site_fract_y
 _atom_site_fract_z
 _atom_site_occupancy
  H  H0  1  0.484385  0.735016  0.582328  1
  H  H1  1  0.554409  0.922857  0.643309  1
  H  H2  1  0.535842  0.225663  0.922653  1
  H  H3  1  0.422776  0.400312  0.825532  1
  H  H4  1  0.535842  0.274337  0.422653  1
  H  H5  1  0.422776  0.099688  0.325532  1
  H  H6  1  0.484385  0.764984  0.082328  1
  H  H7  1  0.554409  0.577143  0.143309  1
  H  H8  1  0.749797  0.836886  0.480307  1
  H  H9  1  0.084391  0.679008  0.465705  1
  H  H10  1  0.869719  0.945312  0.359020  1
  H  H11  1  0.907768  0.181626  0.014828  1
  H  H12  1  0.224650  0.326755  0.001888  1
  H  H13  1  0.144222  0.438739  0.163654  1
  H  H14  1  0.144222  0.061261  0.663654  1
  H  H15  1  0.224650  0.173245  0.501888  1
  H  H16  1  0.907768  0.318374  0.514828  1
  H  H17  1  0.749797  0.663114  0.980307  1
  H  H18  1  0.869719  0.554688  0.859020  1
  H  H19  1  0.084391  0.820992  0.965705  1
  N  N20  1  0.785665  0.399405  0.497960  1
  N  N21  1  0.188690  0.910496  0.954288  1
  N  N22  1  0.188690  0.589504  0.454288  1
  N  N23  1  0.785665  0.100595  -0.002040  1
  O  O24  1  0.507069  0.838288  0.506268  1
  O  O25  1  0.467152  0.319123  0.967391  1
  O  O26  1  0.467152  0.180877  0.467391  1
  O  O27  1  0.507069  0.661712  0.006268  1
  O  O28  1  0.873203  0.839286  0.447578  1
  O  O29  1  0.098092  0.356994  0.020420  1
  O  O30  1  0.098092  0.143006  0.520420  1
  O  O31  1  0.873203  0.660714  0.947578  1
