# generated using pymatgen
data_LiTi(PO3)5
_symmetry_space_group_name_H-M   'P 1'
_cell_length_a   10.40779853
_cell_length_b   13.74641721
_cell_length_c   8.92579378
_cell_angle_alpha   90.00000000
_cell_angle_beta   101.26476334
_cell_angle_gamma   90.00000000
_symmetry_Int_Tables_number   1
_chemical_formula_structural   LiTi(PO3)5
_chemical_formula_sum   'Li4 Ti4 P20 O60'
_cell_volume   1252.41111027
_cell_formula_units_Z   4
loop_
 _symmetry_equiv_pos_site_id
 _symmetry_equiv_pos_as_xyz
  1  'x, y, z'
loop_
 _atom_site_type_symbol
 _atom_site_label
 _atom_site_symmetry_multiplicity
 _atom_site_fract_x
 _atom_site_fract_y
 _atom_site_fract_z
 _atom_site_occupancy
  Li  Li0  1  0.017000  0.373252  0.070355  1
  Li  Li1  1  0.517000  0.126748  0.070355  1
  Li  Li2  1  0.483000  0.626748  0.929645  1
  Li  Li3  1  0.983000  0.873252  0.929645  1
  Ti  Ti4  1  0.250000  0.500000  0.500000  1
  Ti  Ti5  1  0.750000  0.500000  0.500000  1
  Ti  Ti6  1  0.750000  0.000000  0.500000  1
  Ti  Ti7  1  0.250000  0.000000  0.500000  1
  P  P8  1  0.818428  0.913389  0.177909  1
  P  P9  1  0.771919  0.250835  0.016721  1
  P  P10  1  0.271919  0.249165  0.016721  1
  P  P11  1  0.181572  0.413389  0.822091  1
  P  P12  1  0.318428  0.586611  0.177909  1
  P  P13  1  0.006925  0.356464  0.526714  1
  P  P14  1  0.333945  0.924840  0.183372  1
  P  P15  1  0.003583  0.141346  0.524140  1
  P  P16  1  0.993075  0.856464  0.473286  1
  P  P17  1  0.496417  0.858654  0.475860  1
  P  P18  1  0.681572  0.086611  0.822091  1
  P  P19  1  0.493075  0.643536  0.473286  1
  P  P20  1  0.503583  0.358654  0.524140  1
  P  P21  1  0.506925  0.143536  0.526714  1
  P  P22  1  0.996417  0.641346  0.475860  1
  P  P23  1  0.833945  0.575160  0.183372  1
  P  P24  1  0.166055  0.075160  0.816628  1
  P  P25  1  0.228081  0.750835  0.983279  1
  P  P26  1  0.728081  0.749165  0.983279  1
  P  P27  1  0.666055  0.424840  0.816628  1
  O  O28  1  0.256289  0.522947  0.287917  1
  O  O29  1  0.245570  0.025244  0.708270  1
  O  O30  1  0.402752  0.987872  0.091889  1
  O  O31  1  0.289205  0.333999  0.885508  1
  O  O32  1  0.641791  0.880156  0.503774  1
  O  O33  1  0.931775  0.850687  0.298267  1
  O  O34  1  0.145213  0.269204  0.062909  1
  O  O35  1  0.354787  0.730796  0.937091  1
  O  O36  1  0.586315  0.423665  0.442875  1
  O  O37  1  0.558552  0.356743  0.700752  1
  O  O38  1  0.897435  0.268164  0.122889  1
  O  O39  1  0.858209  0.119844  0.496226  1
  O  O40  1  0.645213  0.230796  0.062909  1
  O  O41  1  0.475883  0.751136  0.532496  1
  O  O42  1  0.975883  0.748864  0.532496  1
  O  O43  1  0.613549  0.040594  0.933311  1
  O  O44  1  0.238892  0.844564  0.102755  1
  O  O45  1  0.886451  0.959406  0.066689  1
  O  O46  1  0.024117  0.248864  0.467504  1
  O  O47  1  0.102565  0.768164  0.877111  1
  O  O48  1  0.913685  0.576335  0.557125  1
  O  O49  1  0.410897  0.578389  0.556442  1
  O  O50  1  0.254430  0.974756  0.291730  1
  O  O51  1  0.113549  0.459406  0.933311  1
  O  O52  1  0.243711  0.477053  0.712083  1
  O  O53  1  0.902752  0.512128  0.091889  1
  O  O54  1  0.745570  0.474756  0.708270  1
  O  O55  1  0.524117  0.251136  0.467504  1
  O  O56  1  0.789205  0.166001  0.885508  1
  O  O57  1  0.738892  0.655436  0.102755  1
  O  O58  1  0.137321  0.880205  0.501583  1
  O  O59  1  0.597248  0.487872  0.908111  1
  O  O60  1  0.362679  0.119795  0.498417  1
  O  O61  1  0.568225  0.149313  0.701733  1
  O  O62  1  0.413685  0.923665  0.557125  1
  O  O63  1  0.097248  0.012128  0.908111  1
  O  O64  1  0.602565  0.731836  0.877111  1
  O  O65  1  0.710795  0.833999  0.114492  1
  O  O66  1  0.743711  0.022947  0.712083  1
  O  O67  1  0.141791  0.619844  0.503774  1
  O  O68  1  0.756289  0.977053  0.287917  1
  O  O69  1  0.854787  0.769204  0.937091  1
  O  O70  1  0.431775  0.649313  0.298267  1
  O  O71  1  0.058552  0.143257  0.700752  1
  O  O72  1  0.862679  0.380205  0.498417  1
  O  O73  1  0.941448  0.643257  0.299248  1
  O  O74  1  0.637321  0.619795  0.501583  1
  O  O75  1  0.910897  0.921611  0.556442  1
  O  O76  1  0.086315  0.076335  0.442875  1
  O  O77  1  0.386451  0.540594  0.066689  1
  O  O78  1  0.068225  0.350687  0.701733  1
  O  O79  1  0.754430  0.525244  0.291730  1
  O  O80  1  0.358209  0.380156  0.496226  1
  O  O81  1  0.761108  0.344564  0.897245  1
  O  O82  1  0.261108  0.155436  0.897245  1
  O  O83  1  0.089103  0.421611  0.443558  1
  O  O84  1  0.210795  0.666001  0.114492  1
  O  O85  1  0.589103  0.078389  0.443558  1
  O  O86  1  0.397435  0.231836  0.122889  1
  O  O87  1  0.441448  0.856743  0.299248  1
