# generated using pymatgen
data_H7NO6
_symmetry_space_group_name_H-M   'P 1'
_cell_length_a   9.77489091
_cell_length_b   15.07401435
_cell_length_c   3.53685437
_cell_angle_alpha   88.56963018
_cell_angle_beta   88.07164106
_cell_angle_gamma   90.44405089
_symmetry_Int_Tables_number   1
_chemical_formula_structural   H7NO6
_chemical_formula_sum   'H28 N4 O24'
_cell_volume   520.66766119
_cell_formula_units_Z   4
loop_
 _symmetry_equiv_pos_site_id
 _symmetry_equiv_pos_as_xyz
  1  'x, y, z'
loop_
 _atom_site_type_symbol
 _atom_site_label
 _atom_site_symmetry_multiplicity
 _atom_site_fract_x
 _atom_site_fract_y
 _atom_site_fract_z
 _atom_site_occupancy
  H  H0  1  0.499746  0.661929  0.891443  1
  H  H1  1  0.552556  0.582554  0.192806  1
  H  H2  1  0.055954  0.317753  0.291979  1
  H  H3  1  0.903425  0.319750  0.655405  1
  H  H4  1  0.090365  0.814691  0.825157  1
  H  H5  1  0.948799  0.813983  0.216712  1
  H  H6  1  0.500592  0.173887  0.623586  1
  H  H7  1  0.448403  0.095980  0.339764  1
  H  H8  1  0.461406  0.955835  0.181664  1
  H  H9  1  0.587010  0.012458  0.001261  1
  H  H10  1  0.010668  0.990750  0.328324  1
  H  H11  1  0.918390  0.047033  0.610100  1
  H  H12  1  0.988711  0.491721  0.179641  1
  H  H13  1  0.081805  0.548997  0.885910  1
  H  H14  1  0.419117  0.500026  0.511047  1
  H  H15  1  0.543010  0.445431  0.330369  1
  H  H16  1  0.294632  0.916645  0.577357  1
  H  H17  1  0.158880  0.851262  0.185896  1
  H  H18  1  0.346890  0.820752  0.488763  1
  H  H19  1  0.328339  0.136372  0.664679  1
  H  H20  1  0.164473  0.165588  0.977374  1
  H  H21  1  0.135753  0.080690  0.728405  1
  H  H22  1  0.825538  0.665641  0.545031  1
  H  H23  1  0.865319  0.577935  0.786222  1
  H  H24  1  0.672430  0.626292  0.855078  1
  H  H25  1  0.658668  0.323257  0.974655  1
  H  H26  1  0.685004  0.424324  0.876016  1
  H  H27  1  0.846694  0.360694  0.278436  1
  N  N28  1  0.749656  0.837683  0.326994  1
  N  N29  1  0.750443  0.169332  0.800508  1
  N  N30  1  0.255790  0.667217  0.685293  1
  N  N31  1  0.255055  0.339604  0.181830  1
  O  O32  1  0.645822  0.811477  0.496058  1
  O  O33  1  0.860106  0.204229  0.897270  1
  O  O34  1  0.147893  0.704698  0.584717  1
  O  O35  1  0.357063  0.313222  0.011994  1
  O  O36  1  0.860786  0.781199  0.348385  1
  O  O37  1  0.640907  0.216735  0.792217  1
  O  O38  1  0.367295  0.713034  0.699182  1
  O  O39  1  0.142658  0.283337  0.180123  1
  O  O40  1  0.767408  0.907367  0.141138  1
  O  O41  1  0.744205  0.088679  0.710525  1
  O  O42  1  0.256967  0.585463  0.772711  1
  O  O43  1  0.240767  0.409308  0.353231  1
  O  O44  1  0.579907  0.638946  0.036149  1
  O  O45  1  0.929779  0.358059  0.434727  1
  O  O46  1  0.071833  0.852179  0.044297  1
  O  O47  1  0.419114  0.151319  0.484547  1
  O  O48  1  0.490627  0.015010  0.086665  1
  O  O49  1  0.011686  0.024838  0.559593  1
  O  O50  1  0.989393  0.523151  0.934865  1
  O  O51  1  0.518058  0.501079  0.456216  1
  O  O52  1  0.316781  0.877606  0.367775  1
  O  O53  1  0.208398  0.113440  0.868441  1
  O  O54  1  0.788201  0.609412  0.651620  1
  O  O55  1  0.682511  0.381126  0.087886  1
