# generated using pymatgen
data_Na4UC3O11
_symmetry_space_group_name_H-M   'P 1'
_cell_length_a   9.43457503
_cell_length_b   9.43457503
_cell_length_c   13.21487307
_cell_angle_alpha   90.00000000
_cell_angle_beta   90.00000000
_cell_angle_gamma   119.99999997
_symmetry_Int_Tables_number   1
_chemical_formula_structural   Na4UC3O11
_chemical_formula_sum   'Na16 U4 C12 O44'
_cell_volume   1018.68125109
_cell_formula_units_Z   4
loop_
 _symmetry_equiv_pos_site_id
 _symmetry_equiv_pos_as_xyz
  1  'x, y, z'
loop_
 _atom_site_type_symbol
 _atom_site_label
 _atom_site_symmetry_multiplicity
 _atom_site_fract_x
 _atom_site_fract_y
 _atom_site_fract_z
 _atom_site_occupancy
  C  C0  1  0.253066  0.923447  0.872126  1
  C  C1  1  0.076553  0.329619  0.872126  1
  C  C2  1  0.670381  0.746934  0.872126  1
  C  C3  1  0.329619  0.076553  0.627874  1
  C  C4  1  0.746934  0.670381  0.627874  1
  C  C5  1  0.923447  0.253066  0.627874  1
  C  C6  1  0.746934  0.076553  0.127874  1
  C  C7  1  0.923447  0.670381  0.127874  1
  C  C8  1  0.329619  0.253066  0.127874  1
  C  C9  1  0.670381  0.923447  0.372126  1
  C  C10  1  0.253066  0.329619  0.372126  1
  C  C11  1  0.076553  0.746934  0.372126  1
  O  O12  1  0.623168  0.855250  0.858082  1
  O  O13  1  0.144750  0.767918  0.858082  1
  O  O14  1  0.232082  0.376832  0.858082  1
  O  O15  1  0.767918  0.144750  0.641918  1
  O  O16  1  0.376832  0.232082  0.641918  1
  O  O17  1  0.855250  0.623168  0.641918  1
  O  O18  1  0.376832  0.144750  0.141918  1
  O  O19  1  0.855250  0.232082  0.141918  1
  O  O20  1  0.767918  0.623168  0.141918  1
  O  O21  1  0.232082  0.855250  0.358082  1
  O  O22  1  0.623168  0.767918  0.358082  1
  O  O23  1  0.144750  0.376832  0.358082  1
  O  O24  1  0.403766  0.952342  0.881120  1
  O  O25  1  0.047658  0.451423  0.881120  1
  O  O26  1  0.548577  0.596234  0.881120  1
  O  O27  1  0.451423  0.047658  0.618880  1
  O  O28  1  0.596234  0.548577  0.618880  1
  O  O29  1  0.952342  0.403766  0.618880  1
  O  O30  1  0.596234  0.047658  0.118880  1
  O  O31  1  0.952342  0.548577  0.118880  1
  O  O32  1  0.451423  0.403766  0.118880  1
  O  O33  1  0.548577  0.952342  0.381120  1
  O  O34  1  0.403766  0.451423  0.381120  1
  O  O35  1  0.047658  0.596234  0.381120  1
  O  O36  1  0.215166  0.034424  0.877396  1
  O  O37  1  0.965576  0.180743  0.877396  1
  O  O38  1  0.819257  0.784834  0.877396  1
  O  O39  1  0.180743  0.965576  0.622604  1
  O  O40  1  0.784834  0.819257  0.622604  1
  O  O41  1  0.034424  0.215166  0.622604  1
  O  O42  1  0.784834  0.965576  0.122604  1
  O  O43  1  0.034424  0.819257  0.122604  1
  O  O44  1  0.180743  0.215166  0.122604  1
  O  O45  1  0.819257  0.034424  0.377396  1
  O  O46  1  0.215166  0.180743  0.377396  1
  O  O47  1  0.965576  0.784834  0.377396  1
  O  O48  1  0.666667  0.333333  0.488641  1
  O  O49  1  0.333333  0.666667  0.011359  1
  O  O50  1  0.333333  0.666667  0.511359  1
  O  O51  1  0.666667  0.333333  0.988641  1
  O  O52  1  0.666667  0.333333  0.770748  1
  O  O53  1  0.333333  0.666667  0.729252  1
  O  O54  1  0.333333  0.666667  0.229252  1
  O  O55  1  0.666667  0.333333  0.270748  1
  Na  Na56  1  0.691892  0.128816  0.875514  1
  Na  Na57  1  0.871184  0.563077  0.875514  1
  Na  Na58  1  0.436923  0.308108  0.875514  1
  Na  Na59  1  0.563077  0.871184  0.624486  1
  Na  Na60  1  0.308108  0.436923  0.624486  1
  Na  Na61  1  0.128816  0.691892  0.624486  1
  Na  Na62  1  0.308108  0.871184  0.124486  1
  Na  Na63  1  0.128816  0.436923  0.124486  1
  Na  Na64  1  0.563077  0.691892  0.124486  1
  Na  Na65  1  0.436923  0.128816  0.375514  1
  Na  Na66  1  0.691892  0.563077  0.375514  1
  Na  Na67  1  0.871184  0.308108  0.375514  1
  Na  Na68  1  0.000000  0.000000  0.500000  1
  Na  Na69  1  0.000000  0.000000  0.000000  1
  Na  Na70  1  0.000000  0.000000  0.750000  1
  Na  Na71  1  0.000000  0.000000  0.250000  1
  U  U72  1  0.666667  0.333333  0.629593  1
  U  U73  1  0.333333  0.666667  0.870407  1
  U  U74  1  0.333333  0.666667  0.370407  1
  U  U75  1  0.666667  0.333333  0.129593  1
