# generated using pymatgen
data_Ca3Nb2CoO9
_symmetry_space_group_name_H-M   'P 1'
_cell_length_a   5.50045123
_cell_length_b   9.72595518
_cell_length_c   13.88612111
_cell_angle_alpha   91.06043345
_cell_angle_beta   90.00000000
_cell_angle_gamma   90.00000000
_symmetry_Int_Tables_number   1
_chemical_formula_structural   Ca3Nb2CoO9
_chemical_formula_sum   'Ca12 Nb8 Co4 O36'
_cell_volume   742.74056450
_cell_formula_units_Z   4
loop_
 _symmetry_equiv_pos_site_id
 _symmetry_equiv_pos_as_xyz
  1  'x, y, z'
loop_
 _atom_site_type_symbol
 _atom_site_label
 _atom_site_symmetry_multiplicity
 _atom_site_fract_x
 _atom_site_fract_y
 _atom_site_fract_z
 _atom_site_occupancy
  Ca  Ca0  1  0.514210  0.149270  0.600342  1
  Ca  Ca1  1  0.007839  0.014289  0.227283  1
  Ca  Ca2  1  0.985790  0.649270  0.100342  1
  Ca  Ca3  1  0.492161  0.514289  0.727283  1
  Ca  Ca4  1  0.018254  0.690770  0.568143  1
  Ca  Ca5  1  0.485790  0.850730  0.399658  1
  Ca  Ca6  1  0.507839  0.485711  0.272717  1
  Ca  Ca7  1  0.014210  0.350730  0.899658  1
  Ca  Ca8  1  0.518254  0.809230  0.931857  1
  Ca  Ca9  1  0.481746  0.190770  0.068143  1
  Ca  Ca10  1  0.981746  0.309230  0.431857  1
  Ca  Ca11  1  0.992161  0.985711  0.772717  1
  Nb  Nb12  1  0.989602  0.333145  0.159921  1
  Nb  Nb13  1  0.996774  0.663752  0.339578  1
  Nb  Nb14  1  0.010398  0.666855  0.840079  1
  Nb  Nb15  1  0.510398  0.833145  0.659921  1
  Nb  Nb16  1  0.003226  0.336248  0.660422  1
  Nb  Nb17  1  0.496774  0.836248  0.160422  1
  Nb  Nb18  1  0.489602  0.166855  0.340079  1
  Nb  Nb19  1  0.503226  0.163752  0.839578  1
  Co  Co20  1  0.500000  0.500000  0.500000  1
  Co  Co21  1  0.000000  0.000000  0.000000  1
  Co  Co22  1  0.500000  0.500000  0.000000  1
  Co  Co23  1  0.000000  0.000000  0.500000  1
  O  O24  1  0.191524  0.470194  0.590405  1
  O  O25  1  0.299738  0.567468  0.880365  1
  O  O26  1  0.701980  0.367300  0.588109  1
  O  O27  1  0.201980  0.132700  0.911891  1
  O  O28  1  0.190188  0.394106  0.052664  1
  O  O29  1  0.406814  0.010066  0.738071  1
  O  O30  1  0.298020  0.632700  0.411891  1
  O  O31  1  0.093186  0.510066  0.238071  1
  O  O32  1  0.101177  0.839553  0.904511  1
  O  O33  1  0.402996  0.683551  0.075010  1
  O  O34  1  0.798020  0.867300  0.088109  1
  O  O35  1  0.799738  0.932532  0.619635  1
  O  O36  1  0.708032  0.766614  0.780957  1
  O  O37  1  0.898823  0.160447  0.095489  1
  O  O38  1  0.808476  0.529806  0.409595  1
  O  O39  1  0.794621  0.203100  0.749149  1
  O  O40  1  0.700262  0.432532  0.119635  1
  O  O41  1  0.902996  0.816449  0.424990  1
  O  O42  1  0.208032  0.733386  0.719043  1
  O  O43  1  0.690188  0.105894  0.447336  1
  O  O44  1  0.309812  0.894106  0.552664  1
  O  O45  1  0.200262  0.067468  0.380365  1
  O  O46  1  0.906814  0.489934  0.761929  1
  O  O47  1  0.294621  0.296900  0.750851  1
  O  O48  1  0.205379  0.796900  0.250851  1
  O  O49  1  0.691524  0.029806  0.909595  1
  O  O50  1  0.601177  0.660447  0.595489  1
  O  O51  1  0.809812  0.605894  0.947336  1
  O  O52  1  0.291968  0.233386  0.219043  1
  O  O53  1  0.398823  0.339553  0.404511  1
  O  O54  1  0.097004  0.183551  0.575010  1
  O  O55  1  0.791968  0.266614  0.280957  1
  O  O56  1  0.705379  0.703100  0.249149  1
  O  O57  1  0.593186  0.989934  0.261929  1
  O  O58  1  0.597004  0.316449  0.924990  1
  O  O59  1  0.308476  0.970194  0.090405  1
