# generated using pymatgen
data_Pr10US16
_symmetry_space_group_name_H-M   'P 1'
_cell_length_a   14.92886568
_cell_length_b   8.63694857
_cell_length_c   8.58354496
_cell_angle_alpha   90.00000000
_cell_angle_beta   54.90296096
_cell_angle_gamma   54.65206483
_symmetry_Int_Tables_number   1
_chemical_formula_structural   Pr10US16
_chemical_formula_sum   'Pr10 U1 S16'
_cell_volume   640.30573249
_cell_formula_units_Z   1
loop_
 _symmetry_equiv_pos_site_id
 _symmetry_equiv_pos_as_xyz
  1  'x, y, z'
loop_
 _atom_site_type_symbol
 _atom_site_label
 _atom_site_symmetry_multiplicity
 _atom_site_fract_x
 _atom_site_fract_y
 _atom_site_fract_z
 _atom_site_occupancy
  Pr  Pr0  1  0.125698  0.630726  0.359986  1
  Pr  Pr1  1  0.250000  0.250000  0.624021  1
  Pr  Pr2  1  0.493575  0.382123  0.270741  1
  Pr  Pr3  1  0.374302  0.869274  0.111382  1
  Pr  Pr4  1  0.494280  0.139036  0.752021  1
  Pr  Pr5  1  0.616685  0.627595  0.387014  1
  Pr  Pr6  1  0.750000  0.250000  0.625979  1
  Pr  Pr7  1  0.005720  0.360964  0.240581  1
  Pr  Pr8  1  0.883315  0.872405  0.120384  1
  Pr  Pr9  1  0.006425  0.117877  0.757891  1
  U  U10  1  0.750000  0.750000  0.875000  1
  S  S11  1  0.170075  0.496425  -0.002001  1
  S  S12  1  0.068736  0.363021  0.504740  1
  S  S13  1  0.067556  0.010767  0.372318  1
  S  S14  1  0.431264  0.136979  0.142211  1
  S  S15  1  0.432444  0.489233  0.007430  1
  S  S16  1  0.171677  0.645879  0.638449  1
  S  S17  1  0.329925  0.003575  0.838149  1
  S  S18  1  0.328323  0.854121  0.481803  1
  S  S19  1  0.681757  0.499507  0.994767  1
  S  S20  1  0.583501  0.336574  0.498425  1
  S  S21  1  0.578081  0.995903  0.342866  1
  S  S22  1  0.916499  0.163426  0.165427  1
  S  S23  1  0.921919  0.504097  -0.000972  1
  S  S24  1  0.676017  0.652064  0.653036  1
  S  S25  1  0.818243  0.000493  0.858281  1
  S  S26  1  0.823983  0.847936  0.505069  1
