# generated using pymatgen
data_H9BrO4
_symmetry_space_group_name_H-M   'P 1'
_cell_length_a   7.13028528
_cell_length_b   11.65459777
_cell_length_c   7.24005957
_cell_angle_alpha   90.00000000
_cell_angle_beta   108.36088750
_cell_angle_gamma   90.00000000
_symmetry_Int_Tables_number   1
_chemical_formula_structural   H9BrO4
_chemical_formula_sum   'H36 Br4 O16'
_cell_volume   571.02393421
_cell_formula_units_Z   4
loop_
 _symmetry_equiv_pos_site_id
 _symmetry_equiv_pos_as_xyz
  1  'x, y, z'
loop_
 _atom_site_type_symbol
 _atom_site_label
 _atom_site_symmetry_multiplicity
 _atom_site_fract_x
 _atom_site_fract_y
 _atom_site_fract_z
 _atom_site_occupancy
  H  H0  1  0.218646  0.252831  0.828235  1
  H  H1  1  0.352297  0.328695  0.005123  1
  H  H2  1  0.647703  0.828695  0.994877  1
  H  H3  1  0.781354  0.752831  0.171765  1
  H  H4  1  0.980670  0.183460  0.157930  1
  H  H5  1  0.832639  0.261122  0.972868  1
  H  H6  1  0.093504  0.266927  0.036749  1
  H  H7  1  0.019330  0.683460  0.842070  1
  H  H8  1  0.906496  0.766927  0.963251  1
  H  H9  1  0.167361  0.761122  0.027132  1
  H  H10  1  0.670666  0.258905  0.687020  1
  H  H11  1  0.587242  0.178220  0.820549  1
  H  H12  1  0.329334  0.758905  0.312980  1
  H  H13  1  0.412758  0.678220  0.179451  1
  H  H14  1  0.687679  0.320034  0.382449  1
  H  H15  1  0.640518  0.184328  0.390773  1
  H  H16  1  0.312321  0.820034  0.617551  1
  H  H17  1  0.359482  0.684328  0.609227  1
  H  H18  1  0.142078  0.155998  0.522488  1
  H  H19  1  0.966862  0.234211  0.537841  1
  H  H20  1  0.857922  0.655998  0.477512  1
  H  H21  1  0.033138  0.734211  0.462159  1
  H  H22  1  0.366141  0.389784  0.384023  1
  H  H23  1  0.204561  0.335521  0.479481  1
  H  H24  1  0.633859  0.889784  0.615977  1
  H  H25  1  0.795439  0.835521  0.520519  1
  H  H26  1  0.544473  0.556166  0.828857  1
  H  H27  1  0.401759  0.503527  0.635099  1
  H  H28  1  0.455527  0.056166  0.171143  1
  H  H29  1  0.598241  0.003527  0.364901  1
  H  H30  1  0.870934  0.510190  0.184950  1
  H  H31  1  0.012274  0.516955  0.043078  1
  H  H32  1  0.113781  0.469759  0.286550  1
  H  H33  1  0.129066  0.010190  0.815050  1
  H  H34  1  0.987726  0.016955  0.956922  1
  H  H35  1  0.886219  0.969759  0.713450  1
  Br  Br36  1  0.995218  0.512649  0.752733  1
  Br  Br37  1  0.004782  0.012649  0.247267  1
  Br  Br38  1  0.571460  0.480204  0.179878  1
  Br  Br39  1  0.428540  0.980204  0.820122  1
  O  O40  1  0.264799  0.261056  0.973040  1
  O  O41  1  0.735201  0.761056  0.026960  1
  O  O42  1  0.969533  0.261780  0.091076  1
  O  O43  1  0.030467  0.761780  0.908924  1
  O  O44  1  0.648946  0.253508  0.817309  1
  O  O45  1  0.351054  0.753508  0.182691  1
  O  O46  1  0.716777  0.252127  0.468654  1
  O  O47  1  0.283223  0.752127  0.531346  1
  O  O48  1  0.115611  0.229959  0.575159  1
  O  O49  1  0.884389  0.729959  0.424841  1
  O  O50  1  0.254939  0.407674  0.430770  1
  O  O51  1  0.745061  0.907674  0.569230  1
  O  O52  1  0.482212  0.571434  0.690821  1
  O  O53  1  0.517788  0.071434  0.309179  1
  O  O54  1  0.010416  0.526208  0.184260  1
  O  O55  1  0.989584  0.026208  0.815740  1
