# generated using pymatgen
data_SrLaCuRuO6
_symmetry_space_group_name_H-M   'P 1'
_cell_length_a   5.57417176
_cell_length_b   5.56290709
_cell_length_c   38.99301150
_cell_angle_alpha   61.23295312
_cell_angle_beta   61.21411544
_cell_angle_gamma   61.27543807
_symmetry_Int_Tables_number   1
_chemical_formula_structural   SrLaCuRuO6
_chemical_formula_sum   'Sr7 La7 Cu7 Ru7 O42'
_cell_volume   878.83255312
_cell_formula_units_Z   7
loop_
 _symmetry_equiv_pos_site_id
 _symmetry_equiv_pos_as_xyz
  1  'x, y, z'
loop_
 _atom_site_type_symbol
 _atom_site_label
 _atom_site_symmetry_multiplicity
 _atom_site_fract_x
 _atom_site_fract_y
 _atom_site_fract_z
 _atom_site_occupancy
  Sr  Sr0  1  0.259161  0.260799  0.031580  1
  Sr  Sr1  1  0.247648  0.246284  0.179575  1
  Sr  Sr2  1  0.248544  0.249804  0.319870  1
  Sr  Sr3  1  0.751867  0.753138  0.106259  1
  Sr  Sr4  1  0.246403  0.245542  0.463785  1
  Sr  Sr5  1  0.246280  0.244564  0.606548  1
  Sr  Sr6  1  0.248588  0.250758  0.748264  1
  La  La7  1  0.745209  0.748769  0.248089  1
  La  La8  1  0.740312  0.741137  0.392219  1
  La  La9  1  0.743490  0.743874  0.534250  1
  La  La10  1  0.238549  0.229735  0.898472  1
  La  La11  1  0.740649  0.743063  0.676988  1
  La  La12  1  0.750746  0.744226  0.820641  1
  La  La13  1  0.738360  0.752303  0.966581  1
  Cu  Cu14  1  0.014001  0.991954  0.999256  1
  Cu  Cu15  1  0.502750  0.491519  0.212944  1
  Cu  Cu16  1  0.495303  0.492599  0.356005  1
  Cu  Cu17  1  0.491830  0.494869  0.498979  1
  Cu  Cu18  1  0.493018  0.491991  0.641736  1
  Cu  Cu19  1  0.493945  0.497711  0.785122  1
  Cu  Cu20  1  0.503992  0.494909  0.929022  1
  Ru  Ru21  1  0.001028  0.002079  0.142240  1
  Ru  Ru22  1  0.995754  0.996761  0.285797  1
  Ru  Ru23  1  0.500271  0.498694  0.071486  1
  Ru  Ru24  1  0.997405  0.996195  0.571073  1
  Ru  Ru25  1  0.997687  0.997559  0.427776  1
  Ru  Ru26  1  0.994193  0.997717  0.714300  1
  Ru  Ru27  1  0.001520  0.996612  0.856652  1
  O  O28  1  0.198484  0.735460  0.045424  1
  O  O29  1  0.308179  0.193273  0.106981  1
  O  O30  1  0.256182  0.691668  0.115331  1
  O  O31  1  0.737205  0.322447  0.027091  1
  O  O32  1  0.170919  0.764385  0.187316  1
  O  O33  1  0.683505  0.799223  0.035493  1
  O  O34  1  0.322574  0.164648  0.252631  1
  O  O35  1  0.810135  0.247052  0.097918  1
  O  O36  1  0.243973  0.705793  0.258284  1
  O  O37  1  0.766719  0.306073  0.167630  1
  O  O38  1  0.160956  0.766050  0.332321  1
  O  O39  1  0.698589  0.818864  0.177881  1
  O  O40  1  0.325808  0.163969  0.395402  1
  O  O41  1  0.811907  0.252238  0.242860  1
  O  O42  1  0.253396  0.694866  0.402290  1
  O  O43  1  0.766522  0.330369  0.308510  1
  O  O44  1  0.164699  0.768187  0.474650  1
  O  O45  1  0.692005  0.818621  0.322140  1
  O  O46  1  0.324360  0.162320  0.538406  1
  O  O47  1  0.819334  0.252810  0.384732  1
  O  O48  1  0.251712  0.695956  0.545281  1
  O  O49  1  0.768148  0.322793  0.452048  1
  O  O50  1  0.162769  0.767615  0.617879  1
  O  O51  1  0.698138  0.815818  0.464629  1
  O  O52  1  0.322570  0.164911  0.681687  1
  O  O53  1  0.816165  0.250127  0.528198  1
  O  O54  1  0.250135  0.702526  0.687701  1
  O  O55  1  0.769829  0.325346  0.594520  1
  O  O56  1  0.167457  0.768277  0.760900  1
  O  O57  1  0.695845  0.816699  0.608032  1
  O  O58  1  0.324282  0.155553  0.825164  1
  O  O59  1  0.814174  0.250328  0.671319  1
  O  O60  1  0.240149  0.665972  0.835656  1
  O  O61  1  0.767395  0.329226  0.737472  1
  O  O62  1  0.156977  0.763051  0.904290  1
  O  O63  1  0.696153  0.817569  0.752674  1
  O  O64  1  0.314329  0.192258  0.962062  1
  O  O65  1  0.827129  0.238040  0.812981  1
  O  O66  1  0.262430  0.712341  0.969060  1
  O  O67  1  0.764335  0.321677  0.881074  1
  O  O68  1  0.680561  0.829937  0.891577  1
  O  O69  1  0.805365  0.240501  0.956992  1
