# generated using pymatgen
data_Y5Ga3
_symmetry_space_group_name_H-M   'P 1'
_cell_length_a   7.65658570
_cell_length_b   7.65658570
_cell_length_c   14.23936276
_cell_angle_alpha   90.00000000
_cell_angle_beta   90.00000000
_cell_angle_gamma   90.00000000
_symmetry_Int_Tables_number   1
_chemical_formula_structural   Y5Ga3
_chemical_formula_sum   'Y20 Ga12'
_cell_volume   834.75850013
_cell_formula_units_Z   4
loop_
 _symmetry_equiv_pos_site_id
 _symmetry_equiv_pos_as_xyz
  1  'x, y, z'
loop_
 _atom_site_type_symbol
 _atom_site_label
 _atom_site_symmetry_multiplicity
 _atom_site_fract_x
 _atom_site_fract_y
 _atom_site_fract_z
 _atom_site_occupancy
  Y  Y0  1  0.581916  0.079996  0.897051  1
  Y  Y1  1  0.920004  0.418084  0.602949  1
  Y  Y2  1  0.581916  0.420004  0.397051  1
  Y  Y3  1  0.918084  0.079996  0.397051  1
  Y  Y4  1  0.079996  0.581916  0.397051  1
  Y  Y5  1  0.579996  0.418084  0.102949  1
  Y  Y6  1  0.079996  0.918084  0.897051  1
  Y  Y7  1  0.920004  0.081916  0.102949  1
  Y  Y8  1  0.250000  0.250000  0.753719  1
  Y  Y9  1  0.750000  0.750000  0.246281  1
  Y  Y10  1  0.081916  0.920004  0.602949  1
  Y  Y11  1  0.418084  0.920004  0.102949  1
  Y  Y12  1  0.418084  0.579996  0.602949  1
  Y  Y13  1  0.750000  0.750000  0.746281  1
  Y  Y14  1  0.579996  0.081916  0.602949  1
  Y  Y15  1  0.420004  0.581916  0.897051  1
  Y  Y16  1  0.918084  0.420004  0.897051  1
  Y  Y17  1  0.250000  0.250000  0.253719  1
  Y  Y18  1  0.420004  0.918084  0.397051  1
  Y  Y19  1  0.081916  0.579996  0.102949  1
  Ga  Ga20  1  0.373058  0.626942  0.250000  1
  Ga  Ga21  1  0.126942  0.873058  0.250000  1
  Ga  Ga22  1  0.750000  0.750000  0.002426  1
  Ga  Ga23  1  0.250000  0.250000  0.997574  1
  Ga  Ga24  1  0.873058  0.373058  0.250000  1
  Ga  Ga25  1  0.126942  0.626942  0.750000  1
  Ga  Ga26  1  0.250000  0.250000  0.497574  1
  Ga  Ga27  1  0.750000  0.750000  0.502426  1
  Ga  Ga28  1  0.873058  0.126942  0.750000  1
  Ga  Ga29  1  0.626942  0.126942  0.250000  1
  Ga  Ga30  1  0.373058  0.873058  0.750000  1
  Ga  Ga31  1  0.626942  0.373058  0.750000  1
