# generated using pymatgen
data_Bi5(S2Cl)3
_symmetry_space_group_name_H-M   'P 1'
_cell_length_a   12.23483863
_cell_length_b   12.21951902
_cell_length_c   12.31528562
_cell_angle_alpha   109.32511788
_cell_angle_beta   109.65654164
_cell_angle_gamma   108.77118220
_symmetry_Int_Tables_number   1
_chemical_formula_structural   Bi5(S2Cl)3
_chemical_formula_sum   'Bi20 S24 Cl12'
_cell_volume   1428.71964268
_cell_formula_units_Z   4
loop_
 _symmetry_equiv_pos_site_id
 _symmetry_equiv_pos_as_xyz
  1  'x, y, z'
loop_
 _atom_site_type_symbol
 _atom_site_label
 _atom_site_symmetry_multiplicity
 _atom_site_fract_x
 _atom_site_fract_y
 _atom_site_fract_z
 _atom_site_occupancy
  Bi  Bi0  1  0.104119  0.976236  0.687666  1
  Bi  Bi1  1  0.047881  0.307819  0.896127  1
  Bi  Bi2  1  0.049226  0.483510  0.314833  1
  Bi  Bi3  1  0.227200  0.334406  0.645290  1
  Bi  Bi4  1  0.370181  0.777411  0.631773  1
  Bi  Bi5  1  0.298684  0.894394  0.031044  1
  Bi  Bi6  1  0.536226  0.698787  0.960325  1
  Bi  Bi7  1  0.290364  0.303036  0.299854  1
  Bi  Bi8  1  0.387466  0.628921  0.234413  1
  Bi  Bi9  1  0.667740  0.975487  0.557570  1
  Bi  Bi10  1  0.318442  0.007923  0.430031  1
  Bi  Bi11  1  0.646948  0.370888  0.780461  1
  Bi  Bi12  1  0.698046  0.709056  0.729874  1
  Bi  Bi13  1  0.414395  0.310297  0.990404  1
  Bi  Bi14  1  0.705710  0.151995  0.972727  1
  Bi  Bi15  1  0.605568  0.202885  0.363262  1
  Bi  Bi16  1  0.757575  0.656475  0.366930  1
  Bi  Bi17  1  0.029379  0.592573  0.689548  1
  Bi  Bi18  1  0.986126  0.687375  0.103385  1
  Bi  Bi19  1  0.900956  0.042954  0.344416  1
  S  S20  1  0.077043  0.833430  0.836351  1
  S  S21  1  0.053719  0.667530  0.523076  1
  S  S22  1  0.010876  0.136444  0.613827  1
  S  S23  1  0.159702  0.922395  0.165010  1
  S  S24  1  0.294197  0.668887  0.796351  1
  S  S25  1  0.161975  0.152740  0.922677  1
  S  S26  1  0.324011  0.473838  0.958266  1
  S  S27  1  0.207372  0.712022  0.338851  1
  S  S28  1  0.259128  0.488485  0.477729  1
  S  S29  1  0.152772  0.154153  0.401752  1
  S  S30  1  0.160873  0.398714  0.153004  1
  S  S31  1  0.601454  0.849967  0.847302  1
  S  S32  1  0.354765  0.215606  0.728141  1
  S  S33  1  0.476406  0.957969  0.339534  1
  S  S34  1  0.514525  0.522867  0.739499  1
  S  S35  1  0.523551  0.733577  0.516909  1
  S  S36  1  0.473430  0.261975  0.488639  1
  S  S37  1  0.486686  0.471331  0.266793  1
  S  S38  1  0.528441  0.039616  0.670271  1
  S  S39  1  0.648510  0.787605  0.286733  1
  S  S40  1  0.396417  0.154701  0.158237  1
  S  S41  1  0.844597  0.597403  0.843484  1
  S  S42  1  0.845736  0.840264  0.605316  1
  S  S43  1  0.853523  0.370986  0.979134  1
  Cl  Cl44  1  0.393995  0.008773  0.865640  1
  Cl  Cl45  1  0.135526  0.610380  0.001720  1
  Cl  Cl46  1  0.736754  0.505446  0.522496  1
  Cl  Cl47  1  0.780946  0.270058  0.647012  1
  Cl  Cl48  1  0.659266  0.524287  0.036863  1
  Cl  Cl49  1  0.827314  0.836907  0.082054  1
  Cl  Cl50  1  0.711322  0.326562  0.182843  1
  Cl  Cl51  1  0.846442  0.070021  0.837698  1
  Cl  Cl52  1  0.618926  0.998329  0.152526  1
  Cl  Cl53  1  0.980180  0.848901  0.372697  1
  Cl  Cl54  1  0.942314  0.307286  0.458534  1
  Cl  Cl55  1  0.915071  0.168117  0.153098  1
