# generated using pymatgen
data_Er4Si2S3O7
_symmetry_space_group_name_H-M   'P 1'
_cell_length_a   10.67867345
_cell_length_b   10.67867345
_cell_length_c   10.67867344
_cell_angle_alpha   101.14590389
_cell_angle_beta   113.78751759
_cell_angle_gamma   113.78751762
_symmetry_Int_Tables_number   1
_chemical_formula_structural   Er4Si2S3O7
_chemical_formula_sum   'Er16 Si8 S12 O28'
_cell_volume   922.87600781
_cell_formula_units_Z   4
loop_
 _symmetry_equiv_pos_site_id
 _symmetry_equiv_pos_as_xyz
  1  'x, y, z'
loop_
 _atom_site_type_symbol
 _atom_site_label
 _atom_site_symmetry_multiplicity
 _atom_site_fract_x
 _atom_site_fract_y
 _atom_site_fract_z
 _atom_site_occupancy
  O  O0  1  0.250000  0.399888  0.149888  1
  O  O1  1  0.750000  0.149888  0.399888  1
  O  O2  1  0.750000  0.600112  0.850112  1
  O  O3  1  0.250000  0.850112  0.600112  1
  O  O4  1  0.016278  0.826033  0.342311  1
  O  O5  1  0.483722  0.826033  0.809754  1
  O  O6  1  0.483722  0.657689  0.173967  1
  O  O7  1  0.983722  0.809754  0.826033  1
  O  O8  1  0.516278  0.342311  0.826033  1
  O  O9  1  0.516278  0.173967  0.190246  1
  O  O10  1  0.983722  0.173967  0.657689  1
  O  O11  1  0.016278  0.190246  0.173967  1
  O  O12  1  0.767024  0.916753  0.432561  1
  O  O13  1  0.732976  0.165538  0.149730  1
  O  O14  1  0.732976  0.567439  0.083247  1
  O  O15  1  0.984192  0.149730  0.916753  1
  O  O16  1  0.515808  0.432561  0.165538  1
  O  O17  1  0.515808  0.083247  0.850270  1
  O  O18  1  0.984192  0.834462  0.567439  1
  O  O19  1  0.767024  0.850270  0.834462  1
  O  O20  1  0.232976  0.083247  0.567439  1
  O  O21  1  0.267024  0.834462  0.850270  1
  O  O22  1  0.267024  0.432561  0.916753  1
  O  O23  1  0.015808  0.850270  0.083247  1
  O  O24  1  0.484192  0.567439  0.834462  1
  O  O25  1  0.484192  0.916753  0.149730  1
  O  O26  1  0.015808  0.165538  0.432561  1
  O  O27  1  0.232976  0.149730  0.165538  1
  Si  Si28  1  0.375201  0.904445  0.779646  1
  Si  Si29  1  0.124799  0.904445  0.529244  1
  Si  Si30  1  0.124799  0.220354  0.095555  1
  Si  Si31  1  0.624799  0.529244  0.904445  1
  Si  Si32  1  0.875201  0.779646  0.904445  1
  Si  Si33  1  0.875201  0.095555  0.470756  1
  Si  Si34  1  0.624799  0.095555  0.220354  1
  Si  Si35  1  0.375201  0.470756  0.095555  1
  S  S36  1  0.250000  0.125000  0.875000  1
  S  S37  1  0.750000  0.875000  0.125000  1
  S  S38  1  0.750000  0.375000  0.625000  1
  S  S39  1  0.250000  0.625000  0.375000  1
  S  S40  1  0.854337  0.500000  0.354337  1
  S  S41  1  0.854337  0.354337  0.000000  1
  S  S42  1  0.645663  0.645663  0.500000  1
  S  S43  1  0.645663  0.000000  0.645663  1
  S  S44  1  0.145663  0.500000  0.645663  1
  S  S45  1  0.145663  0.645663  0.000000  1
  S  S46  1  0.354337  0.354337  0.500000  1
  S  S47  1  0.354337  0.000000  0.354337  1
  Er  Er48  1  0.094823  0.047411  0.297411  1
  Er  Er49  1  0.250000  0.297411  0.702589  1
  Er  Er50  1  0.250000  0.952589  0.047411  1
  Er  Er51  1  0.405177  0.702589  0.952589  1
  Er  Er52  1  0.905177  0.952589  0.702589  1
  Er  Er53  1  0.750000  0.702589  0.297411  1
  Er  Er54  1  0.750000  0.047411  0.952589  1
  Er  Er55  1  0.594823  0.297411  0.047411  1
  Er  Er56  1  0.014542  0.658824  0.173366  1
  Er  Er57  1  0.485458  0.658824  0.644283  1
  Er  Er58  1  0.485458  0.826634  0.341176  1
  Er  Er59  1  0.985458  0.644283  0.658824  1
  Er  Er60  1  0.514542  0.173366  0.658824  1
  Er  Er61  1  0.514542  0.341176  0.355717  1
  Er  Er62  1  0.985458  0.341176  0.826634  1
  Er  Er63  1  0.014542  0.355717  0.341176  1
