# generated using pymatgen
data_NbSe2
_symmetry_space_group_name_H-M   'P 1'
_cell_length_a   3.43765055
_cell_length_b   3.43764976
_cell_length_c   29.27351892
_cell_angle_alpha   89.99988624
_cell_angle_beta   90.00005569
_cell_angle_gamma   119.99993266
_symmetry_Int_Tables_number   1
_chemical_formula_structural   NbSe2
_chemical_formula_sum   'Nb4 Se8'
_cell_volume   299.59130974
_cell_formula_units_Z   4
loop_
 _symmetry_equiv_pos_site_id
 _symmetry_equiv_pos_as_xyz
  1  'x, y, z'
loop_
 _atom_site_type_symbol
 _atom_site_label
 _atom_site_symmetry_multiplicity
 _atom_site_fract_x
 _atom_site_fract_y
 _atom_site_fract_z
 _atom_site_occupancy
  Nb  Nb0  1  0.999987  0.999988  0.000002  1
  Nb  Nb1  1  0.000001  1.000000  0.254444  1
  Nb  Nb2  1  0.333333  0.666666  0.499985  1
  Nb  Nb3  1  -0.000001  0.000001  0.745563  1
  Se  Se4  1  0.000005  0.000004  0.082456  1
  Se  Se5  1  0.666666  0.333334  0.441799  1
  Se  Se6  1  0.666668  0.333334  0.803757  1
  Se  Se7  1  0.333334  0.666667  0.312762  1
  Se  Se8  1  0.666669  0.333336  0.558192  1
  Se  Se9  1  0.666666  0.333333  0.196242  1
  Se  Se10  1  0.000004  0.000004  0.917548  1
  Se  Se11  1  0.333334  0.666668  0.687250  1
