# generated using pymatgen
data_MgSiO3
_symmetry_space_group_name_H-M   'P 1'
_cell_length_a   4.83270824
_cell_length_b   11.02977850
_cell_length_c   10.08889770
_cell_angle_alpha   90.00000000
_cell_angle_beta   90.00000000
_cell_angle_gamma   90.00000000
_symmetry_Int_Tables_number   1
_chemical_formula_structural   MgSiO3
_chemical_formula_sum   'Mg8 Si8 O24'
_cell_volume   537.77559088
_cell_formula_units_Z   8
loop_
 _symmetry_equiv_pos_site_id
 _symmetry_equiv_pos_as_xyz
  1  'x, y, z'
loop_
 _atom_site_type_symbol
 _atom_site_label
 _atom_site_symmetry_multiplicity
 _atom_site_fract_x
 _atom_site_fract_y
 _atom_site_fract_z
 _atom_site_occupancy
  Mg  Mg0  1  0.287056  0.464009  0.973372  1
  Mg  Mg1  1  0.648558  0.026900  0.255900  1
  Mg  Mg2  1  0.851442  0.526900  0.755900  1
  Mg  Mg3  1  0.148558  0.473100  0.255900  1
  Mg  Mg4  1  0.712944  0.535991  0.473372  1
  Mg  Mg5  1  0.212944  0.964009  0.473372  1
  Mg  Mg6  1  0.787056  0.035991  0.973372  1
  Mg  Mg7  1  0.351442  0.973100  0.755900  1
  Si  Si8  1  0.570798  0.328633  0.260603  1
  Si  Si9  1  0.070798  0.171367  0.260603  1
  Si  Si10  1  0.890502  0.667327  0.174788  1
  Si  Si11  1  0.390502  0.832673  0.174788  1
  Si  Si12  1  0.609498  0.167327  0.674788  1
  Si  Si13  1  0.429202  0.671367  0.760603  1
  Si  Si14  1  -0.070798  0.828633  0.760603  1
  Si  Si15  1  0.109498  0.332673  0.674788  1
  O  O16  1  0.413966  0.191025  0.280053  1
  O  O17  1  0.471543  0.425572  0.371432  1
  O  O18  1  0.924462  0.610875  0.326099  1
  O  O19  1  0.434286  0.294659  0.650836  1
  O  O20  1  0.586034  0.808975  0.780053  1
  O  O21  1  0.934286  0.205341  0.650836  1
  O  O22  1  0.938113  0.121007  0.125667  1
  O  O23  1  0.438113  0.378993  0.125667  1
  O  O24  1  0.971543  0.074428  0.371432  1
  O  O25  1  0.565714  0.705341  0.150836  1
  O  O26  1  0.028457  0.925572  0.871432  1
  O  O27  1  0.086034  0.691025  0.780053  1
  O  O28  1  0.424462  0.889125  0.326099  1
  O  O29  1  0.061887  0.878993  0.625667  1
  O  O30  1  0.983501  0.443703  0.585350  1
  O  O31  1  0.016499  0.556297  0.085350  1
  O  O32  1  0.561887  0.621007  0.625667  1
  O  O33  1  0.575538  0.110875  0.826099  1
  O  O34  1  0.528457  0.574428  0.871432  1
  O  O35  1  0.065714  0.794659  0.150836  1
  O  O36  1  0.516499  0.943703  0.085350  1
  O  O37  1  0.913966  0.308975  0.280053  1
  O  O38  1  0.075538  0.389125  0.826099  1
  O  O39  1  0.483501  0.056297  0.585350  1
