# generated using pymatgen
data_Nb3TlVCl11
_symmetry_space_group_name_H-M   'P 1'
_cell_length_a   6.88929684
_cell_length_b   13.67558123
_cell_length_c   17.22034189
_cell_angle_alpha   90.00000000
_cell_angle_beta   90.00000000
_cell_angle_gamma   90.00000000
_symmetry_Int_Tables_number   1
_chemical_formula_structural   Nb3TlVCl11
_chemical_formula_sum   'Nb12 Tl4 V4 Cl44'
_cell_volume   1622.41689710
_cell_formula_units_Z   4
loop_
 _symmetry_equiv_pos_site_id
 _symmetry_equiv_pos_as_xyz
  1  'x, y, z'
loop_
 _atom_site_type_symbol
 _atom_site_label
 _atom_site_symmetry_multiplicity
 _atom_site_fract_x
 _atom_site_fract_y
 _atom_site_fract_z
 _atom_site_occupancy
  Nb  Nb0  1  0.544257  0.747635  0.013002  1
  Nb  Nb1  1  0.955743  0.747635  0.013002  1
  Nb  Nb2  1  0.044257  0.752365  0.513002  1
  Nb  Nb3  1  0.455743  0.252365  0.986998  1
  Nb  Nb4  1  0.544257  0.247635  0.486998  1
  Nb  Nb5  1  0.250000  0.309960  0.852331  1
  Nb  Nb6  1  0.955743  0.247635  0.486998  1
  Nb  Nb7  1  0.455743  0.752365  0.513002  1
  Nb  Nb8  1  0.750000  0.690040  0.147669  1
  Nb  Nb9  1  0.750000  0.190040  0.352331  1
  Nb  Nb10  1  0.044257  0.252365  0.986998  1
  Nb  Nb11  1  0.250000  0.809960  0.647669  1
  Tl  Tl12  1  0.250000  0.021258  0.232732  1
  Tl  Tl13  1  0.750000  0.978742  0.767268  1
  Tl  Tl14  1  0.250000  0.521258  0.267268  1
  Tl  Tl15  1  0.750000  0.478742  0.732732  1
  V  V16  1  0.250000  0.819787  0.835966  1
  V  V17  1  0.750000  0.180213  0.164034  1
  V  V18  1  0.250000  0.319787  0.664034  1
  V  V19  1  0.750000  0.680213  0.335966  1
  Cl  Cl20  1  0.750000  0.356550  0.408527  1
  Cl  Cl21  1  0.009494  0.247537  0.752151  1
  Cl  Cl22  1  0.995266  0.590482  0.080939  1
  Cl  Cl23  1  0.509494  0.252463  0.252151  1
  Cl  Cl24  1  0.504734  0.090482  0.419061  1
  Cl  Cl25  1  0.503905  0.390270  0.581544  1
  Cl  Cl26  1  0.004734  0.909518  0.580939  1
  Cl  Cl27  1  0.250000  0.958203  0.746458  1
  Cl  Cl28  1  0.750000  0.820088  0.427970  1
  Cl  Cl29  1  0.250000  0.643450  0.591473  1
  Cl  Cl30  1  0.250000  0.179912  0.572030  1
  Cl  Cl31  1  0.750000  0.177203  0.915983  1
  Cl  Cl32  1  0.503905  0.890270  0.918456  1
  Cl  Cl33  1  0.496095  0.109730  0.081544  1
  Cl  Cl34  1  0.250000  0.679912  0.927970  1
  Cl  Cl35  1  0.003905  0.109730  0.081544  1
  Cl  Cl36  1  0.250000  0.458203  0.753542  1
  Cl  Cl37  1  0.996095  0.890270  0.918456  1
  Cl  Cl38  1  0.996095  0.390270  0.581544  1
  Cl  Cl39  1  0.995266  0.090482  0.419061  1
  Cl  Cl40  1  0.496095  0.609730  0.418456  1
  Cl  Cl41  1  0.750000  0.320088  0.072030  1
  Cl  Cl42  1  0.750000  0.658925  0.919789  1
  Cl  Cl43  1  0.750000  0.856550  0.091473  1
  Cl  Cl44  1  0.250000  0.322797  0.415983  1
  Cl  Cl45  1  0.504734  0.590482  0.080939  1
  Cl  Cl46  1  0.750000  0.041797  0.253542  1
  Cl  Cl47  1  0.990506  0.752463  0.247849  1
  Cl  Cl48  1  0.495266  0.409518  0.919061  1
  Cl  Cl49  1  0.495266  0.909518  0.580939  1
  Cl  Cl50  1  0.750000  0.677203  0.584017  1
  Cl  Cl51  1  0.009494  0.747537  0.747849  1
  Cl  Cl52  1  0.990506  0.252463  0.252151  1
  Cl  Cl53  1  0.250000  0.143450  0.908527  1
  Cl  Cl54  1  0.250000  0.841075  0.419789  1
  Cl  Cl55  1  0.004734  0.409518  0.919061  1
  Cl  Cl56  1  0.003905  0.609730  0.418456  1
  Cl  Cl57  1  0.750000  0.158925  0.580211  1
  Cl  Cl58  1  0.490506  0.747537  0.747849  1
  Cl  Cl59  1  0.750000  0.541797  0.246458  1
  Cl  Cl60  1  0.509494  0.752463  0.247849  1
  Cl  Cl61  1  0.490506  0.247537  0.752151  1
  Cl  Cl62  1  0.250000  0.341075  0.080211  1
  Cl  Cl63  1  0.250000  0.822797  0.084017  1
