# generated using pymatgen
data_CoAg(NO3)3
_symmetry_space_group_name_H-M   'P 1'
_cell_length_a   7.42284409
_cell_length_b   7.80139693
_cell_length_c   13.10661241
_cell_angle_alpha   92.98841177
_cell_angle_beta   90.00000000
_cell_angle_gamma   90.00000000
_symmetry_Int_Tables_number   1
_chemical_formula_structural   CoAg(NO3)3
_chemical_formula_sum   'Co4 Ag4 N12 O36'
_cell_volume   757.95281665
_cell_formula_units_Z   4
loop_
 _symmetry_equiv_pos_site_id
 _symmetry_equiv_pos_as_xyz
  1  'x, y, z'
loop_
 _atom_site_type_symbol
 _atom_site_label
 _atom_site_symmetry_multiplicity
 _atom_site_fract_x
 _atom_site_fract_y
 _atom_site_fract_z
 _atom_site_occupancy
  Co  Co0  1  0.111707  0.680739  0.179097  1
  Co  Co1  1  0.611707  0.819261  0.320903  1
  Co  Co2  1  0.888293  0.319261  0.820903  1
  Co  Co3  1  0.388293  0.180739  0.679097  1
  Ag  Ag4  1  0.502858  0.272723  0.074087  1
  Ag  Ag5  1  0.002858  0.227277  0.425913  1
  Ag  Ag6  1  0.997142  0.772723  0.574087  1
  Ag  Ag7  1  0.497142  0.727277  0.925913  1
  N  N8  1  0.699964  0.116838  0.253691  1
  N  N9  1  0.727259  0.134987  0.633705  1
  N  N10  1  0.703523  0.566889  0.430541  1
  N  N11  1  0.272741  0.865013  0.366295  1
  N  N12  1  0.300036  0.883162  0.746309  1
  N  N13  1  0.296477  0.433111  0.569459  1
  N  N14  1  0.800036  0.616838  0.753691  1
  N  N15  1  0.203523  0.933111  0.069459  1
  N  N16  1  0.772741  0.634987  0.133705  1
  N  N17  1  0.199964  0.383162  0.246309  1
  N  N18  1  0.796477  0.066889  0.930541  1
  N  N19  1  0.227259  0.365013  0.866295  1
  O  O20  1  0.817347  0.720593  0.218346  1
  O  O21  1  0.417639  0.981670  0.790359  1
  O  O22  1  0.264235  0.777114  0.052725  1
  O  O23  1  0.744774  0.255446  0.219936  1
  O  O24  1  0.387053  0.388130  0.890539  1
  O  O25  1  0.735765  0.222886  0.947275  1
  O  O26  1  0.082361  0.481670  0.290359  1
  O  O27  1  0.086613  0.949360  0.140385  1
  O  O28  1  0.267981  0.439574  0.163515  1
  O  O29  1  0.595418  0.079530  0.580261  1
  O  O30  1  0.732019  0.560426  0.836485  1
  O  O31  1  0.404582  0.920470  0.419739  1
  O  O32  1  0.917639  0.518330  0.709641  1
  O  O33  1  0.742643  0.946984  0.980474  1
  O  O34  1  0.755226  0.755446  0.719936  1
  O  O35  1  0.767981  0.060426  0.336485  1
  O  O36  1  0.586613  0.550640  0.359615  1
  O  O37  1  0.682653  0.220593  0.718346  1
  O  O38  1  0.242643  0.553016  0.519526  1
  O  O39  1  0.235765  0.277114  0.552725  1
  O  O40  1  0.887053  0.111870  0.609461  1
  O  O41  1  0.317347  0.779407  0.281654  1
  O  O42  1  0.255226  0.744554  0.780064  1
  O  O43  1  0.913387  0.050640  0.859615  1
  O  O44  1  0.413387  0.449360  0.640385  1
  O  O45  1  0.244774  0.244554  0.280064  1
  O  O46  1  0.112947  0.888130  0.390539  1
  O  O47  1  0.182653  0.279407  0.781654  1
  O  O48  1  0.764235  0.722886  0.447275  1
  O  O49  1  0.612947  0.611870  0.109461  1
  O  O50  1  0.582361  0.018330  0.209641  1
  O  O51  1  0.095418  0.420470  0.919739  1
  O  O52  1  0.904582  0.579530  0.080261  1
  O  O53  1  0.257357  0.053016  0.019526  1
  O  O54  1  0.232019  0.939574  0.663515  1
  O  O55  1  0.757357  0.446984  0.480474  1
