# generated using pymatgen
data_KEu2CuS6
_symmetry_space_group_name_H-M   'P 1'
_cell_length_a   6.80730710
_cell_length_b   6.80730663
_cell_length_c   21.71574236
_cell_angle_alpha   96.62970085
_cell_angle_beta   96.62970038
_cell_angle_gamma   105.27195374
_symmetry_Int_Tables_number   1
_chemical_formula_structural   KEu2CuS6
_chemical_formula_sum   'K4 Eu8 Cu4 S24'
_cell_volume   953.03089902
_cell_formula_units_Z   4
loop_
 _symmetry_equiv_pos_site_id
 _symmetry_equiv_pos_as_xyz
  1  'x, y, z'
loop_
 _atom_site_type_symbol
 _atom_site_label
 _atom_site_symmetry_multiplicity
 _atom_site_fract_x
 _atom_site_fract_y
 _atom_site_fract_z
 _atom_site_occupancy
  Eu  Eu0  1  0.715656  0.465656  0.931312  1
  Eu  Eu1  1  0.284344  0.534344  0.068688  1
  Eu  Eu2  1  0.968207  0.218207  0.436413  1
  Eu  Eu3  1  0.218207  0.968207  0.936413  1
  Eu  Eu4  1  0.465656  0.715656  0.431312  1
  Eu  Eu5  1  0.534344  0.284344  0.568688  1
  Eu  Eu6  1  0.781793  0.031793  0.063587  1
  Eu  Eu7  1  0.031793  0.781793  0.563587  1
  K  K8  1  0.876026  0.123974  0.750000  1
  K  K9  1  0.373974  0.626026  0.750000  1
  K  K10  1  0.626026  0.373974  0.250000  1
  K  K11  1  0.123974  0.876026  0.250000  1
  Cu  Cu12  1  0.209346  0.459346  0.918692  1
  Cu  Cu13  1  0.459346  0.209346  0.418692  1
  Cu  Cu14  1  0.790654  0.540654  0.081308  1
  Cu  Cu15  1  0.540654  0.790654  0.581308  1
  S  S16  1  0.279198  0.532267  0.530079  1
  S  S17  1  0.324293  0.267756  0.840219  1
  S  S18  1  0.750880  -0.002189  0.530079  1
  S  S19  1  0.572464  0.015926  0.340219  1
  S  S20  1  0.732244  0.675707  0.659781  1
  S  S21  1  0.160432  0.225565  0.146440  1
  S  S22  1  0.774435  0.839568  0.353560  1
  S  S23  1  0.675707  0.732244  0.159781  1
  S  S24  1  0.427536  0.984074  0.659781  1
  S  S25  1  0.532267  0.279198  0.030079  1
  S  S26  1  0.513992  0.079124  0.853560  1
  S  S27  1  0.225565  0.160432  0.646440  1
  S  S28  1  0.002189  0.249120  0.969921  1
  S  S29  1  0.079124  0.513992  0.353560  1
  S  S30  1  0.486008  0.920876  0.146440  1
  S  S31  1  0.720802  0.467733  0.469921  1
  S  S32  1  0.467733  0.720802  0.969921  1
  S  S33  1  0.015926  0.572464  0.840219  1
  S  S34  1  0.249120  0.002189  0.469921  1
  S  S35  1  0.839568  0.774435  0.853560  1
  S  S36  1  0.267756  0.324293  0.340219  1
  S  S37  1  0.984074  0.427536  0.159781  1
  S  S38  1  0.920876  0.486008  0.646440  1
  S  S39  1  -0.002189  0.750880  0.030079  1
