# generated using pymatgen
data_BaCeC2O6F
_symmetry_space_group_name_H-M   'P 1'
_cell_length_a   13.63030696
_cell_length_b   13.63030693
_cell_length_c   13.63030785
_cell_angle_alpha   23.55527450
_cell_angle_beta   23.55527476
_cell_angle_gamma   23.55527346
_symmetry_Int_Tables_number   1
_chemical_formula_structural   BaCeC2O6F
_chemical_formula_sum   'Ba2 Ce2 C4 O12 F2'
_cell_volume   355.17512042
_cell_formula_units_Z   2
loop_
 _symmetry_equiv_pos_site_id
 _symmetry_equiv_pos_as_xyz
  1  'x, y, z'
loop_
 _atom_site_type_symbol
 _atom_site_label
 _atom_site_symmetry_multiplicity
 _atom_site_fract_x
 _atom_site_fract_y
 _atom_site_fract_z
 _atom_site_occupancy
  Ba  Ba0  1  0.500316  0.500316  0.500316  1
  Ba  Ba1  1  0.000796  0.000796  0.000796  1
  Ce  Ce2  1  0.752611  0.752611  0.752611  1
  Ce  Ce3  1  0.249332  0.249332  0.249332  1
  C  C4  1  0.392907  0.392907  0.392907  1
  C  C5  1  0.122412  0.122412  0.122412  1
  C  C6  1  0.878019  0.878019  0.878019  1
  C  C7  1  0.608797  0.608797  0.608797  1
  O  O8  1  0.148150  0.743448  0.743448  1
  O  O9  1  0.852396  0.256948  0.256948  1
  O  O10  1  0.525416  0.126730  0.525416  1
  O  O11  1  0.126730  0.525416  0.525416  1
  O  O12  1  0.743448  0.743448  0.148150  1
  O  O13  1  0.476039  0.875312  0.476039  1
  O  O14  1  0.256948  0.852396  0.256948  1
  O  O15  1  0.875312  0.476039  0.476039  1
  O  O16  1  0.256948  0.256948  0.852396  1
  O  O17  1  0.743448  0.148150  0.743448  1
  O  O18  1  0.525416  0.525416  0.126730  1
  O  O19  1  0.476039  0.476039  0.875312  1
  F  F20  1  0.319035  0.319035  0.319035  1
  F  F21  1  0.681886  0.681886  0.681886  1
