# generated using pymatgen
data_V4Ge13O36
_symmetry_space_group_name_H-M   'P 1'
_cell_length_a   2.90515390
_cell_length_b   4.59250243
_cell_length_c   39.52781555
_cell_angle_alpha   91.06549312
_cell_angle_beta   90.00001384
_cell_angle_gamma   90.00001707
_symmetry_Int_Tables_number   1
_chemical_formula_structural   V4Ge13O36
_chemical_formula_sum   'V4 Ge13 O36'
_cell_volume   527.28601587
_cell_formula_units_Z   1
loop_
 _symmetry_equiv_pos_site_id
 _symmetry_equiv_pos_as_xyz
  1  'x, y, z'
loop_
 _atom_site_type_symbol
 _atom_site_label
 _atom_site_symmetry_multiplicity
 _atom_site_fract_x
 _atom_site_fract_y
 _atom_site_fract_z
 _atom_site_occupancy
  V  V0  1  0.000001  0.068045  0.014169  1
  V  V1  1  0.999998  0.931959  0.208215  1
  V  V2  1  0.500001  0.762641  0.067570  1
  V  V3  1  0.499994  0.234690  0.154645  1
  Ge  Ge4  1  0.000001  0.950005  0.323823  1
  Ge  Ge5  1  0.999998  0.974969  0.438119  1
  Ge  Ge6  1  -0.000003  0.993370  0.553362  1
  Ge  Ge7  1  0.000002  0.007791  0.668800  1
  Ge  Ge8  1  -0.000006  0.025599  0.784087  1
  Ge  Ge9  1  0.000002  0.050187  0.898433  1
  Ge  Ge10  1  0.499997  0.432070  0.266863  1
  Ge  Ge11  1  0.499999  0.462308  0.380808  1
  Ge  Ge12  1  0.500000  0.500254  0.611087  1
  Ge  Ge13  1  0.499998  0.484660  0.495700  1
  Ge  Ge14  1  0.499999  0.515997  0.726476  1
  Ge  Ge15  1  0.500002  0.538520  0.841427  1
  Ge  Ge16  1  0.500001  0.568150  0.955406  1
  O  O17  1  0.000010  0.528498  0.062900  1
  O  O18  1  0.000008  0.856065  0.103382  1
  O  O19  1  0.000010  0.139873  0.118855  1
  O  O20  1  0.000010  0.469077  0.159069  1
  O  O21  1  -0.000003  0.638963  0.287327  1
  O  O22  1  0.999998  0.661839  0.402477  1
  O  O23  1  0.999998  0.264552  0.359220  1
  O  O24  1  -0.000002  0.680067  0.517777  1
  O  O25  1  0.999997  0.291219  0.473676  1
  O  O26  1  0.000001  0.693875  0.633224  1
  O  O27  1  0.000000  0.307156  0.589006  1
  O  O28  1  -0.000004  0.709670  0.748512  1
  O  O29  1  -0.000000  0.321026  0.704434  1
  O  O30  1  -0.000001  0.735925  0.862956  1
  O  O31  1  -0.000004  0.338872  0.819687  1
  O  O32  1  0.000000  0.789955  0.973536  1
  O  O33  1  0.499996  0.719563  0.229176  1
  O  O34  1  0.500003  0.862959  0.165842  1
  O  O35  1  0.499998  0.757687  0.345042  1
  O  O36  1  0.500001  0.279859  0.993141  1
  O  O37  1  0.499997  0.788521  0.460184  1
  O  O38  1  0.500008  0.134990  0.056647  1
  O  O39  1  0.500004  0.805621  0.575477  1
  O  O40  1  0.499999  0.236187  0.201315  1
  O  O41  1  0.499993  0.837486  0.805756  1
  O  O42  1  0.499998  0.140894  0.303013  1
  O  O43  1  0.499997  0.163444  0.416412  1
  O  O44  1  0.500001  0.819722  0.690804  1
  O  O45  1  0.500002  0.859320  0.919187  1
  O  O46  1  0.500003  0.181099  0.531421  1
  O  O47  1  0.500003  0.763663  0.020886  1
  O  O48  1  0.500002  0.195000  0.646750  1
  O  O49  1  0.500002  0.242917  0.877155  1
  O  O50  1  0.499992  0.212307  0.762010  1
  O  O51  1  -0.000002  0.209943  0.248717  1
  O  O52  1  0.000000  0.360971  0.934927  1
