# generated using pymatgen
data_Mo7S8
_symmetry_space_group_name_H-M   'P 1'
_cell_length_a   6.44730923
_cell_length_b   6.52775799
_cell_length_c   13.07950422
_cell_angle_alpha   94.30566372
_cell_angle_beta   94.46599408
_cell_angle_gamma   96.58461503
_symmetry_Int_Tables_number   1
_chemical_formula_structural   Mo7S8
_chemical_formula_sum   'Mo14 S16'
_cell_volume   543.21399152
_cell_formula_units_Z   2
loop_
 _symmetry_equiv_pos_site_id
 _symmetry_equiv_pos_as_xyz
  1  'x, y, z'
loop_
 _atom_site_type_symbol
 _atom_site_label
 _atom_site_symmetry_multiplicity
 _atom_site_fract_x
 _atom_site_fract_y
 _atom_site_fract_z
 _atom_site_occupancy
  Mo  Mo0  1  0.178104  0.895583  0.009620  1
  Mo  Mo1  1  0.209606  0.418516  0.272429  1
  Mo  Mo2  1  0.218080  0.382471  0.771297  1
  Mo  Mo3  1  0.404478  0.563321  0.106074  1
  Mo  Mo4  1  0.403399  0.542130  0.607392  1
  Mo  Mo5  1  0.448219  0.797786  0.292989  1
  Mo  Mo6  1  0.476937  0.773987  0.800582  1
  Mo  Mo7  1  0.533202  0.234618  0.203060  1
  Mo  Mo8  1  0.539863  0.210514  0.701588  1
  Mo  Mo9  1  0.587867  0.469696  0.389381  1
  Mo  Mo10  1  0.601641  0.444223  0.890974  1
  Mo  Mo11  1  0.775233  0.610008  0.224702  1
  Mo  Mo12  1  0.785462  0.581712  0.727310  1
  Mo  Mo13  1  0.018823  0.815084  0.545647  1
  S  S14  1  0.129281  0.749226  0.176443  1
  S  S15  1  0.150539  0.716907  0.702520  1
  S  S16  1  0.189171  0.232290  0.103072  1
  S  S17  1  0.193578  0.172641  0.602655  1
  S  S18  1  0.257629  0.648091  0.433201  1
  S  S19  1  0.275435  0.594835  0.926460  1
  S  S20  1  0.356677  0.147986  0.360362  1
  S  S21  1  0.367314  0.117537  0.871444  1
  S  S22  1  0.633706  0.888663  0.137731  1
  S  S23  1  0.639455  0.862052  0.634817  1
  S  S24  1  0.716586  0.384280  0.067866  1
  S  S25  1  0.708501  0.373559  0.565341  1
  S  S26  1  0.793373  0.817709  0.388721  1
  S  S27  1  0.830555  0.779428  0.900661  1
  S  S28  1  0.852165  0.299101  0.313150  1
  S  S29  1  0.860519  0.264345  0.810659  1
