# generated using pymatgen
data_Nd3O2F5
_symmetry_space_group_name_H-M   'P 1'
_cell_length_a   3.84161276
_cell_length_b   5.61409175
_cell_length_c   14.99465296
_cell_angle_alpha   86.68331349
_cell_angle_beta   90.00000000
_cell_angle_gamma   90.00000000
_symmetry_Int_Tables_number   1
_chemical_formula_structural   Nd3O2F5
_chemical_formula_sum   'Nd6 O4 F10'
_cell_volume   322.85049846
_cell_formula_units_Z   2
loop_
 _symmetry_equiv_pos_site_id
 _symmetry_equiv_pos_as_xyz
  1  'x, y, z'
loop_
 _atom_site_type_symbol
 _atom_site_label
 _atom_site_symmetry_multiplicity
 _atom_site_fract_x
 _atom_site_fract_y
 _atom_site_fract_z
 _atom_site_occupancy
  Nd  Nd0  1  0.250000  0.070737  0.906678  1
  Nd  Nd1  1  0.250000  0.165574  0.261649  1
  Nd  Nd2  1  0.250000  0.197360  0.635156  1
  Nd  Nd3  1  0.750000  0.656047  0.484944  1
  Nd  Nd4  1  0.750000  0.580897  0.783342  1
  Nd  Nd5  1  0.750000  0.575664  0.093891  1
  O  O6  1  0.250000  0.337015  0.772933  1
  O  O7  1  0.750000  0.378354  0.226272  1
  O  O8  1  0.750000  0.433453  0.628771  1
  O  O9  1  0.750000  0.955569  0.843480  1
  F  F10  1  0.250000  0.808755  0.047209  1
  F  F11  1  0.250000  0.899876  0.515618  1
  F  F12  1  0.250000  0.429611  0.499213  1
  F  F13  1  0.250000  0.323917  0.104423  1
  F  F14  1  0.250000  0.643074  0.886602  1
  F  F15  1  0.750000  0.319005  0.965570  1
  F  F16  1  0.750000  0.906002  0.351897  1
  F  F17  1  0.750000  0.917851  0.177307  1
  F  F18  1  0.750000  0.356376  0.394156  1
  F  F19  1  0.750000  0.910863  0.659556  1
