# generated using pymatgen
data_Ca5NbN5
_symmetry_space_group_name_H-M   'P 1'
_cell_length_a   6.99328224
_cell_length_b   6.98068724
_cell_length_c   8.83382032
_cell_angle_alpha   99.22239993
_cell_angle_beta   89.99994404
_cell_angle_gamma   120.05963320
_symmetry_Int_Tables_number   1
_chemical_formula_structural   Ca5NbN5
_chemical_formula_sum   'Ca10 Nb2 N10'
_cell_volume   366.79285487
_cell_formula_units_Z   2
loop_
 _symmetry_equiv_pos_site_id
 _symmetry_equiv_pos_as_xyz
  1  'x, y, z'
loop_
 _atom_site_type_symbol
 _atom_site_label
 _atom_site_symmetry_multiplicity
 _atom_site_fract_x
 _atom_site_fract_y
 _atom_site_fract_z
 _atom_site_occupancy
  Ca  Ca0  1  0.125457  0.767302  0.838910  1
  Ca  Ca1  1  0.127514  0.255038  0.825986  1
  Ca  Ca2  1  0.266049  0.532103  0.532847  1
  Ca  Ca3  1  0.252377  0.993500  0.506602  1
  Ca  Ca4  1  0.381646  0.239068  0.151262  1
  Ca  Ca5  1  0.641835  0.767302  0.838912  1
  Ca  Ca6  1  0.741118  0.993491  0.506599  1
  Ca  Ca7  1  0.759462  0.518923  0.492170  1
  Ca  Ca8  1  0.855408  0.710808  0.166073  1
  Ca  Ca9  1  0.857428  0.239069  0.151268  1
  Nb  Nb10  1  0.365825  0.731650  0.217586  1
  Nb  Nb11  1  0.630631  0.261264  0.771656  1
  N  N12  1  0.083814  0.613858  0.322033  1
  N  N13  1  0.006337  0.012666  0.034129  1
  N  N14  1  0.318618  0.637237  0.994618  1
  N  N15  1  0.463704  0.927411  0.692107  1
  N  N16  1  0.530047  0.613855  0.322030  1
  N  N17  1  0.461279  0.373851  0.672333  1
  N  N18  1  0.531384  0.062766  0.297588  1
  N  N19  1  0.682631  0.365250  0.993861  1
  N  N20  1  0.942573  0.885144  0.644901  1
  N  N21  1  0.912564  0.373844  0.672327  1
