# generated using pymatgen
data_LiTi2NbCu2O9
_symmetry_space_group_name_H-M   'P 1'
_cell_length_a   6.47508853
_cell_length_b   6.52914928
_cell_length_c   19.51602524
_cell_angle_alpha   109.48788851
_cell_angle_beta   109.33806845
_cell_angle_gamma   109.65517976
_symmetry_Int_Tables_number   1
_chemical_formula_structural   LiTi2NbCu2O9
_chemical_formula_sum   'Li4 Ti8 Nb4 Cu8 O36'
_cell_volume   634.61029800
_cell_formula_units_Z   4
loop_
 _symmetry_equiv_pos_site_id
 _symmetry_equiv_pos_as_xyz
  1  'x, y, z'
loop_
 _atom_site_type_symbol
 _atom_site_label
 _atom_site_symmetry_multiplicity
 _atom_site_fract_x
 _atom_site_fract_y
 _atom_site_fract_z
 _atom_site_occupancy
  Li  Li0  1  0.968562  0.051458  0.976721  1
  Li  Li1  1  0.996208  0.498388  0.832211  1
  Li  Li2  1  0.987050  0.087404  0.679356  1
  Li  Li3  1  0.930408  0.888952  0.325040  1
  Ti  Ti4  1  0.982603  0.508277  0.664428  1
  Ti  Ti5  1  0.986104  0.989497  0.498109  1
  Ti  Ti6  1  0.997308  0.486015  0.334578  1
  Ti  Ti7  1  0.000051  0.009008  0.828653  1
  Ti  Ti8  1  0.485490  0.493381  0.496044  1
  Ti  Ti9  1  0.006903  0.517878  0.002787  1
  Ti  Ti10  1  0.478188  0.490167  0.165980  1
  Ti  Ti11  1  0.984963  0.984646  0.165174  1
  Nb  Nb12  1  0.511794  0.509457  0.833473  1
  Nb  Nb13  1  0.493231  0.001300  0.663011  1
  Nb  Nb14  1  0.485607  0.997828  0.331827  1
  Nb  Nb15  1  0.490099  0.004684  0.003186  1
  Cu  Cu16  1  0.503524  0.001357  0.834243  1
  Cu  Cu17  1  0.489604  0.500473  0.663182  1
  Cu  Cu18  1  0.497253  0.997039  0.498764  1
  Cu  Cu19  1  0.503789  0.502327  0.332675  1
  Cu  Cu20  1  0.998739  0.498523  0.499628  1
  Cu  Cu21  1  0.497834  0.498845  0.002076  1
  Cu  Cu22  1  0.504123  0.001900  0.169557  1
  Cu  Cu23  1  0.995183  0.499050  0.165762  1
  O  O24  1  0.180091  0.698429  0.961368  1
  O  O25  1  0.128260  0.811195  0.769977  1
  O  O26  1  0.172711  0.286449  0.821525  1
  O  O27  1  0.175197  0.685605  0.622714  1
  O  O28  1  0.298968  0.128640  0.940949  1
  O  O29  1  0.511670  0.823913  0.898509  1
  O  O30  1  0.299872  0.476635  0.724205  1
  O  O31  1  0.124960  0.820349  0.433676  1
  O  O32  1  0.184604  0.311720  0.496078  1
  O  O33  1  0.689176  0.512094  0.942040  1
  O  O34  1  0.503210  0.181686  0.771726  1
  O  O35  1  0.302367  0.130979  0.606226  1
  O  O36  1  0.170520  0.693743  0.289657  1
  O  O37  1  0.510509  0.815239  0.561575  1
  O  O38  1  0.695073  0.868674  0.724657  1
  O  O39  1  0.312205  0.491963  0.392855  1
  O  O40  1  0.131638  0.818938  0.105377  1
  O  O41  1  0.820793  0.710302  0.841662  1
  O  O42  1  0.178983  0.312041  0.163723  1
  O  O43  1  0.876372  0.185478  0.897543  1
  O  O44  1  0.689345  0.512844  0.606041  1
  O  O45  1  0.310111  0.133344  0.272898  1
  O  O46  1  0.489536  0.181027  0.437383  1
  O  O47  1  0.816258  0.293213  0.702040  1
  O  O48  1  0.521054  0.820135  0.231907  1
  O  O49  1  0.699389  0.873154  0.391033  1
  O  O50  1  0.299427  0.476910  0.059268  1
  O  O51  1  0.819288  0.690457  0.501831  1
  O  O52  1  0.870723  0.175727  0.562490  1
  O  O53  1  0.696612  0.515116  0.273352  1
  O  O54  1  0.492633  0.184721  0.107048  1
  O  O55  1  0.690077  0.868555  0.060733  1
  O  O56  1  0.824849  0.311052  0.377067  1
  O  O57  1  0.820597  0.695867  0.171096  1
  O  O58  1  0.875454  0.181109  0.231515  1
  O  O59  1  0.822849  0.304844  0.041791  1
