# generated using pymatgen
data_ScHO2
_symmetry_space_group_name_H-M   'P 1'
_cell_length_a   7.43951814
_cell_length_b   7.13007274
_cell_length_c   3.85572317
_cell_angle_alpha   93.38847990
_cell_angle_beta   89.14122577
_cell_angle_gamma   26.86130436
_symmetry_Int_Tables_number   1
_chemical_formula_structural   ScHO2
_chemical_formula_sum   'Sc2 H2 O4'
_cell_volume   91.20350122
_cell_formula_units_Z   2
loop_
 _symmetry_equiv_pos_site_id
 _symmetry_equiv_pos_as_xyz
  1  'x, y, z'
loop_
 _atom_site_type_symbol
 _atom_site_label
 _atom_site_symmetry_multiplicity
 _atom_site_fract_x
 _atom_site_fract_y
 _atom_site_fract_z
 _atom_site_occupancy
  Sc  Sc0  1  0.590791  0.724822  0.190824  1
  Sc  Sc1  1  0.432542  0.262728  0.803034  1
  H  H2  1  0.026375  0.485294  0.474947  1
  H  H3  1  0.019100  0.003226  0.029984  1
  O  O4  1  0.283328  0.285767  0.289377  1
  O  O5  1  0.709799  0.718728  0.706000  1
  O  O6  1  0.059537  0.097716  0.164371  1
  O  O7  1  0.956781  0.882953  0.843557  1
