# generated using pymatgen
data_SiO2
_symmetry_space_group_name_H-M   'P 1'
_cell_length_a   6.98600018
_cell_length_b   15.04707004
_cell_length_c   17.38161115
_cell_angle_alpha   90.00000000
_cell_angle_beta   90.00000000
_cell_angle_gamma   90.00000000
_symmetry_Int_Tables_number   1
_chemical_formula_structural   SiO2
_chemical_formula_sum   'Si32 O64'
_cell_volume   1827.13469727
_cell_formula_units_Z   32
loop_
 _symmetry_equiv_pos_site_id
 _symmetry_equiv_pos_as_xyz
  1  'x, y, z'
loop_
 _atom_site_type_symbol
 _atom_site_label
 _atom_site_symmetry_multiplicity
 _atom_site_fract_x
 _atom_site_fract_y
 _atom_site_fract_z
 _atom_site_occupancy
  Si  Si0  1  0.114996  0.726156  0.341187  1
  Si  Si1  1  0.114996  0.773844  0.658813  1
  Si  Si2  1  0.885004  0.226156  0.158813  1
  Si  Si3  1  0.885004  0.273844  0.841187  1
  Si  Si4  1  0.885004  0.273844  0.658813  1
  Si  Si5  1  0.885004  0.226156  0.341187  1
  Si  Si6  1  0.114996  0.773844  0.841187  1
  Si  Si7  1  0.114996  0.726156  0.158813  1
  Si  Si8  1  0.106995  0.903696  0.429348  1
  Si  Si9  1  0.106995  0.596304  0.570652  1
  Si  Si10  1  0.893005  0.403696  0.070652  1
  Si  Si11  1  0.893005  0.096304  0.929348  1
  Si  Si12  1  0.893005  0.096304  0.570652  1
  Si  Si13  1  0.893005  0.403696  0.429348  1
  Si  Si14  1  0.106995  0.596304  0.929348  1
  Si  Si15  1  0.106995  0.903696  0.070652  1
  Si  Si16  1  0.843594  0.600869  0.426649  1
  Si  Si17  1  0.843594  0.899131  0.573351  1
  Si  Si18  1  0.156406  0.100869  0.073351  1
  Si  Si19  1  0.156406  0.399131  0.926649  1
  Si  Si20  1  0.156406  0.399131  0.573351  1
  Si  Si21  1  0.156406  0.100869  0.426649  1
  Si  Si22  1  0.843594  0.899131  0.926649  1
  Si  Si23  1  0.843594  0.600869  0.073351  1
  Si  Si24  1  0.429931  0.841380  0.539797  1
  Si  Si25  1  0.429931  0.658620  0.460203  1
  Si  Si26  1  0.570069  0.341380  0.960203  1
  Si  Si27  1  0.570069  0.158620  0.039797  1
  Si  Si28  1  0.570069  0.158620  0.460203  1
  Si  Si29  1  0.570069  0.341380  0.539797  1
  Si  Si30  1  0.429931  0.658620  0.039797  1
  Si  Si31  1  0.429931  0.841380  0.960203  1
  O  O32  1  0.915836  0.678907  0.368907  1
  O  O33  1  0.915836  0.821093  0.631093  1
  O  O34  1  0.084164  0.178907  0.131093  1
  O  O35  1  0.084164  0.321093  0.868907  1
  O  O36  1  0.084164  0.321093  0.631093  1
  O  O37  1  0.084164  0.178907  0.368907  1
  O  O38  1  0.915836  0.821093  0.868907  1
  O  O39  1  0.915836  0.678907  0.131093  1
  O  O40  1  0.294255  0.681780  0.387105  1
  O  O41  1  0.294255  0.818220  0.612895  1
  O  O42  1  0.705745  0.181780  0.112895  1
  O  O43  1  0.705745  0.318220  0.887105  1
  O  O44  1  0.705745  0.318220  0.612895  1
  O  O45  1  0.705745  0.181780  0.387105  1
  O  O46  1  0.294255  0.818220  0.887105  1
  O  O47  1  0.294255  0.681780  0.112895  1
  O  O48  1  0.105425  0.832753  0.359120  1
  O  O49  1  0.105425  0.667247  0.640880  1
  O  O50  1  0.894575  0.332753  0.140880  1
  O  O51  1  0.894575  0.167247  0.859120  1
  O  O52  1  0.894575  0.167247  0.640880  1
  O  O53  1  0.894575  0.332753  0.359120  1
  O  O54  1  0.105425  0.667247  0.859120  1
  O  O55  1  0.105425  0.832753  0.140880  1
  O  O56  1  0.144061  0.710767  0.250000  1
  O  O57  1  0.144061  0.789233  0.750000  1
  O  O58  1  0.855939  0.210767  0.250000  1
  O  O59  1  0.855939  0.289233  0.750000  1
  O  O60  1  0.082777  0.004082  0.395036  1
  O  O61  1  0.082777  0.495918  0.604964  1
  O  O62  1  0.917223  0.504082  0.104964  1
  O  O63  1  0.917223  0.995918  0.895036  1
  O  O64  1  0.917223  0.995918  0.604964  1
  O  O65  1  0.917223  0.504082  0.395036  1
  O  O66  1  0.082777  0.495918  0.895036  1
  O  O67  1  0.082777  0.004082  0.104964  1
  O  O68  1  0.309010  0.898544  0.476624  1
  O  O69  1  0.309010  0.601456  0.523376  1
  O  O70  1  0.690990  0.398544  0.023376  1
  O  O71  1  0.690990  0.101456  0.976624  1
  O  O72  1  0.690990  0.101456  0.523376  1
  O  O73  1  0.690990  0.398544  0.476624  1
  O  O74  1  0.309010  0.601456  0.976624  1
  O  O75  1  0.309010  0.898544  0.023376  1
  O  O76  1  0.929524  0.881457  0.487225  1
  O  O77  1  0.929524  0.618543  0.512775  1
  O  O78  1  0.070476  0.381457  0.012775  1
  O  O79  1  0.070476  0.118543  0.987225  1
  O  O80  1  0.070476  0.118543  0.512775  1
  O  O81  1  0.070476  0.381457  0.487225  1
  O  O82  1  0.929524  0.618543  0.987225  1
  O  O83  1  0.929524  0.881457  0.012775  1
  O  O84  1  0.611149  0.600541  0.430890  1
  O  O85  1  0.611149  0.899459  0.569110  1
  O  O86  1  0.388851  0.100541  0.069110  1
  O  O87  1  0.388851  0.399459  0.930890  1
  O  O88  1  0.388851  0.399459  0.569110  1
  O  O89  1  0.388851  0.100541  0.430890  1
  O  O90  1  0.611149  0.899459  0.930890  1
  O  O91  1  0.611149  0.600541  0.069110  1
  O  O92  1  0.507670  0.750000  0.500000  1
  O  O93  1  0.492330  0.250000  0.000000  1
  O  O94  1  0.492330  0.250000  0.500000  1
  O  O95  1  0.507670  0.750000  0.000000  1
