# generated using pymatgen
data_Dy3Ge4
_symmetry_space_group_name_H-M   'P 1'
_cell_length_a   4.06013818
_cell_length_b   5.73372395
_cell_length_c   14.34947294
_cell_angle_alpha   89.97663368
_cell_angle_beta   89.99940716
_cell_angle_gamma   110.76249183
_symmetry_Int_Tables_number   1
_chemical_formula_structural   Dy3Ge4
_chemical_formula_sum   'Dy6 Ge8'
_cell_volume   312.35756355
_cell_formula_units_Z   2
loop_
 _symmetry_equiv_pos_site_id
 _symmetry_equiv_pos_as_xyz
  1  'x, y, z'
loop_
 _atom_site_type_symbol
 _atom_site_label
 _atom_site_symmetry_multiplicity
 _atom_site_fract_x
 _atom_site_fract_y
 _atom_site_fract_z
 _atom_site_occupancy
  Dy  Dy0  1  0.658177  0.322450  0.096144  1
  Dy  Dy1  1  0.333434  0.674275  0.902911  1
  Dy  Dy2  1  0.661054  0.326871  0.403869  1
  Dy  Dy3  1  0.336845  0.678863  0.596688  1
  Dy  Dy4  1  0.943571  0.887950  0.250035  1
  Dy  Dy5  1  0.054345  0.111892  0.750587  1
  Ge  Ge6  1  0.211701  0.430025  0.249821  1
  Ge  Ge7  1  0.782343  0.570807  0.750127  1
  Ge  Ge8  1  0.368963  0.740362  0.108931  1
  Ge  Ge9  1  0.993405  0.996348  0.000096  1
  Ge  Ge10  1  0.372090  0.743722  0.390610  1
  Ge  Ge11  1  0.625187  0.257103  0.890597  1
  Ge  Ge12  1  0.999910  0.006110  0.501300  1
  Ge  Ge13  1  0.628795  0.260753  0.610085  1
