# generated using pymatgen
data_CuH10C2(N2O5)2
_symmetry_space_group_name_H-M   'P 1'
_cell_length_a   7.29055557
_cell_length_b   7.99876186
_cell_length_c   17.73929731
_cell_angle_alpha   89.99957120
_cell_angle_beta   89.99543715
_cell_angle_gamma   90.00051800
_symmetry_Int_Tables_number   1
_chemical_formula_structural   CuH10C2(N2O5)2
_chemical_formula_sum   'Cu4 H40 C8 N16 O40'
_cell_volume   1034.47453099
_cell_formula_units_Z   4
loop_
 _symmetry_equiv_pos_site_id
 _symmetry_equiv_pos_as_xyz
  1  'x, y, z'
loop_
 _atom_site_type_symbol
 _atom_site_label
 _atom_site_symmetry_multiplicity
 _atom_site_fract_x
 _atom_site_fract_y
 _atom_site_fract_z
 _atom_site_occupancy
  Cu  Cu0  1  0.738830  0.253114  0.749984  1
  Cu  Cu1  1  0.238842  0.246881  0.250016  1
  Cu  Cu2  1  0.261170  0.753129  0.750020  1
  Cu  Cu3  1  0.761160  0.746872  0.249982  1
  H  H4  1  0.591631  0.668294  0.703930  1
  H  H5  1  0.493503  0.503754  0.479241  1
  H  H6  1  0.506496  0.003756  0.020762  1
  H  H7  1  0.107282  0.644652  0.426641  1
  H  H8  1  0.908435  0.331700  0.203924  1
  H  H9  1  0.575125  0.253608  0.218670  1
  H  H10  1  0.084766  0.631293  0.285369  1
  H  H11  1  0.610963  0.354989  0.423564  1
  H  H12  1  0.924875  0.746433  0.718660  1
  H  H13  1  0.061806  0.780118  0.599951  1
  H  H14  1  0.439059  0.718520  0.897285  1
  H  H15  1  0.389037  0.854986  0.076437  1
  H  H16  1  0.584840  0.868681  0.714652  1
  H  H17  1  0.424873  0.753621  0.281329  1
  H  H18  1  0.939006  0.781474  0.102732  1
  H  H19  1  0.993493  0.996257  0.520771  1
  H  H20  1  0.915239  0.131284  0.214636  1
  H  H21  1  0.892715  0.144646  0.073359  1
  H  H22  1  0.505132  0.506995  0.982160  1
  H  H23  1  0.392729  0.355345  0.926645  1
  H  H24  1  0.561874  0.719897  0.400036  1
  H  H25  1  0.110950  0.145022  0.576433  1
  H  H26  1  0.494869  0.006988  0.517837  1
  H  H27  1  0.889043  0.645009  0.923559  1
  H  H28  1  0.005115  0.992989  0.017834  1
  H  H29  1  0.938185  0.280111  0.900048  1
  H  H30  1  0.922720  0.826998  0.798777  1
  H  H31  1  0.994882  0.492983  0.482163  1
  H  H32  1  0.415162  0.368675  0.785354  1
  H  H33  1  0.077279  0.327004  0.701224  1
  H  H34  1  0.422798  0.672990  0.201220  1
  H  H35  1  0.091562  0.831700  0.296076  1
  H  H36  1  0.560946  0.218522  0.602716  1
  H  H37  1  0.438137  0.219897  0.099955  1
  H  H38  1  0.577189  0.173012  0.298784  1
  H  H39  1  0.607273  0.855354  0.573362  1
  H  H40  1  0.060995  0.281474  0.397269  1
  H  H41  1  0.075144  0.246437  0.781337  1
  H  H42  1  0.408364  0.168296  0.796077  1
  H  H43  1  0.006503  0.496266  0.979232  1
  C  C44  1  0.104844  0.408526  0.384020  1
  C  C45  1  0.395157  0.591490  0.884032  1
  C  C46  1  0.614240  0.595461  0.384977  1
  C  C47  1  0.885761  0.404520  0.884985  1
  C  C48  1  0.114237  0.904526  0.615014  1
  C  C49  1  0.385768  0.095463  0.115020  1
  C  C50  1  0.604839  0.091495  0.615969  1
  C  C51  1  0.895159  0.908520  0.115981  1
  N  N52  1  0.930625  0.023387  0.064858  1
  N  N53  1  0.779593  0.017919  0.395737  1
  N  N54  1  0.069379  0.523387  0.435140  1
  N  N55  1  0.218561  0.011362  0.895457  1
  N  N56  1  0.281429  0.988628  0.395452  1
  N  N57  1  0.430619  0.476605  0.935150  1
  N  N58  1  0.279611  0.482086  0.604254  1
  N  N59  1  0.068999  0.024447  0.567818  1
  N  N60  1  0.781438  0.511358  0.604544  1
  N  N61  1  0.931006  0.524444  0.932181  1
  N  N62  1  0.718575  0.488634  0.104548  1
  N  N63  1  0.569370  0.976605  0.564847  1
  N  N64  1  0.720386  0.982090  0.895744  1
  N  N65  1  0.431013  0.975561  0.067826  1
  N  N66  1  0.568985  0.475559  0.432177  1
  N  N67  1  0.220402  0.517926  0.104262  1
  O  O68  1  0.689348  0.991492  0.334336  1
  O  O69  1  0.290371  0.071368  0.173900  1
  O  O70  1  0.209675  0.928597  0.673871  1
  O  O71  1  0.790327  0.428590  0.826130  1
  O  O72  1  0.356495  0.602820  0.571483  1
  O  O73  1  0.966267  0.238871  0.233094  1
  O  O74  1  0.687623  0.485614  0.664952  1
  O  O75  1  0.788362  0.163903  0.421964  1
  O  O76  1  0.288340  0.336108  0.578024  1
  O  O77  1  0.856478  0.897182  0.428498  1
  O  O78  1  0.316246  0.558915  0.821489  1
  O  O79  1  0.816296  0.941120  0.178546  1
  O  O80  1  0.187589  0.014363  0.335053  1
  O  O81  1  0.795396  0.658927  0.579618  1
  O  O82  1  0.183706  0.441121  0.321454  1
  O  O83  1  0.683750  0.058912  0.678509  1
  O  O84  1  0.810579  0.008529  0.834325  1
  O  O85  1  0.857537  0.390861  0.571776  1
  O  O86  1  0.711660  0.836111  0.921976  1
  O  O87  1  0.643501  0.102821  0.928518  1
  O  O88  1  0.812422  0.514370  0.164945  1
  O  O89  1  0.709641  0.571360  0.326103  1
  O  O90  1  0.142464  0.890861  0.928225  1
  O  O91  1  0.012627  0.241395  0.732842  1
  O  O92  1  0.204602  0.158928  0.920381  1
  O  O93  1  0.357518  0.109137  0.428206  1
  O  O94  1  0.312381  0.985618  0.835051  1
  O  O95  1  0.487439  0.758612  0.232838  1
  O  O96  1  0.466140  0.261091  0.766872  1
  O  O97  1  0.143518  0.397181  0.071504  1
  O  O98  1  0.987394  0.741411  0.767155  1
  O  O99  1  0.189413  0.508521  0.665674  1
  O  O100  1  0.533843  0.761099  0.733126  1
  O  O101  1  0.295416  0.841061  0.420374  1
  O  O102  1  0.642485  0.609139  0.071793  1
  O  O103  1  0.310646  0.491501  0.165665  1
  O  O104  1  0.704585  0.341065  0.079630  1
  O  O105  1  0.033738  0.738873  0.266903  1
  O  O106  1  0.211632  0.663904  0.078033  1
  O  O107  1  0.512556  0.258624  0.267159  1
