# generated using pymatgen
data_Ba6Fe14Cu11S27
_symmetry_space_group_name_H-M   'P 1'
_cell_length_a   10.44188547
_cell_length_b   10.32883278
_cell_length_c   10.20852374
_cell_angle_alpha   90.12571366
_cell_angle_beta   89.88420816
_cell_angle_gamma   90.46095089
_symmetry_Int_Tables_number   1
_chemical_formula_structural   Ba6Fe14Cu11S27
_chemical_formula_sum   'Ba6 Fe14 Cu11 S27'
_cell_volume   1100.97420307
_cell_formula_units_Z   1
loop_
 _symmetry_equiv_pos_site_id
 _symmetry_equiv_pos_as_xyz
  1  'x, y, z'
loop_
 _atom_site_type_symbol
 _atom_site_label
 _atom_site_symmetry_multiplicity
 _atom_site_fract_x
 _atom_site_fract_y
 _atom_site_fract_z
 _atom_site_occupancy
  Ba  Ba0  1  0.997586  -0.000048  0.303388  1
  Ba  Ba1  1  0.997067  0.999348  0.696803  1
  Ba  Ba2  1  0.303067  0.999309  0.000542  1
  Ba  Ba3  1  0.697800  0.000238  0.000043  1
  Ba  Ba4  1  0.997137  0.303328  0.000362  1
  Ba  Ba5  1  0.999116  0.696611  0.999964  1
  Fe  Fe6  1  0.136592  0.369726  0.370354  1
  Fe  Fe7  1  0.135206  0.371252  0.629534  1
  Fe  Fe8  1  0.137780  0.630304  0.371527  1
  Fe  Fe9  1  0.138032  0.630876  0.628794  1
  Fe  Fe10  1  0.372356  0.132923  0.630442  1
  Fe  Fe11  1  0.367853  0.864649  0.627794  1
  Fe  Fe12  1  0.366962  0.367376  0.133289  1
  Fe  Fe13  1  0.368418  0.367654  0.865611  1
  Fe  Fe14  1  0.367477  0.860517  0.372467  1
  Fe  Fe15  1  0.504725  0.499162  0.500517  1
  Fe  Fe16  1  0.631864  0.140217  0.632786  1
  Fe  Fe17  1  0.634142  0.634850  0.134345  1
  Fe  Fe18  1  0.633091  0.138562  0.368311  1
  Fe  Fe19  1  0.634495  0.634658  0.865961  1
  Cu  Cu20  1  0.365476  0.635180  0.141316  1
  Cu  Cu21  1  0.365135  0.635419  0.858689  1
  Cu  Cu22  1  0.364830  0.140741  0.364221  1
  Cu  Cu23  1  0.634347  0.364086  0.140276  1
  Cu  Cu24  1  0.634896  0.859663  0.635783  1
  Cu  Cu25  1  0.634302  0.364289  0.859691  1
  Cu  Cu26  1  0.634242  0.860483  0.364739  1
  Cu  Cu27  1  0.858238  0.365783  0.633158  1
  Cu  Cu28  1  0.858954  0.366244  0.367132  1
  Cu  Cu29  1  0.858811  0.632615  0.634304  1
  Cu  Cu30  1  0.858660  0.632770  0.365617  1
  S  S31  1  0.001468  0.000147  0.000092  1
  S  S32  1  0.001955  0.752050  0.500201  1
  S  S33  1  0.219100  0.222034  0.218982  1
  S  S34  1  0.220910  0.220011  0.778644  1
  S  S35  1  0.219519  0.780214  0.221836  1
  S  S36  1  0.219671  0.780744  0.778753  1
  S  S37  1  0.246139  0.496723  0.999374  1
  S  S38  1  0.242575  0.001085  0.500407  1
  S  S39  1  0.272994  0.499438  0.499957  1
  S  S40  1  0.501378  0.500369  0.265022  1
  S  S41  1  0.499864  0.731995  0.500265  1
  S  S42  1  0.495486  0.245339  0.999821  1
  S  S43  1  0.499758  -0.000182  0.754957  1
  S  S44  1  0.501912  0.270263  0.499495  1
  S  S45  1  0.501749  0.500857  0.734767  1
  S  S46  1  0.503325  0.754470  0.000179  1
  S  S47  1  0.499628  0.000542  0.248063  1
  S  S48  1  0.731621  0.499493  0.500022  1
  S  S49  1  0.753808  0.502755  0.999748  1
  S  S50  1  0.752962  0.002850  0.500230  1
  S  S51  1  0.778695  0.218397  0.220534  1
  S  S52  1  0.778960  0.218196  0.780629  1
  S  S53  1  0.779117  0.778298  0.218190  1
  S  S54  1  0.778820  0.778495  0.781823  1
  S  S55  1  0.003222  0.247313  0.500034  1
  S  S56  1  0.003687  0.499379  0.247736  1
  S  S57  1  0.003020  0.499940  0.752478  1
