# generated using pymatgen
data_TaNi2TeSe
_symmetry_space_group_name_H-M   'P 1'
_cell_length_a   3.51448126
_cell_length_b   6.49518238
_cell_length_c   16.55313617
_cell_angle_alpha   89.98141801
_cell_angle_beta   90.00001696
_cell_angle_gamma   90.00003132
_symmetry_Int_Tables_number   1
_chemical_formula_structural   TaNi2TeSe
_chemical_formula_sum   'Ta4 Ni8 Te4 Se4'
_cell_volume   377.86167607
_cell_formula_units_Z   4
loop_
 _symmetry_equiv_pos_site_id
 _symmetry_equiv_pos_as_xyz
  1  'x, y, z'
loop_
 _atom_site_type_symbol
 _atom_site_label
 _atom_site_symmetry_multiplicity
 _atom_site_fract_x
 _atom_site_fract_y
 _atom_site_fract_z
 _atom_site_occupancy
  Ta  Ta0  1  0.250000  0.408179  0.221276  1
  Ta  Ta1  1  0.750000  0.591783  0.778718  1
  Ta  Ta2  1  0.250000  0.908124  0.278685  1
  Ta  Ta3  1  0.750000  0.091857  0.721301  1
  Ni  Ni4  1  0.750000  0.103357  0.180431  1
  Ni  Ni5  1  0.250000  0.896634  0.819530  1
  Ni  Ni6  1  0.250000  0.396578  0.680551  1
  Ni  Ni7  1  0.250000  0.285647  0.820695  1
  Ni  Ni8  1  0.750000  0.214346  0.320532  1
  Ni  Ni9  1  0.750000  0.603349  0.319509  1
  Ni  Ni10  1  0.750000  0.714415  0.179385  1
  Ni  Ni11  1  0.250000  0.785671  0.679444  1
  Te  Te12  1  0.250000  0.409669  0.402891  1
  Te  Te13  1  0.750000  0.090271  0.902851  1
  Te  Te14  1  0.750000  0.590301  0.597119  1
  Te  Te15  1  0.250000  0.909699  0.097107  1
  Se  Se16  1  0.750000  0.408972  0.099867  1
  Se  Se17  1  0.250000  0.091128  0.599887  1
  Se  Se18  1  0.750000  0.908911  0.400104  1
  Se  Se19  1  0.250000  0.591109  0.900118  1
