# generated using pymatgen
data_Sm3(Sb7Te12)2
_symmetry_space_group_name_H-M   'P 1'
_cell_length_a   8.13625744
_cell_length_b   8.37793876
_cell_length_c   25.44247005
_cell_angle_alpha   109.52803690
_cell_angle_beta   108.55644920
_cell_angle_gamma   108.12754558
_symmetry_Int_Tables_number   1
_chemical_formula_structural   Sm3(Sb7Te12)2
_chemical_formula_sum   'Sm3 Sb14 Te24'
_cell_volume   1369.96652375
_cell_formula_units_Z   1
loop_
 _symmetry_equiv_pos_site_id
 _symmetry_equiv_pos_as_xyz
  1  'x, y, z'
loop_
 _atom_site_type_symbol
 _atom_site_label
 _atom_site_symmetry_multiplicity
 _atom_site_fract_x
 _atom_site_fract_y
 _atom_site_fract_z
 _atom_site_occupancy
  Sm  Sm0  1  0.143073  0.758748  0.967614  1
  Sm  Sm1  1  0.275508  0.647381  0.799557  1
  Sm  Sm2  1  0.618088  0.368372  0.076324  1
  Sb  Sb3  1  0.053223  0.730889  0.601263  1
  Sb  Sb4  1  0.296231  0.249781  0.849210  1
  Sb  Sb5  1  0.038310  0.705856  0.261662  1
  Sb  Sb6  1  0.559939  0.294385  0.741506  1
  Sb  Sb7  1  0.728361  0.810858  0.684156  1
  Sb  Sb8  1  0.387230  0.246627  0.554463  1
  Sb  Sb9  1  0.854052  0.071054  0.915473  1
  Sb  Sb10  1  0.188433  0.627065  0.114801  1
  Sb  Sb11  1  0.566977  0.265756  0.412646  1
  Sb  Sb12  1  0.761846  0.883595  0.385248  1
  Sb  Sb13  1  0.478799  0.304498  0.239472  1
  Sb  Sb14  1  0.890578  0.180565  0.573026  1
  Sb  Sb15  1  0.696576  0.865457  0.041373  1
  Sb  Sb16  1  0.959026  0.191208  0.277520  1
  Te  Te17  1  0.018952  0.899627  0.831047  1
  Te  Te18  1  0.006344  0.410522  0.837882  1
  Te  Te19  1  0.019224  0.906730  0.509188  1
  Te  Te20  1  0.145524  0.181043  0.716434  1
  Te  Te21  1  0.016045  0.379169  0.506977  1
  Te  Te22  1  0.408442  0.515589  0.680345  1
  Te  Te23  1  0.506035  0.986642  0.953911  1
  Te  Te24  1  0.682252  0.659099  0.878878  1
  Te  Te25  1  0.997696  0.840327  0.166210  1
  Te  Te26  1  0.505735  0.018674  0.799301  1
  Te  Te27  1  0.498407  0.005695  0.466306  1
  Te  Te28  1  0.114804  0.094684  0.373983  1
  Te  Te29  1  0.010214  0.370701  0.157383  1
  Te  Te30  1  0.368472  0.485076  0.330348  1
  Te  Te31  1  0.515745  0.013848  0.627946  1
  Te  Te32  1  0.634422  0.638972  0.549433  1
  Te  Te33  1  0.915692  0.537323  0.672855  1
  Te  Te34  1  0.513679  0.016558  0.112180  1
  Te  Te35  1  0.153864  0.149552  0.037877  1
  Te  Te36  1  0.370990  0.509133  0.995614  1
  Te  Te37  1  0.503737  0.971285  0.299598  1
  Te  Te38  1  0.615581  0.598648  0.204398  1
  Te  Te39  1  0.870242  0.497255  0.340262  1
  Te  Te40  1  0.861654  0.486751  0.997997  1
