# generated using pymatgen
data_Ba18Pr9Sn4Sb5O54
_symmetry_space_group_name_H-M   'P 1'
_cell_length_a   6.15920281
_cell_length_b   6.17378899
_cell_length_c   55.67380522
_cell_angle_alpha   60.33549248
_cell_angle_beta   60.14098409
_cell_angle_gamma   60.08103982
_symmetry_Int_Tables_number   1
_chemical_formula_structural   Ba18Pr9Sn4Sb5O54
_chemical_formula_sum   'Ba18 Pr9 Sn4 Sb5 O54'
_cell_volume   1503.25068838
_cell_formula_units_Z   1
loop_
 _symmetry_equiv_pos_site_id
 _symmetry_equiv_pos_as_xyz
  1  'x, y, z'
loop_
 _atom_site_type_symbol
 _atom_site_label
 _atom_site_symmetry_multiplicity
 _atom_site_fract_x
 _atom_site_fract_y
 _atom_site_fract_z
 _atom_site_occupancy
  Ba  Ba0  1  0.246189  0.235865  0.030204  1
  Ba  Ba1  1  0.247055  0.241482  0.140485  1
  Ba  Ba2  1  0.249280  0.253913  0.249742  1
  Ba  Ba3  1  0.743637  0.744124  0.085404  1
  Ba  Ba4  1  0.249418  0.250039  0.361235  1
  Ba  Ba5  1  0.755525  0.756093  0.192529  1
  Ba  Ba6  1  0.249117  0.249719  0.472455  1
  Ba  Ba7  1  0.752567  0.752646  0.304708  1
  Ba  Ba8  1  0.250934  0.250623  0.583071  1
  Ba  Ba9  1  0.751241  0.750904  0.416283  1
  Ba  Ba10  1  0.251055  0.250337  0.694161  1
  Ba  Ba11  1  0.751145  0.751606  0.527363  1
  Ba  Ba12  1  0.255105  0.254097  0.803946  1
  Ba  Ba13  1  0.751417  0.750824  0.638473  1
  Ba  Ba14  1  0.249763  0.240119  0.917830  1
  Ba  Ba15  1  0.755585  0.754788  0.748208  1
  Ba  Ba16  1  0.759136  0.754124  0.858620  1
  Ba  Ba17  1  0.744091  0.739620  0.974682  1
  Pr  Pr18  1  0.493662  0.492153  0.057833  1
  Pr  Pr19  1  0.000632  0.002337  0.221831  1
  Pr  Pr20  1  0.000501  0.000622  0.333156  1
  Pr  Pr21  1  0.000196  0.000223  0.444367  1
  Pr  Pr22  1  0.000986  0.001280  0.555208  1
  Pr  Pr23  1  0.003295  0.001014  0.776909  1
  Pr  Pr24  1  0.004167  0.004463  0.665242  1
  Pr  Pr25  1  0.007493  0.002177  0.886975  1
  Pr  Pr26  1  0.493911  0.486499  0.947282  1
  Sn  Sn27  1  0.991836  0.990998  0.002813  1
  Sn  Sn28  1  0.502717  0.496804  0.166401  1
  Sn  Sn29  1  0.503761  0.504464  0.720859  1
  Sn  Sn30  1  0.502507  0.505013  0.832204  1
  Sb  Sb31  1  0.995277  0.991330  0.113131  1
  Sb  Sb32  1  0.500257  0.501345  0.277592  1
  Sb  Sb33  1  0.500377  0.500523  0.388736  1
  Sb  Sb34  1  0.500635  0.500604  0.499802  1
  Sb  Sb35  1  0.503248  0.502262  0.610136  1
  O  O36  1  0.240767  0.202455  0.086324  1
  O  O37  1  0.205707  0.782924  0.031436  1
  O  O38  1  0.222337  0.725087  0.092261  1
  O  O39  1  0.756425  0.278314  0.023205  1
  O  O40  1  0.780050  0.202521  0.086311  1
  O  O41  1  0.728483  0.782932  0.031432  1
  O  O42  1  0.284410  0.249478  0.189065  1
  O  O43  1  0.220714  0.775827  0.140933  1
  O  O44  1  0.268444  0.708711  0.194925  1
  O  O45  1  0.757034  0.274624  0.134603  1
  O  O46  1  0.764434  0.249619  0.189069  1
  O  O47  1  0.735146  0.775885  0.140925  1
  O  O48  1  0.287891  0.250060  0.301092  1
  O  O49  1  0.246042  0.750613  0.254716  1
  O  O50  1  0.269044  0.690980  0.307891  1
  O  O51  1  0.729868  0.309079  0.247926  1
  O  O52  1  0.752411  0.250066  0.301086  1
  O  O53  1  0.711073  0.750597  0.254722  1
  O  O54  1  0.288347  0.250113  0.412149  1
  O  O55  1  0.247277  0.750013  0.365679  1
  O  O56  1  0.269565  0.691262  0.418835  1
  O  O57  1  0.730407  0.308128  0.359007  1
  O  O58  1  0.752099  0.250123  0.412152  1
  O  O59  1  0.711527  0.750037  0.365676  1
  O  O60  1  0.289741  0.251018  0.522905  1
  O  O61  1  0.248296  0.751039  0.476458  1
  O  O62  1  0.270716  0.692300  0.529590  1
  O  O63  1  0.731579  0.308909  0.469787  1
  O  O64  1  0.753184  0.251045  0.522903  1
  O  O65  1  0.712605  0.751051  0.476459  1
  O  O66  1  0.294602  0.252945  0.632718  1
  O  O67  1  0.251105  0.753911  0.586797  1
  O  O68  1  0.274374  0.692056  0.639932  1
  O  O69  1  0.733829  0.314257  0.579792  1
  O  O70  1  0.758060  0.252940  0.632712  1
  O  O71  1  0.713881  0.753933  0.586794  1
  O  O72  1  0.291437  0.243642  0.744617  1
  O  O73  1  0.242350  0.763735  0.697413  1
  O  O74  1  0.268042  0.690273  0.752616  1
  O  O75  1  0.739926  0.314066  0.689557  1
  O  O76  1  0.763254  0.243764  0.744607  1
  O  O77  1  0.716983  0.763795  0.697401  1
  O  O78  1  0.300144  0.235944  0.854739  1
  O  O79  1  0.236290  0.764778  0.809737  1
  O  O80  1  0.268449  0.671439  0.865773  1
  O  O81  1  0.737474  0.318221  0.800732  1
  O  O82  1  0.771348  0.235726  0.854726  1
  O  O83  1  0.711323  0.764602  0.809733  1
  O  O84  1  0.261210  0.194153  0.972413  1
  O  O85  1  0.204684  0.789380  0.922006  1
  O  O86  1  0.228750  0.696530  0.982933  1
  O  O87  1  0.748075  0.326723  0.908495  1
  O  O88  1  0.793075  0.194150  0.972391  1
  O  O89  1  0.707993  0.789186  0.921970  1
