# generated using pymatgen
data_K6Sb2H18S8O9
_symmetry_space_group_name_H-M   'P 1'
_cell_length_a   11.27209785
_cell_length_b   11.78626189
_cell_length_c   10.54424423
_cell_angle_alpha   95.30387256
_cell_angle_beta   90.00000000
_cell_angle_gamma   90.00000000
_symmetry_Int_Tables_number   1
_chemical_formula_structural   K6Sb2H18S8O9
_chemical_formula_sum   'K12 Sb4 H36 S16 O18'
_cell_volume   1394.86715824
_cell_formula_units_Z   2
loop_
 _symmetry_equiv_pos_site_id
 _symmetry_equiv_pos_as_xyz
  1  'x, y, z'
loop_
 _atom_site_type_symbol
 _atom_site_label
 _atom_site_symmetry_multiplicity
 _atom_site_fract_x
 _atom_site_fract_y
 _atom_site_fract_z
 _atom_site_occupancy
  K  K0  1  0.209568  0.887448  0.136788  1
  K  K1  1  0.128983  0.171987  0.397216  1
  K  K2  1  0.983356  0.593788  0.834560  1
  K  K3  1  0.517632  0.421534  0.058368  1
  K  K4  1  0.459352  0.131992  0.836105  1
  K  K5  1  0.288332  0.827113  0.745032  1
  K  K6  1  0.709568  0.112552  0.363212  1
  K  K7  1  0.628983  0.828013  0.102784  1
  K  K8  1  0.483356  0.406212  0.665440  1
  K  K9  1  0.017632  0.578466  0.441632  1
  K  K10  1  0.959352  0.868008  0.663895  1
  K  K11  1  0.788332  0.172887  0.754968  1
  Sb  Sb12  1  0.829317  0.392100  0.076574  1
  Sb  Sb13  1  0.653019  0.642438  0.601167  1
  Sb  Sb14  1  0.329317  0.607900  0.423426  1
  Sb  Sb15  1  0.153019  0.357562  0.898833  1
  H  H16  1  0.004820  0.089654  0.655563  1
  H  H17  1  0.131545  0.127416  0.032259  1
  H  H18  1  0.104561  0.298363  0.647184  1
  H  H19  1  0.227108  0.170395  0.128867  1
  H  H20  1  0.180198  0.672221  0.937276  1
  H  H21  1  0.944068  0.903654  0.353441  1
  H  H22  1  0.288343  0.627523  0.075955  1
  H  H23  1  0.897614  0.406084  0.929994  1
  H  H24  1  0.642623  0.273965  0.551929  1
  H  H25  1  0.171081  0.769603  0.475863  1
  H  H26  1  0.236532  0.493303  0.443694  1
  H  H27  1  0.221861  0.091394  0.683940  1
  H  H28  1  0.489944  0.936668  0.910976  1
  H  H29  1  0.331678  0.941125  0.473262  1
  H  H30  1  0.345932  0.099421  0.613009  1
  H  H31  1  0.310878  0.313431  0.037657  1
  H  H32  1  0.468689  0.203417  0.497793  1
  H  H33  1  0.499750  0.918736  0.339817  1
  H  H34  1  0.504820  0.910346  0.844437  1
  H  H35  1  0.631545  0.872584  0.467741  1
  H  H36  1  0.604561  0.701637  0.852816  1
  H  H37  1  0.727108  0.829605  0.371133  1
  H  H38  1  0.680198  0.327779  0.562724  1
  H  H39  1  0.444068  0.096346  0.146559  1
  H  H40  1  0.788343  0.372477  0.424045  1
  H  H41  1  0.397614  0.593916  0.570006  1
  H  H42  1  0.142623  0.726035  0.948071  1
  H  H43  1  0.671081  0.230397  0.024137  1
  H  H44  1  0.736532  0.506697  0.056306  1
  H  H45  1  0.721861  0.908606  0.816060  1
  H  H46  1  0.989944  0.063332  0.589024  1
  H  H47  1  0.831678  0.058875  0.026738  1
  H  H48  1  0.845932  0.900579  0.886991  1
  H  H49  1  0.810878  0.686569  0.462343  1
  H  H50  1  0.968689  0.796583  0.002207  1
  H  H51  1  -0.000250  0.081264  0.160183  1
  S  S52  1  0.357548  0.586691  0.841969  1
  S  S53  1  0.576949  0.830319  0.637231  1
  S  S54  1  0.398326  0.651272  0.020827  1
  S  S55  1  0.201755  0.365879  0.649177  1
  S  S56  1  0.131669  0.384601  0.166521  1
  S  S57  1  0.059201  0.908337  0.390594  1
  S  S58  1  0.952147  0.609923  0.140956  1
  S  S59  1  0.127149  0.560021  0.172561  1
  S  S60  1  0.857548  0.413309  0.658031  1
  S  S61  1  0.076949  0.169681  0.862769  1
  S  S62  1  0.898327  0.348728  0.479173  1
  S  S63  1  0.701755  0.634121  0.850823  1
  S  S64  1  0.631669  0.615399  0.333479  1
  S  S65  1  0.559201  0.091663  0.109406  1
  S  S66  1  0.452147  0.390077  0.359044  1
  S  S67  1  0.627149  0.439979  0.327439  1
  O  O68  1  0.961129  0.816125  0.914083  1
  O  O69  1  0.404158  0.782119  0.033835  1
  O  O70  1  0.074776  0.878020  0.889912  1
  O  O71  1  0.786205  0.954919  0.857770  1
  O  O72  1  0.665209  0.887634  0.379449  1
  O  O73  1  0.424349  0.958238  0.322033  1
  O  O74  1  0.824531  0.691811  0.554591  1
  O  O75  1  0.201562  0.712151  0.530734  1
  O  O76  1  0.339653  0.892074  0.392128  1
  O  O77  1  0.461129  0.183875  0.585917  1
  O  O78  1  0.904158  0.217881  0.466165  1
  O  O79  1  0.574776  0.121980  0.610088  1
  O  O80  1  0.286205  0.045081  0.642230  1
  O  O81  1  0.165209  0.112366  0.120551  1
  O  O82  1  0.924349  0.041762  0.177967  1
  O  O83  1  0.324531  0.308189  0.945409  1
  O  O84  1  0.701562  0.287849  0.969266  1
  O  O85  1  0.839653  0.107926  0.107872  1
