# generated using pymatgen
data_H10C5SeS2BrN3
_symmetry_space_group_name_H-M   'P 1'
_cell_length_a   9.12585502
_cell_length_b   11.99056152
_cell_length_c   22.37742223
_cell_angle_alpha   90.00000000
_cell_angle_beta   90.00000000
_cell_angle_gamma   90.00000000
_symmetry_Int_Tables_number   1
_chemical_formula_structural   H10C5SeS2BrN3
_chemical_formula_sum   'H80 C40 Se8 S16 Br8 N24'
_cell_volume   2448.62987054
_cell_formula_units_Z   8
loop_
 _symmetry_equiv_pos_site_id
 _symmetry_equiv_pos_as_xyz
  1  'x, y, z'
loop_
 _atom_site_type_symbol
 _atom_site_label
 _atom_site_symmetry_multiplicity
 _atom_site_fract_x
 _atom_site_fract_y
 _atom_site_fract_z
 _atom_site_occupancy
  H  H0  1  0.546117  0.144591  0.611046  1
  H  H1  1  0.595409  0.470032  0.158205  1
  H  H2  1  0.351452  0.484312  0.120233  1
  H  H3  1  0.648548  0.515688  0.879767  1
  H  H4  1  0.715539  0.517291  0.290252  1
  H  H5  1  0.842626  0.859084  0.353835  1
  H  H6  1  0.095409  0.029968  0.841795  1
  H  H7  1  0.648548  0.984312  0.379767  1
  H  H8  1  0.800679  0.291469  0.395926  1
  H  H9  1  0.289818  0.271445  0.183143  1
  H  H10  1  0.345974  0.435026  0.250834  1
  H  H11  1  0.342626  0.859084  0.146165  1
  H  H12  1  0.851452  0.015688  0.879767  1
  H  H13  1  0.404591  0.970032  0.341795  1
  H  H14  1  0.784461  0.017291  0.290252  1
  H  H15  1  0.953883  0.855409  0.111046  1
  H  H16  1  0.851452  0.484312  0.379767  1
  H  H17  1  0.904591  0.970032  0.158205  1
  H  H18  1  0.699321  0.791469  0.395926  1
  H  H19  1  0.345974  0.064974  0.750834  1
  H  H20  1  0.715539  0.982709  0.790252  1
  H  H21  1  0.453883  0.644591  0.888954  1
  H  H22  1  0.904591  0.529968  0.658205  1
  H  H23  1  0.046117  0.144591  0.888954  1
  H  H24  1  0.284461  0.482709  0.709748  1
  H  H25  1  0.095409  0.470032  0.341795  1
  H  H26  1  0.342626  0.640916  0.646165  1
  H  H27  1  0.048805  0.336410  0.309150  1
  H  H28  1  0.654026  0.935026  0.249166  1
  H  H29  1  0.215539  0.517291  0.209748  1
  H  H30  1  0.157374  0.359084  0.146165  1
  H  H31  1  0.784461  0.482709  0.790252  1
  H  H32  1  0.451195  0.836410  0.309150  1
  H  H33  1  0.789818  0.228555  0.816857  1
  H  H34  1  0.903088  0.563381  0.282494  1
  H  H35  1  0.699321  0.708531  0.895926  1
  H  H36  1  0.284461  0.017291  0.209748  1
  H  H37  1  0.845974  0.064974  0.749166  1
  H  H38  1  0.657374  0.359084  0.353835  1
  H  H39  1  0.953883  0.644591  0.611046  1
  H  H40  1  0.300679  0.291469  0.104074  1
  H  H41  1  0.596912  0.063381  0.282494  1
  H  H42  1  0.300679  0.208531  0.604074  1
  H  H43  1  0.951195  0.836410  0.190850  1
  H  H44  1  0.148548  0.515688  0.620233  1
  H  H45  1  0.210182  0.728555  0.683143  1
  H  H46  1  0.842626  0.640916  0.853835  1
  H  H47  1  0.710182  0.771445  0.316857  1
  H  H48  1  0.157374  0.140916  0.646165  1
  H  H49  1  0.210182  0.771445  0.183143  1
  H  H50  1  0.657374  0.140916  0.853835  1
  H  H51  1  0.654026  0.564974  0.749166  1
  H  H52  1  0.546117  0.355409  0.111046  1
  H  H53  1  0.595409  0.029968  0.658205  1
  H  H54  1  0.453883  0.855409  0.388954  1
  H  H55  1  0.451195  0.663590  0.809150  1
  H  H56  1  0.215539  0.982709  0.709748  1
  H  H57  1  0.548805  0.163590  0.690850  1
  H  H58  1  0.710182  0.728555  0.816857  1
  H  H59  1  0.548805  0.336410  0.190850  1
  H  H60  1  0.154026  0.935026  0.250834  1
  H  H61  1  0.403088  0.936619  0.717506  1
  H  H62  1  0.096912  0.436619  0.717506  1
  H  H63  1  0.048805  0.163590  0.809150  1
  H  H64  1  0.154026  0.564974  0.750834  1
  H  H65  1  0.903088  0.936619  0.782494  1
  H  H66  1  0.403088  0.563381  0.217506  1
  H  H67  1  0.289818  0.228555  0.683143  1
  H  H68  1  0.148548  0.984312  0.120233  1
  H  H69  1  0.046117  0.355409  0.388954  1
  H  H70  1  0.096912  0.063381  0.217506  1
  H  H71  1  0.951195  0.663590  0.690850  1
  H  H72  1  0.351452  0.015688  0.620233  1
  H  H73  1  0.199321  0.708531  0.604074  1
  H  H74  1  0.800679  0.208531  0.895926  1
  H  H75  1  0.596912  0.436619  0.782494  1
  H  H76  1  0.404591  0.529968  0.841795  1
  H  H77  1  0.789818  0.271445  0.316857  1
  H  H78  1  0.199321  0.791469  0.104074  1
  H  H79  1  0.845974  0.435026  0.249166  1
  C  C80  1  0.830429  0.008962  0.787301  1
  C  C81  1  0.228401  0.830811  0.146711  1
  C  C82  1  0.973459  0.895419  0.154375  1
  C  C83  1  0.882174  0.240815  0.158960  1
  C  C84  1  0.771599  0.330811  0.353289  1
  C  C85  1  0.830429  0.491038  0.287301  1
  C  C86  1  0.669571  0.508962  0.787301  1
  C  C87  1  0.973459  0.604581  0.654375  1
  C  C88  1  0.169571  0.508962  0.712699  1
  C  C89  1  0.382174  0.240815  0.341040  1
  C  C90  1  0.548178  0.430366  0.603871  1
  C  C91  1  0.026541  0.395419  0.345625  1
  C  C92  1  0.117826  0.759185  0.841040  1
  C  C93  1  0.473459  0.604581  0.845625  1
  C  C94  1  0.048178  0.430366  0.896129  1
  C  C95  1  0.330429  0.491038  0.212699  1
  C  C96  1  0.473459  0.895419  0.345625  1
  C  C97  1  0.271599  0.330811  0.146711  1
  C  C98  1  0.951822  0.930366  0.603871  1
  C  C99  1  0.169571  0.991038  0.212699  1
  C  C100  1  0.271599  0.169189  0.646711  1
  C  C101  1  0.771599  0.169189  0.853289  1
  C  C102  1  0.228401  0.669189  0.646711  1
  C  C103  1  0.728401  0.830811  0.353289  1
  C  C104  1  0.451822  0.930366  0.896129  1
  C  C105  1  0.951822  0.569634  0.103871  1
  C  C106  1  0.451822  0.569634  0.396129  1
  C  C107  1  0.026541  0.104581  0.845625  1
  C  C108  1  0.526541  0.104581  0.654375  1
  C  C109  1  0.617826  0.759185  0.658960  1
  C  C110  1  0.048178  0.069634  0.396129  1
  C  C111  1  0.617826  0.740815  0.158960  1
  C  C112  1  0.330429  0.008962  0.712699  1
  C  C113  1  0.548178  0.069634  0.103871  1
  C  C114  1  0.382174  0.259185  0.841040  1
  C  C115  1  0.526541  0.395419  0.154375  1
  C  C116  1  0.882174  0.259185  0.658960  1
  C  C117  1  0.728401  0.669189  0.853289  1
  C  C118  1  0.669571  0.991038  0.287301  1
  C  C119  1  0.117826  0.740815  0.341040  1
  Se  Se120  1  0.834440  0.121069  0.037757  1
  Se  Se121  1  0.334440  0.378931  0.962243  1
  Se  Se122  1  0.334440  0.121069  0.462243  1
  Se  Se123  1  0.165560  0.878931  0.962243  1
  Se  Se124  1  0.665560  0.621069  0.037757  1
  Se  Se125  1  0.665560  0.878931  0.537757  1
  Se  Se126  1  0.834440  0.378931  0.537757  1
  Se  Se127  1  0.165560  0.621069  0.462243  1
  S  S128  1  0.581972  0.370142  0.538032  1
  S  S129  1  0.418028  0.870142  0.961968  1
  S  S130  1  0.631681  0.787145  0.088805  1
  S  S131  1  0.868319  0.212855  0.588805  1
  S  S132  1  0.918028  0.629858  0.038032  1
  S  S133  1  0.368319  0.212855  0.911195  1
  S  S134  1  0.631681  0.712855  0.588805  1
  S  S135  1  0.081972  0.129858  0.461968  1
  S  S136  1  0.131681  0.787145  0.411195  1
  S  S137  1  0.918028  0.870142  0.538032  1
  S  S138  1  0.081972  0.370142  0.961968  1
  S  S139  1  0.581972  0.129858  0.038032  1
  S  S140  1  0.868319  0.287145  0.088805  1
  S  S141  1  0.368319  0.287145  0.411195  1
  S  S142  1  0.131681  0.712855  0.911195  1
  S  S143  1  0.418028  0.629858  0.461968  1
  Br  Br144  1  0.172527  0.409700  0.537991  1
  Br  Br145  1  0.672527  0.409700  0.962009  1
  Br  Br146  1  0.827473  0.909700  0.962009  1
  Br  Br147  1  0.827473  0.590300  0.462009  1
  Br  Br148  1  0.327473  0.909700  0.537991  1
  Br  Br149  1  0.172527  0.090300  0.037991  1
  Br  Br150  1  0.672527  0.090300  0.462009  1
  Br  Br151  1  0.327473  0.590300  0.037991  1
  N  N152  1  0.392701  0.287649  0.790678  1
  N  N153  1  0.368907  0.070472  0.656557  1
  N  N154  1  0.131093  0.570472  0.656557  1
  N  N155  1  0.392701  0.212351  0.290678  1
  N  N156  1  0.521525  0.471901  0.650416  1
  N  N157  1  0.631093  0.929528  0.343443  1
  N  N158  1  0.868907  0.429528  0.343443  1
  N  N159  1  0.631093  0.570472  0.843443  1
  N  N160  1  0.021525  0.028099  0.349584  1
  N  N161  1  0.607299  0.712351  0.209322  1
  N  N162  1  0.107299  0.787649  0.790678  1
  N  N163  1  0.978475  0.971901  0.650416  1
  N  N164  1  0.107299  0.712351  0.290678  1
  N  N165  1  0.368907  0.429528  0.156557  1
  N  N166  1  0.892701  0.212351  0.209322  1
  N  N167  1  0.868907  0.070472  0.843443  1
  N  N168  1  0.607299  0.787649  0.709322  1
  N  N169  1  0.892701  0.287649  0.709322  1
  N  N170  1  0.021525  0.471901  0.849584  1
  N  N171  1  0.521525  0.028099  0.150416  1
  N  N172  1  0.478475  0.971901  0.849584  1
  N  N173  1  0.978475  0.528099  0.150416  1
  N  N174  1  0.478475  0.528099  0.349584  1
  N  N175  1  0.131093  0.929528  0.156557  1
