# generated using pymatgen
data_HSeNO4
_symmetry_space_group_name_H-M   'P 1'
_cell_length_a   12.62774849
_cell_length_b   4.65636763
_cell_length_c   7.58320673
_cell_angle_alpha   90.03028247
_cell_angle_beta   89.87433770
_cell_angle_gamma   90.06381496
_symmetry_Int_Tables_number   1
_chemical_formula_structural   HSeNO4
_chemical_formula_sum   'H4 Se4 N4 O16'
_cell_volume   445.88689314
_cell_formula_units_Z   4
loop_
 _symmetry_equiv_pos_site_id
 _symmetry_equiv_pos_as_xyz
  1  'x, y, z'
loop_
 _atom_site_type_symbol
 _atom_site_label
 _atom_site_symmetry_multiplicity
 _atom_site_fract_x
 _atom_site_fract_y
 _atom_site_fract_z
 _atom_site_occupancy
  H  H0  1  0.891157  0.281819  0.826962  1
  H  H1  1  0.608952  0.718481  0.326921  1
  H  H2  1  0.391146  0.218185  0.173153  1
  H  H3  1  0.108817  0.782036  0.673103  1
  Se  Se4  1  0.874534  0.727587  0.954617  1
  Se  Se5  1  0.625300  0.271466  0.454821  1
  Se  Se6  1  0.374475  0.771815  0.044626  1
  Se  Se7  1  0.125520  0.227540  0.545002  1
  N  N8  1  0.879003  0.813517  0.445669  1
  N  N9  1  0.621158  0.186470  0.945852  1
  N  N10  1  0.378765  0.686374  0.554386  1
  N  N11  1  0.121036  0.313397  0.054362  1
  O  O12  1  0.782399  0.570799  0.077965  1
  O  O13  1  0.717610  0.429479  0.577655  1
  O  O14  1  0.282538  0.928829  0.922355  1
  O  O15  1  0.217455  0.071019  0.422094  1
  O  O16  1  0.970092  0.846052  0.092189  1
  O  O17  1  0.530151  0.154569  0.591489  1
  O  O18  1  0.469887  0.654494  0.908225  1
  O  O19  1  0.029999  0.345508  0.408079  1
  O  O20  1  0.831951  0.988919  0.826129  1
  O  O21  1  0.668104  0.011205  0.325844  1
  O  O22  1  0.331836  0.510683  0.174050  1
  O  O23  1  0.168090  0.489532  0.674209  1
  O  O24  1  0.931171  0.473961  0.815960  1
  O  O25  1  0.568883  0.526096  0.315887  1
  O  O26  1  0.431174  0.026756  0.184201  1
  O  O27  1  0.068797  0.973409  0.684193  1
