# generated using pymatgen
data_Cd6Sb5
_symmetry_space_group_name_H-M   'P 1'
_cell_length_a   12.73812439
_cell_length_b   12.73812403
_cell_length_c   12.73812459
_cell_angle_alpha   112.49442036
_cell_angle_beta   112.49442110
_cell_angle_gamma   112.49441099
_symmetry_Int_Tables_number   1
_chemical_formula_structural   Cd6Sb5
_chemical_formula_sum   'Cd12 Sb10'
_cell_volume   1384.75251610
_cell_formula_units_Z   2
loop_
 _symmetry_equiv_pos_site_id
 _symmetry_equiv_pos_as_xyz
  1  'x, y, z'
loop_
 _atom_site_type_symbol
 _atom_site_label
 _atom_site_symmetry_multiplicity
 _atom_site_fract_x
 _atom_site_fract_y
 _atom_site_fract_z
 _atom_site_occupancy
  Cd  Cd0  1  0.446854  0.574093  0.019958  1
  Cd  Cd1  1  0.074093  -0.053146  0.519958  1
  Cd  Cd2  1  0.925907  0.053146  0.480042  1
  Cd  Cd3  1  0.053146  0.480042  0.925907  1
  Cd  Cd4  1  0.980042  0.553146  0.425907  1
  Cd  Cd5  1  0.519958  0.074093  -0.053146  1
  Cd  Cd6  1  0.574093  0.019958  0.446854  1
  Cd  Cd7  1  0.019958  0.446854  0.574093  1
  Cd  Cd8  1  0.480042  0.925907  0.053146  1
  Cd  Cd9  1  0.553146  0.425907  0.980042  1
  Cd  Cd10  1  0.425907  0.980042  0.553146  1
  Cd  Cd11  1  -0.053146  0.519958  0.074093  1
  Sb  Sb12  1  0.623082  0.250000  0.876918  1
  Sb  Sb13  1  0.876918  0.623082  0.250000  1
  Sb  Sb14  1  0.374881  0.374881  0.374881  1
  Sb  Sb15  1  0.125119  0.125119  0.125119  1
  Sb  Sb16  1  0.376918  0.750000  0.123082  1
  Sb  Sb17  1  0.750000  0.123082  0.376918  1
  Sb  Sb18  1  0.123082  0.376918  0.750000  1
  Sb  Sb19  1  0.874881  0.874881  0.874881  1
  Sb  Sb20  1  0.250000  0.876918  0.623082  1
  Sb  Sb21  1  0.625119  0.625119  0.625119  1
