# generated using pymatgen
data_Gd3NCl6
_symmetry_space_group_name_H-M   'P 1'
_cell_length_a   7.15926438
_cell_length_b   8.20857706
_cell_length_c   9.77551417
_cell_angle_alpha   75.31442340
_cell_angle_beta   70.93682739
_cell_angle_gamma   65.28075341
_symmetry_Int_Tables_number   1
_chemical_formula_structural   Gd3NCl6
_chemical_formula_sum   'Gd6 N2 Cl12'
_cell_volume   488.62588318
_cell_formula_units_Z   2
loop_
 _symmetry_equiv_pos_site_id
 _symmetry_equiv_pos_as_xyz
  1  'x, y, z'
loop_
 _atom_site_type_symbol
 _atom_site_label
 _atom_site_symmetry_multiplicity
 _atom_site_fract_x
 _atom_site_fract_y
 _atom_site_fract_z
 _atom_site_occupancy
  Gd  Gd0  1  0.588401  0.084527  0.687581  1
  Gd  Gd1  1  0.720332  0.427908  0.779792  1
  Gd  Gd2  1  0.258919  0.583418  0.626220  1
  Gd  Gd3  1  0.279668  0.572092  0.220208  1
  Gd  Gd4  1  0.411599  0.915473  0.312419  1
  Gd  Gd5  1  0.741081  0.416582  0.373780  1
  N  N6  1  0.408035  0.632857  0.376737  1
  N  N7  1  0.591965  0.367143  0.623263  1
  Cl  Cl8  1  0.301200  0.583429  0.910141  1
  Cl  Cl9  1  0.288877  0.898156  0.085304  1
  Cl  Cl10  1  0.000000  0.000000  0.500000  1
  Cl  Cl11  1  0.824631  0.718036  0.797640  1
  Cl  Cl12  1  0.163993  0.260157  0.791611  1
  Cl  Cl13  1  0.711123  0.101844  0.914696  1
  Cl  Cl14  1  0.531420  0.177345  0.395149  1
  Cl  Cl15  1  0.175369  0.281964  0.202360  1
  Cl  Cl16  1  0.468580  0.822655  0.604851  1
  Cl  Cl17  1  0.698800  0.416571  0.089859  1
  Cl  Cl18  1  0.836007  0.739843  0.208389  1
  Cl  Cl19  1  0.000000  0.500000  0.500000  1
