# generated using pymatgen
data_Nd(SmSb)3
_symmetry_space_group_name_H-M   'P 1'
_cell_length_a   16.33604915
_cell_length_b   9.43162169
_cell_length_c   9.43162228
_cell_angle_alpha   90.00000000
_cell_angle_beta   54.73561072
_cell_angle_gamma   54.73561012
_symmetry_Int_Tables_number   1
_chemical_formula_structural   Nd(SmSb)3
_chemical_formula_sum   'Nd4 Sm12 Sb12'
_cell_volume   838.99462464
_cell_formula_units_Z   4
loop_
 _symmetry_equiv_pos_site_id
 _symmetry_equiv_pos_as_xyz
  1  'x, y, z'
loop_
 _atom_site_type_symbol
 _atom_site_label
 _atom_site_symmetry_multiplicity
 _atom_site_fract_x
 _atom_site_fract_y
 _atom_site_fract_z
 _atom_site_occupancy
  Nd  Nd0  1  0.321063  0.000000  0.857875  1
  Nd  Nd1  1  0.178937  0.642125  0.642125  1
  Nd  Nd2  1  0.678937  0.500000  1.000000  1
  Nd  Nd3  1  0.821063  0.857875  0.500000  1
  Sm  Sm4  1  0.070602  0.000000  0.358795  1
  Sm  Sm5  1  0.178573  0.500000  1.000000  1
  Sm  Sm6  1  0.070855  0.358290  0.500000  1
  Sm  Sm7  1  0.429397  0.141205  0.141205  1
  Sm  Sm8  1  0.429145  0.500000  1.000000  1
  Sm  Sm9  1  0.570855  0.000000  0.358290  1
  Sm  Sm10  1  0.321427  0.857146  0.500000  1
  Sm  Sm11  1  0.570603  0.358795  0.500000  1
  Sm  Sm12  1  0.929145  0.141710  0.141710  1
  Sm  Sm13  1  0.929397  0.500000  1.000000  1
  Sm  Sm14  1  0.821427  0.000000  0.857146  1
  Sm  Sm15  1  0.678573  0.642854  0.642854  1
  Sb  Sb16  1  0.998823  0.375112  0.251389  1
  Sb  Sb17  1  0.126065  0.623723  0.372758  1
  Sb  Sb18  1  0.250212  0.248611  0.623723  1
  Sb  Sb19  1  0.373935  0.875853  0.127242  1
  Sb  Sb20  1  0.501177  0.372758  0.248611  1
  Sb  Sb21  1  0.498823  0.127242  0.750965  1
  Sb  Sb22  1  0.249788  0.749035  0.876277  1
  Sb  Sb23  1  0.626065  0.624147  0.375112  1
  Sb  Sb24  1  0.749788  0.251389  0.624147  1
  Sb  Sb25  1  0.873935  0.876277  0.124888  1
  Sb  Sb26  1  0.001177  0.124888  0.749035  1
  Sb  Sb27  1  0.750212  0.750965  0.875853  1
