# generated using pymatgen
data_Hg12SbBr(ClO3)2
_symmetry_space_group_name_H-M   'P 1'
_cell_length_a   14.36482478
_cell_length_b   14.36482634
_cell_length_c   9.94116292
_cell_angle_alpha   90.00016311
_cell_angle_beta   89.99996055
_cell_angle_gamma   120.00008787
_symmetry_Int_Tables_number   1
_chemical_formula_structural   Hg12SbBr(ClO3)2
_chemical_formula_sum   'Hg36 Sb3 Br3 Cl6 O18'
_cell_volume   1776.51202422
_cell_formula_units_Z   3
loop_
 _symmetry_equiv_pos_site_id
 _symmetry_equiv_pos_as_xyz
  1  'x, y, z'
loop_
 _atom_site_type_symbol
 _atom_site_label
 _atom_site_symmetry_multiplicity
 _atom_site_fract_x
 _atom_site_fract_y
 _atom_site_fract_z
 _atom_site_occupancy
  Hg  Hg0  1  0.838948  0.369759  0.273802  1
  Hg  Hg1  1  0.964228  0.502119  0.939721  1
  Hg  Hg2  1  0.292152  0.491214  0.607538  1
  Hg  Hg3  1  0.497881  0.462107  0.939720  1
  Hg  Hg4  1  0.875683  0.695585  0.600418  1
  Hg  Hg5  1  0.213230  0.844170  0.292287  1
  Hg  Hg6  1  0.458252  0.848231  0.065653  1
  Hg  Hg7  1  0.304412  0.180097  0.600419  1
  Hg  Hg8  1  0.367165  0.222746  0.055928  1
  Hg  Hg9  1  0.028854  0.486640  0.388080  1
  Hg  Hg10  1  0.151770  0.610023  0.065656  1
  Hg  Hg11  1  0.705842  0.865290  0.698443  1
  Hg  Hg12  1  0.389978  0.541747  0.065656  1
  Hg  Hg13  1  0.777252  0.144418  0.055928  1
  Hg  Hg14  1  0.185013  0.091499  0.924566  1
  Hg  Hg15  1  0.630940  0.786771  0.292285  1
  Hg  Hg16  1  0.819901  0.124316  0.600421  1
  Hg  Hg17  1  0.855580  0.632835  0.055928  1
  Hg  Hg18  1  0.530809  0.161051  0.273801  1
  Hg  Hg19  1  0.513362  0.542215  0.388080  1
  Hg  Hg20  1  0.537892  0.035772  0.939720  1
  Hg  Hg21  1  0.155830  0.369060  0.292286  1
  Hg  Hg22  1  0.747248  0.519873  0.738519  1
  Hg  Hg23  1  0.134710  0.840552  0.698442  1
  Hg  Hg24  1  0.199060  0.707845  0.607537  1
  Hg  Hg25  1  0.508785  0.800941  0.607541  1
  Hg  Hg26  1  0.136890  0.968274  0.384700  1
  Hg  Hg27  1  0.906486  0.814986  0.924567  1
  Hg  Hg28  1  0.031726  0.168617  0.384702  1
  Hg  Hg29  1  0.457786  0.971148  0.388081  1
  Hg  Hg30  1  0.630241  0.469189  0.273801  1
  Hg  Hg31  1  0.480125  0.227373  0.738518  1
  Hg  Hg32  1  0.831383  0.863110  0.384700  1
  Hg  Hg33  1  0.772625  0.252750  0.738518  1
  Hg  Hg34  1  0.159447  0.294159  0.698442  1
  Hg  Hg35  1  0.908501  0.093516  0.924567  1
  Sb  Sb36  1  0.333346  0.666674  0.326491  1
  Sb  Sb37  1  0.666665  0.333333  0.005358  1
  Sb  Sb38  1  0.999999  0.000001  0.660154  1
  Br  Br39  1  0.000000  1.000000  0.171940  1
  Br  Br40  1  0.333333  0.666666  0.822664  1
  Br  Br41  1  0.666666  0.333333  0.491285  1
  Cl  Cl42  1  0.761431  0.089809  0.330011  1
  Cl  Cl43  1  0.530953  0.539611  0.672058  1
  Cl  Cl44  1  0.910187  0.671619  0.330011  1
  Cl  Cl45  1  0.328380  0.238571  0.330010  1
  Cl  Cl46  1  0.460387  0.991342  0.672057  1
  Cl  Cl47  1  0.008659  0.469044  0.672056  1
  O  O48  1  0.465811  0.723540  0.201111  1
  O  O49  1  0.276463  0.742270  0.201112  1
  O  O50  1  0.614693  0.410072  0.878560  1
  O  O51  1  0.956583  0.871267  0.536348  1
  O  O52  1  0.868554  0.922611  0.786525  1
  O  O53  1  0.795378  0.385307  0.878563  1
  O  O54  1  0.589927  0.204621  0.878563  1
  O  O55  1  0.054061  0.131446  0.786524  1
  O  O56  1  0.402724  0.603858  0.448540  1
  O  O57  1  0.396146  0.798867  0.448538  1
  O  O58  1  0.712193  0.250509  0.131361  1
  O  O59  1  0.749490  0.461684  0.131361  1
  O  O60  1  0.257732  0.534193  0.201112  1
  O  O61  1  0.538316  0.287806  0.131360  1
  O  O62  1  0.128731  0.085318  0.536347  1
  O  O63  1  0.201137  0.597279  0.448536  1
  O  O64  1  0.914683  0.043412  0.536352  1
  O  O65  1  0.077385  0.945941  0.786522  1
