# generated using pymatgen
data_NaCa4TaTi4(SiO5)5
_symmetry_space_group_name_H-M   'P 1'
_cell_length_a   5.51164091
_cell_length_b   5.50948614
_cell_length_c   35.95097782
_cell_angle_alpha   104.28813689
_cell_angle_beta   104.36648356
_cell_angle_gamma   105.57830459
_symmetry_Int_Tables_number   1
_chemical_formula_structural   NaCa4TaTi4(SiO5)5
_chemical_formula_sum   'Na2 Ca8 Ta2 Ti8 Si10 O50'
_cell_volume   959.52342272
_cell_formula_units_Z   2
loop_
 _symmetry_equiv_pos_site_id
 _symmetry_equiv_pos_as_xyz
  1  'x, y, z'
loop_
 _atom_site_type_symbol
 _atom_site_label
 _atom_site_symmetry_multiplicity
 _atom_site_fract_x
 _atom_site_fract_y
 _atom_site_fract_z
 _atom_site_occupancy
  Na  Na0  1  0.154761  0.821414  0.746964  1
  Na  Na1  1  0.156446  0.822444  0.546637  1
  Ca  Ca2  1  0.171472  0.831332  0.951129  1
  Ca  Ca3  1  0.172528  0.833521  0.350583  1
  Ca  Ca4  1  0.834479  0.173890  0.852539  1
  Ca  Ca5  1  0.170829  0.830653  0.150310  1
  Ca  Ca6  1  0.839395  0.175084  0.652789  1
  Ca  Ca7  1  0.836132  0.172939  0.450978  1
  Ca  Ca8  1  0.831045  0.171012  0.250459  1
  Ca  Ca9  1  0.830236  0.170156  0.050656  1
  Ta  Ta10  1  0.491998  0.493488  0.799376  1
  Ta  Ta11  1  0.492998  0.496494  0.598103  1
  Ti  Ti12  1  0.502391  0.498150  0.001833  1
  Ti  Ti13  1  0.500759  0.504148  0.902358  1
  Ti  Ti14  1  0.506020  0.505548  0.700010  1
  Ti  Ti15  1  0.505077  0.503701  0.498611  1
  Ti  Ti16  1  0.503615  0.502851  0.400189  1
  Ti  Ti17  1  0.499394  0.502638  0.300863  1
  Ti  Ti18  1  0.502240  0.498191  0.201248  1
  Ti  Ti19  1  0.497891  0.502222  0.101529  1
  Si  Si20  1  0.185329  0.820928  0.851743  1
  Si  Si21  1  0.186566  0.819559  0.651054  1
  Si  Si22  1  0.182825  0.816466  0.449348  1
  Si  Si23  1  0.818705  0.183738  0.950888  1
  Si  Si24  1  0.181999  0.817647  0.249733  1
  Si  Si25  1  0.812707  0.178790  0.749000  1
  Si  Si26  1  0.182035  0.817552  0.050114  1
  Si  Si27  1  0.812539  0.177444  0.548032  1
  Si  Si28  1  0.817980  0.182743  0.349739  1
  Si  Si29  1  0.817746  0.182215  0.150011  1
  O  O30  1  0.120915  0.249589  0.982322  1
  O  O31  1  0.185817  0.609697  0.877208  1
  O  O32  1  0.114239  0.252441  0.781824  1
  O  O33  1  0.430551  0.568987  0.950195  1
  O  O34  1  0.251732  0.122046  0.882863  1
  O  O35  1  0.399007  0.813505  0.826766  1
  O  O36  1  0.186259  0.597116  0.674112  1
  O  O37  1  0.115377  0.254306  0.580699  1
  O  O38  1  0.431647  0.573531  0.750042  1
  O  O39  1  0.610477  0.186479  0.976895  1
  O  O40  1  0.749387  0.882097  0.918594  1
  O  O41  1  0.253365  0.120972  0.682126  1
  O  O42  1  0.399147  0.814498  0.625502  1
  O  O43  1  0.569486  0.425379  0.851085  1
  O  O44  1  0.186870  0.596759  0.473096  1
  O  O45  1  0.815031  0.394074  0.925015  1
  O  O46  1  0.121607  0.251307  0.380971  1
  O  O47  1  0.432434  0.573945  0.548918  1
  O  O48  1  0.618351  0.193679  0.777467  1
  O  O49  1  0.738201  0.879156  0.717171  1
  O  O50  1  0.252026  0.119497  0.480852  1
  O  O51  1  0.388811  0.812862  0.422495  1
  O  O52  1  0.571273  0.425240  0.650170  1
  O  O53  1  0.882396  0.752854  0.819853  1
  O  O54  1  0.186710  0.609064  0.275859  1
  O  O55  1  0.805891  0.386650  0.723358  1
  O  O56  1  0.120794  0.250369  0.181507  1
  O  O57  1  0.430451  0.568931  0.349039  1
  O  O58  1  0.617708  0.194863  0.576295  1
  O  O59  1  0.739304  0.876098  0.516595  1
  O  O60  1  0.251114  0.120618  0.281337  1
  O  O61  1  0.389452  0.812194  0.223438  1
  O  O62  1  0.570819  0.430316  0.448752  1
  O  O63  1  0.882399  0.753330  0.619263  1
  O  O64  1  0.186580  0.609539  0.076366  1
  O  O65  1  0.803380  0.381244  0.521593  1
  O  O66  1  0.431030  0.569079  0.149579  1
  O  O67  1  0.609368  0.187710  0.375604  1
  O  O68  1  0.749442  0.879629  0.317866  1
  O  O69  1  0.250805  0.120392  0.081728  1
  O  O70  1  0.389939  0.812419  0.023949  1
  O  O71  1  0.569140  0.431045  0.249417  1
  O  O72  1  0.879059  0.750539  0.417658  1
  O  O73  1  0.812244  0.390154  0.323239  1
  O  O74  1  0.610225  0.186860  0.176215  1
  O  O75  1  0.749504  0.879911  0.118138  1
  O  O76  1  0.570278  0.431688  0.050002  1
  O  O77  1  0.879360  0.750095  0.218026  1
  O  O78  1  0.812639  0.390535  0.123775  1
  O  O79  1  0.879822  0.749755  0.018331  1
