# generated using pymatgen
data_K4Mg2H16S4O23
_symmetry_space_group_name_H-M   'P 1'
_cell_length_a   7.91794992
_cell_length_b   7.74878073
_cell_length_c   9.93595839
_cell_angle_alpha   84.39348626
_cell_angle_beta   83.72368375
_cell_angle_gamma   80.58496211
_symmetry_Int_Tables_number   1
_chemical_formula_structural   K4Mg2H16S4O23
_chemical_formula_sum   'K4 Mg2 H16 S4 O23'
_cell_volume   595.81539700
_cell_formula_units_Z   1
loop_
 _symmetry_equiv_pos_site_id
 _symmetry_equiv_pos_as_xyz
  1  'x, y, z'
loop_
 _atom_site_type_symbol
 _atom_site_label
 _atom_site_symmetry_multiplicity
 _atom_site_fract_x
 _atom_site_fract_y
 _atom_site_fract_z
 _atom_site_occupancy
  K  K0  1  0.078923  0.613444  0.278521  1
  K  K1  1  0.581074  0.087522  0.280308  1
  K  K2  1  0.390890  0.919411  0.704721  1
  K  K3  1  0.899430  0.416312  0.757583  1
  Mg  Mg4  1  0.003609  0.002401  0.050958  1
  Mg  Mg5  1  0.493751  0.487433  0.500495  1
  H  H6  1  0.073632  0.086613  0.729090  1
  H  H7  1  0.109064  0.027433  0.310403  1
  H  H8  1  0.174681  0.657198  0.619009  1
  H  H9  1  0.207221  0.675596  0.977821  1
  H  H10  1  0.271616  0.549234  0.736991  1
  H  H11  1  0.332394  0.791755  0.027406  1
  H  H12  1  0.345595  0.817417  0.379205  1
  H  H13  1  0.447697  0.713754  0.262217  1
  H  H14  1  0.554392  0.273880  0.740574  1
  H  H15  1  0.657474  0.175019  0.620019  1
  H  H16  1  0.673697  0.201148  0.979316  1
  H  H17  1  0.733368  0.450476  0.257057  1
  H  H18  1  0.777769  0.334883  0.034293  1
  H  H19  1  0.814342  0.337844  0.380113  1
  H  H20  1  0.933987  0.959438  0.726261  1
  H  H21  1  0.929431  0.946134  0.316906  1
  S  S22  1  0.230767  0.256564  0.389667  1
  S  S23  1  0.263496  0.271112  0.897033  1
  S  S24  1  0.737343  0.739232  0.105066  1
  S  S25  1  0.754245  0.757295  0.595743  1
  O  O26  1  0.008918  0.004974  0.253545  1
  O  O27  1  0.165914  0.175973  0.008829  1
  O  O28  1  0.212583  0.228794  0.765294  1
  O  O29  1  0.248046  0.051273  0.387748  1
  O  O30  1  0.217197  0.465537  0.904376  1
  O  O31  1  0.212134  0.791933  0.009763  1
  O  O32  1  0.286820  0.323384  0.246541  1
  O  O33  1  0.377312  0.279113  0.474317  1
  O  O34  1  0.291476  0.608324  0.643974  1
  O  O35  1  0.379426  0.695914  0.350855  1
  O  O36  1  0.452635  0.215583  0.900589  1
  O  O37  1  0.550087  0.787655  0.091165  1
  O  O38  1  0.626010  0.294183  0.652866  1
  O  O39  1  0.703704  0.380733  0.344182  1
  O  O40  1  0.786424  0.212902  0.007828  1
  O  O41  1  0.645520  0.662266  0.523979  1
  O  O42  1  0.709748  0.725375  0.744745  1
  O  O43  1  0.793269  0.545694  0.095266  1
  O  O44  1  0.713073  0.948587  0.554070  1
  O  O45  1  0.772257  0.782681  0.240890  1
  O  O46  1  0.842545  0.840822  0.000244  1
  O  O47  1  0.939283  0.687686  0.558449  1
  O  O48  1  0.041629  -0.008034  0.682811  1
