# generated using pymatgen
data_Ta8Pb6O25
_symmetry_space_group_name_H-M   'P 1'
_cell_length_a   7.54932973
_cell_length_b   15.07829898
_cell_length_c   13.02089998
_cell_angle_alpha   30.05799288
_cell_angle_beta   54.63412052
_cell_angle_gamma   59.85011081
_symmetry_Int_Tables_number   1
_chemical_formula_structural   Ta8Pb6O25
_chemical_formula_sum   'Ta8 Pb6 O25'
_cell_volume   605.39579871
_cell_formula_units_Z   1
loop_
 _symmetry_equiv_pos_site_id
 _symmetry_equiv_pos_as_xyz
  1  'x, y, z'
loop_
 _atom_site_type_symbol
 _atom_site_label
 _atom_site_symmetry_multiplicity
 _atom_site_fract_x
 _atom_site_fract_y
 _atom_site_fract_z
 _atom_site_occupancy
  Ta  Ta0  1  -0.000073  0.998102  0.002982  1
  Ta  Ta1  1  0.005580  0.248548  0.003356  1
  Ta  Ta2  1  0.501483  0.996355  0.005385  1
  Ta  Ta3  1  0.004528  0.504085  0.994030  1
  Ta  Ta4  1  0.001116  0.248639  0.498469  1
  Ta  Ta5  1  0.000830  0.750843  0.997563  1
  Ta  Ta6  1  0.501599  0.505645  0.991582  1
  Ta  Ta7  1  0.002093  0.752194  0.499781  1
  Pb  Pb8  1  0.493035  0.231057  0.035962  1
  Pb  Pb9  1  0.499118  0.004565  0.478235  1
  Pb  Pb10  1  0.992623  0.500252  0.507839  1
  Pb  Pb11  1  0.507747  0.246151  0.497173  1
  Pb  Pb12  1  0.512307  0.751274  0.991981  1
  Pb  Pb13  1  0.500975  0.496219  0.509177  1
  O  O14  1  0.069841  0.316602  0.054349  1
  O  O15  1  0.692276  0.008065  0.050794  1
  O  O16  1  0.067421  0.999620  0.690409  1
  O  O17  1  0.314975  0.311829  0.312501  1
  O  O18  1  0.070095  0.191952  0.681832  1
  O  O19  1  0.066709  0.808567  0.066002  1
  O  O20  1  0.692415  0.317637  0.055646  1
  O  O21  1  0.679812  0.497535  0.071453  1
  O  O22  1  0.320206  0.002425  0.929480  1
  O  O23  1  0.067526  0.499914  0.680430  1
  O  O24  1  0.377170  0.498151  0.376836  1
  O  O25  1  0.313698  0.187057  0.936685  1
  O  O26  1  0.313665  0.811461  0.310985  1
  O  O27  1  0.054304  0.681683  0.693916  1
  O  O28  1  0.683904  0.191625  0.683363  1
  O  O29  1  0.929151  0.316705  0.313159  1
  O  O30  1  0.686134  0.810128  0.064642  1
  O  O31  1  0.311133  0.490303  0.949297  1
  O  O32  1  0.936050  0.500602  0.316490  1
  O  O33  1  0.311290  0.687280  0.936901  1
  O  O34  1  0.938691  0.191002  0.932598  1
  O  O35  1  0.948672  0.809337  0.309618  1
  O  O36  1  0.686847  0.692296  0.686172  1
  O  O37  1  0.929973  0.001852  0.307384  1
  O  O38  1  0.930071  0.685270  0.943875  1
