# generated using pymatgen
data_Ba3La3Ti4NbO18
_symmetry_space_group_name_H-M   'P 1'
_cell_length_a   14.17746131
_cell_length_b   14.17746105
_cell_length_c   14.17746192
_cell_angle_alpha   23.12808524
_cell_angle_beta   23.12808768
_cell_angle_gamma   23.12808654
_symmetry_Int_Tables_number   1
_chemical_formula_structural   Ba3La3Ti4NbO18
_chemical_formula_sum   'Ba3 La3 Ti4 Nb1 O18'
_cell_volume   385.91965334
_cell_formula_units_Z   1
loop_
 _symmetry_equiv_pos_site_id
 _symmetry_equiv_pos_as_xyz
  1  'x, y, z'
loop_
 _atom_site_type_symbol
 _atom_site_label
 _atom_site_symmetry_multiplicity
 _atom_site_fract_x
 _atom_site_fract_y
 _atom_site_fract_z
 _atom_site_occupancy
  Ba  Ba0  1  0.138103  0.138103  0.138103  1
  Ba  Ba1  1  0.312230  0.312230  0.312230  1
  Ba  Ba2  1  0.583986  0.583986  0.583986  1
  La  La3  1  0.409644  0.409644  0.409644  1
  La  La4  1  0.684851  0.684851  0.684851  1
  La  La5  1  0.860779  0.860779  0.860779  1
  Ti  Ti6  1  0.052336  0.052336  0.052336  1
  Ti  Ti7  1  0.221870  0.221870  0.221870  1
  Ti  Ti8  1  0.498028  0.498028  0.498028  1
  Ti  Ti9  1  0.775312  0.775312  0.775312  1
  Nb  Nb10  1  0.948917  0.948917  0.948917  1
  O  O11  1  0.078212  0.078212  0.585745  1
  O  O12  1  0.078212  0.585745  0.078212  1
  O  O13  1  0.585745  0.078212  0.078212  1
  O  O14  1  0.201922  0.201922  0.693942  1
  O  O15  1  0.201922  0.693942  0.201922  1
  O  O16  1  0.693942  0.201922  0.201922  1
  O  O17  1  0.137003  0.642232  0.642232  1
  O  O18  1  0.642232  0.642232  0.137003  1
  O  O19  1  0.642232  0.137003  0.642232  1
  O  O20  1  0.360006  0.861746  0.360006  1
  O  O21  1  0.360006  0.360006  0.861746  1
  O  O22  1  0.861746  0.360006  0.360006  1
  O  O23  1  0.308683  0.804181  0.804181  1
  O  O24  1  0.804181  0.804181  0.308683  1
  O  O25  1  0.804181  0.308683  0.804181  1
  O  O26  1  0.424100  0.914808  0.914808  1
  O  O27  1  0.914808  0.424100  0.914808  1
  O  O28  1  0.914808  0.914808  0.424100  1
