# generated using pymatgen
data_Na16Be8H15
_symmetry_space_group_name_H-M   'P 1'
_cell_length_a   10.10728830
_cell_length_b   8.48375219
_cell_length_c   26.86525278
_cell_angle_alpha   90.94334260
_cell_angle_beta   91.20759331
_cell_angle_gamma   53.31375709
_symmetry_Int_Tables_number   1
_chemical_formula_structural   Na16Be8H15
_chemical_formula_sum   'Na48 Be24 H45'
_cell_volume   1846.89663379
_cell_formula_units_Z   3
loop_
 _symmetry_equiv_pos_site_id
 _symmetry_equiv_pos_as_xyz
  1  'x, y, z'
loop_
 _atom_site_type_symbol
 _atom_site_label
 _atom_site_symmetry_multiplicity
 _atom_site_fract_x
 _atom_site_fract_y
 _atom_site_fract_z
 _atom_site_occupancy
  Na  Na0  1  0.034770  0.174862  0.139862  1
  Na  Na1  1  0.000540  0.237235  0.475152  1
  Na  Na2  1  0.005318  0.238748  0.808526  1
  Na  Na3  1  0.386003  0.002311  0.077765  1
  Na  Na4  1  0.348381  0.004118  0.406305  1
  Na  Na5  1  0.244601  0.276677  0.637078  1
  Na  Na6  1  0.129980  0.500576  0.087254  1
  Na  Na7  1  0.229569  0.304603  0.307686  1
  Na  Na8  1  0.352671  0.006244  0.740746  1
  Na  Na9  1  0.250559  0.259880  0.971557  1
  Na  Na10  1  0.109837  0.504122  0.424551  1
  Na  Na11  1  0.115463  0.499093  0.754914  1
  Na  Na12  1  0.530414  0.183464  0.470648  1
  Na  Na13  1  0.507699  0.239830  0.141565  1
  Na  Na14  1  0.383188  0.499376  0.243009  1
  Na  Na15  1  0.244166  0.751866  0.025431  1
  Na  Na16  1  0.277981  0.689660  0.362643  1
  Na  Na17  1  0.126241  0.004052  0.267218  1
  Na  Na18  1  0.124977  0.001430  0.591849  1
  Na  Na19  1  0.534898  0.179740  0.805167  1
  Na  Na20  1  0.381560  0.493675  0.573474  1
  Na  Na21  1  0.373825  0.499125  0.907530  1
  Na  Na22  1  0.276165  0.697325  0.692043  1
  Na  Na23  1  0.131407  0.997481  0.918360  1
  Na  Na24  1  0.480594  0.770419  0.194611  1
  Na  Na25  1  0.482700  0.773547  0.523944  1
  Na  Na26  1  0.488593  0.766998  0.856636  1
  Na  Na27  1  0.851326  0.005089  0.074197  1
  Na  Na28  1  0.886268  0.001248  0.411258  1
  Na  Na29  1  0.886846  -0.000218  0.744215  1
  Na  Na30  1  0.748281  0.258577  0.305864  1
  Na  Na31  1  0.731630  0.270175  0.644152  1
  Na  Na32  1  0.613942  0.498515  0.091558  1
  Na  Na33  1  0.634895  0.498941  0.421131  1
  Na  Na34  1  0.630735  0.502647  0.754538  1
  Na  Na35  1  0.731711  0.300885  0.973731  1
  Na  Na36  1  0.870790  0.498243  0.242244  1
  Na  Na37  1  0.876612  0.494605  0.580112  1
  Na  Na38  1  0.883411  0.499537  0.910053  1
  Na  Na39  1  0.768257  0.702203  0.028906  1
  Na  Na40  1  0.736974  0.763330  0.357393  1
  Na  Na41  1  0.740169  0.756102  0.695257  1
  Na  Na42  1  0.625155  0.997504  0.251942  1
  Na  Na43  1  0.623978  0.002553  0.593193  1
  Na  Na44  1  0.623375  0.002598  0.931184  1
  Na  Na45  1  0.985630  0.775012  0.190732  1
  Na  Na46  1  0.990975  0.774046  0.527719  1
  Na  Na47  1  0.981997  0.780585  0.860486  1
  Be  Be48  1  0.024501  0.258063  0.031317  1
  Be  Be49  1  0.980220  0.315723  0.366487  1
  Be  Be50  1  0.997039  0.286867  0.695109  1
  Be  Be51  1  0.279816  0.229712  0.197314  1
  Be  Be52  1  0.246228  0.247641  0.521727  1
  Be  Be53  1  0.262086  0.233436  0.859815  1
  Be  Be54  1  0.494341  0.290331  0.029359  1
  Be  Be55  1  0.523572  0.251906  0.363714  1
  Be  Be56  1  0.509496  0.245408  0.695507  1
  Be  Be57  1  0.252225  0.717580  0.134554  1
  Be  Be58  1  0.227257  0.769014  0.470504  1
  Be  Be59  1  0.227030  0.766273  0.802362  1
  Be  Be60  1  0.770834  0.241569  0.533289  1
  Be  Be61  1  0.771064  0.239976  0.863191  1
  Be  Be62  1  0.502107  0.732905  0.635574  1
  Be  Be63  1  0.761748  0.242150  0.194034  1
  Be  Be64  1  0.501552  0.721527  0.305123  1
  Be  Be65  1  0.472081  0.780111  0.968635  1
  Be  Be66  1  0.716561  0.772000  0.136884  1
  Be  Be67  1  0.769549  0.699005  0.463968  1
  Be  Be68  1  0.755908  0.717967  0.803641  1
  Be  Be69  1  0.970904  0.780272  0.302462  1
  Be  Be70  1  0.976328  0.761374  0.637303  1
  Be  Be71  1  -0.003077  0.717185  0.970535  1
  H  H72  1  0.122007  0.243236  0.071546  1
  H  H73  1  0.154536  0.214680  0.214056  1
  H  H74  1  0.139376  0.246040  0.554593  1
  H  H75  1  0.143696  0.241684  0.888558  1
  H  H76  1  0.382025  0.266944  0.051248  1
  H  H77  1  0.379627  0.279116  0.382254  1
  H  H78  1  0.113588  0.785092  0.103316  1
  H  H79  1  0.134609  0.747421  0.434582  1
  H  H80  1  0.376194  0.272928  0.721634  1
  H  H81  1  0.139935  0.738354  0.765943  1
  H  H82  1  0.361135  0.255380  0.235975  1
  H  H83  1  0.131490  0.714804  0.288199  1
  H  H84  1  0.393860  0.201551  0.544102  1
  H  H85  1  0.376013  0.246217  0.887471  1
  H  H86  1  0.119711  0.733849  0.618663  1
  H  H87  1  0.123964  0.721825  0.950410  1
  H  H88  1  0.622849  0.244473  0.402462  1
  H  H89  1  0.617308  0.249021  0.729493  1
  H  H90  1  0.645735  0.234940  0.219918  1
  H  H91  1  0.381905  0.750982  0.270437  1
  H  H92  1  0.382528  0.751170  0.603004  1
  H  H93  1  0.393921  0.731365  0.934851  1
  H  H94  1  0.652483  0.210797  0.546927  1
  H  H95  1  0.654328  0.214351  0.882584  1
  H  H96  1  0.333970  0.801026  0.121666  1
  H  H97  1  0.366437  0.742997  0.449474  1
  H  H98  1  0.361141  0.751315  0.780901  1
  H  H99  1  0.600375  0.811352  0.450022  1
  H  H100  1  0.877527  0.286660  0.046449  1
  H  H101  1  0.890372  0.255258  0.386780  1
  H  H102  1  0.880112  0.268645  0.716539  1
  H  H103  1  0.635793  0.738830  0.099440  1
  H  H104  1  0.616314  0.784849  0.773356  1
  H  H105  1  0.879513  0.236581  0.225246  1
  H  H106  1  0.857106  0.248730  0.574577  1
  H  H107  1  0.863250  0.252153  0.901513  1
  H  H108  1  0.619032  0.738027  0.608011  1
  H  H109  1  0.624346  0.723130  0.280733  1
  H  H110  1  0.634616  0.706386  0.954965  1
  H  H111  1  0.888792  0.739870  0.599300  1
  H  H112  1  0.881109  0.753605  0.933534  1
  H  H113  1  0.894842  0.731791  0.267397  1
  H  H114  1  0.856125  0.753285  0.118496  1
  H  H115  1  0.838422  0.802693  0.459911  1
  H  H116  1  0.835222  0.803534  0.790514  1
