# generated using pymatgen
data_Nb6InCl15
_symmetry_space_group_name_H-M   'P 1'
_cell_length_a   9.45601356
_cell_length_b   13.64630026
_cell_length_c   18.16375314
_cell_angle_alpha   90.00000000
_cell_angle_beta   90.00000000
_cell_angle_gamma   90.00000000
_symmetry_Int_Tables_number   1
_chemical_formula_structural   Nb6InCl15
_chemical_formula_sum   'Nb24 In4 Cl60'
_cell_volume   2343.84344518
_cell_formula_units_Z   4
loop_
 _symmetry_equiv_pos_site_id
 _symmetry_equiv_pos_as_xyz
  1  'x, y, z'
loop_
 _atom_site_type_symbol
 _atom_site_label
 _atom_site_symmetry_multiplicity
 _atom_site_fract_x
 _atom_site_fract_y
 _atom_site_fract_z
 _atom_site_occupancy
  Nb  Nb0  1  0.647264  0.391132  0.970860  1
  Nb  Nb1  1  0.617656  0.000000  0.750000  1
  Nb  Nb2  1  0.647264  0.608868  0.970860  1
  Nb  Nb3  1  0.833282  0.109446  0.832217  1
  Nb  Nb4  1  0.833282  0.890554  0.832217  1
  Nb  Nb5  1  0.352736  0.608868  0.470860  1
  Nb  Nb6  1  0.833282  0.890554  0.667783  1
  Nb  Nb7  1  0.579851  0.500000  0.394086  1
  Nb  Nb8  1  0.050676  0.000000  0.750000  1
  Nb  Nb9  1  0.833282  0.109446  0.667783  1
  Nb  Nb10  1  0.166718  0.109446  0.332217  1
  Nb  Nb11  1  0.647264  0.391132  0.529140  1
  Nb  Nb12  1  0.420149  0.500000  0.894086  1
  Nb  Nb13  1  0.647264  0.608868  0.529140  1
  Nb  Nb14  1  0.166718  0.890554  0.332217  1
  Nb  Nb15  1  0.352736  0.391132  0.029140  1
  Nb  Nb16  1  0.579851  0.500000  0.105914  1
  Nb  Nb17  1  0.382344  0.000000  0.250000  1
  Nb  Nb18  1  0.352736  0.391132  0.470860  1
  Nb  Nb19  1  0.166718  0.109446  0.167783  1
  Nb  Nb20  1  0.166718  0.890554  0.167783  1
  Nb  Nb21  1  0.352736  0.608868  0.029140  1
  Nb  Nb22  1  0.949324  0.000000  0.250000  1
  Nb  Nb23  1  0.420149  0.500000  0.605914  1
  In  In24  1  0.317633  0.254913  0.750000  1
  In  In25  1  0.682367  0.745087  0.250000  1
  In  In26  1  0.682367  0.254913  0.250000  1
  In  In27  1  0.317633  0.745087  0.750000  1
  Cl  Cl28  1  0.232300  0.373895  0.592525  1
  Cl  Cl29  1  0.767700  0.373895  0.092525  1
  Cl  Cl30  1  0.155372  0.746575  0.250000  1
  Cl  Cl31  1  0.844628  0.746575  0.750000  1
  Cl  Cl32  1  0.834146  0.749657  0.564655  1
  Cl  Cl33  1  0.844628  0.253425  0.750000  1
  Cl  Cl34  1  0.573645  0.875641  0.654336  1
  Cl  Cl35  1  0.500000  0.752499  0.500000  1
  Cl  Cl36  1  0.841992  0.500000  0.930876  1
  Cl  Cl37  1  0.500000  0.247501  0.000000  1
  Cl  Cl38  1  0.093452  0.875277  0.847864  1
  Cl  Cl39  1  0.093452  0.124723  0.652136  1
  Cl  Cl40  1  0.158008  0.500000  0.430876  1
  Cl  Cl41  1  0.313382  0.500000  0.750000  1
  Cl  Cl42  1  0.906548  0.124723  0.152136  1
  Cl  Cl43  1  0.093452  0.124723  0.847864  1
  Cl  Cl44  1  0.093452  0.875277  0.652136  1
  Cl  Cl45  1  0.767700  0.626105  0.092525  1
  Cl  Cl46  1  0.841992  0.500000  0.569124  1
  Cl  Cl47  1  0.165854  0.749657  0.435345  1
  Cl  Cl48  1  0.500000  0.247501  0.500000  1
  Cl  Cl49  1  0.573645  0.875641  0.845664  1
  Cl  Cl50  1  0.667108  0.000000  0.250000  1
  Cl  Cl51  1  0.834146  0.749657  0.935345  1
  Cl  Cl52  1  0.500000  0.752499  0.000000  1
  Cl  Cl53  1  0.578553  0.623921  0.659546  1
  Cl  Cl54  1  0.232300  0.373895  0.907475  1
  Cl  Cl55  1  0.155372  0.253425  0.250000  1
  Cl  Cl56  1  0.830637  0.000000  0.940908  1
  Cl  Cl57  1  0.906548  0.875277  0.347864  1
  Cl  Cl58  1  0.573645  0.124359  0.654336  1
  Cl  Cl59  1  0.578553  0.376079  0.840454  1
  Cl  Cl60  1  0.573645  0.124359  0.845664  1
  Cl  Cl61  1  0.421447  0.376079  0.340454  1
  Cl  Cl62  1  0.767700  0.373895  0.407475  1
  Cl  Cl63  1  0.426355  0.875641  0.345664  1
  Cl  Cl64  1  0.834146  0.250343  0.564655  1
  Cl  Cl65  1  0.158008  0.500000  0.069124  1
  Cl  Cl66  1  0.686618  0.500000  0.250000  1
  Cl  Cl67  1  0.232300  0.626105  0.592525  1
  Cl  Cl68  1  0.165854  0.250343  0.064655  1
  Cl  Cl69  1  0.421447  0.623921  0.340454  1
  Cl  Cl70  1  0.169363  0.000000  0.059092  1
  Cl  Cl71  1  0.232300  0.626105  0.907475  1
  Cl  Cl72  1  0.421447  0.376079  0.159546  1
  Cl  Cl73  1  0.426355  0.124359  0.345664  1
  Cl  Cl74  1  0.906548  0.124723  0.347864  1
  Cl  Cl75  1  0.834146  0.250343  0.935345  1
  Cl  Cl76  1  0.421447  0.623921  0.159546  1
  Cl  Cl77  1  0.165854  0.749657  0.064655  1
  Cl  Cl78  1  0.767700  0.626105  0.407475  1
  Cl  Cl79  1  0.578553  0.623921  0.840454  1
  Cl  Cl80  1  0.578553  0.376079  0.659546  1
  Cl  Cl81  1  0.169363  0.000000  0.440908  1
  Cl  Cl82  1  0.426355  0.124359  0.154336  1
  Cl  Cl83  1  0.332892  0.000000  0.750000  1
  Cl  Cl84  1  0.830637  0.000000  0.559092  1
  Cl  Cl85  1  0.906548  0.875277  0.152136  1
  Cl  Cl86  1  0.426355  0.875641  0.154336  1
  Cl  Cl87  1  0.165854  0.250343  0.435345  1
