# generated using pymatgen
data_InGaSe2
_symmetry_space_group_name_H-M   'P 1'
_cell_length_a   6.33552067
_cell_length_b   13.30761674
_cell_length_c   10.41171520
_cell_angle_alpha   38.52028929
_cell_angle_beta   52.73132320
_cell_angle_gamma   61.72021476
_symmetry_Int_Tables_number   1
_chemical_formula_structural   InGaSe2
_chemical_formula_sum   'In4 Ga4 Se8'
_cell_volume   435.06504128
_cell_formula_units_Z   4
loop_
 _symmetry_equiv_pos_site_id
 _symmetry_equiv_pos_as_xyz
  1  'x, y, z'
loop_
 _atom_site_type_symbol
 _atom_site_label
 _atom_site_symmetry_multiplicity
 _atom_site_fract_x
 _atom_site_fract_y
 _atom_site_fract_z
 _atom_site_occupancy
  In  In0  1  0.105075  0.999971  0.000189  1
  In  In1  1  0.605075  0.000029  0.000132  1
  In  In2  1  0.394925  0.499971  0.999868  1
  In  In3  1  0.894925  0.500029  0.999811  1
  Ga  Ga4  1  0.250002  0.999671  0.500328  1
  Ga  Ga5  1  0.249998  0.499671  0.500331  1
  Ga  Ga6  1  0.750002  0.000329  0.499669  1
  Ga  Ga7  1  0.749998  0.500329  0.499672  1
  Se  Se8  1  0.160642  0.161197  0.177562  1
  Se  Se9  1  0.160646  0.661190  0.177571  1
  Se  Se10  1  0.339354  0.161190  0.500050  1
  Se  Se11  1  0.339358  0.661197  0.500044  1
  Se  Se12  1  0.660646  0.338810  0.499950  1
  Se  Se13  1  0.660642  0.838803  0.499956  1
  Se  Se14  1  0.839358  0.338803  0.822438  1
  Se  Se15  1  0.839354  0.838810  0.822429  1
