# generated using pymatgen
data_Ba2PtAu
_symmetry_space_group_name_H-M   'P 1'
_cell_length_a   13.47430665
_cell_length_b   4.84985737
_cell_length_c   12.07031905
_cell_angle_alpha   90.00000000
_cell_angle_beta   89.97963341
_cell_angle_gamma   90.00000000
_symmetry_Int_Tables_number   1
_chemical_formula_structural   Ba2PtAu
_chemical_formula_sum   'Ba12 Pt6 Au6'
_cell_volume   788.77677727
_cell_formula_units_Z   6
loop_
 _symmetry_equiv_pos_site_id
 _symmetry_equiv_pos_as_xyz
  1  'x, y, z'
loop_
 _atom_site_type_symbol
 _atom_site_label
 _atom_site_symmetry_multiplicity
 _atom_site_fract_x
 _atom_site_fract_y
 _atom_site_fract_z
 _atom_site_occupancy
  Ba  Ba0  1  0.003932  0.250000  0.132403  1
  Ba  Ba1  1  0.171005  0.750000  0.357531  1
  Ba  Ba2  1  0.162079  0.250000  0.632478  1
  Ba  Ba3  1  0.328383  0.250000  0.141696  1
  Ba  Ba4  1  0.338726  0.750000  0.866811  1
  Ba  Ba5  1  0.500851  0.750000  0.363977  1
  Ba  Ba6  1  0.498986  0.250000  0.638815  1
  Ba  Ba7  1  0.667188  0.250000  0.139078  1
  Ba  Ba8  1  0.666159  0.750000  0.863799  1
  Ba  Ba9  1  0.828555  0.750000  0.366711  1
  Ba  Ba10  1  0.838037  0.250000  0.641789  1
  Ba  Ba11  1  0.995884  0.750000  0.857657  1
  Pt  Pt12  1  0.999593  0.750000  0.574619  1
  Pt  Pt13  1  0.166572  0.750000  0.074490  1
  Pt  Pt14  1  0.332060  0.250000  0.424442  1
  Pt  Pt15  1  0.499027  0.250000  0.925421  1
  Pt  Pt16  1  0.668465  0.250000  0.425735  1
  Pt  Pt17  1  0.835184  0.250000  0.924539  1
  Au  Au18  1  0.167693  0.250000  0.923368  1
  Au  Au19  1  0.333404  0.750000  0.574260  1
  Au  Au20  1  0.500948  0.750000  0.076597  1
  Au  Au21  1  0.665182  0.750000  0.576428  1
  Au  Au22  1  0.832322  0.750000  0.074238  1
  Au  Au23  1  0.999765  0.250000  0.423118  1
