# generated using pymatgen
data_Zr7Ni10
_symmetry_space_group_name_H-M   'P 1'
_cell_length_a   7.71475309
_cell_length_b   7.71475341
_cell_length_c   9.23053354
_cell_angle_alpha   90.00000000
_cell_angle_beta   90.00000000
_cell_angle_gamma   106.83686980
_symmetry_Int_Tables_number   1
_chemical_formula_structural   Zr7Ni10
_chemical_formula_sum   'Zr14 Ni20'
_cell_volume   525.82752277
_cell_formula_units_Z   2
loop_
 _symmetry_equiv_pos_site_id
 _symmetry_equiv_pos_as_xyz
  1  'x, y, z'
loop_
 _atom_site_type_symbol
 _atom_site_label
 _atom_site_symmetry_multiplicity
 _atom_site_fract_x
 _atom_site_fract_y
 _atom_site_fract_z
 _atom_site_occupancy
  Zr  Zr0  1  0.192975  0.807025  0.500000  1
  Zr  Zr1  1  0.813005  0.813005  0.312251  1
  Zr  Zr2  1  0.995800  0.495800  0.750000  1
  Zr  Zr3  1  0.307025  0.692975  0.000000  1
  Zr  Zr4  1  0.504200  0.004200  0.250000  1
  Zr  Zr5  1  0.495800  0.995800  0.750000  1
  Zr  Zr6  1  0.692975  0.307025  0.000000  1
  Zr  Zr7  1  0.004200  0.504200  0.250000  1
  Zr  Zr8  1  0.000000  0.000000  0.000000  1
  Zr  Zr9  1  0.686995  0.686995  0.812251  1
  Zr  Zr10  1  0.313005  0.313005  0.187749  1
  Zr  Zr11  1  0.807025  0.192975  0.500000  1
  Zr  Zr12  1  0.500000  0.500000  0.500000  1
  Zr  Zr13  1  0.186995  0.186995  0.687749  1
  Ni  Ni14  1  0.646608  0.936278  0.008036  1
  Ni  Ni15  1  0.353392  0.063722  0.991964  1
  Ni  Ni16  1  0.146608  0.436278  0.491964  1
  Ni  Ni17  1  0.866572  0.155146  0.208267  1
  Ni  Ni18  1  0.563722  0.853392  0.508036  1
  Ni  Ni19  1  0.344854  0.633428  0.708267  1
  Ni  Ni20  1  0.936278  0.646608  0.008036  1
  Ni  Ni21  1  0.844854  0.133428  0.791733  1
  Ni  Ni22  1  0.436278  0.146608  0.491964  1
  Ni  Ni23  1  0.655146  0.366572  0.291733  1
  Ni  Ni24  1  0.606937  0.606937  0.104995  1
  Ni  Ni25  1  0.393063  0.393063  0.895005  1
  Ni  Ni26  1  0.106937  0.106937  0.395005  1
  Ni  Ni27  1  0.893063  0.893063  0.604995  1
  Ni  Ni28  1  0.155146  0.866572  0.208267  1
  Ni  Ni29  1  0.366572  0.655146  0.291733  1
  Ni  Ni30  1  0.853392  0.563722  0.508036  1
  Ni  Ni31  1  0.633428  0.344854  0.708267  1
  Ni  Ni32  1  0.063722  0.353392  0.991964  1
  Ni  Ni33  1  0.133428  0.844854  0.791733  1
