# generated using pymatgen
data_BaLaTiCuO6
_symmetry_space_group_name_H-M   'P 1'
_cell_length_a   3.95741221
_cell_length_b   31.62392897
_cell_length_c   5.61419313
_cell_angle_alpha   44.75535352
_cell_angle_beta   90.00000000
_cell_angle_gamma   90.00000000
_symmetry_Int_Tables_number   1
_chemical_formula_structural   BaLaTiCuO6
_chemical_formula_sum   'Ba4 La4 Ti4 Cu4 O24'
_cell_volume   494.69456274
_cell_formula_units_Z   4
loop_
 _symmetry_equiv_pos_site_id
 _symmetry_equiv_pos_as_xyz
  1  'x, y, z'
loop_
 _atom_site_type_symbol
 _atom_site_label
 _atom_site_symmetry_multiplicity
 _atom_site_fract_x
 _atom_site_fract_y
 _atom_site_fract_z
 _atom_site_occupancy
  Ba  Ba0  1  0.000000  0.993257  0.026972  1
  Ba  Ba1  1  0.000000  0.123494  0.006023  1
  Ba  Ba2  1  0.000000  0.251506  -0.006023  1
  Ba  Ba3  1  0.000000  0.381743  0.973028  1
  La  La4  1  0.000000  0.506533  0.973868  1
  La  La5  1  0.000000  0.625973  -0.003893  1
  La  La6  1  0.000000  0.749027  0.003893  1
  La  La7  1  0.000000  0.868467  0.026132  1
  Ti  Ti8  1  0.500000  0.123131  0.507474  1
  Ti  Ti9  1  0.500000  0.995270  0.518921  1
  Ti  Ti10  1  0.500000  0.379730  0.481079  1
  Ti  Ti11  1  0.500000  0.251869  0.492526  1
  Cu  Cu12  1  0.500000  0.626458  0.494166  1
  Cu  Cu13  1  0.500000  0.504618  0.481529  1
  Cu  Cu14  1  0.500000  0.748542  0.505834  1
  Cu  Cu15  1  0.500000  0.870382  0.518471  1
  O  O16  1  0.000000  0.993558  0.525769  1
  O  O17  1  0.000000  0.123372  0.506514  1
  O  O18  1  0.000000  0.251628  0.493486  1
  O  O19  1  0.000000  0.381442  0.474231  1
  O  O20  1  0.000000  0.510612  0.457552  1
  O  O21  1  0.000000  0.624201  0.503198  1
  O  O22  1  0.000000  0.750799  0.496802  1
  O  O23  1  0.000000  0.864388  0.542448  1
  O  O24  1  0.500000  0.058879  0.515873  1
  O  O25  1  0.500000  0.187500  0.500000  1
  O  O26  1  0.500000  0.316121  0.484127  1
  O  O27  1  0.500000  0.444399  0.458002  1
  O  O28  1  0.500000  0.565966  0.485159  1
  O  O29  1  0.500000  0.687500  0.500000  1
  O  O30  1  0.500000  0.809034  0.514841  1
  O  O31  1  0.500000  0.930601  0.541998  1
  O  O32  1  0.500000  0.058879  0.013096  1
  O  O33  1  0.500000  0.187500  0.000000  1
  O  O34  1  0.500000  0.316121  -0.013096  1
  O  O35  1  0.500000  0.444399  -0.013190  1
  O  O36  1  0.500000  0.565966  -0.012891  1
  O  O37  1  0.500000  0.809034  0.012891  1
  O  O38  1  0.500000  0.687500  0.000000  1
  O  O39  1  0.500000  0.930601  0.013190  1
