# generated using pymatgen
data_H8C3SeN2
_symmetry_space_group_name_H-M   'P 1'
_cell_length_a   6.35070421
_cell_length_b   12.09054573
_cell_length_c   15.33659153
_cell_angle_alpha   90.00000000
_cell_angle_beta   90.00000000
_cell_angle_gamma   90.00000000
_symmetry_Int_Tables_number   1
_chemical_formula_structural   H8C3SeN2
_chemical_formula_sum   'H64 C24 Se8 N16'
_cell_volume   1177.59686393
_cell_formula_units_Z   8
loop_
 _symmetry_equiv_pos_site_id
 _symmetry_equiv_pos_as_xyz
  1  'x, y, z'
loop_
 _atom_site_type_symbol
 _atom_site_label
 _atom_site_symmetry_multiplicity
 _atom_site_fract_x
 _atom_site_fract_y
 _atom_site_fract_z
 _atom_site_occupancy
  H  H0  1  0.200253  0.554337  0.890563  1
  H  H1  1  0.778351  0.473876  0.700750  1
  H  H2  1  0.278351  0.473876  0.799250  1
  H  H3  1  0.576966  0.573954  0.713871  1
  H  H4  1  0.132903  0.116391  0.591083  1
  H  H5  1  0.924994  0.255508  0.845870  1
  H  H6  1  0.651885  0.565114  0.965851  1
  H  H7  1  0.803555  0.712260  0.137430  1
  H  H8  1  0.921201  0.808915  0.743266  1
  H  H9  1  0.778351  0.026124  0.200750  1
  H  H10  1  0.423034  0.073954  0.786129  1
  H  H11  1  0.799747  0.054337  0.609437  1
  H  H12  1  0.575006  0.755508  0.845870  1
  H  H13  1  0.367097  0.616391  0.591083  1
  H  H14  1  0.578799  0.308915  0.743266  1
  H  H15  1  0.299747  0.445663  0.390563  1
  H  H16  1  0.151885  0.565114  0.534149  1
  H  H17  1  0.799747  0.445663  0.109437  1
  H  H18  1  0.221649  0.973876  0.799250  1
  H  H19  1  0.421201  0.808915  0.756734  1
  H  H20  1  0.923034  0.073954  0.713871  1
  H  H21  1  0.632903  0.383609  0.408917  1
  H  H22  1  0.721649  0.973876  0.700750  1
  H  H23  1  0.696445  0.287740  0.637430  1
  H  H24  1  0.923034  0.426046  0.213871  1
  H  H25  1  0.867097  0.616391  0.908917  1
  H  H26  1  0.132903  0.383609  0.091083  1
  H  H27  1  0.348115  0.434886  0.034149  1
  H  H28  1  0.075006  0.755508  0.654130  1
  H  H29  1  0.078799  0.308915  0.756734  1
  H  H30  1  0.424994  0.255508  0.654130  1
  H  H31  1  0.424994  0.244492  0.154130  1
  H  H32  1  0.421201  0.691085  0.256734  1
  H  H33  1  0.867097  0.883609  0.408917  1
  H  H34  1  0.076966  0.926046  0.286129  1
  H  H35  1  0.278351  0.026124  0.299250  1
  H  H36  1  0.921201  0.691085  0.243266  1
  H  H37  1  0.200253  0.945663  0.390563  1
  H  H38  1  0.848115  0.065114  0.965851  1
  H  H39  1  0.303555  0.787740  0.862570  1
  H  H40  1  0.578799  0.191085  0.243266  1
  H  H41  1  0.575006  0.744492  0.345870  1
  H  H42  1  0.651885  0.934886  0.465851  1
  H  H43  1  0.700253  0.945663  0.109437  1
  H  H44  1  0.576966  0.926046  0.213871  1
  H  H45  1  0.696445  0.212260  0.137430  1
  H  H46  1  0.221649  0.526124  0.299250  1
  H  H47  1  0.196445  0.287740  0.862570  1
  H  H48  1  0.299747  0.054337  0.890563  1
  H  H49  1  0.721649  0.526124  0.200750  1
  H  H50  1  0.075006  0.744492  0.154130  1
  H  H51  1  0.078799  0.191085  0.256734  1
  H  H52  1  0.196445  0.212260  0.362570  1
  H  H53  1  0.076966  0.573954  0.786129  1
  H  H54  1  0.700253  0.554337  0.609437  1
  H  H55  1  0.423034  0.426046  0.286129  1
  H  H56  1  0.924994  0.244492  0.345870  1
  H  H57  1  0.632903  0.116391  0.908917  1
  H  H58  1  0.151885  0.934886  0.034149  1
  H  H59  1  0.848115  0.434886  0.465851  1
  H  H60  1  0.367097  0.883609  0.091083  1
  H  H61  1  0.348115  0.065114  0.534149  1
  H  H62  1  0.803555  0.787740  0.637430  1
  H  H63  1  0.303555  0.712260  0.362570  1
  C  C64  1  0.642963  0.987799  0.168586  1
  C  C65  1  0.820657  0.054859  0.402412  1
  C  C66  1  0.447926  0.687749  0.327729  1
  C  C67  1  0.679343  0.945141  0.902412  1
  C  C68  1  0.142963  0.512201  0.831414  1
  C  C69  1  0.857037  0.012201  0.668586  1
  C  C70  1  0.320657  0.054859  0.097588  1
  C  C71  1  0.357037  0.012201  0.831414  1
  C  C72  1  0.642963  0.512201  0.668586  1
  C  C73  1  0.857037  0.487799  0.168586  1
  C  C74  1  0.552074  0.312251  0.672271  1
  C  C75  1  0.679343  0.554859  0.402412  1
  C  C76  1  0.947926  0.687749  0.172271  1
  C  C77  1  0.447926  0.812251  0.827729  1
  C  C78  1  0.179343  0.554859  0.097588  1
  C  C79  1  0.357037  0.487799  0.331414  1
  C  C80  1  0.052074  0.187749  0.327729  1
  C  C81  1  0.552074  0.187749  0.172271  1
  C  C82  1  0.320657  0.445141  0.597588  1
  C  C83  1  0.179343  0.945141  0.597588  1
  C  C84  1  0.142963  0.987799  0.331414  1
  C  C85  1  0.947926  0.812251  0.672271  1
  C  C86  1  0.052074  0.312251  0.827729  1
  C  C87  1  0.820657  0.445141  0.902412  1
  Se  Se88  1  0.367607  0.836320  0.556192  1
  Se  Se89  1  0.632393  0.163680  0.443808  1
  Se  Se90  1  0.132393  0.336320  0.556192  1
  Se  Se91  1  0.867607  0.836320  0.943808  1
  Se  Se92  1  0.632393  0.336320  0.943808  1
  Se  Se93  1  0.132393  0.163680  0.056192  1
  Se  Se94  1  0.867607  0.663680  0.443808  1
  Se  Se95  1  0.367607  0.663680  0.056192  1
  N  N96  1  0.777117  0.950207  0.424871  1
  N  N97  1  0.007944  0.575598  0.147048  1
  N  N98  1  0.492056  0.424402  0.647048  1
  N  N99  1  0.992056  0.424402  0.852952  1
  N  N100  1  0.277117  0.950207  0.075129  1
  N  N101  1  0.992056  0.075598  0.352952  1
  N  N102  1  0.007944  0.924402  0.647048  1
  N  N103  1  0.277117  0.549793  0.575129  1
  N  N104  1  0.507944  0.924402  0.852952  1
  N  N105  1  0.722883  0.049793  0.924871  1
  N  N106  1  0.722883  0.450207  0.424871  1
  N  N107  1  0.507944  0.575598  0.352952  1
  N  N108  1  0.222883  0.450207  0.075129  1
  N  N109  1  0.777117  0.549793  0.924871  1
  N  N110  1  0.492056  0.075598  0.147048  1
  N  N111  1  0.222883  0.049793  0.575129  1
