# generated using pymatgen
data_FeCuC5N6O
_symmetry_space_group_name_H-M   'P 1'
_cell_length_a   7.13426788
_cell_length_b   7.13426769
_cell_length_c   7.48948507
_cell_angle_alpha   118.44308934
_cell_angle_beta   118.44308836
_cell_angle_gamma   90.00000083
_symmetry_Int_Tables_number   1
_chemical_formula_structural   FeCuC5N6O
_chemical_formula_sum   'Fe1 Cu1 C5 N6 O1'
_cell_volume   281.75262837
_cell_formula_units_Z   1
loop_
 _symmetry_equiv_pos_site_id
 _symmetry_equiv_pos_as_xyz
  1  'x, y, z'
loop_
 _atom_site_type_symbol
 _atom_site_label
 _atom_site_symmetry_multiplicity
 _atom_site_fract_x
 _atom_site_fract_y
 _atom_site_fract_z
 _atom_site_occupancy
  Fe  Fe0  1  0.002546  0.002546  0.005091  1
  Cu  Cu1  1  0.524239  0.524239  0.048478  1
  C  C2  1  0.827114  0.827114  0.654228  1
  C  C3  1  0.801339  0.184364  0.985704  1
  C  C4  1  0.801339  0.801339  0.985704  1
  C  C5  1  0.184364  0.184364  0.985704  1
  C  C6  1  0.184364  0.801339  0.985704  1
  N  N7  1  0.304549  0.690694  0.995243  1
  N  N8  1  0.721554  0.721554  0.443108  1
  N  N9  1  0.690694  0.690694  0.995243  1
  N  N10  1  0.304549  0.304549  0.995243  1
  N  N11  1  0.152574  0.152574  0.305147  1
  N  N12  1  0.690694  0.304549  0.995243  1
  O  O13  1  0.256280  0.256280  0.512560  1
