# generated using pymatgen
data_CdH9C2(N2O5)2
_symmetry_space_group_name_H-M   'P 1'
_cell_length_a   7.57896443
_cell_length_b   8.34729552
_cell_length_c   17.88810084
_cell_angle_alpha   90.00003815
_cell_angle_beta   89.99999245
_cell_angle_gamma   89.99999661
_symmetry_Int_Tables_number   1
_chemical_formula_structural   CdH9C2(N2O5)2
_chemical_formula_sum   'Cd4 H36 C8 N16 O40'
_cell_volume   1131.67023266
_cell_formula_units_Z   4
loop_
 _symmetry_equiv_pos_site_id
 _symmetry_equiv_pos_as_xyz
  1  'x, y, z'
loop_
 _atom_site_type_symbol
 _atom_site_label
 _atom_site_symmetry_multiplicity
 _atom_site_fract_x
 _atom_site_fract_y
 _atom_site_fract_z
 _atom_site_occupancy
  Cd  Cd0  1  0.749878  0.755911  0.254539  1
  Cd  Cd1  1  0.750122  0.244089  0.754540  1
  Cd  Cd2  1  0.249878  0.744089  0.745460  1
  Cd  Cd3  1  0.250122  0.255911  0.245460  1
  H  H4  1  0.474565  0.025083  0.492329  1
  H  H5  1  0.025435  0.974917  0.992329  1
  H  H6  1  0.974564  0.474917  0.507671  1
  H  H7  1  0.525435  0.525083  0.007671  1
  H  H8  1  0.531267  0.167315  0.423916  1
  H  H9  1  0.968733  0.832686  0.923915  1
  H  H10  1  0.031267  0.332685  0.576085  1
  H  H11  1  0.468733  0.667315  0.076084  1
  H  H12  1  0.941209  0.332669  0.066394  1
  H  H13  1  0.558791  0.667331  0.566394  1
  H  H14  1  0.441209  0.167331  0.933606  1
  H  H15  1  0.058791  0.832669  0.433606  1
  H  H16  1  0.020785  0.485414  0.006714  1
  H  H17  1  0.479215  0.514586  0.506714  1
  H  H18  1  0.520785  0.014586  0.993286  1
  H  H19  1  0.979215  0.985414  0.493286  1
  H  H20  1  0.398946  0.836403  0.202570  1
  H  H21  1  0.101054  0.163597  0.702571  1
  H  H22  1  0.898946  0.663597  0.797429  1
  H  H23  1  0.601054  0.336403  0.297429  1
  H  H24  1  0.401194  0.644635  0.207537  1
  H  H25  1  0.098806  0.355365  0.707537  1
  H  H26  1  0.901194  0.855365  0.792463  1
  H  H27  1  0.598806  0.144635  0.292463  1
  H  H28  1  0.110458  0.664546  0.291237  1
  H  H29  1  0.389542  0.335454  0.791237  1
  H  H30  1  0.610458  0.835454  0.708763  1
  H  H31  1  0.889542  0.164546  0.208763  1
  H  H32  1  0.109991  0.853871  0.287458  1
  H  H33  1  0.390009  0.146129  0.787458  1
  H  H34  1  0.609991  0.646129  0.712542  1
  H  H35  1  0.890009  0.353871  0.212542  1
  H  H36  1  0.588093  0.815843  0.423356  1
  H  H37  1  0.911907  0.184157  0.923356  1
  H  H38  1  0.088093  0.684157  0.576644  1
  H  H39  1  0.411907  0.315843  0.076644  1
  C  C40  1  0.592672  0.936422  0.398882  1
  C  C41  1  0.907328  0.063578  0.898882  1
  C  C42  1  0.092671  0.563577  0.601118  1
  C  C43  1  0.407329  0.436422  0.101118  1
  C  C44  1  0.898458  0.561636  0.100919  1
  C  C45  1  0.601542  0.438364  0.600919  1
  C  C46  1  0.398458  0.938364  0.899081  1
  C  C47  1  0.101542  0.061636  0.399081  1
  N  N48  1  0.528604  0.051189  0.441353  1
  N  N49  1  0.971396  0.948811  0.941353  1
  N  N50  1  0.028604  0.448811  0.558647  1
  N  N51  1  0.471396  0.551189  0.058647  1
  N  N52  1  0.951904  0.452257  0.053607  1
  N  N53  1  0.548095  0.547743  0.553607  1
  N  N54  1  0.451904  0.047743  0.946393  1
  N  N55  1  0.048096  0.952257  0.446393  1
  N  N56  1  0.716307  0.005289  0.111825  1
  N  N57  1  0.783693  0.994712  0.611825  1
  N  N58  1  0.216307  0.494712  0.888175  1
  N  N59  1  0.283694  0.505288  0.388176  1
  N  N60  1  0.784606  0.499888  0.388156  1
  N  N61  1  0.715393  0.500112  0.888157  1
  N  N62  1  0.284606  0.000113  0.611843  1
  N  N63  1  0.215393  0.999888  0.111844  1
  O  O64  1  0.656562  0.960627  0.334182  1
  O  O65  1  0.843438  0.039374  0.834183  1
  O  O66  1  0.156562  0.539373  0.665817  1
  O  O67  1  0.343438  0.460627  0.165817  1
  O  O68  1  0.831623  0.548236  0.163617  1
  O  O69  1  0.668377  0.451765  0.663617  1
  O  O70  1  0.331623  0.951765  0.836382  1
  O  O71  1  0.168378  0.048235  0.336383  1
  O  O72  1  0.795428  0.985168  0.175766  1
  O  O73  1  0.704572  0.014833  0.675766  1
  O  O74  1  0.295428  0.514833  0.824233  1
  O  O75  1  0.204572  0.485168  0.324234  1
  O  O76  1  0.721410  0.141102  0.081973  1
  O  O77  1  0.778591  0.858899  0.581973  1
  O  O78  1  0.221410  0.358898  0.918027  1
  O  O79  1  0.278591  0.641100  0.418027  1
  O  O80  1  0.637589  0.889644  0.081881  1
  O  O81  1  0.862410  0.110356  0.581881  1
  O  O82  1  0.137590  0.610354  0.918119  1
  O  O83  1  0.362410  0.389644  0.418119  1
  O  O84  1  0.694410  0.522552  0.326593  1
  O  O85  1  0.805590  0.477448  0.826593  1
  O  O86  1  0.194408  0.977448  0.673407  1
  O  O87  1  0.305591  0.022552  0.173408  1
  O  O88  1  0.857508  0.618695  0.418450  1
  O  O89  1  0.642492  0.381304  0.918450  1
  O  O90  1  0.357508  0.881304  0.581550  1
  O  O91  1  0.142493  0.118696  0.081550  1
  O  O92  1  0.792992  0.362228  0.414813  1
  O  O93  1  0.707008  0.637771  0.914813  1
  O  O94  1  0.292993  0.137770  0.585187  1
  O  O95  1  0.207008  0.862230  0.085187  1
  O  O96  1  0.455591  0.743485  0.227864  1
  O  O97  1  0.044409  0.256515  0.727864  1
  O  O98  1  0.955590  0.756515  0.772136  1
  O  O99  1  0.544410  0.243485  0.272136  1
  O  O100  1  0.051252  0.757999  0.267214  1
  O  O101  1  0.448748  0.242001  0.767214  1
  O  O102  1  0.551252  0.742001  0.732787  1
  O  O103  1  0.948749  0.257999  0.232786  1
