# generated using pymatgen
data_Mn(GaS2)2
_symmetry_space_group_name_H-M   'P 1'
_cell_length_a   6.44441907
_cell_length_b   12.39767278
_cell_length_c   13.06592379
_cell_angle_alpha   115.35019884
_cell_angle_beta   99.04049193
_cell_angle_gamma   100.83049079
_symmetry_Int_Tables_number   1
_chemical_formula_structural   Mn(GaS2)2
_chemical_formula_sum   'Mn6 Ga12 S24'
_cell_volume   892.77784878
_cell_formula_units_Z   6
loop_
 _symmetry_equiv_pos_site_id
 _symmetry_equiv_pos_as_xyz
  1  'x, y, z'
loop_
 _atom_site_type_symbol
 _atom_site_label
 _atom_site_symmetry_multiplicity
 _atom_site_fract_x
 _atom_site_fract_y
 _atom_site_fract_z
 _atom_site_occupancy
  Mn  Mn0  1  0.463597  0.216415  0.433999  1
  Mn  Mn1  1  0.119791  0.869389  0.740000  1
  Mn  Mn2  1  0.536741  0.783839  0.564983  1
  Mn  Mn3  1  0.705329  0.956889  0.912443  1
  Mn  Mn4  1  0.295419  0.043265  0.086997  1
  Mn  Mn5  1  0.878227  0.127776  0.257278  1
  Ga  Ga6  1  0.293428  0.671963  0.919357  1
  Ga  Ga7  1  0.453880  0.833127  0.252181  1
  Ga  Ga8  1  0.300874  0.417519  0.250820  1
  Ga  Ga9  1  0.710395  0.328805  0.080448  1
  Ga  Ga10  1  0.034144  0.887255  0.402468  1
  Ga  Ga11  1  0.129437  0.246067  0.918467  1
  Ga  Ga12  1  0.969971  0.115602  0.599694  1
  Ga  Ga13  1  0.872426  0.518240  0.402289  1
  Ga  Ga14  1  0.130786  0.485739  0.598396  1
  Ga  Ga15  1  0.550945  0.166220  0.748566  1
  Ga  Ga16  1  0.702054  0.581100  0.748247  1
  Ga  Ga17  1  0.871197  0.750878  0.080739  1
  S  S18  1  0.746673  0.743425  0.237414  1
  S  S19  1  0.257234  0.256538  0.764459  1
  S  S20  1  0.426632  0.414045  0.603215  1
  S  S21  1  0.670931  0.150193  0.088203  1
  S  S22  1  0.596104  0.591030  0.918165  1
  S  S23  1  0.079638  0.059969  0.910521  1
  S  S24  1  0.010684  0.508027  0.764342  1
  S  S25  1  0.256106  0.238607  0.263779  1
  S  S26  1  0.824852  0.325679  0.918081  1
  S  S27  1  0.991994  0.492652  0.235771  1
  S  S28  1  0.917053  0.911749  0.569064  1
  S  S29  1  0.922051  0.936888  0.087507  1
  S  S30  1  0.086536  0.090454  0.433092  1
  S  S31  1  0.404804  0.406888  0.080697  1
  S  S32  1  0.331927  0.849517  0.910257  1
  S  S33  1  0.845436  0.345334  0.433138  1
  S  S34  1  0.570658  0.584649  0.399133  1
  S  S35  1  0.496520  0.975165  0.736200  1
  S  S36  1  0.324697  0.810494  0.397006  1
  S  S37  1  0.508950  0.024755  0.264667  1
  S  S38  1  0.743363  0.760033  0.735618  1
  S  S39  1  0.158037  0.659123  0.567661  1
  S  S40  1  0.180337  0.675141  0.081770  1
  S  S41  1  0.671385  0.185029  0.600137  1
