# generated using pymatgen
data_CoHCO3
_symmetry_space_group_name_H-M   'P 1'
_cell_length_a   7.37125298
_cell_length_b   7.37125255
_cell_length_c   7.37125267
_cell_angle_alpha   95.53130684
_cell_angle_beta   95.53130625
_cell_angle_gamma   95.53130457
_symmetry_Int_Tables_number   1
_chemical_formula_structural   CoHCO3
_chemical_formula_sum   'Co6 H6 C6 O18'
_cell_volume   394.53449716
_cell_formula_units_Z   6
loop_
 _symmetry_equiv_pos_site_id
 _symmetry_equiv_pos_as_xyz
  1  'x, y, z'
loop_
 _atom_site_type_symbol
 _atom_site_label
 _atom_site_symmetry_multiplicity
 _atom_site_fract_x
 _atom_site_fract_y
 _atom_site_fract_z
 _atom_site_occupancy
  Co  Co0  1  0.214079  0.476734  0.564735  1
  Co  Co1  1  0.785921  0.523266  0.435265  1
  Co  Co2  1  0.476734  0.564735  0.214079  1
  Co  Co3  1  0.564735  0.214079  0.476734  1
  Co  Co4  1  0.523266  0.435265  0.785921  1
  Co  Co5  1  0.435265  0.785921  0.523266  1
  H  H6  1  0.040541  0.087541  0.346493  1
  H  H7  1  0.959459  0.912459  0.653507  1
  H  H8  1  0.346493  0.040541  0.087541  1
  H  H9  1  0.912459  0.653507  0.959459  1
  H  H10  1  0.087541  0.346493  0.040541  1
  H  H11  1  0.653507  0.959459  0.912459  1
  C  C12  1  0.380894  0.930978  0.172199  1
  C  C13  1  0.619106  0.069022  0.827801  1
  C  C14  1  0.827801  0.619106  0.069022  1
  C  C15  1  0.172199  0.380894  0.930978  1
  C  C16  1  0.069022  0.827801  0.619106  1
  C  C17  1  0.930978  0.172199  0.380894  1
  O  O18  1  0.905969  0.618099  0.227308  1
  O  O19  1  0.381901  0.772692  0.094031  1
  O  O20  1  0.703322  0.406090  0.628237  1
  O  O21  1  0.593910  0.371763  0.296678  1
  O  O22  1  0.772692  0.094031  0.381901  1
  O  O23  1  0.415041  0.978577  0.345539  1
  O  O24  1  0.094031  0.381901  0.772692  1
  O  O25  1  0.296678  0.593910  0.371763  1
  O  O26  1  0.345539  0.415041  0.978577  1
  O  O27  1  0.618099  0.227308  0.905969  1
  O  O28  1  0.371763  0.296678  0.593910  1
  O  O29  1  0.406090  0.628237  0.703322  1
  O  O30  1  0.628237  0.703322  0.406090  1
  O  O31  1  0.227308  0.905969  0.618099  1
  O  O32  1  0.978577  0.345539  0.415041  1
  O  O33  1  0.021423  0.654461  0.584959  1
  O  O34  1  0.654461  0.584959  0.021423  1
  O  O35  1  0.584959  0.021423  0.654461  1
