# generated using pymatgen
data_Zr(Se2Cl3)2
_symmetry_space_group_name_H-M   'P 1'
_cell_length_a   11.04801869
_cell_length_b   11.11400862
_cell_length_c   11.11400862
_cell_angle_alpha   90.00000000
_cell_angle_beta   90.00000000
_cell_angle_gamma   90.00000000
_symmetry_Int_Tables_number   1
_chemical_formula_structural   Zr(Se2Cl3)2
_chemical_formula_sum   'Zr4 Se16 Cl24'
_cell_volume   1364.66438928
_cell_formula_units_Z   4
loop_
 _symmetry_equiv_pos_site_id
 _symmetry_equiv_pos_as_xyz
  1  'x, y, z'
loop_
 _atom_site_type_symbol
 _atom_site_label
 _atom_site_symmetry_multiplicity
 _atom_site_fract_x
 _atom_site_fract_y
 _atom_site_fract_z
 _atom_site_occupancy
  Zr  Zr0  1  0.500000  0.500000  0.000000  1
  Zr  Zr1  1  0.000000  0.000000  0.000000  1
  Zr  Zr2  1  0.500000  0.000000  0.500000  1
  Zr  Zr3  1  0.000000  0.500000  0.500000  1
  Se  Se4  1  0.080566  0.410747  0.089253  1
  Se  Se5  1  0.919434  0.589253  0.910747  1
  Se  Se6  1  0.000000  0.394983  0.894983  1
  Se  Se7  1  0.500000  0.605017  0.394983  1
  Se  Se8  1  0.000000  0.894983  0.394983  1
  Se  Se9  1  0.000000  0.105017  0.605017  1
  Se  Se10  1  0.919434  0.910747  0.589253  1
  Se  Se11  1  0.080566  0.089253  0.410747  1
  Se  Se12  1  0.500000  0.894983  0.105017  1
  Se  Se13  1  0.500000  0.394983  0.605017  1
  Se  Se14  1  0.000000  0.605017  0.105017  1
  Se  Se15  1  0.500000  0.105017  0.894983  1
  Se  Se16  1  0.419434  0.910747  0.910747  1
  Se  Se17  1  0.580566  0.089253  0.089253  1
  Se  Se18  1  0.580566  0.410747  0.410747  1
  Se  Se19  1  0.419434  0.589253  0.589253  1
  Cl  Cl20  1  0.360067  0.669595  0.057287  1
  Cl  Cl21  1  0.110571  0.864512  0.864512  1
  Cl  Cl22  1  0.139933  0.169595  0.942713  1
  Cl  Cl23  1  0.389429  0.364512  0.135488  1
  Cl  Cl24  1  0.139933  0.330405  0.557287  1
  Cl  Cl25  1  0.860067  0.442713  0.669595  1
  Cl  Cl26  1  0.360067  0.830405  0.442713  1
  Cl  Cl27  1  0.639933  0.330405  0.942713  1
  Cl  Cl28  1  0.639933  0.942713  0.330405  1
  Cl  Cl29  1  0.360067  0.442713  0.830405  1
  Cl  Cl30  1  0.639933  0.169595  0.557287  1
  Cl  Cl31  1  0.860067  0.669595  0.442713  1
  Cl  Cl32  1  0.389429  0.135488  0.364512  1
  Cl  Cl33  1  0.860067  0.057287  0.830405  1
  Cl  Cl34  1  0.610571  0.635488  0.864512  1
  Cl  Cl35  1  0.360067  0.057287  0.669595  1
  Cl  Cl36  1  0.889429  0.364512  0.364512  1
  Cl  Cl37  1  0.139933  0.942713  0.169595  1
  Cl  Cl38  1  0.139933  0.557287  0.330405  1
  Cl  Cl39  1  0.110571  0.635488  0.635488  1
  Cl  Cl40  1  0.639933  0.557287  0.169595  1
  Cl  Cl41  1  0.889429  0.135488  0.135488  1
  Cl  Cl42  1  0.860067  0.830405  0.057287  1
  Cl  Cl43  1  0.610571  0.864512  0.635488  1
