# generated using pymatgen
data_Li3V2(PO4)3
_symmetry_space_group_name_H-M   'P 1'
_cell_length_a   11.30315537
_cell_length_b   10.46556185
_cell_length_c   9.31111280
_cell_angle_alpha   85.02554817
_cell_angle_beta   90.00000000
_cell_angle_gamma   90.00000000
_symmetry_Int_Tables_number   1
_chemical_formula_structural   Li3V2(PO4)3
_chemical_formula_sum   'Li12 V8 P12 O48'
_cell_volume   1097.29893734
_cell_formula_units_Z   4
loop_
 _symmetry_equiv_pos_site_id
 _symmetry_equiv_pos_as_xyz
  1  'x, y, z'
loop_
 _atom_site_type_symbol
 _atom_site_label
 _atom_site_symmetry_multiplicity
 _atom_site_fract_x
 _atom_site_fract_y
 _atom_site_fract_z
 _atom_site_occupancy
  Li  Li0  1  0.059431  0.590712  0.905274  1
  Li  Li1  1  0.059431  0.909288  0.094726  1
  Li  Li2  1  0.400456  0.369321  0.430783  1
  Li  Li3  1  0.400456  0.130679  0.569217  1
  Li  Li4  1  0.371933  0.524624  0.861167  1
  Li  Li5  1  0.371933  0.975376  0.138833  1
  Li  Li6  1  0.618510  0.553409  0.617543  1
  Li  Li7  1  0.618510  0.946591  0.382457  1
  Li  Li8  1  0.772060  0.196290  0.833305  1
  Li  Li9  1  0.772060  0.303710  0.166695  1
  Li  Li10  1  0.017507  0.212624  0.817341  1
  Li  Li11  1  0.017507  0.287376  0.182660  1
  V  V12  1  0.266098  0.999445  0.832507  1
  V  V13  1  0.266098  0.500555  0.167493  1
  V  V14  1  0.230942  0.581864  0.519384  1
  V  V15  1  0.230942  0.918136  0.480616  1
  V  V16  1  0.749647  0.980512  0.704112  1
  V  V17  1  0.749647  0.519488  0.295888  1
  V  V18  1  0.795342  0.031761  0.126405  1
  V  V19  1  0.795342  0.468239  0.873595  1
  P  P20  1  0.154627  0.250000  0.500000  1
  P  P21  1  0.828650  0.341608  0.568062  1
  P  P22  1  0.828650  0.158392  0.431938  1
  P  P23  1  0.583113  0.782364  0.186656  1
  P  P24  1  0.583113  0.717636  0.813344  1
  P  P25  1  0.463700  0.750000  0.000000  1
  P  P26  1  0.580213  0.250000  0.000000  1
  P  P27  1  0.419366  0.243467  0.175001  1
  P  P28  1  0.419366  0.256533  0.824999  1
  P  P29  1  0.075896  0.712359  0.333064  1
  P  P30  1  0.075896  0.787641  0.666936  1
  P  P31  1  0.810460  0.750000  0.500000  1
  O  O32  1  0.060369  0.603827  0.461832  1
  O  O33  1  0.060369  0.896173  0.538168  1
  O  O34  1  0.162831  0.630145  0.078009  1
  O  O35  1  0.162831  0.869855  0.921991  1
  O  O36  1  0.234216  0.131764  0.492298  1
  O  O37  1  0.234216  0.368236  0.507702  1
  O  O38  1  0.097960  0.907546  0.788275  1
  O  O39  1  0.097960  0.592454  0.211725  1
  O  O40  1  0.176326  0.371740  0.172873  1
  O  O41  1  0.176326  0.128260  0.827127  1
  O  O42  1  0.200396  0.986869  0.161298  1
  O  O43  1  0.200396  0.513131  0.838702  1
  O  O44  1  0.317712  0.533846  0.338681  1
  O  O45  1  0.317712  0.966154  0.661319  1
  O  O46  1  0.209523  0.757621  0.363702  1
  O  O47  1  0.209523  0.742379  0.636298  1
  O  O48  1  0.262146  0.501151  0.710778  1
  O  O49  1  0.262146  0.998849  0.289222  1
  O  O50  1  0.391750  0.625004  0.022647  1
  O  O51  1  0.391750  0.874996  0.977353  1
  O  O52  1  0.454096  0.219647  0.334789  1
  O  O53  1  0.454096  0.280353  0.665211  1
  O  O54  1  0.401264  0.392886  0.131134  1
  O  O55  1  0.401264  0.107114  0.868866  1
  O  O56  1  0.657997  0.596057  0.853634  1
  O  O57  1  0.657997  0.903943  0.146366  1
  O  O58  1  0.507179  0.811894  0.314778  1
  O  O59  1  0.507179  0.688106  0.685222  1
  O  O60  1  0.659699  0.129338  0.005453  1
  O  O61  1  0.659699  0.370661  0.994547  1
  O  O62  1  0.660372  0.840424  0.801532  1
  O  O63  1  0.660372  0.659576  0.198468  1
  O  O64  1  0.652673  0.098537  0.685246  1
  O  O65  1  0.652673  0.401463  0.314754  1
  O  O66  1  0.740342  0.403859  0.679812  1
  O  O67  1  0.740342  0.096141  0.320188  1
  O  O68  1  0.834809  0.016861  0.845111  1
  O  O69  1  0.834809  0.483139  0.154889  1
  O  O70  1  0.892708  0.586799  0.854621  1
  O  O71  1  0.892708  0.913201  0.145379  1
  O  O72  1  0.931511  0.283977  0.654844  1
  O  O73  1  0.931511  0.216023  0.345156  1
  O  O74  1  0.725932  0.641623  0.463458  1
  O  O75  1  0.725932  0.858377  0.536542  1
  O  O76  1  0.883917  0.160598  0.095122  1
  O  O77  1  0.883917  0.339402  0.904878  1
  O  O78  1  0.856822  0.053140  0.553700  1
  O  O79  1  0.856822  0.446860  0.446300  1
