# generated using pymatgen
data_K2ZnCl4
_symmetry_space_group_name_H-M   'P 1'
_cell_length_a   14.63476355
_cell_length_b   14.63476304
_cell_length_c   27.29891729
_cell_angle_alpha   90.04597813
_cell_angle_beta   90.04597815
_cell_angle_gamma   119.08090562
_symmetry_Int_Tables_number   1
_chemical_formula_structural   K2ZnCl4
_chemical_formula_sum   'K48 Zn24 Cl96'
_cell_volume   5109.69577914
_cell_formula_units_Z   24
loop_
 _symmetry_equiv_pos_site_id
 _symmetry_equiv_pos_as_xyz
  1  'x, y, z'
loop_
 _atom_site_type_symbol
 _atom_site_label
 _atom_site_symmetry_multiplicity
 _atom_site_fract_x
 _atom_site_fract_y
 _atom_site_fract_z
 _atom_site_occupancy
  K  K0  1  0.330361  0.893340  0.669758  1
  K  K1  1  0.831143  0.394582  0.665614  1
  K  K2  1  0.931456  0.865819  0.999256  1
  K  K3  1  0.912067  0.344280  0.835149  1
  K  K4  1  0.194410  0.033931  0.790625  1
  K  K5  1  0.871727  0.434527  0.001453  1
  K  K6  1  0.399297  0.336600  0.332289  1
  K  K7  1  0.377705  0.435995  0.497732  1
  K  K8  1  0.211801  0.555144  0.379720  1
  K  K9  1  0.344280  0.912067  0.335149  1
  K  K10  1  0.899010  0.838972  0.665249  1
  K  K11  1  0.434527  0.871727  0.501453  1
  K  K12  1  0.734452  0.055641  0.380569  1
  K  K13  1  0.336600  0.399297  0.832289  1
  K  K14  1  0.745121  0.574399  0.456651  1
  K  K15  1  0.394582  0.831143  0.165614  1
  K  K16  1  0.931887  0.369356  0.499588  1
  K  K17  1  0.893340  0.330361  0.169758  1
  K  K18  1  0.574399  0.745121  0.956651  1
  K  K19  1  0.541344  0.221607  0.542505  1
  K  K20  1  0.213554  0.050075  0.457267  1
  K  K21  1  0.063569  0.219273  0.619226  1
  K  K22  1  0.191601  0.521656  0.708794  1
  K  K23  1  0.525572  0.701947  0.289691  1
  K  K24  1  0.892494  0.828448  0.330059  1
  K  K25  1  0.219273  0.063569  0.119226  1
  K  K26  1  0.701947  0.525572  0.789691  1
  K  K27  1  0.077590  0.740564  0.543684  1
  K  K28  1  0.521656  0.191601  0.208794  1
  K  K29  1  0.055641  0.734452  0.880569  1
  K  K30  1  0.221607  0.541344  0.042505  1
  K  K31  1  0.395205  0.829777  0.831684  1
  K  K32  1  0.865819  0.931456  0.499256  1
  K  K33  1  0.740564  0.077590  0.043684  1
  K  K34  1  0.408209  0.338434  0.666291  1
  K  K35  1  0.545861  0.720028  0.619865  1
  K  K36  1  0.838972  0.899010  0.165249  1
  K  K37  1  0.555144  0.211801  0.879720  1
  K  K38  1  0.033931  0.194410  0.290625  1
  K  K39  1  0.828448  0.892494  0.830059  1
  K  K40  1  0.435995  0.377705  0.997732  1
  K  K41  1  0.050075  0.213554  0.957267  1
  K  K42  1  0.338434  0.408209  0.166291  1
  K  K43  1  0.702548  0.036711  0.710214  1
  K  K44  1  0.036711  0.702548  0.210214  1
  K  K45  1  0.829777  0.395205  0.331684  1
  K  K46  1  0.369356  0.931887  0.999588  1
  K  K47  1  0.720028  0.545861  0.119865  1
  Zn  Zn48  1  0.040095  0.205115  0.759453  1
  Zn  Zn49  1  0.035230  0.705789  0.739619  1
  Zn  Zn50  1  0.723410  0.058934  0.903439  1
  Zn  Zn51  1  0.537124  0.703311  0.758217  1
  Zn  Zn52  1  0.050144  0.713423  0.071625  1
  Zn  Zn53  1  0.213062  0.050272  0.928765  1
  Zn  Zn54  1  0.055757  0.224466  0.096069  1
  Zn  Zn55  1  0.564829  0.731164  0.094547  1
  Zn  Zn56  1  0.205115  0.040095  0.259453  1
  Zn  Zn57  1  0.213759  0.538559  0.571135  1
  Zn  Zn58  1  0.224466  0.055757  0.596069  1
  Zn  Zn59  1  0.050272  0.213062  0.428765  1
  Zn  Zn60  1  0.731164  0.564829  0.594547  1
  Zn  Zn61  1  0.537732  0.200239  0.741660  1
  Zn  Zn62  1  0.713423  0.050144  0.571625  1
  Zn  Zn63  1  0.058934  0.723410  0.403439  1
  Zn  Zn64  1  0.538559  0.213759  0.071135  1
  Zn  Zn65  1  0.703311  0.537124  0.258217  1
  Zn  Zn66  1  0.716690  0.542170  0.926570  1
  Zn  Zn67  1  0.542170  0.716690  0.426570  1
  Zn  Zn68  1  0.200239  0.537732  0.241660  1
  Zn  Zn69  1  0.561062  0.228194  0.405247  1
  Zn  Zn70  1  0.228194  0.561062  0.905247  1
  Zn  Zn71  1  0.705789  0.035230  0.239620  1
  Cl  Cl72  1  0.535349  0.990152  0.251858  1
  Cl  Cl73  1  0.016129  0.829337  0.113466  1
  Cl  Cl74  1  0.312115  0.981659  0.557364  1
  Cl  Cl75  1  0.348699  0.524901  0.942264  1
  Cl  Cl76  1  0.993037  0.186654  0.507166  1
  Cl  Cl77  1  0.003087  0.318592  0.386531  1
  Cl  Cl78  1  0.981659  0.312115  0.057364  1
  Cl  Cl79  1  0.067861  0.443711  0.936180  1
  Cl  Cl80  1  0.569181  0.760443  0.175766  1
  Cl  Cl81  1  0.494133  0.030274  0.755884  1
  Cl  Cl82  1  0.489002  0.188311  0.991734  1
  Cl  Cl83  1  0.200638  0.306683  0.722171  1
  Cl  Cl84  1  0.564233  0.243926  0.661422  1
  Cl  Cl85  1  0.523270  0.843870  0.053715  1
  Cl  Cl86  1  0.286521  0.219403  0.562977  1
  Cl  Cl87  1  0.559208  0.440772  0.887045  1
  Cl  Cl88  1  0.253705  0.931499  0.220452  1
  Cl  Cl89  1  0.064978  0.755644  0.660045  1
  Cl  Cl90  1  0.242285  0.424212  0.280533  1
  Cl  Cl91  1  0.755858  0.221271  0.577538  1
  Cl  Cl92  1  0.443711  0.067861  0.436180  1
  Cl  Cl93  1  0.439207  0.053585  0.108809  1
  Cl  Cl94  1  0.550815  0.958932  0.921787  1
  Cl  Cl95  1  0.306683  0.200638  0.222171  1
  Cl  Cl96  1  0.192935  0.813238  0.778259  1
  Cl  Cl97  1  0.773978  0.222261  0.935008  1
  Cl  Cl98  1  0.760443  0.569181  0.675766  1
  Cl  Cl99  1  0.737695  0.417052  0.219919  1
  Cl  Cl100  1  0.835003  0.505621  0.887844  1
  Cl  Cl101  1  0.989512  0.034089  0.744093  1
  Cl  Cl102  1  0.686502  0.991370  0.493235  1
  Cl  Cl103  1  0.450227  0.563737  0.072092  1
  Cl  Cl104  1  0.843870  0.523270  0.553715  1
  Cl  Cl105  1  0.559725  0.244139  0.323047  1
  Cl  Cl106  1  0.957043  0.050551  0.390609  1
  Cl  Cl107  1  0.318592  0.003087  0.886531  1
  Cl  Cl108  1  0.555179  0.949372  0.611158  1
  Cl  Cl109  1  0.073760  0.766240  0.323617  1
  Cl  Cl110  1  0.959305  0.054594  0.071879  1
  Cl  Cl111  1  0.711068  0.269766  0.084384  1
  Cl  Cl112  1  0.813119  0.991602  0.947104  1
  Cl  Cl113  1  0.417052  0.737695  0.719919  1
  Cl  Cl114  1  0.949372  0.555179  0.111158  1
  Cl  Cl115  1  0.221271  0.755858  0.077538  1
  Cl  Cl116  1  0.829337  0.016129  0.613466  1
  Cl  Cl117  1  0.991370  0.686502  0.993235  1
  Cl  Cl118  1  0.186654  0.993037  0.007166  1
  Cl  Cl119  1  0.494676  0.325059  0.111391  1
  Cl  Cl120  1  0.440772  0.559208  0.387045  1
  Cl  Cl121  1  0.424212  0.242285  0.780533  1
  Cl  Cl122  1  0.223172  0.265604  0.419998  1
  Cl  Cl123  1  0.219403  0.286521  0.062977  1
  Cl  Cl124  1  0.749306  0.562506  0.338303  1
  Cl  Cl125  1  0.723509  0.259722  0.429682  1
  Cl  Cl126  1  0.505621  0.835003  0.387844  1
  Cl  Cl127  1  0.265604  0.223172  0.919998  1
  Cl  Cl128  1  0.761460  0.726142  0.568499  1
  Cl  Cl129  1  0.726142  0.761460  0.068499  1
  Cl  Cl130  1  0.755644  0.064978  0.160045  1
  Cl  Cl131  1  0.188311  0.489002  0.491734  1
  Cl  Cl132  1  0.768203  0.714957  0.915944  1
  Cl  Cl133  1  0.693337  0.812788  0.719747  1
  Cl  Cl134  1  0.745795  0.920664  0.279650  1
  Cl  Cl135  1  0.248358  0.067491  0.339659  1
  Cl  Cl136  1  0.688479  0.490980  0.005937  1
  Cl  Cl137  1  0.563737  0.450227  0.572092  1
  Cl  Cl138  1  0.497032  0.534226  0.745278  1
  Cl  Cl139  1  0.050551  0.957043  0.890609  1
  Cl  Cl140  1  0.067491  0.248358  0.839659  1
  Cl  Cl141  1  0.990152  0.535349  0.751858  1
  Cl  Cl142  1  0.698048  0.304993  0.779045  1
  Cl  Cl143  1  0.030274  0.494133  0.255884  1
  Cl  Cl144  1  0.920664  0.745795  0.779650  1
  Cl  Cl145  1  0.259722  0.723509  0.929682  1
  Cl  Cl146  1  0.991602  0.813119  0.447104  1
  Cl  Cl147  1  0.813238  0.192935  0.278259  1
  Cl  Cl148  1  0.304993  0.698048  0.279045  1
  Cl  Cl149  1  0.222261  0.773978  0.435008  1
  Cl  Cl150  1  0.256770  0.069879  0.676734  1
  Cl  Cl151  1  0.053585  0.439207  0.608809  1
  Cl  Cl152  1  0.534226  0.497032  0.245278  1
  Cl  Cl153  1  0.766240  0.073760  0.823617  1
  Cl  Cl154  1  0.931499  0.253705  0.720452  1
  Cl  Cl155  1  0.069879  0.256770  0.176734  1
  Cl  Cl156  1  0.490980  0.688479  0.505937  1
  Cl  Cl157  1  0.562506  0.749306  0.838303  1
  Cl  Cl158  1  0.244139  0.559725  0.823047  1
  Cl  Cl159  1  0.812788  0.693337  0.219747  1
  Cl  Cl160  1  0.243926  0.564233  0.161422  1
  Cl  Cl161  1  0.714957  0.768203  0.415944  1
  Cl  Cl162  1  0.958932  0.550815  0.421787  1
  Cl  Cl163  1  0.034089  0.989512  0.244093  1
  Cl  Cl164  1  0.325059  0.494676  0.611391  1
  Cl  Cl165  1  0.269766  0.711068  0.584384  1
  Cl  Cl166  1  0.524901  0.348699  0.442264  1
  Cl  Cl167  1  0.054594  0.959305  0.571879  1
