# generated using pymatgen
data_NaInP2O7
_symmetry_space_group_name_H-M   'P 1'
_cell_length_a   7.58999088
_cell_length_b   8.35658934
_cell_length_c   9.95063817
_cell_angle_alpha   90.00000000
_cell_angle_beta   111.97589695
_cell_angle_gamma   90.00000000
_symmetry_Int_Tables_number   1
_chemical_formula_structural   NaInP2O7
_chemical_formula_sum   'Na4 In4 P8 O28'
_cell_volume   585.27622139
_cell_formula_units_Z   4
loop_
 _symmetry_equiv_pos_site_id
 _symmetry_equiv_pos_as_xyz
  1  'x, y, z'
loop_
 _atom_site_type_symbol
 _atom_site_label
 _atom_site_symmetry_multiplicity
 _atom_site_fract_x
 _atom_site_fract_y
 _atom_site_fract_z
 _atom_site_occupancy
  O  O0  1  0.625559  0.888055  0.893357  1
  O  O1  1  0.970051  0.409153  0.629780  1
  O  O2  1  0.029949  0.909153  0.870220  1
  O  O3  1  0.029949  0.590847  0.370220  1
  O  O4  1  0.970051  0.090847  0.129780  1
  O  O5  1  0.128432  0.165514  0.567616  1
  O  O6  1  0.871568  0.665514  0.932384  1
  O  O7  1  0.871568  0.834486  0.432384  1
  O  O8  1  0.818733  0.367604  0.093103  1
  O  O9  1  0.181267  0.867604  0.406897  1
  O  O10  1  0.181267  0.632396  0.906897  1
  O  O11  1  0.818733  0.132396  0.593103  1
  O  O12  1  0.826659  0.220602  0.877025  1
  O  O13  1  0.173341  0.720602  0.622975  1
  O  O14  1  0.173341  0.779398  0.122975  1
  O  O15  1  0.826659  0.279398  0.377025  1
  O  O16  1  0.303010  0.207816  0.390868  1
  O  O17  1  0.696990  0.707816  0.109132  1
  O  O18  1  0.696990  0.792184  0.609132  1
  O  O19  1  0.541286  0.589878  0.850821  1
  O  O20  1  0.374441  0.111945  0.106643  1
  O  O21  1  0.625559  0.611945  0.393357  1
  O  O22  1  0.303010  0.292184  0.890868  1
  O  O23  1  0.374441  0.388055  0.606643  1
  O  O24  1  0.541286  0.910122  0.350821  1
  O  O25  1  0.458714  0.410122  0.149179  1
  O  O26  1  0.458714  0.089878  0.649179  1
  O  O27  1  0.128432  0.334486  0.067616  1
  Na  Na28  1  0.715965  0.473904  0.715462  1
  Na  Na29  1  0.715965  0.026096  0.215462  1
  Na  Na30  1  0.284035  0.973904  0.784538  1
  Na  Na31  1  0.284035  0.526096  0.284538  1
  P  P32  1  0.672692  0.715064  0.949611  1
  P  P33  1  0.926295  0.246688  0.040506  1
  P  P34  1  0.073705  0.746688  0.459494  1
  P  P35  1  0.073705  0.753312  0.959494  1
  P  P36  1  0.926295  0.253312  0.540506  1
  P  P37  1  0.327308  0.284936  0.050389  1
  P  P38  1  0.327308  0.215064  0.550389  1
  P  P39  1  0.672692  0.784936  0.449611  1
  In  In40  1  0.254054  0.504239  0.751248  1
  In  In41  1  0.745946  0.004239  0.748752  1
  In  In42  1  0.745946  0.495761  0.248752  1
  In  In43  1  0.254054  0.995761  0.251248  1
