# generated using pymatgen
data_K2Pb(SO4)2
_symmetry_space_group_name_H-M   'P 1'
_cell_length_a   8.12842374
_cell_length_b   8.12842400
_cell_length_c   8.12842398
_cell_angle_alpha   50.08737406
_cell_angle_beta   50.08737186
_cell_angle_gamma   50.08737649
_symmetry_Int_Tables_number   1
_chemical_formula_structural   K2Pb(SO4)2
_chemical_formula_sum   'K2 Pb1 S2 O8'
_cell_volume   290.83049260
_cell_formula_units_Z   1
loop_
 _symmetry_equiv_pos_site_id
 _symmetry_equiv_pos_as_xyz
  1  'x, y, z'
loop_
 _atom_site_type_symbol
 _atom_site_label
 _atom_site_symmetry_multiplicity
 _atom_site_fract_x
 _atom_site_fract_y
 _atom_site_fract_z
 _atom_site_occupancy
  K  K0  1  0.810276  0.810276  0.810276  1
  K  K1  1  0.189724  0.189724  0.189724  1
  Pb  Pb2  1  0.500000  0.500000  0.500000  1
  S  S3  1  0.626891  0.626891  0.626891  1
  S  S4  1  0.373109  0.373109  0.373109  1
  O  O5  1  0.716630  0.716630  0.362758  1
  O  O6  1  0.283370  0.637242  0.283370  1
  O  O7  1  0.716630  0.362758  0.716630  1
  O  O8  1  0.637242  0.283370  0.283370  1
  O  O9  1  0.283370  0.283370  0.637242  1
  O  O10  1  0.304986  0.304986  0.304986  1
  O  O11  1  0.362758  0.716630  0.716630  1
  O  O12  1  0.695014  0.695014  0.695014  1
