# generated using pymatgen
data_NbAg7S6
_symmetry_space_group_name_H-M   'P 1'
_cell_length_a   7.71511199
_cell_length_b   7.53103843
_cell_length_c   7.61674441
_cell_angle_alpha   62.38538418
_cell_angle_beta   60.58073042
_cell_angle_gamma   59.63734990
_symmetry_Int_Tables_number   1
_chemical_formula_structural   NbAg7S6
_chemical_formula_sum   'Nb1 Ag7 S6'
_cell_volume   318.68319619
_cell_formula_units_Z   1
loop_
 _symmetry_equiv_pos_site_id
 _symmetry_equiv_pos_as_xyz
  1  'x, y, z'
loop_
 _atom_site_type_symbol
 _atom_site_label
 _atom_site_symmetry_multiplicity
 _atom_site_fract_x
 _atom_site_fract_y
 _atom_site_fract_z
 _atom_site_occupancy
  Nb  Nb0  1  0.486334  0.494272  0.496308  1
  Ag  Ag1  1  0.258398  0.623739  0.109190  1
  Ag  Ag2  1  0.195863  0.259077  0.912218  1
  Ag  Ag3  1  0.710357  0.348221  0.938801  1
  Ag  Ag4  1  0.638621  0.996116  0.324624  1
  Ag  Ag5  1  0.199486  0.891415  0.690049  1
  Ag  Ag6  1  0.972945  0.118584  0.386088  1
  Ag  Ag7  1  0.013488  0.414329  0.502843  1
  S  S8  1  0.008316  0.006435  0.020748  1
  S  S9  1  0.290084  0.230372  0.222316  1
  S  S10  1  0.111151  0.631715  0.629564  1
  S  S11  1  0.604752  0.123712  0.619115  1
  S  S12  1  0.593349  0.615650  0.140830  1
  S  S13  1  0.612855  0.632360  0.615305  1
