# generated using pymatgen
data_P6Pb5O11
_symmetry_space_group_name_H-M   'P 1'
_cell_length_a   8.09968524
_cell_length_b   7.40986677
_cell_length_c   22.40027830
_cell_angle_alpha   43.18092982
_cell_angle_beta   38.65542355
_cell_angle_gamma   35.58458906
_symmetry_Int_Tables_number   1
_chemical_formula_structural   P6Pb5O11
_chemical_formula_sum   'P6 Pb5 O11'
_cell_volume   472.00008977
_cell_formula_units_Z   1
loop_
 _symmetry_equiv_pos_site_id
 _symmetry_equiv_pos_as_xyz
  1  'x, y, z'
loop_
 _atom_site_type_symbol
 _atom_site_label
 _atom_site_symmetry_multiplicity
 _atom_site_fract_x
 _atom_site_fract_y
 _atom_site_fract_z
 _atom_site_occupancy
  P  P0  1  0.396188  0.462699  0.107863  1
  P  P1  1  0.597651  0.545615  0.193501  1
  P  P2  1  0.401118  0.464999  0.459788  1
  P  P3  1  0.605848  0.601123  0.538294  1
  P  P4  1  0.440339  0.443846  0.770134  1
  P  P5  1  0.593296  0.607100  0.872693  1
  Pb  Pb6  1  0.985177  0.970436  0.005405  1
  Pb  Pb7  1  0.959200  0.957500  0.363631  1
  Pb  Pb8  1  0.985792  0.949030  0.680203  1
  Pb  Pb9  1  0.729612  0.796156  0.626613  1
  Pb  Pb10  1  0.730646  0.822433  0.946093  1
  O  O11  1  0.276203  0.288958  0.217845  1
  O  O12  1  0.833177  0.254156  0.234543  1
  O  O13  1  0.744048  0.725838  0.086276  1
  O  O14  1  0.291979  0.260998  0.571084  1
  O  O15  1  0.654623  0.283239  0.586801  1
  O  O16  1  0.658689  0.780166  0.432642  1
  O  O17  1  0.762530  0.592433  0.556290  1
  O  O18  1  0.316967  0.294175  0.887090  1
  O  O19  1  0.680302  0.268514  0.915903  1
  O  O20  1  0.697061  0.745976  0.760094  1
  O  O21  1  0.759574  0.598632  0.887219  1
