# generated using pymatgen
data_UF6
_symmetry_space_group_name_H-M   'P 1'
_cell_length_a   5.18225600
_cell_length_b   9.72223208
_cell_length_c   10.61176575
_cell_angle_alpha   90.02700717
_cell_angle_beta   90.01269077
_cell_angle_gamma   89.98411993
_symmetry_Int_Tables_number   1
_chemical_formula_structural   UF6
_chemical_formula_sum   'U4 F24'
_cell_volume   534.65351449
_cell_formula_units_Z   4
loop_
 _symmetry_equiv_pos_site_id
 _symmetry_equiv_pos_as_xyz
  1  'x, y, z'
loop_
 _atom_site_type_symbol
 _atom_site_label
 _atom_site_symmetry_multiplicity
 _atom_site_fract_x
 _atom_site_fract_y
 _atom_site_fract_z
 _atom_site_occupancy
  U  U0  1  0.062645  0.750804  0.097070  1
  U  U1  1  0.437666  0.749401  0.597390  1
  U  U2  1  0.563318  0.250507  0.402563  1
  U  U3  1  0.936417  0.249306  0.902960  1
  F  F4  1  0.702746  0.397079  0.831011  1
  F  F5  1  0.797279  0.102381  0.330285  1
  F  F6  1  0.235212  0.749339  0.435480  1
  F  F7  1  0.765736  0.250460  0.564147  1
  F  F8  1  0.203916  0.602429  0.669288  1
  F  F9  1  0.203050  0.896873  0.669060  1
  F  F10  1  0.702449  0.102275  0.830669  1
  F  F11  1  0.297684  0.603038  0.168957  1
  F  F12  1  0.827170  0.604949  0.024382  1
  F  F13  1  0.797439  0.397969  0.330170  1
  F  F14  1  0.264649  0.750879  0.935228  1
  F  F15  1  0.173081  0.394959  0.975955  1
  F  F16  1  0.653438  0.749755  0.753606  1
  F  F17  1  0.734923  0.249322  0.064272  1
  F  F18  1  0.846974  0.750490  0.253544  1
  F  F19  1  0.826037  0.895619  0.024849  1
  F  F20  1  0.672636  0.895101  0.524722  1
  F  F21  1  0.152733  0.249368  0.746952  1
  F  F22  1  0.173110  0.104072  0.975588  1
  F  F23  1  0.326515  0.396099  0.475560  1
  F  F24  1  0.345850  0.250399  0.246373  1
  F  F25  1  0.673777  0.604786  0.524840  1
  F  F26  1  0.297213  0.897932  0.169415  1
  F  F27  1  0.326336  0.104408  0.475663  1
