# generated using pymatgen
data_CoAg(CO)4
_symmetry_space_group_name_H-M   'P 1'
_cell_length_a   6.40419907
_cell_length_b   10.78647781
_cell_length_c   10.78647846
_cell_angle_alpha   112.53003456
_cell_angle_beta   93.19999846
_cell_angle_gamma   93.20000385
_symmetry_Int_Tables_number   1
_chemical_formula_structural   CoAg(CO)4
_chemical_formula_sum   'Co4 Ag4 C16 O16'
_cell_volume   684.76264018
_cell_formula_units_Z   4
loop_
 _symmetry_equiv_pos_site_id
 _symmetry_equiv_pos_as_xyz
  1  'x, y, z'
loop_
 _atom_site_type_symbol
 _atom_site_label
 _atom_site_symmetry_multiplicity
 _atom_site_fract_x
 _atom_site_fract_y
 _atom_site_fract_z
 _atom_site_occupancy
  Co  Co0  1  0.500000  0.296869  0.703131  1
  Co  Co1  1  0.281513  0.771038  0.771038  1
  Co  Co2  1  0.500000  0.703131  0.296869  1
  Co  Co3  1  0.718487  0.228962  0.228962  1
  Ag  Ag4  1  0.594463  0.472553  0.303999  1
  Ag  Ag5  1  0.405537  0.696001  0.527447  1
  Ag  Ag6  1  0.405537  0.527447  0.696001  1
  Ag  Ag7  1  0.594463  0.303999  0.472553  1
  C  C8  1  0.559820  0.801288  0.801288  1
  C  C9  1  0.739688  0.747619  0.401651  1
  C  C10  1  0.927798  0.338716  0.338716  1
  C  C11  1  0.260312  0.598349  0.252381  1
  C  C12  1  0.072202  0.661284  0.661284  1
  C  C13  1  0.789445  0.229844  0.072313  1
  C  C14  1  0.401253  0.336956  0.863133  1
  C  C15  1  0.401253  0.863133  0.336956  1
  C  C16  1  0.789445  0.072313  0.229844  1
  C  C17  1  0.739688  0.401651  0.747619  1
  C  C18  1  0.598747  0.136867  0.663044  1
  C  C19  1  0.260312  0.252381  0.598349  1
  C  C20  1  0.210555  0.770156  0.927687  1
  C  C21  1  0.210555  0.927687  0.770156  1
  C  C22  1  0.598747  0.663044  0.136867  1
  C  C23  1  0.440180  0.198712  0.198712  1
  O  O24  1  0.903692  0.460120  0.788409  1
  O  O25  1  0.913967  0.603499  0.603499  1
  O  O26  1  0.333401  0.357516  0.965699  1
  O  O27  1  0.159154  0.029546  0.771974  1
  O  O28  1  0.333401  0.965699  0.357516  1
  O  O29  1  0.262860  0.165398  0.165398  1
  O  O30  1  0.737140  0.834602  0.834602  1
  O  O31  1  0.096308  0.539880  0.211591  1
  O  O32  1  0.159154  0.771974  0.029546  1
  O  O33  1  0.840846  0.970454  0.228026  1
  O  O34  1  0.086033  0.396500  0.396500  1
  O  O35  1  0.666599  0.034301  0.642484  1
  O  O36  1  0.903692  0.788409  0.460120  1
  O  O37  1  0.840846  0.228026  0.970454  1
  O  O38  1  0.666599  0.642484  0.034301  1
  O  O39  1  0.096308  0.211591  0.539880  1
