# generated using pymatgen
data_LiEu4C3(IN2)3
_symmetry_space_group_name_H-M   'P 1'
_cell_length_a   10.73859887
_cell_length_b   10.73859910
_cell_length_c   6.80136383
_cell_angle_alpha   90.00000000
_cell_angle_beta   90.00000000
_cell_angle_gamma   119.99999934
_symmetry_Int_Tables_number   1
_chemical_formula_structural   LiEu4C3(IN2)3
_chemical_formula_sum   'Li2 Eu8 C6 I6 N12'
_cell_volume   679.23786975
_cell_formula_units_Z   2
loop_
 _symmetry_equiv_pos_site_id
 _symmetry_equiv_pos_as_xyz
  1  'x, y, z'
loop_
 _atom_site_type_symbol
 _atom_site_label
 _atom_site_symmetry_multiplicity
 _atom_site_fract_x
 _atom_site_fract_y
 _atom_site_fract_z
 _atom_site_occupancy
  Eu  Eu0  1  0.212378  0.787622  0.750000  1
  Eu  Eu1  1  0.212378  0.424756  0.750000  1
  Eu  Eu2  1  0.424756  0.212378  0.250000  1
  Eu  Eu3  1  0.575244  0.787622  0.750000  1
  Eu  Eu4  1  0.787622  0.575244  0.250000  1
  Eu  Eu5  1  0.787622  0.212378  0.250000  1
  Eu  Eu6  1  0.333333  0.666667  0.250000  1
  Eu  Eu7  1  0.666667  0.333333  0.750000  1
  Li  Li8  1  0.000000  0.000000  0.000000  1
  Li  Li9  1  0.000000  0.000000  0.500000  1
  C  C10  1  0.500000  0.000000  0.500000  1
  C  C11  1  0.500000  0.500000  0.000000  1
  C  C12  1  0.500000  0.500000  0.500000  1
  C  C13  1  0.000000  0.500000  0.500000  1
  C  C14  1  0.500000  0.000000  0.000000  1
  C  C15  1  0.000000  0.500000  0.000000  1
  I  I16  1  0.737023  0.868511  0.250000  1
  I  I17  1  0.262977  0.131489  0.750000  1
  I  I18  1  0.131489  0.868511  0.250000  1
  I  I19  1  0.868511  0.737023  0.750000  1
  I  I20  1  0.131489  0.262977  0.250000  1
  I  I21  1  0.868511  0.131489  0.750000  1
  N  N22  1  0.867838  0.433919  0.474527  1
  N  N23  1  0.433919  0.566081  0.974527  1
  N  N24  1  0.433919  0.867838  0.525473  1
  N  N25  1  0.132162  0.566081  0.525473  1
  N  N26  1  0.132162  0.566081  0.974527  1
  N  N27  1  0.566081  0.433919  0.474527  1
  N  N28  1  0.566081  0.132162  0.025473  1
  N  N29  1  0.566081  0.433919  0.025473  1
  N  N30  1  0.433919  0.867838  0.974527  1
  N  N31  1  0.566081  0.132162  0.474527  1
  N  N32  1  0.867838  0.433919  0.025473  1
  N  N33  1  0.433919  0.566081  0.525473  1
