# generated using pymatgen
data_Ba2PrSbO6
_symmetry_space_group_name_H-M   'P 1'
_cell_length_a   6.14216967
_cell_length_b   6.14216979
_cell_length_c   6.14216965
_cell_angle_alpha   60.14456997
_cell_angle_beta   60.14456939
_cell_angle_gamma   60.14456715
_symmetry_Int_Tables_number   1
_chemical_formula_structural   Ba2PrSbO6
_chemical_formula_sum   'Ba2 Pr1 Sb1 O6'
_cell_volume   164.38807609
_cell_formula_units_Z   1
loop_
 _symmetry_equiv_pos_site_id
 _symmetry_equiv_pos_as_xyz
  1  'x, y, z'
loop_
 _atom_site_type_symbol
 _atom_site_label
 _atom_site_symmetry_multiplicity
 _atom_site_fract_x
 _atom_site_fract_y
 _atom_site_fract_z
 _atom_site_occupancy
  Ba  Ba0  1  0.251407  0.251407  0.251407  1
  Ba  Ba1  1  0.748593  0.748593  0.748593  1
  Pr  Pr2  1  0.000000  0.000000  0.000000  1
  Sb  Sb3  1  0.500000  0.500000  0.500000  1
  O  O4  1  0.730005  0.241175  0.296632  1
  O  O5  1  0.758825  0.703368  0.269995  1
  O  O6  1  0.296632  0.730005  0.241175  1
  O  O7  1  0.241175  0.296632  0.730005  1
  O  O8  1  0.703368  0.269995  0.758825  1
  O  O9  1  0.269995  0.758825  0.703368  1
