# generated using pymatgen
data_CdI2
_symmetry_space_group_name_H-M   'P 1'
_cell_length_a   4.34502257
_cell_length_b   4.34502284
_cell_length_c   73.61374559
_cell_angle_alpha   90.00000000
_cell_angle_beta   90.00000000
_cell_angle_gamma   119.99999798
_symmetry_Int_Tables_number   1
_chemical_formula_structural   CdI2
_chemical_formula_sum   'Cd10 I20'
_cell_volume   1203.57638314
_cell_formula_units_Z   10
loop_
 _symmetry_equiv_pos_site_id
 _symmetry_equiv_pos_as_xyz
  1  'x, y, z'
loop_
 _atom_site_type_symbol
 _atom_site_label
 _atom_site_symmetry_multiplicity
 _atom_site_fract_x
 _atom_site_fract_y
 _atom_site_fract_z
 _atom_site_occupancy
  Cd  Cd0  1  0.333333  0.666667  0.624987  1
  Cd  Cd1  1  0.666667  0.333333  0.224998  1
  Cd  Cd2  1  0.000000  0.000000  0.924987  1
  Cd  Cd3  1  0.000000  0.000000  0.825001  1
  Cd  Cd4  1  0.666667  0.333333  0.725000  1
  Cd  Cd5  1  0.666667  0.333333  0.024996  1
  Cd  Cd6  1  0.000000  0.000000  0.324999  1
  Cd  Cd7  1  0.000000  0.000000  0.124993  1
  Cd  Cd8  1  0.666667  0.333333  0.425004  1
  Cd  Cd9  1  0.333333  0.666667  0.525002  1
  I  I10  1  0.666667  0.333333  0.648500  1
  I  I11  1  0.333333  0.666667  0.448530  1
  I  I12  1  0.333333  0.666667  0.948508  1
  I  I13  1  0.666667  0.333333  0.101470  1
  I  I14  1  0.666667  0.333333  0.901462  1
  I  I15  1  0.333333  0.666667  0.348525  1
  I  I16  1  0.000000  0.000000  0.601473  1
  I  I17  1  0.000000  0.000000  0.201493  1
  I  I18  1  0.000000  0.000000  0.401490  1
  I  I19  1  0.666667  0.333333  0.801477  1
  I  I20  1  0.333333  0.666667  0.048523  1
  I  I21  1  0.666667  0.333333  0.301479  1
  I  I22  1  0.333333  0.666667  0.148521  1
  I  I23  1  0.333333  0.666667  0.248525  1
  I  I24  1  0.000000  0.000000  0.001490  1
  I  I25  1  0.000000  0.000000  0.701496  1
  I  I26  1  0.333333  0.666667  0.848526  1
  I  I27  1  0.666667  0.333333  0.548526  1
  I  I28  1  0.333333  0.666667  0.748525  1
  I  I29  1  0.000000  0.000000  0.501493  1
