# generated using pymatgen
data_Si2H2O3
_symmetry_space_group_name_H-M   'P 1'
_cell_length_a   11.75652567
_cell_length_b   10.87016436
_cell_length_c   11.97572951
_cell_angle_alpha   100.18188325
_cell_angle_beta   138.46000523
_cell_angle_gamma   94.86616723
_symmetry_Int_Tables_number   1
_chemical_formula_structural   Si2H2O3
_chemical_formula_sum   'Si20 H20 O30'
_cell_volume   942.01887624
_cell_formula_units_Z   10
loop_
 _symmetry_equiv_pos_site_id
 _symmetry_equiv_pos_as_xyz
  1  'x, y, z'
loop_
 _atom_site_type_symbol
 _atom_site_label
 _atom_site_symmetry_multiplicity
 _atom_site_fract_x
 _atom_site_fract_y
 _atom_site_fract_z
 _atom_site_occupancy
  Si  Si0  1  0.627403  0.860835  0.552374  1
  Si  Si1  1  0.752286  0.616581  0.297310  1
  Si  Si2  1  0.355319  0.107232  0.383374  1
  Si  Si3  1  0.342258  0.394175  0.754553  1
  Si  Si4  1  0.053325  0.062832  0.800592  1
  Si  Si5  1  0.745110  0.405185  0.515237  1
  Si  Si6  1  0.916105  0.914313  0.160868  1
  Si  Si7  1  0.340530  0.571479  0.562804  1
  Si  Si8  1  0.371453  0.985506  0.199641  1
  Si  Si9  1  0.192347  0.492514  0.911426  1
  Si  Si10  1  0.592796  0.993728  0.803057  1
  Si  Si11  1  0.773900  0.494517  0.071462  1
  Si  Si12  1  0.412433  0.751085  0.931553  1
  Si  Si13  1  0.156375  0.734346  0.128394  1
  Si  Si14  1  0.591577  0.219517  0.054666  1
  Si  Si15  1  0.809815  0.277675  0.841429  1
  Si  Si16  1  0.118693  0.880272  0.623584  1
  Si  Si17  1  0.671152  0.604311  0.678404  1
  Si  Si18  1  0.898386  0.131747  0.399423  1
  Si  Si19  1  0.231247  0.356064  0.257476  1
  H  H20  1  0.951062  0.928831  0.868711  1
  H  H21  1  0.955354  0.583581  0.570069  1
  H  H22  1  0.038304  0.056458  0.113849  1
  H  H23  1  0.361380  0.154740  0.100312  1
  H  H24  1  0.041331  0.661932  0.274876  1
  H  H25  1  0.223680  0.731598  0.947226  1
  H  H26  1  0.852373  0.180750  0.024592  1
  H  H27  1  0.900729  0.337756  0.218083  1
  H  H28  1  0.950887  0.697449  0.832450  1
  H  H29  1  0.012844  0.365731  0.489690  1
  H  H30  1  0.628692  0.832713  0.359596  1
  H  H31  1  0.396878  0.222412  0.629700  1
  H  H32  1  0.863953  0.848715  0.572300  1
  H  H33  1  0.349671  0.464554  0.292007  1
  H  H34  1  0.072432  0.001145  0.460411  1
  H  H35  1  0.304621  0.330145  0.518311  1
  H  H36  1  0.648151  0.017652  0.308416  1
  H  H37  1  0.279642  0.559914  0.177747  1
  H  H38  1  0.373677  0.048521  0.763519  1
  H  H39  1  0.679825  0.450170  0.805848  1
  O  O40  1  0.903080  0.981602  0.791738  1
  O  O41  1  0.831887  0.532366  0.446668  1
  O  O42  1  0.098830  0.009738  0.198642  1
  O  O43  1  0.327009  0.520690  0.680975  1
  O  O44  1  0.277342  0.064054  0.036641  1
  O  O45  1  0.970481  0.453891  0.717393  1
  O  O46  1  0.762803  0.975653  0.005033  1
  O  O47  1  0.003527  0.567239  0.249722  1
  O  O48  1  0.213280  0.835428  0.064900  1
  O  O49  1  0.252192  0.665325  0.907336  1
  O  O50  1  0.753817  0.152133  0.892601  1
  O  O51  1  0.780678  0.348696  0.125452  1
  O  O52  1  0.281652  0.822496  0.786383  1
  O  O53  1  0.924533  0.676560  0.888853  1
  O  O54  1  0.751088  0.159773  0.207359  1
  O  O55  1  0.028928  0.322725  0.054871  1
  O  O56  1  0.653120  0.746675  0.638069  1
  O  O57  1  0.943663  0.742516  0.440010  1
  O  O58  1  0.296683  0.226718  0.285735  1
  O  O59  1  0.073318  0.300314  0.537012  1
  O  O60  1  0.692638  0.800316  0.460508  1
  O  O61  1  0.352262  0.297071  0.620467  1
  O  O62  1  0.017831  0.907875  0.683120  1
  O  O63  1  0.680549  0.520147  0.554302  1
  O  O64  1  0.000501  0.041105  0.361841  1
  O  O65  1  0.243536  0.408420  0.406904  1
  O  O66  1  0.532562  0.948930  0.238556  1
  O  O67  1  0.212527  0.597955  0.081327  1
  O  O68  1  0.506452  0.099700  0.856255  1
  O  O69  1  0.748091  0.407195  0.898697  1
