# generated using pymatgen
data_SiO2
_symmetry_space_group_name_H-M   'P 1'
_cell_length_a   9.97505920
_cell_length_b   9.97505920
_cell_length_c   9.97505920
_cell_angle_alpha   90.00000000
_cell_angle_beta   90.00000000
_cell_angle_gamma   90.00000000
_symmetry_Int_Tables_number   1
_chemical_formula_structural   SiO2
_chemical_formula_sum   'Si16 O32'
_cell_volume   992.53640579
_cell_formula_units_Z   16
loop_
 _symmetry_equiv_pos_site_id
 _symmetry_equiv_pos_as_xyz
  1  'x, y, z'
loop_
 _atom_site_type_symbol
 _atom_site_label
 _atom_site_symmetry_multiplicity
 _atom_site_fract_x
 _atom_site_fract_y
 _atom_site_fract_z
 _atom_site_occupancy
  Si  Si0  1  0.156908  0.156908  0.156908  1
  Si  Si1  1  0.156908  0.843092  0.156908  1
  Si  Si2  1  0.156908  0.156908  0.843092  1
  Si  Si3  1  0.843092  0.156908  0.156908  1
  Si  Si4  1  0.843092  0.843092  0.156908  1
  Si  Si5  1  0.156908  0.843092  0.843092  1
  Si  Si6  1  0.843092  0.156908  0.843092  1
  Si  Si7  1  0.843092  0.843092  0.843092  1
  Si  Si8  1  0.656908  0.656908  0.656908  1
  Si  Si9  1  0.656908  0.343092  0.656908  1
  Si  Si10  1  0.656908  0.656908  0.343092  1
  Si  Si11  1  0.343092  0.656908  0.656908  1
  Si  Si12  1  0.343092  0.343092  0.656908  1
  Si  Si13  1  0.656908  0.343092  0.343092  1
  Si  Si14  1  0.343092  0.656908  0.343092  1
  Si  Si15  1  0.343092  0.343092  0.343092  1
  O  O16  1  0.250000  0.250000  0.250000  1
  O  O17  1  0.250000  0.750000  0.250000  1
  O  O18  1  0.250000  0.250000  0.750000  1
  O  O19  1  0.750000  0.250000  0.250000  1
  O  O20  1  0.750000  0.750000  0.250000  1
  O  O21  1  0.250000  0.750000  0.750000  1
  O  O22  1  0.750000  0.250000  0.750000  1
  O  O23  1  0.750000  0.750000  0.750000  1
  O  O24  1  0.188891  0.188891  0.000000  1
  O  O25  1  0.188891  0.000000  0.188891  1
  O  O26  1  0.188891  0.000000  0.811109  1
  O  O27  1  0.000000  0.188891  0.811109  1
  O  O28  1  0.000000  0.188891  0.188891  1
  O  O29  1  0.811109  0.188891  0.000000  1
  O  O30  1  0.188891  0.811109  0.000000  1
  O  O31  1  0.811109  0.000000  0.188891  1
  O  O32  1  0.000000  0.811109  0.811109  1
  O  O33  1  0.811109  0.000000  0.811109  1
  O  O34  1  0.000000  0.811109  0.188891  1
  O  O35  1  0.811109  0.811109  0.000000  1
  O  O36  1  0.688891  0.688891  0.500000  1
  O  O37  1  0.688891  0.500000  0.688891  1
  O  O38  1  0.688891  0.500000  0.311109  1
  O  O39  1  0.500000  0.688891  0.311109  1
  O  O40  1  0.500000  0.688891  0.688891  1
  O  O41  1  0.311109  0.688891  0.500000  1
  O  O42  1  0.688891  0.311109  0.500000  1
  O  O43  1  0.311109  0.500000  0.688891  1
  O  O44  1  0.500000  0.311109  0.311109  1
  O  O45  1  0.311109  0.500000  0.311109  1
  O  O46  1  0.500000  0.311109  0.688891  1
  O  O47  1  0.311109  0.311109  0.500000  1
