# generated using pymatgen
data_LiAlSiO4
_symmetry_space_group_name_H-M   'P 1'
_cell_length_a   5.29720728
_cell_length_b   5.29720728
_cell_length_c   11.45030422
_cell_angle_alpha   90.00000000
_cell_angle_beta   90.00000000
_cell_angle_gamma   120.00000002
_symmetry_Int_Tables_number   1
_chemical_formula_structural   LiAlSiO4
_chemical_formula_sum   'Li3 Al3 Si3 O12'
_cell_volume   278.25411220
_cell_formula_units_Z   3
loop_
 _symmetry_equiv_pos_site_id
 _symmetry_equiv_pos_as_xyz
  1  'x, y, z'
loop_
 _atom_site_type_symbol
 _atom_site_label
 _atom_site_symmetry_multiplicity
 _atom_site_fract_x
 _atom_site_fract_y
 _atom_site_fract_z
 _atom_site_occupancy
  Li  Li0  1  0.000000  0.000000  0.000000  1
  Li  Li1  1  0.000000  0.000000  0.666667  1
  Li  Li2  1  0.000000  0.000000  0.333333  1
  O  O3  1  0.400184  0.206119  0.588760  1
  O  O4  1  0.206119  0.805935  0.922094  1
  O  O5  1  0.194065  0.400184  0.255427  1
  O  O6  1  0.599816  0.793881  0.588760  1
  O  O7  1  0.805935  0.206119  0.411240  1
  O  O8  1  0.793881  0.599816  0.744573  1
  O  O9  1  0.206119  0.400184  0.744573  1
  O  O10  1  0.599816  0.805935  0.077906  1
  O  O11  1  0.400184  0.194065  0.077906  1
  O  O12  1  0.805935  0.599816  0.255427  1
  O  O13  1  0.194065  0.793881  0.411240  1
  O  O14  1  0.793881  0.194065  0.922094  1
  Al  Al15  1  0.500000  0.000000  0.500000  1
  Al  Al16  1  0.000000  0.500000  0.833333  1
  Al  Al17  1  0.500000  0.500000  0.166667  1
  Si  Si18  1  0.500000  0.500000  0.666667  1
  Si  Si19  1  0.000000  0.500000  0.333333  1
  Si  Si20  1  0.500000  0.000000  0.000000  1
