# generated using pymatgen
data_Na4Al3Si9ClO24
_symmetry_space_group_name_H-M   'P 1'
_cell_length_a   7.65535684
_cell_length_b   9.39186240
_cell_length_c   9.36228796
_cell_angle_alpha   80.48286100
_cell_angle_beta   66.46582482
_cell_angle_gamma   66.24780894
_symmetry_Int_Tables_number   1
_chemical_formula_structural   Na4Al3Si9ClO24
_chemical_formula_sum   'Na4 Al3 Si9 Cl1 O24'
_cell_volume   564.85832434
_cell_formula_units_Z   1
loop_
 _symmetry_equiv_pos_site_id
 _symmetry_equiv_pos_as_xyz
  1  'x, y, z'
loop_
 _atom_site_type_symbol
 _atom_site_label
 _atom_site_symmetry_multiplicity
 _atom_site_fract_x
 _atom_site_fract_y
 _atom_site_fract_z
 _atom_site_occupancy
  Na  Na0  1  0.126049  0.080071  0.668648  1
  Na  Na1  1  0.226798  0.665843  0.907318  1
  Na  Na2  1  0.778169  0.317459  0.076580  1
  Na  Na3  1  0.869329  0.931183  0.332677  1
  Al  Al4  1  0.134471  0.749557  0.574482  1
  Al  Al5  1  0.448564  0.257858  0.427920  1
  Al  Al6  1  0.713988  0.423273  0.747753  1
  Si  Si7  1  0.340447  0.070744  0.253114  1
  Si  Si8  1  0.119920  0.425391  0.755656  1
  Si  Si9  1  0.280785  0.581684  0.250230  1
  Si  Si10  1  0.411844  0.249161  0.927887  1
  Si  Si11  1  0.579772  0.748184  0.075278  1
  Si  Si12  1  0.549677  0.748868  0.573234  1
  Si  Si13  1  0.875844  0.250281  0.423801  1
  Si  Si14  1  0.875204  0.575829  0.253816  1
  Si  Si15  1  0.668013  0.926017  0.749176  1
  Cl  Cl16  1  0.001396  0.991086  0.000421  1
  O  O17  1  0.095407  0.102397  0.353080  1
  O  O18  1  0.108739  0.578444  0.184175  1
  O  O19  1  0.351469  0.188585  0.105768  1
  O  O20  1  0.153467  0.704968  0.392257  1
  O  O21  1  0.444306  0.096645  0.360973  1
  O  O22  1  0.260259  0.300795  0.613698  1
  O  O23  1  0.140351  0.594149  0.707265  1
  O  O24  1  0.196123  0.361179  0.905417  1
  O  O25  1  0.421096  0.410923  0.290726  1
  O  O26  1  0.435600  0.648662  0.099465  1
  O  O27  1  0.324587  0.815765  0.563175  1
  O  O28  1  0.453630  0.891134  0.195479  1
  O  O29  1  0.527808  0.102548  0.808770  1
  O  O30  1  0.702850  0.196034  0.418418  1
  O  O31  1  0.548926  0.350998  0.900804  1
  O  O32  1  0.568777  0.606381  0.696066  1
  O  O33  1  0.784234  0.633038  0.114402  1
  O  O34  1  0.878782  0.400670  0.302426  1
  O  O35  1  0.736296  0.698014  0.399011  1
  O  O36  1  0.576964  0.892305  0.630783  1
  O  O37  1  0.852381  0.291759  0.591854  1
  O  O38  1  0.647955  0.804434  0.895809  1
  O  O39  1  0.886257  0.430130  0.823125  1
  O  O40  1  0.903466  0.907553  0.649062  1
