# generated using pymatgen
data_K2Ti(SiO3)3
_symmetry_space_group_name_H-M   'P 1'
_cell_length_a   6.87019677
_cell_length_b   6.87019677
_cell_length_c   10.07936871
_cell_angle_alpha   90.00000000
_cell_angle_beta   90.00000000
_cell_angle_gamma   120.00000002
_symmetry_Int_Tables_number   1
_chemical_formula_structural   K2Ti(SiO3)3
_chemical_formula_sum   'K4 Ti2 Si6 O18'
_cell_volume   412.00483786
_cell_formula_units_Z   2
loop_
 _symmetry_equiv_pos_site_id
 _symmetry_equiv_pos_as_xyz
  1  'x, y, z'
loop_
 _atom_site_type_symbol
 _atom_site_label
 _atom_site_symmetry_multiplicity
 _atom_site_fract_x
 _atom_site_fract_y
 _atom_site_fract_z
 _atom_site_occupancy
  O  O0  1  0.245266  0.223114  0.387433  1
  O  O1  1  0.022152  0.245266  0.887433  1
  O  O2  1  0.223114  0.977848  0.887433  1
  O  O3  1  0.776886  0.022152  0.387433  1
  O  O4  1  0.977848  0.754734  0.387433  1
  O  O5  1  0.754734  0.776886  0.887433  1
  O  O6  1  0.754734  0.776886  0.612567  1
  O  O7  1  0.977848  0.754734  0.112567  1
  O  O8  1  0.776886  0.022152  0.112567  1
  O  O9  1  0.223114  0.977848  0.612567  1
  O  O10  1  0.022152  0.245266  0.612567  1
  O  O11  1  0.245266  0.223114  0.112567  1
  O  O12  1  0.488232  0.081454  0.250000  1
  O  O13  1  0.406778  0.488232  0.750000  1
  O  O14  1  0.081454  0.593222  0.750000  1
  O  O15  1  0.918546  0.406778  0.250000  1
  O  O16  1  0.593222  0.511768  0.250000  1
  O  O17  1  0.511768  0.918546  0.750000  1
  Si  Si18  1  0.622880  0.752287  0.750000  1
  Si  Si19  1  0.870592  0.622880  0.250000  1
  Si  Si20  1  0.752287  0.129408  0.250000  1
  Si  Si21  1  0.247713  0.870592  0.750000  1
  Si  Si22  1  0.129408  0.377120  0.750000  1
  Si  Si23  1  0.377120  0.247713  0.250000  1
  K  K24  1  0.333333  0.666667  0.057357  1
  K  K25  1  0.666667  0.333333  0.557357  1
  K  K26  1  0.333333  0.666667  0.442643  1
  K  K27  1  0.666667  0.333333  0.942643  1
  Ti  Ti28  1  0.000000  0.000000  0.000000  1
  Ti  Ti29  1  0.000000  0.000000  0.500000  1
