# generated using pymatgen
data_CrFe2C10(Se2O5)2
_symmetry_space_group_name_H-M   'P 1'
_cell_length_a   6.68423670
_cell_length_b   17.27162202
_cell_length_c   17.63663004
_cell_angle_alpha   90.00000000
_cell_angle_beta   90.00000000
_cell_angle_gamma   96.73228568
_symmetry_Int_Tables_number   1
_chemical_formula_structural   CrFe2C10(Se2O5)2
_chemical_formula_sum   'Cr4 Fe8 C40 Se16 O40'
_cell_volume   2022.06731655
_cell_formula_units_Z   4
loop_
 _symmetry_equiv_pos_site_id
 _symmetry_equiv_pos_as_xyz
  1  'x, y, z'
loop_
 _atom_site_type_symbol
 _atom_site_label
 _atom_site_symmetry_multiplicity
 _atom_site_fract_x
 _atom_site_fract_y
 _atom_site_fract_z
 _atom_site_occupancy
  Cr  Cr0  1  0.221302  0.618833  0.383874  1
  Cr  Cr1  1  0.778698  0.881167  0.883874  1
  Cr  Cr2  1  0.221302  0.118833  0.116126  1
  Cr  Cr3  1  0.778698  0.381167  0.616126  1
  Fe  Fe4  1  0.846138  0.197481  0.462347  1
  Fe  Fe5  1  0.671582  0.135427  0.650412  1
  Fe  Fe6  1  0.328418  0.364573  0.150412  1
  Fe  Fe7  1  0.328418  0.864573  0.349588  1
  Fe  Fe8  1  0.153862  0.302519  0.962347  1
  Fe  Fe9  1  0.671582  0.635427  0.849588  1
  Fe  Fe10  1  0.153862  0.802519  0.537653  1
  Fe  Fe11  1  0.846138  0.697481  0.037653  1
  C  C12  1  0.086472  0.703908  0.087289  1
  C  C13  1  0.782479  0.597803  0.066697  1
  C  C14  1  0.728924  0.750789  0.111363  1
  C  C15  1  0.279543  0.961762  0.374654  1
  C  C16  1  0.424569  0.102873  0.692509  1
  C  C17  1  0.059124  0.524351  0.403093  1
  C  C18  1  0.940876  0.975649  0.903093  1
  C  C19  1  0.797611  0.645896  0.758468  1
  C  C20  1  0.217521  0.902197  0.566697  1
  C  C21  1  0.424569  0.602873  0.807491  1
  C  C22  1  0.947053  0.364823  0.700261  1
  C  C23  1  0.052947  0.635177  0.299739  1
  C  C24  1  0.782479  0.097803  0.433303  1
  C  C25  1  0.202389  0.854104  0.258468  1
  C  C26  1  0.728924  0.250789  0.388637  1
  C  C27  1  0.614369  0.399000  0.529593  1
  C  C28  1  0.271076  0.249211  0.888637  1
  C  C29  1  0.279543  0.461762  0.125346  1
  C  C30  1  0.385254  0.066032  0.178339  1
  C  C31  1  0.052947  0.135177  0.200261  1
  C  C32  1  0.720457  0.038238  0.625346  1
  C  C33  1  0.217521  0.402197  0.933303  1
  C  C34  1  0.385631  0.601000  0.470407  1
  C  C35  1  0.271076  0.749211  0.611363  1
  C  C36  1  0.385631  0.101000  0.029593  1
  C  C37  1  0.614369  0.899000  0.970407  1
  C  C38  1  0.059124  0.024351  0.096907  1
  C  C39  1  0.614746  0.933968  0.821661  1
  C  C40  1  0.086472  0.203908  0.412711  1
  C  C41  1  0.575431  0.897127  0.307491  1
  C  C42  1  0.913528  0.296092  0.912711  1
  C  C43  1  0.202389  0.354104  0.241532  1
  C  C44  1  0.913528  0.796092  0.587289  1
  C  C45  1  0.797611  0.145896  0.741532  1
  C  C46  1  0.940876  0.475649  0.596907  1
  C  C47  1  0.614746  0.433968  0.678339  1
  C  C48  1  0.385254  0.566032  0.321661  1
  C  C49  1  0.947053  0.864823  0.799739  1
  C  C50  1  0.720457  0.538238  0.874654  1
  C  C51  1  0.575431  0.397127  0.192509  1
  Se  Se52  1  0.003211  0.323576  0.085661  1
  Se  Se53  1  0.543550  0.263027  0.639288  1
  Se  Se54  1  0.001275  0.307120  0.540179  1
  Se  Se55  1  0.003211  0.823576  0.414339  1
  Se  Se56  1  0.456450  0.736973  0.360712  1
  Se  Se57  1  0.543550  0.763027  0.860712  1
  Se  Se58  1  0.001275  0.807120  0.959821  1
  Se  Se59  1  0.998725  0.192880  0.040179  1
  Se  Se60  1  0.996789  0.176424  0.585661  1
  Se  Se61  1  0.477863  0.823320  0.467053  1
  Se  Se62  1  0.522137  0.676680  0.967053  1
  Se  Se63  1  0.996789  0.676424  0.914339  1
  Se  Se64  1  0.456450  0.236973  0.139288  1
  Se  Se65  1  0.998725  0.692880  0.459821  1
  Se  Se66  1  0.522137  0.176680  0.532947  1
  Se  Se67  1  0.477863  0.323320  0.032947  1
  O  O68  1  0.512311  0.966436  0.781829  1
  O  O69  1  0.960571  0.464830  0.412771  1
  O  O70  1  0.751175  0.975980  0.608963  1
  O  O71  1  0.268875  0.583131  0.781999  1
  O  O72  1  0.747725  0.033157  0.416018  1
  O  O73  1  0.751175  0.475980  0.891037  1
  O  O74  1  0.487689  0.533564  0.281829  1
  O  O75  1  0.512311  0.466436  0.718171  1
  O  O76  1  0.248825  0.024020  0.391037  1
  O  O77  1  0.877209  0.651897  0.700478  1
  O  O78  1  0.947492  0.143120  0.251639  1
  O  O79  1  0.052508  0.356880  0.751639  1
  O  O80  1  0.122791  0.348103  0.299522  1
  O  O81  1  0.342202  0.215604  0.841237  1
  O  O82  1  0.731125  0.916869  0.281999  1
  O  O83  1  0.039429  0.035170  0.912771  1
  O  O84  1  0.747725  0.533157  0.083982  1
  O  O85  1  0.657798  0.284396  0.341237  1
  O  O86  1  0.252275  0.966843  0.583982  1
  O  O87  1  0.236249  0.205656  0.380341  1
  O  O88  1  0.342202  0.715604  0.658763  1
  O  O89  1  0.252275  0.466843  0.916018  1
  O  O90  1  0.960571  0.964830  0.087229  1
  O  O91  1  0.268875  0.083131  0.718001  1
  O  O92  1  0.512462  0.409588  0.478162  1
  O  O93  1  0.248825  0.524020  0.108963  1
  O  O94  1  0.947492  0.643120  0.248361  1
  O  O95  1  0.877209  0.151897  0.799522  1
  O  O96  1  0.039429  0.535170  0.587229  1
  O  O97  1  0.052508  0.856880  0.748361  1
  O  O98  1  0.487689  0.033564  0.218171  1
  O  O99  1  0.236249  0.705656  0.119659  1
  O  O100  1  0.512462  0.909588  0.021838  1
  O  O101  1  0.487538  0.590412  0.521838  1
  O  O102  1  0.487538  0.090412  0.978162  1
  O  O103  1  0.763751  0.294344  0.880341  1
  O  O104  1  0.122791  0.848103  0.200478  1
  O  O105  1  0.763751  0.794344  0.619659  1
  O  O106  1  0.731125  0.416869  0.218001  1
  O  O107  1  0.657798  0.784396  0.158763  1
