# generated using pymatgen
data_Bi2Te2S
_symmetry_space_group_name_H-M   'P 1'
_cell_length_a   23.06404370
_cell_length_b   4.47926647
_cell_length_c   11.73786564
_cell_angle_alpha   126.19741522
_cell_angle_beta   169.25393434
_cell_angle_gamma   53.05050740
_symmetry_Int_Tables_number   1
_chemical_formula_structural   Bi2Te2S
_chemical_formula_sum   'Bi2 Te2 S1'
_cell_volume   180.69495463
_cell_formula_units_Z   1
loop_
 _symmetry_equiv_pos_site_id
 _symmetry_equiv_pos_as_xyz
  1  'x, y, z'
loop_
 _atom_site_type_symbol
 _atom_site_label
 _atom_site_symmetry_multiplicity
 _atom_site_fract_x
 _atom_site_fract_y
 _atom_site_fract_z
 _atom_site_occupancy
  Bi  Bi0  1  0.862673  0.434860  1.000000  1
  Bi  Bi1  1  0.137327  0.565140  0.000000  1
  Te  Te2  1  0.675976  -0.041682  1.000000  1
  Te  Te3  1  0.324024  0.041682  0.000000  1
  S  S4  1  0.000000  0.000000  0.000000  1
