# generated using pymatgen
data_Sm2PbSe4
_symmetry_space_group_name_H-M   'P 1'
_cell_length_a   7.79991049
_cell_length_b   7.79991037
_cell_length_c   7.79991079
_cell_angle_alpha   109.42184586
_cell_angle_beta   109.42184553
_cell_angle_gamma   109.57001434
_symmetry_Int_Tables_number   1
_chemical_formula_structural   Sm2PbSe4
_chemical_formula_sum   'Sm4 Pb2 Se8'
_cell_volume   365.29692363
_cell_formula_units_Z   2
loop_
 _symmetry_equiv_pos_site_id
 _symmetry_equiv_pos_as_xyz
  1  'x, y, z'
loop_
 _atom_site_type_symbol
 _atom_site_label
 _atom_site_symmetry_multiplicity
 _atom_site_fract_x
 _atom_site_fract_y
 _atom_site_fract_z
 _atom_site_occupancy
  Sm  Sm0  1  0.119618  0.750000  0.869618  1
  Sm  Sm1  1  0.250000  0.619618  0.369618  1
  Sm  Sm2  1  0.380382  0.250000  0.630382  1
  Sm  Sm3  1  0.750000  0.880382  0.130382  1
  Pb  Pb4  1  0.625000  0.375000  0.250000  1
  Pb  Pb5  1  0.875000  0.125000  0.750000  1
  Se  Se6  1  0.009720  0.857752  0.496982  1
  Se  Se7  1  0.142248  0.139230  0.151968  1
  Se  Se8  1  0.487262  0.990280  0.348032  1
  Se  Se9  1  0.357752  0.509720  0.996982  1
  Se  Se10  1  0.639230  0.642248  0.651968  1
  Se  Se11  1  0.490280  0.987262  0.848032  1
  Se  Se12  1  0.860770  0.512738  0.003018  1
  Se  Se13  1  0.012738  0.360770  0.503018  1
