# generated using pymatgen
data_Nd10Si10BrN17O9
_symmetry_space_group_name_H-M   'P 1'
_cell_length_a   10.55859081
_cell_length_b   11.24937917
_cell_length_c   11.65061005
_cell_angle_alpha   89.96906540
_cell_angle_beta   90.02656360
_cell_angle_gamma   90.06864470
_symmetry_Int_Tables_number   1
_chemical_formula_structural   Nd10Si10BrN17O9
_chemical_formula_sum   'Nd20 Si20 Br2 N34 O18'
_cell_volume   1383.83005777
_cell_formula_units_Z   2
loop_
 _symmetry_equiv_pos_site_id
 _symmetry_equiv_pos_as_xyz
  1  'x, y, z'
loop_
 _atom_site_type_symbol
 _atom_site_label
 _atom_site_symmetry_multiplicity
 _atom_site_fract_x
 _atom_site_fract_y
 _atom_site_fract_z
 _atom_site_occupancy
  Nd  Nd0  1  0.991792  0.999120  0.830624  1
  Nd  Nd1  1  0.108499  0.630543  -0.000021  1
  Nd  Nd2  1  0.132184  0.883736  0.500320  1
  Nd  Nd3  1  0.137339  0.397140  0.756487  1
  Nd  Nd4  1  0.139074  0.396494  0.243576  1
  Nd  Nd5  1  0.359891  0.902241  0.241047  1
  Nd  Nd6  1  0.362883  0.897841  0.758387  1
  Nd  Nd7  1  0.368021  0.381506  0.498554  1
  Nd  Nd8  1  0.378806  0.128981  0.004004  1
  Nd  Nd9  1  0.500031  0.500241  0.173013  1
  Nd  Nd10  1  0.501978  0.502506  0.826962  1
  Nd  Nd11  1  0.639480  0.870721  0.996250  1
  Nd  Nd12  1  0.625605  0.619923  0.501624  1
  Nd  Nd13  1  0.642551  0.104212  0.234943  1
  Nd  Nd14  1  0.644497  0.100234  0.765599  1
  Nd  Nd15  1  0.857353  0.600465  0.770484  1
  Nd  Nd16  1  0.858696  0.599648  0.229097  1
  Nd  Nd17  1  0.875766  0.120852  0.499968  1
  Nd  Nd18  1  0.875523  0.372026  0.000011  1
  Nd  Nd19  1  0.991477  0.999006  0.169373  1
  Si  Si20  1  0.116347  0.744980  0.246739  1
  Si  Si21  1  0.116444  0.744939  0.753544  1
  Si  Si22  1  0.150925  0.142766  0.363912  1
  Si  Si23  1  0.150834  0.142728  0.636628  1
  Si  Si24  1  0.214857  0.888884  0.000039  1
  Si  Si25  1  0.285960  0.390412  0.999864  1
  Si  Si26  1  0.348685  0.643673  0.635104  1
  Si  Si27  1  0.348109  0.644982  0.364698  1
  Si  Si28  1  0.385346  0.238511  0.244551  1
  Si  Si29  1  0.384298  0.244066  0.754751  1
  Si  Si30  1  0.615573  0.755868  0.245473  1
  Si  Si31  1  0.614809  0.761621  0.755342  1
  Si  Si32  1  0.651691  0.354617  0.635043  1
  Si  Si33  1  0.651103  0.355841  0.365159  1
  Si  Si34  1  0.718158  0.610364  0.000061  1
  Si  Si35  1  0.786746  0.107335  0.999951  1
  Si  Si36  1  0.848666  0.853936  0.365287  1
  Si  Si37  1  0.848516  0.853953  0.634369  1
  Si  Si38  1  0.884806  0.262072  0.244613  1
  Si  Si39  1  0.884698  0.262038  0.755210  1
  Br  Br40  1  0.045068  0.470352  0.500140  1
  Br  Br41  1  0.458318  0.969857  0.499945  1
  N  N42  1  0.022541  0.189528  0.283959  1
  N  N43  1  0.023074  0.190204  0.716381  1
  N  N44  1  0.102118  0.109901  0.500378  1
  N  N45  1  0.169301  0.816442  0.121804  1
  N  N46  1  0.169524  0.815480  0.878839  1
  N  N47  1  0.229277  0.747744  0.647616  1
  N  N48  1  0.227899  0.748152  0.353492  1
  N  N49  1  0.271473  0.246721  0.648259  1
  N  N50  1  0.270743  0.247182  0.351741  1
  N  N51  1  0.329665  0.318904  0.122449  1
  N  N52  1  0.330275  0.316234  0.878501  1
  N  N53  1  0.397753  0.609329  0.499620  1
  N  N54  1  0.419773  0.099055  0.197964  1
  N  N55  1  0.475037  0.693814  0.283699  1
  N  N56  1  0.476451  0.691202  0.714780  1
  N  N57  1  0.523776  0.309253  0.283268  1
  N  N58  1  0.525017  0.306536  0.717941  1
  N  N59  1  0.582239  0.901212  0.802376  1
  N  N60  1  0.598865  0.388852  0.500349  1
  N  N61  1  0.664462  0.680859  0.122095  1
  N  N62  1  0.665299  0.678412  0.876909  1
  N  N63  1  0.729101  0.749854  0.647774  1
  N  N64  1  0.728187  0.750584  0.352251  1
  N  N65  1  0.770752  0.250056  0.646592  1
  N  N66  1  0.769467  0.250361  0.352348  1
  N  N67  1  0.827405  0.182545  0.123265  1
  N  N68  1  0.827998  0.181611  0.876223  1
  N  N69  1  0.845731  0.964987  0.000267  1
  N  N70  1  0.880674  0.594220  0.001103  1
  N  N71  1  0.901312  0.887764  0.499652  1
  N  N72  1  0.920272  0.401703  0.200110  1
  N  N73  1  0.919441  0.401799  0.799917  1
  N  N74  1  0.974860  0.805995  0.282733  1
  N  N75  1  0.975519  0.806461  0.716882  1
  O  O76  1  0.087701  0.605791  0.202775  1
  O  O77  1  0.087141  0.605720  0.797202  1
  O  O78  1  0.128455  0.413670  0.998581  1
  O  O79  1  0.155881  0.027691  0.999560  1
  O  O80  1  0.182309  0.007079  0.689241  1
  O  O81  1  0.179974  0.005580  0.313110  1
  O  O82  1  0.319603  0.509590  0.309600  1
  O  O83  1  0.319513  0.508053  0.689711  1
  O  O84  1  0.348388  0.527740  0.998923  1
  O  O85  1  0.372260  0.911248  0.000456  1
  O  O86  1  0.415983  0.105398  0.798596  1
  O  O87  1  0.585535  0.894604  0.200956  1
  O  O88  1  0.623440  0.095089  0.999458  1
  O  O89  1  0.650652  0.472796  0.000974  1
  O  O90  1  0.680671  0.491920  0.687032  1
  O  O91  1  0.680905  0.493354  0.313666  1
  O  O92  1  0.816167  0.990118  0.313128  1
  O  O93  1  0.818734  0.991614  0.684769  1
