# generated using pymatgen
data_Bi2Pb2S5
_symmetry_space_group_name_H-M   'P 1'
_cell_length_a   4.08702962
_cell_length_b   19.67637802
_cell_length_c   24.46415753
_cell_angle_alpha   90.00000000
_cell_angle_beta   90.00000000
_cell_angle_gamma   90.00000000
_symmetry_Int_Tables_number   1
_chemical_formula_structural   Bi2Pb2S5
_chemical_formula_sum   'Bi16 Pb16 S40'
_cell_volume   1967.35714707
_cell_formula_units_Z   8
loop_
 _symmetry_equiv_pos_site_id
 _symmetry_equiv_pos_as_xyz
  1  'x, y, z'
loop_
 _atom_site_type_symbol
 _atom_site_label
 _atom_site_symmetry_multiplicity
 _atom_site_fract_x
 _atom_site_fract_y
 _atom_site_fract_z
 _atom_site_occupancy
  Bi  Bi0  1  0.250000  0.094906  0.300997  1
  Bi  Bi1  1  0.250000  0.983026  0.153004  1
  Bi  Bi2  1  0.750000  0.483026  0.346996  1
  Bi  Bi3  1  0.750000  0.186714  0.170015  1
  Bi  Bi4  1  0.750000  0.594906  0.199003  1
  Bi  Bi5  1  0.750000  0.097238  0.008152  1
  Bi  Bi6  1  0.250000  0.902762  0.991848  1
  Bi  Bi7  1  0.250000  0.813286  0.829985  1
  Bi  Bi8  1  0.750000  0.402762  0.508152  1
  Bi  Bi9  1  0.250000  0.597238  0.491848  1
  Bi  Bi10  1  0.750000  0.313286  0.670015  1
  Bi  Bi11  1  0.250000  0.516974  0.653004  1
  Bi  Bi12  1  0.750000  0.905094  0.699003  1
  Bi  Bi13  1  0.250000  0.405094  0.800997  1
  Bi  Bi14  1  0.250000  0.686714  0.329985  1
  Bi  Bi15  1  0.750000  0.016974  0.846996  1
  Pb  Pb16  1  0.750000  0.608806  0.798898  1
  Pb  Pb17  1  0.750000  0.794932  0.130158  1
  Pb  Pb18  1  0.750000  0.705068  0.630158  1
  Pb  Pb19  1  0.250000  0.108806  0.701102  1
  Pb  Pb20  1  0.750000  0.891194  0.298898  1
  Pb  Pb21  1  0.250000  0.966181  0.564566  1
  Pb  Pb22  1  0.750000  0.717766  0.959419  1
  Pb  Pb23  1  0.250000  0.533819  0.064566  1
  Pb  Pb24  1  0.250000  0.282234  0.040581  1
  Pb  Pb25  1  0.750000  0.466181  0.935434  1
  Pb  Pb26  1  0.750000  0.782234  0.459419  1
  Pb  Pb27  1  0.250000  0.217766  0.540581  1
  Pb  Pb28  1  0.250000  0.205068  0.869842  1
  Pb  Pb29  1  0.750000  0.033819  0.435434  1
  Pb  Pb30  1  0.250000  0.391194  0.201102  1
  Pb  Pb31  1  0.250000  0.294932  0.369842  1
  S  S32  1  0.750000  0.877291  0.915493  1
  S  S33  1  0.250000  0.439494  0.425509  1
  S  S34  1  0.750000  0.910153  0.501115  1
  S  S35  1  0.750000  0.306527  0.125359  1
  S  S36  1  0.750000  0.137875  0.801280  1
  S  S37  1  0.250000  0.969288  0.778206  1
  S  S38  1  0.250000  0.637875  0.698720  1
  S  S39  1  0.750000  0.589847  0.001115  1
  S  S40  1  0.750000  0.193473  0.625359  1
  S  S41  1  0.250000  0.693473  0.874641  1
  S  S42  1  0.250000  0.845230  0.643254  1
  S  S43  1  0.250000  0.410153  0.998885  1
  S  S44  1  0.250000  0.654770  0.143254  1
  S  S45  1  0.750000  0.469288  0.721794  1
  S  S46  1  0.250000  0.222956  0.235122  1
  S  S47  1  0.750000  0.026878  0.649332  1
  S  S48  1  0.250000  0.973122  0.350668  1
  S  S49  1  0.750000  0.473122  0.149332  1
  S  S50  1  0.250000  0.122709  0.084507  1
  S  S51  1  0.750000  0.362125  0.301280  1
  S  S52  1  0.250000  0.526878  0.850668  1
  S  S53  1  0.750000  0.216157  0.963569  1
  S  S54  1  0.250000  0.530712  0.278206  1
  S  S55  1  0.750000  0.722956  0.264878  1
  S  S56  1  0.750000  0.777044  0.764878  1
  S  S57  1  0.250000  0.806527  0.374641  1
  S  S58  1  0.250000  0.716157  0.536431  1
  S  S59  1  0.250000  0.060506  0.925509  1
  S  S60  1  0.750000  0.030712  0.221794  1
  S  S61  1  0.750000  0.560506  0.574491  1
  S  S62  1  0.750000  0.939494  0.074491  1
  S  S63  1  0.750000  0.622709  0.415493  1
  S  S64  1  0.250000  0.862125  0.198720  1
  S  S65  1  0.750000  0.283843  0.463569  1
  S  S66  1  0.250000  0.089847  0.498885  1
  S  S67  1  0.250000  0.277044  0.735122  1
  S  S68  1  0.250000  0.783843  0.036431  1
  S  S69  1  0.750000  0.154770  0.356746  1
  S  S70  1  0.250000  0.377291  0.584507  1
  S  S71  1  0.750000  0.345230  0.856746  1
