# generated using pymatgen
data_Ba5(Ga3H)2
_symmetry_space_group_name_H-M   'P 1'
_cell_length_a   7.80747851
_cell_length_b   7.80747835
_cell_length_c   14.46809772
_cell_angle_alpha   89.99971371
_cell_angle_beta   90.00028628
_cell_angle_gamma   120.00008355
_symmetry_Int_Tables_number   1
_chemical_formula_structural   Ba5(Ga3H)2
_chemical_formula_sum   'Ba10 Ga12 H4'
_cell_volume   763.77121275
_cell_formula_units_Z   2
loop_
 _symmetry_equiv_pos_site_id
 _symmetry_equiv_pos_as_xyz
  1  'x, y, z'
loop_
 _atom_site_type_symbol
 _atom_site_label
 _atom_site_symmetry_multiplicity
 _atom_site_fract_x
 _atom_site_fract_y
 _atom_site_fract_z
 _atom_site_occupancy
  Ba  Ba0  1  0.024153  0.689468  0.763084  1
  Ba  Ba1  1  0.310539  0.334677  0.763087  1
  Ba  Ba2  1  0.665309  0.975845  0.763083  1
  Ba  Ba3  1  0.310532  0.975847  0.263084  1
  Ba  Ba4  1  0.665323  0.689461  0.263087  1
  Ba  Ba5  1  0.024155  0.334691  0.263083  1
  Ba  Ba6  1  0.000001  0.999997  0.530886  1
  Ba  Ba7  1  0.000003  -0.000001  0.030886  1
  Ba  Ba8  1  0.333319  0.666633  0.498386  1
  Ba  Ba9  1  0.333367  0.666681  0.998386  1
  Ga  Ga10  1  0.474767  0.125510  0.589409  1
  Ga  Ga11  1  0.874477  0.349249  0.589410  1
  Ga  Ga12  1  0.650750  0.525230  0.589409  1
  Ga  Ga13  1  0.874490  0.525233  0.089409  1
  Ga  Ga14  1  0.650751  0.125523  0.089410  1
  Ga  Ga15  1  0.474770  0.349250  0.089409  1
  Ga  Ga16  1  0.458921  0.140453  0.934005  1
  Ga  Ga17  1  0.859557  0.318472  0.934005  1
  Ga  Ga18  1  0.681536  0.541079  0.934005  1
  Ga  Ga19  1  0.859547  0.541079  0.434005  1
  Ga  Ga20  1  0.681528  0.140443  0.434005  1
  Ga  Ga21  1  0.458921  0.318464  0.434005  1
  H  H22  1  0.333315  0.666627  0.816367  1
  H  H23  1  0.333373  0.666685  0.316367  1
  H  H24  1  0.999998  0.000000  0.718704  1
  H  H25  1  -0.000000  0.000002  0.218704  1
