# generated using pymatgen
data_Tb2YbS4
_symmetry_space_group_name_H-M   'P 1'
_cell_length_a   7.23858546
_cell_length_b   7.23858567
_cell_length_c   7.23858581
_cell_angle_alpha   109.42118234
_cell_angle_beta   109.57133714
_cell_angle_gamma   109.42118594
_symmetry_Int_Tables_number   1
_chemical_formula_structural   Tb2YbS4
_chemical_formula_sum   'Tb4 Yb2 S8'
_cell_volume   291.97003493
_cell_formula_units_Z   2
loop_
 _symmetry_equiv_pos_site_id
 _symmetry_equiv_pos_as_xyz
  1  'x, y, z'
loop_
 _atom_site_type_symbol
 _atom_site_label
 _atom_site_symmetry_multiplicity
 _atom_site_fract_x
 _atom_site_fract_y
 _atom_site_fract_z
 _atom_site_occupancy
  Tb  Tb0  1  0.250000  0.627761  0.377761  1
  Tb  Tb1  1  0.622239  0.372239  0.250000  1
  Tb  Tb2  1  0.750000  0.872239  0.122239  1
  Tb  Tb3  1  0.877761  0.127761  0.750000  1
  Yb  Yb4  1  0.125000  0.750000  0.875000  1
  Yb  Yb5  1  0.375000  0.250000  0.625000  1
  S  S6  1  0.996275  0.854242  0.495576  1
  S  S7  1  0.995576  0.354242  0.496275  1
  S  S8  1  0.503725  0.999301  0.857967  1
  S  S9  1  0.142033  0.145758  0.141334  1
  S  S10  1  0.357967  0.499301  0.003725  1
  S  S11  1  0.641334  0.645758  0.642033  1
  S  S12  1  0.504424  0.000699  0.358666  1
  S  S13  1  0.858666  0.500699  0.004424  1
