# generated using pymatgen
data_LiSc(SiO3)2
_symmetry_space_group_name_H-M   'P 1'
_cell_length_a   5.41946419
_cell_length_b   6.73508899
_cell_length_c   6.73508898
_cell_angle_alpha   84.67987543
_cell_angle_beta   74.87057923
_cell_angle_gamma   74.87057926
_symmetry_Int_Tables_number   1
_chemical_formula_structural   LiSc(SiO3)2
_chemical_formula_sum   'Li2 Sc2 Si4 O12'
_cell_volume   229.00825049
_cell_formula_units_Z   2
loop_
 _symmetry_equiv_pos_site_id
 _symmetry_equiv_pos_as_xyz
  1  'x, y, z'
loop_
 _atom_site_type_symbol
 _atom_site_label
 _atom_site_symmetry_multiplicity
 _atom_site_fract_x
 _atom_site_fract_y
 _atom_site_fract_z
 _atom_site_occupancy
  Li  Li0  1  0.750000  0.248276  0.751724  1
  Li  Li1  1  0.250000  0.751724  0.248276  1
  O  O2  1  0.940059  0.356854  0.349046  1
  O  O3  1  0.440059  0.349046  0.356854  1
  O  O4  1  0.059941  0.643146  0.650954  1
  O  O5  1  0.559941  0.650954  0.643146  1
  O  O6  1  0.157865  0.794776  0.963978  1
  O  O7  1  0.155609  0.124558  0.619890  1
  O  O8  1  0.842135  0.205224  0.036022  1
  O  O9  1  0.657865  0.963978  0.794776  1
  O  O10  1  0.342135  0.036022  0.205224  1
  O  O11  1  0.844391  0.875443  0.380110  1
  O  O12  1  0.655609  0.619890  0.124558  1
  O  O13  1  0.344391  0.380110  0.875443  1
  Si  Si14  1  0.778429  0.788385  0.615327  1
  Si  Si15  1  0.221571  0.211615  0.384673  1
  Si  Si16  1  0.278429  0.615327  0.788385  1
  Si  Si17  1  0.721571  0.384673  0.211615  1
  Sc  Sc18  1  0.750000  0.892268  0.107732  1
  Sc  Sc19  1  0.250000  0.107732  0.892268  1
