# generated using pymatgen
data_Be3Al2(SiO3)6
_symmetry_space_group_name_H-M   'P 1'
_cell_length_a   9.30347139
_cell_length_b   9.30347139
_cell_length_c   9.27757703
_cell_angle_alpha   90.00000000
_cell_angle_beta   90.00000000
_cell_angle_gamma   120.00000002
_symmetry_Int_Tables_number   1
_chemical_formula_structural   Be3Al2(SiO3)6
_chemical_formula_sum   'Be6 Al4 Si12 O36'
_cell_volume   695.43293344
_cell_formula_units_Z   2
loop_
 _symmetry_equiv_pos_site_id
 _symmetry_equiv_pos_as_xyz
  1  'x, y, z'
loop_
 _atom_site_type_symbol
 _atom_site_label
 _atom_site_symmetry_multiplicity
 _atom_site_fract_x
 _atom_site_fract_y
 _atom_site_fract_z
 _atom_site_occupancy
  Be  Be0  1  0.500000  0.000000  0.250000  1
  Be  Be1  1  0.000000  0.500000  0.750000  1
  Be  Be2  1  0.500000  0.500000  0.750000  1
  Be  Be3  1  0.500000  0.000000  0.750000  1
  Be  Be4  1  0.000000  0.500000  0.250000  1
  Be  Be5  1  0.500000  0.500000  0.250000  1
  O  O6  1  0.309477  0.073877  0.500000  1
  O  O7  1  0.235599  0.309477  0.500000  1
  O  O8  1  0.764401  0.690523  0.500000  1
  O  O9  1  0.926123  0.235599  0.500000  1
  O  O10  1  0.690523  0.764401  0.000000  1
  O  O11  1  0.690523  0.926123  0.500000  1
  O  O12  1  0.073877  0.764401  0.500000  1
  O  O13  1  0.926123  0.690523  0.000000  1
  O  O14  1  0.764401  0.073877  0.000000  1
  O  O15  1  0.235599  0.926123  0.000000  1
  O  O16  1  0.073877  0.309477  0.000000  1
  O  O17  1  0.309477  0.235599  0.000000  1
  O  O18  1  0.501578  0.646328  0.645808  1
  O  O19  1  0.353672  0.855250  0.645808  1
  O  O20  1  0.144750  0.498422  0.645808  1
  O  O21  1  0.855250  0.501578  0.645808  1
  O  O22  1  0.498422  0.144750  0.145808  1
  O  O23  1  0.353672  0.498422  0.145808  1
  O  O24  1  0.144750  0.646328  0.145808  1
  O  O25  1  0.855250  0.353672  0.145808  1
  O  O26  1  0.646328  0.501578  0.145808  1
  O  O27  1  0.353672  0.855250  0.354192  1
  O  O28  1  0.501578  0.646328  0.354192  1
  O  O29  1  0.501578  0.855250  0.145808  1
  O  O30  1  0.144750  0.498422  0.354192  1
  O  O31  1  0.855250  0.501578  0.354192  1
  O  O32  1  0.646328  0.144750  0.354192  1
  O  O33  1  0.498422  0.353672  0.354192  1
  O  O34  1  0.501578  0.855250  0.854192  1
  O  O35  1  0.646328  0.501578  0.854192  1
  O  O36  1  0.855250  0.353672  0.854192  1
  O  O37  1  0.144750  0.646328  0.854192  1
  O  O38  1  0.353672  0.498422  0.854192  1
  O  O39  1  0.646328  0.144750  0.645808  1
  O  O40  1  0.498422  0.353672  0.645808  1
  O  O41  1  0.498422  0.144750  0.854192  1
  Al  Al42  1  0.666667  0.333333  0.250000  1
  Al  Al43  1  0.333333  0.666667  0.250000  1
  Al  Al44  1  0.333333  0.666667  0.750000  1
  Al  Al45  1  0.666667  0.333333  0.750000  1
  Si  Si46  1  0.612688  0.884902  0.000000  1
  Si  Si47  1  0.612688  0.727786  0.500000  1
  Si  Si48  1  0.272214  0.884902  0.500000  1
  Si  Si49  1  0.727786  0.612688  0.000000  1
  Si  Si50  1  0.884902  0.272214  0.000000  1
  Si  Si51  1  0.115098  0.727786  0.000000  1
  Si  Si52  1  0.272214  0.387312  0.000000  1
  Si  Si53  1  0.387312  0.115098  0.000000  1
  Si  Si54  1  0.115098  0.387312  0.500000  1
  Si  Si55  1  0.884902  0.612688  0.500000  1
  Si  Si56  1  0.727786  0.115098  0.500000  1
  Si  Si57  1  0.387312  0.272214  0.500000  1
