# generated using pymatgen
data_V2Cu(PO5)2
_symmetry_space_group_name_H-M   'P 1'
_cell_length_a   7.45731273
_cell_length_b   12.77864096
_cell_length_c   14.73296913
_cell_angle_alpha   90.00000000
_cell_angle_beta   90.00000000
_cell_angle_gamma   90.00000000
_symmetry_Int_Tables_number   1
_chemical_formula_structural   V2Cu(PO5)2
_chemical_formula_sum   'V16 Cu8 P16 O80'
_cell_volume   1403.96830286
_cell_formula_units_Z   8
loop_
 _symmetry_equiv_pos_site_id
 _symmetry_equiv_pos_as_xyz
  1  'x, y, z'
loop_
 _atom_site_type_symbol
 _atom_site_label
 _atom_site_symmetry_multiplicity
 _atom_site_fract_x
 _atom_site_fract_y
 _atom_site_fract_z
 _atom_site_occupancy
  V  V0  1  0.714646  0.253682  0.487835  1
  V  V1  1  0.527685  0.981461  0.736226  1
  V  V2  1  0.285354  0.753682  0.012165  1
  V  V3  1  0.972315  0.018539  0.236226  1
  V  V4  1  0.027685  0.518539  0.263774  1
  V  V5  1  0.972315  0.481461  0.736226  1
  V  V6  1  0.785354  0.753682  0.487835  1
  V  V7  1  0.472315  0.018539  0.263774  1
  V  V8  1  0.527685  0.518539  0.236226  1
  V  V9  1  0.714646  0.246318  0.987835  1
  V  V10  1  0.472315  0.481461  0.763774  1
  V  V11  1  0.027685  0.981461  0.763774  1
  V  V12  1  0.785354  0.746318  0.987835  1
  V  V13  1  0.214646  0.253682  0.012165  1
  V  V14  1  0.214646  0.246318  0.512165  1
  V  V15  1  0.285354  0.746318  0.512165  1
  Cu  Cu16  1  0.874806  0.118979  0.627247  1
  Cu  Cu17  1  0.625194  0.881021  0.127247  1
  Cu  Cu18  1  0.874806  0.381021  0.127247  1
  Cu  Cu19  1  0.374806  0.118979  0.872753  1
  Cu  Cu20  1  0.374806  0.381021  0.372753  1
  Cu  Cu21  1  0.125194  0.881021  0.372753  1
  Cu  Cu22  1  0.125194  0.618979  0.872753  1
  Cu  Cu23  1  0.625194  0.618979  0.627247  1
  P  P24  1  0.736252  0.501997  0.436114  1
  P  P25  1  0.263748  0.001997  0.063886  1
  P  P26  1  -0.000074  0.739064  0.686897  1
  P  P27  1  0.499926  0.739064  0.813103  1
  P  P28  1  0.500074  0.239064  0.686897  1
  P  P29  1  0.499926  0.760936  0.313103  1
  P  P30  1  0.236252  0.501997  0.063886  1
  P  P31  1  0.263748  0.498003  0.563886  1
  P  P32  1  0.000074  0.260936  0.313103  1
  P  P33  1  0.736252  0.998003  0.936114  1
  P  P34  1  0.236252  0.998003  0.563886  1
  P  P35  1  0.000074  0.239064  0.813103  1
  P  P36  1  0.763748  0.498003  0.936114  1
  P  P37  1  -0.000074  0.760936  0.186897  1
  P  P38  1  0.763748  0.001997  0.436114  1
  P  P39  1  0.500074  0.260936  0.186897  1
  O  O40  1  0.253947  0.489302  0.793609  1
  O  O41  1  0.430848  0.499963  0.628374  1
  O  O42  1  0.267704  0.905085  0.002787  1
  O  O43  1  0.330617  0.769123  0.374700  1
  O  O44  1  0.504091  0.753870  0.542666  1
  O  O45  1  0.930848  0.499963  0.871626  1
  O  O46  1  0.004091  0.753870  0.957334  1
  O  O47  1  0.495909  0.246130  0.457334  1
  O  O48  1  0.330617  0.730877  0.874700  1
  O  O49  1  0.276123  0.098356  0.999290  1
  O  O50  1  0.488255  0.832964  0.748359  1
  O  O51  1  0.504091  0.746130  0.042666  1
  O  O52  1  0.488255  0.667036  0.248359  1
  O  O53  1  0.169823  0.745170  0.628451  1
  O  O54  1  0.988255  0.667036  0.251641  1
  O  O55  1  0.509150  0.860014  0.251106  1
  O  O56  1  0.746053  0.510698  0.206391  1
  O  O57  1  0.988255  0.832964  0.751641  1
  O  O58  1  0.767704  0.594915  0.997213  1
  O  O59  1  0.330177  0.254830  0.128451  1
  O  O60  1  0.232296  0.405085  0.002787  1
  O  O61  1  0.232296  0.094915  0.502787  1
  O  O62  1  0.223877  0.901644  0.499290  1
  O  O63  1  0.590948  0.487668  0.880266  1
  O  O64  1  0.509150  0.639986  0.751106  1
  O  O65  1  0.746053  0.989302  0.706391  1
  O  O66  1  0.569152  0.999963  0.871626  1
  O  O67  1  0.009150  0.860014  0.248894  1
  O  O68  1  0.669823  0.754830  0.371549  1
  O  O69  1  0.569152  0.500037  0.371626  1
  O  O70  1  0.590948  0.012332  0.380266  1
  O  O71  1  0.490850  0.139986  0.748894  1
  O  O72  1  0.169383  0.269123  0.374700  1
  O  O73  1  0.004091  0.746130  0.457334  1
  O  O74  1  0.990850  0.139986  0.751106  1
  O  O75  1  0.767704  0.905085  0.497213  1
  O  O76  1  0.909052  0.987668  0.880266  1
  O  O77  1  0.776123  0.401644  0.000710  1
  O  O78  1  0.732296  0.405085  0.497213  1
  O  O79  1  0.330177  0.245170  0.628451  1
  O  O80  1  0.069152  0.999963  0.628374  1
  O  O81  1  0.732296  0.094915  0.997213  1
  O  O82  1  0.246053  0.510698  0.293609  1
  O  O83  1  0.169383  0.230877  0.874700  1
  O  O84  1  0.069152  0.500037  0.128374  1
  O  O85  1  0.830177  0.254830  0.371549  1
  O  O86  1  0.995909  0.246130  0.042666  1
  O  O87  1  0.430848  0.000037  0.128374  1
  O  O88  1  0.830617  0.769123  0.125300  1
  O  O89  1  0.009150  0.639986  0.748894  1
  O  O90  1  0.409052  0.987668  0.619734  1
  O  O91  1  0.753947  0.489302  0.706391  1
  O  O92  1  0.246053  0.989302  0.793609  1
  O  O93  1  0.267704  0.594915  0.502787  1
  O  O94  1  0.669383  0.269123  0.125300  1
  O  O95  1  0.011745  0.167036  0.248359  1
  O  O96  1  0.511745  0.167036  0.251641  1
  O  O97  1  0.990850  0.360014  0.251106  1
  O  O98  1  0.830617  0.730877  0.625300  1
  O  O99  1  0.995909  0.253870  0.542666  1
  O  O100  1  0.669823  0.745170  0.871549  1
  O  O101  1  0.753947  0.010698  0.206391  1
  O  O102  1  0.409052  0.512332  0.119734  1
  O  O103  1  0.495909  0.253870  0.957334  1
  O  O104  1  0.511745  0.332964  0.751641  1
  O  O105  1  0.669383  0.230877  0.625300  1
  O  O106  1  0.090948  0.487668  0.619734  1
  O  O107  1  0.011745  0.332964  0.748359  1
  O  O108  1  0.223877  0.598356  0.999290  1
  O  O109  1  0.930848  0.000037  0.371626  1
  O  O110  1  0.723877  0.598356  0.500710  1
  O  O111  1  0.830177  0.245170  0.871549  1
  O  O112  1  0.723877  0.901644  0.000710  1
  O  O113  1  0.909052  0.512332  0.380266  1
  O  O114  1  0.276123  0.401644  0.499290  1
  O  O115  1  0.090948  0.012332  0.119734  1
  O  O116  1  0.169823  0.754830  0.128451  1
  O  O117  1  0.490850  0.360014  0.248894  1
  O  O118  1  0.776123  0.098356  0.500710  1
  O  O119  1  0.253947  0.010698  0.293609  1
