# generated using pymatgen
data_Ba5Bi5O13
_symmetry_space_group_name_H-M   'P 1'
_cell_length_a   6.21006435
_cell_length_b   30.65291918
_cell_length_c   6.37097371
_cell_angle_alpha   60.10468842
_cell_angle_beta   119.16527969
_cell_angle_gamma   90.00244877
_symmetry_Int_Tables_number   1
_chemical_formula_structural   Ba5Bi5O13
_chemical_formula_sum   'Ba10 Bi10 O26'
_cell_volume   869.56474871
_cell_formula_units_Z   2
loop_
 _symmetry_equiv_pos_site_id
 _symmetry_equiv_pos_as_xyz
  1  'x, y, z'
loop_
 _atom_site_type_symbol
 _atom_site_label
 _atom_site_symmetry_multiplicity
 _atom_site_fract_x
 _atom_site_fract_y
 _atom_site_fract_z
 _atom_site_occupancy
  Ba  Ba0  1  0.344215  0.047093  0.546925  1
  Ba  Ba1  1  0.259469  0.248082  0.521227  1
  Ba  Ba2  1  0.177300  0.446884  0.510229  1
  Ba  Ba3  1  0.275183  0.648548  0.482176  1
  Ba  Ba4  1  0.339114  0.854287  0.462848  1
  Ba  Ba5  1  0.792904  0.151536  0.516929  1
  Ba  Ba6  1  0.667024  0.353318  0.489886  1
  Ba  Ba7  1  0.737574  0.551824  0.479202  1
  Ba  Ba8  1  0.796931  0.752897  0.453118  1
  Ba  Ba9  1  0.877217  0.945726  0.538522  1
  Bi  Bi10  1  0.089259  0.003314  0.015391  1
  Bi  Bi11  1  0.996742  0.199630  0.003247  1
  Bi  Bi12  1  0.920605  0.400040  0.999749  1
  Bi  Bi13  1  0.993332  0.600429  0.996486  1
  Bi  Bi14  1  0.074080  0.796668  0.984830  1
  Bi  Bi15  1  0.535260  0.095926  0.022519  1
  Bi  Bi16  1  0.442020  0.297369  0.994763  1
  Bi  Bi17  1  0.447153  0.502738  0.004618  1
  Bi  Bi18  1  0.512967  0.704043  0.977572  1
  Bi  Bi19  1  0.599437  0.899991  0.000042  1
  O  O20  1  0.222119  0.147831  0.494108  1
  O  O21  1  0.147864  0.338824  0.490096  1
  O  O22  1  0.231971  0.548646  0.515470  1
  O  O23  1  0.293983  0.749450  0.494128  1
  O  O24  1  0.361766  0.962827  0.502645  1
  O  O25  1  0.208753  0.140118  0.001347  1
  O  O26  1  0.158529  0.347925  0.987438  1
  O  O27  1  0.170455  0.452266  0.009844  1
  O  O28  1  0.206578  0.660087  0.997184  1
  O  O29  1  0.361138  0.950780  0.023783  1
  O  O30  1  0.337629  0.849184  0.973538  1
  O  O31  1  0.797746  0.050530  0.506137  1
  O  O32  1  0.713715  0.251304  0.484277  1
  O  O33  1  0.655972  0.461203  0.509118  1
  O  O34  1  0.726743  0.652146  0.505547  1
  O  O35  1  0.857688  0.837136  0.497393  1
  O  O36  1  0.767606  0.045738  0.993970  1
  O  O37  1  0.708673  0.158160  0.958105  1
  O  O38  1  0.702435  0.247576  0.991608  1
  O  O39  1  0.604252  0.359506  0.891168  1
  O  O40  1  0.713866  0.440521  0.109432  1
  O  O41  1  0.711527  0.552303  0.009729  1
  O  O42  1  0.751834  0.641653  0.044077  1
  O  O43  1  0.774836  0.754035  0.007908  1
  O  O44  1  0.841401  0.856938  0.928200  1
  O  O45  1  0.913136  0.942973  0.073471  1
