# generated using pymatgen
data_CdSnAs2
_symmetry_space_group_name_H-M   'P 1'
_cell_length_a   4.67929416
_cell_length_b   4.67931044
_cell_length_c   51.50437260
_cell_angle_alpha   56.10656362
_cell_angle_beta   56.10629296
_cell_angle_gamma   56.30643889
_symmetry_Int_Tables_number   1
_chemical_formula_structural   CdSnAs2
_chemical_formula_sum   'Cd6 Sn6 As12'
_cell_volume   726.77831738
_cell_formula_units_Z   6
loop_
 _symmetry_equiv_pos_site_id
 _symmetry_equiv_pos_as_xyz
  1  'x, y, z'
loop_
 _atom_site_type_symbol
 _atom_site_label
 _atom_site_symmetry_multiplicity
 _atom_site_fract_x
 _atom_site_fract_y
 _atom_site_fract_z
 _atom_site_occupancy
  Cd  Cd0  1  -0.012713  -0.012700  0.588000  1
  Cd  Cd1  1  0.957572  0.957596  0.512309  1
  Cd  Cd2  1  0.992463  0.992469  0.753425  1
  Cd  Cd3  1  0.988496  0.988508  0.670990  1
  Cd  Cd4  1  0.996846  0.996854  0.835346  1
  Cd  Cd5  1  0.003678  0.003655  0.916606  1
  Sn  Sn6  1  0.019106  0.019151  0.995580  1
  Sn  Sn7  1  0.987809  0.987813  0.087831  1
  Sn  Sn8  1  0.992763  0.992723  0.169654  1
  Sn  Sn9  1  0.992294  0.992325  0.252897  1
  Sn  Sn10  1  0.997062  0.997066  0.335256  1
  Sn  Sn11  1  0.999181  0.999193  0.417914  1
  As  As12  1  0.252400  0.252401  0.019601  1
  As  As13  1  0.255071  0.255058  0.101517  1
  As  As14  1  0.256453  0.256400  0.184468  1
  As  As15  1  0.259441  0.259464  0.266917  1
  As  As16  1  0.264522  0.264510  0.349104  1
  As  As17  1  0.236098  0.236092  0.440623  1
  As  As18  1  0.250922  0.250925  0.519262  1
  As  As19  1  0.250824  0.250820  0.602796  1
  As  As20  1  0.255616  0.255612  0.684851  1
  As  As21  1  0.263478  0.263478  0.766336  1
  As  As22  1  0.266669  0.266664  0.848580  1
  As  As23  1  0.273949  0.273920  0.930140  1
