# generated using pymatgen
data_Ce2Si2O7
_symmetry_space_group_name_H-M   'P 1'
_cell_length_a   5.46591407
_cell_length_b   8.82494103
_cell_length_c   13.29219703
_cell_angle_alpha   90.00000000
_cell_angle_beta   90.12571088
_cell_angle_gamma   90.00000000
_symmetry_Int_Tables_number   1
_chemical_formula_structural   Ce2Si2O7
_chemical_formula_sum   'Ce8 Si8 O28'
_cell_volume   641.16578259
_cell_formula_units_Z   4
loop_
 _symmetry_equiv_pos_site_id
 _symmetry_equiv_pos_as_xyz
  1  'x, y, z'
loop_
 _atom_site_type_symbol
 _atom_site_label
 _atom_site_symmetry_multiplicity
 _atom_site_fract_x
 _atom_site_fract_y
 _atom_site_fract_z
 _atom_site_occupancy
  Ce  Ce0  1  0.741880  0.892665  0.089149  1
  Ce  Ce1  1  0.244141  0.693447  0.267353  1
  Ce  Ce2  1  0.241880  0.607335  0.589149  1
  Ce  Ce3  1  0.755859  0.306553  0.732647  1
  Ce  Ce4  1  0.258120  0.107335  0.910851  1
  Ce  Ce5  1  0.758120  0.392665  0.410851  1
  Ce  Ce6  1  0.255859  0.193447  0.232647  1
  Ce  Ce7  1  0.744141  0.806553  0.767353  1
  Si  Si8  1  0.767677  0.493428  0.179663  1
  Si  Si9  1  0.233408  0.255174  0.526900  1
  Si  Si10  1  0.267677  0.006572  0.679663  1
  Si  Si11  1  0.266592  0.755174  0.973100  1
  Si  Si12  1  0.732323  0.993428  0.320337  1
  Si  Si13  1  0.232323  0.506572  0.820337  1
  Si  Si14  1  0.766592  0.744826  0.473100  1
  Si  Si15  1  0.733408  0.244826  0.026900  1
  O  O16  1  0.236026  0.078031  0.565529  1
  O  O17  1  0.000621  0.582120  0.758444  1
  O  O18  1  0.006212  0.354642  0.579327  1
  O  O19  1  0.993788  0.645358  0.420673  1
  O  O20  1  0.321802  0.766903  0.094001  1
  O  O21  1  0.499379  0.082120  0.741556  1
  O  O22  1  0.506212  0.145358  0.079327  1
  O  O23  1  0.983555  0.965784  0.253450  1
  O  O24  1  0.263974  0.578031  0.934471  1
  O  O25  1  -0.000621  0.417880  0.241556  1
  O  O26  1  0.678198  0.233097  0.905999  1
  O  O27  1  0.838832  0.673490  0.173066  1
  O  O28  1  0.512580  0.653915  0.441055  1
  O  O29  1  0.493788  0.854642  0.920673  1
  O  O30  1  0.516445  0.465784  0.246550  1
  O  O31  1  0.483555  0.534216  0.753450  1
  O  O32  1  0.987420  0.153915  0.058945  1
  O  O33  1  0.487420  0.346085  0.558945  1
  O  O34  1  0.763974  0.921969  0.434471  1
  O  O35  1  0.821802  0.733097  0.594001  1
  O  O36  1  0.161168  0.326510  0.826934  1
  O  O37  1  0.661168  0.173490  0.326934  1
  O  O38  1  0.736026  0.421969  0.065529  1
  O  O39  1  0.178198  0.266903  0.406000  1
  O  O40  1  0.338832  0.826510  0.673066  1
  O  O41  1  0.500621  0.917880  0.258444  1
  O  O42  1  0.012580  0.846085  0.941055  1
  O  O43  1  0.016445  0.034216  0.746550  1
