# generated using pymatgen
data_Tb2PbS4
_symmetry_space_group_name_H-M   'P 1'
_cell_length_a   7.39358410
_cell_length_b   7.39358466
_cell_length_c   7.39358485
_cell_angle_alpha   109.33797811
_cell_angle_beta   109.33797976
_cell_angle_gamma   109.73803971
_symmetry_Int_Tables_number   1
_chemical_formula_structural   Tb2PbS4
_chemical_formula_sum   'Tb4 Pb2 S8'
_cell_volume   311.12588083
_cell_formula_units_Z   2
loop_
 _symmetry_equiv_pos_site_id
 _symmetry_equiv_pos_as_xyz
  1  'x, y, z'
loop_
 _atom_site_type_symbol
 _atom_site_label
 _atom_site_symmetry_multiplicity
 _atom_site_fract_x
 _atom_site_fract_y
 _atom_site_fract_z
 _atom_site_occupancy
  Tb  Tb0  1  0.120643  0.750000  0.870643  1
  Tb  Tb1  1  0.250000  0.620643  0.370643  1
  Tb  Tb2  1  0.379357  0.250000  0.629357  1
  Tb  Tb3  1  0.750000  0.879357  0.129357  1
  Pb  Pb4  1  0.625000  0.375000  0.250000  1
  Pb  Pb5  1  0.875000  0.125000  0.750000  1
  S  S6  1  0.013041  0.861571  0.495106  1
  S  S7  1  0.138429  0.133535  0.151470  1
  S  S8  1  0.361571  0.513041  0.995106  1
  S  S9  1  0.633535  0.638429  0.651470  1
  S  S10  1  0.486959  0.982065  0.848530  1
  S  S11  1  0.482065  0.986959  0.348530  1
  S  S12  1  0.866465  0.517935  0.004894  1
  S  S13  1  0.017935  0.366465  0.504894  1
