# generated using pymatgen
data_FeH12C4NCl4
_symmetry_space_group_name_H-M   'P 1'
_cell_length_a   6.69862141
_cell_length_b   6.59656043
_cell_length_c   14.66948181
_cell_angle_alpha   89.99837965
_cell_angle_beta   89.99045487
_cell_angle_gamma   89.92532708
_symmetry_Int_Tables_number   1
_chemical_formula_structural   FeH12C4NCl4
_chemical_formula_sum   'Fe2 H24 C8 N2 Cl8'
_cell_volume   648.21246309
_cell_formula_units_Z   2
loop_
 _symmetry_equiv_pos_site_id
 _symmetry_equiv_pos_as_xyz
  1  'x, y, z'
loop_
 _atom_site_type_symbol
 _atom_site_label
 _atom_site_symmetry_multiplicity
 _atom_site_fract_x
 _atom_site_fract_y
 _atom_site_fract_z
 _atom_site_occupancy
  Fe  Fe0  1  0.051045  0.078467  0.249970  1
  Fe  Fe1  1  0.051892  0.921926  0.750015  1
  H  H2  1  0.370240  0.194439  0.475260  1
  H  H3  1  0.609978  0.423666  0.626561  1
  H  H4  1  0.373395  0.737278  0.407193  1
  H  H5  1  0.369807  0.805650  0.524722  1
  H  H6  1  0.528709  0.681147  0.881512  1
  H  H7  1  0.373538  0.262759  0.592800  1
  H  H8  1  0.744276  0.399901  0.057173  1
  H  H9  1  0.178737  0.352152  0.520436  1
  H  H10  1  0.178742  0.352152  0.979578  1
  H  H11  1  0.370217  0.194419  0.024744  1
  H  H12  1  0.528940  0.318832  0.118548  1
  H  H13  1  0.744053  0.599731  0.942868  1
  H  H14  1  0.744051  0.599724  0.557106  1
  H  H15  1  0.609819  0.576201  0.373461  1
  H  H16  1  0.178549  0.648308  0.479530  1
  H  H17  1  0.744277  0.399895  0.442804  1
  H  H18  1  0.373577  0.262785  0.907206  1
  H  H19  1  0.528968  0.318854  0.381461  1
  H  H20  1  0.178546  0.648309  0.020484  1
  H  H21  1  0.528686  0.681136  0.618483  1
  H  H22  1  0.369830  0.805653  0.975266  1
  H  H23  1  0.610012  0.423676  0.873433  1
  H  H24  1  0.373356  0.737272  0.092800  1
  H  H25  1  0.609781  0.576179  0.126519  1
  C  C26  1  0.596704  0.445007  0.081498  1
  C  C27  1  0.336514  0.684864  0.475904  1
  C  C28  1  0.336703  0.315288  0.975919  1
  C  C29  1  0.596596  0.554892  0.581484  1
  C  C30  1  0.596726  0.445009  0.418496  1
  C  C31  1  0.596614  0.554888  0.918508  1
  C  C32  1  0.336699  0.315282  0.524086  1
  C  C33  1  0.336504  0.684863  0.024100  1
  N  N34  1  0.465156  0.499964  0.500000  1
  N  N35  1  0.465154  0.499959  0.000000  1
  Cl  Cl36  1  0.377174  0.995198  0.750154  1
  Cl  Cl37  1  0.912858  0.041799  0.624086  1
  Cl  Cl38  1  0.913126  0.957844  0.375400  1
  Cl  Cl39  1  0.913132  0.957848  0.124604  1
  Cl  Cl40  1  0.376490  0.005493  0.249996  1
  Cl  Cl41  1  0.913335  0.042097  0.875927  1
  Cl  Cl42  1  0.016907  0.586894  0.749908  1
  Cl  Cl43  1  0.018207  0.412303  0.249995  1
