# generated using pymatgen
data_Al24Tl10Cd7(SiO4)24
_symmetry_space_group_name_H-M   'P 1'
_cell_length_a   17.82653219
_cell_length_b   17.79522074
_cell_length_c   17.78995410
_cell_angle_alpha   60.02699041
_cell_angle_beta   60.05046492
_cell_angle_gamma   60.39030884
_symmetry_Int_Tables_number   1
_chemical_formula_structural   Al24Tl10Cd7(SiO4)24
_chemical_formula_sum   'Al24 Tl10 Cd7 Si24 O96'
_cell_volume   4004.51784137
_cell_formula_units_Z   1
loop_
 _symmetry_equiv_pos_site_id
 _symmetry_equiv_pos_as_xyz
  1  'x, y, z'
loop_
 _atom_site_type_symbol
 _atom_site_label
 _atom_site_symmetry_multiplicity
 _atom_site_fract_x
 _atom_site_fract_y
 _atom_site_fract_z
 _atom_site_occupancy
  Al  Al0  1  0.027893  0.397980  0.210751  1
  Al  Al1  1  0.210281  0.032860  0.395263  1
  Al  Al2  1  0.397574  0.213202  0.029077  1
  Al  Al3  1  0.032245  0.209878  0.862748  1
  Al  Al4  1  0.209906  0.862916  0.030237  1
  Al  Al5  1  0.029549  0.863746  0.397049  1
  Al  Al6  1  0.138261  0.787044  0.604987  1
  Al  Al7  1  0.213173  0.398084  0.860282  1
  Al  Al8  1  0.397789  0.029081  0.862008  1
  Al  Al9  1  0.138449  0.604927  0.970994  1
  Al  Al10  1  0.397569  0.861372  0.210027  1
  Al  Al11  1  0.862759  0.034640  0.209208  1
  Al  Al12  1  0.138982  0.970679  0.785206  1
  Al  Al13  1  0.605291  0.139585  0.784144  1
  Al  Al14  1  0.861845  0.394152  0.034840  1
  Al  Al15  1  0.606491  0.968820  0.140188  1
  Al  Al16  1  0.785138  0.605045  0.139827  1
  Al  Al17  1  0.863096  0.209094  0.393141  1
  Al  Al18  1  0.970835  0.138949  0.604752  1
  Al  Al19  1  0.786835  0.139464  0.969015  1
  Al  Al20  1  0.969801  0.786102  0.139186  1
  Al  Al21  1  0.605802  0.783806  0.970697  1
  Al  Al22  1  0.785635  0.968916  0.604977  1
  Al  Al23  1  0.968938  0.605711  0.786252  1
  Tl  Tl24  1  0.734139  0.255318  0.255236  1
  Tl  Tl25  1  0.250909  0.745504  0.751485  1
  Tl  Tl26  1  0.408001  0.842686  0.408483  1
  Tl  Tl27  1  0.747273  0.251066  0.750998  1
  Tl  Tl28  1  0.837064  0.407990  0.406857  1
  Tl  Tl29  1  0.751108  0.748761  0.249538  1
  Tl  Tl30  1  0.407994  0.842168  0.840807  1
  Tl  Tl31  1  0.837635  0.406876  0.848027  1
  Tl  Tl32  1  0.835808  0.848334  0.408491  1
  Tl  Tl33  1  0.751031  0.748554  0.750877  1
  Cd  Cd34  1  0.994929  0.998415  0.997120  1
  Cd  Cd35  1  0.996848  0.508096  0.997565  1
  Cd  Cd36  1  0.994577  0.998480  0.509585  1
  Cd  Cd37  1  0.222358  0.223928  0.213864  1
  Cd  Cd38  1  0.511696  0.998173  0.995096  1
  Cd  Cd39  1  0.219054  0.839371  0.220773  1
  Cd  Cd40  1  0.221756  0.224496  0.839874  1
  Si  Si41  1  0.034275  0.210073  0.393866  1
  Si  Si42  1  0.209708  0.396870  0.034182  1
  Si  Si43  1  0.396214  0.032999  0.209391  1
  Si  Si44  1  0.032345  0.862496  0.210069  1
  Si  Si45  1  0.210134  0.034480  0.861008  1
  Si  Si46  1  0.032586  0.396186  0.861997  1
  Si  Si47  1  0.141977  0.604846  0.789303  1
  Si  Si48  1  0.209988  0.862117  0.395141  1
  Si  Si49  1  0.395900  0.860406  0.033520  1
  Si  Si50  1  0.144195  0.963376  0.603354  1
  Si  Si51  1  0.396402  0.209849  0.859393  1
  Si  Si52  1  0.860950  0.209528  0.035107  1
  Si  Si53  1  0.143850  0.790438  0.961945  1
  Si  Si54  1  0.604007  0.788775  0.144595  1
  Si  Si55  1  0.860540  0.034887  0.394915  1
  Si  Si56  1  0.604742  0.142487  0.963712  1
  Si  Si57  1  0.790506  0.144775  0.602298  1
  Si  Si58  1  0.859171  0.395544  0.209636  1
  Si  Si59  1  0.961518  0.604570  0.144320  1
  Si  Si60  1  0.789846  0.962168  0.145654  1
  Si  Si61  1  0.963846  0.143949  0.788836  1
  Si  Si62  1  0.604553  0.960917  0.789596  1
  Si  Si63  1  0.789200  0.602432  0.963224  1
  Si  Si64  1  0.962228  0.789472  0.603869  1
  O  O65  1  0.018999  0.312887  0.319448  1
  O  O66  1  0.026472  0.592889  0.040630  1
  O  O67  1  0.041388  0.028410  0.590356  1
  O  O68  1  0.005378  0.216037  0.492805  1
  O  O69  1  0.146978  0.152162  0.353318  1
  O  O70  1  0.146264  0.359227  0.146410  1
  O  O71  1  0.214467  0.495110  0.007718  1
  O  O72  1  0.028951  0.040513  0.839656  1
  O  O73  1  0.041470  0.840388  0.028602  1
  O  O74  1  0.307006  0.314408  0.030280  1
  O  O75  1  0.320195  0.018269  0.312453  1
  O  O76  1  0.001740  0.786664  0.218270  1
  O  O77  1  0.358459  0.143913  0.150234  1
  O  O78  1  0.021149  0.848867  0.311939  1
  O  O79  1  0.021250  0.318888  0.848620  1
  O  O80  1  0.494397  0.000913  0.218056  1
  O  O81  1  0.217153  0.003818  0.785798  1
  O  O82  1  0.595568  0.037024  0.028366  1
  O  O83  1  0.145101  0.847873  0.149992  1
  O  O84  1  0.001555  0.494318  0.786594  1
  O  O85  1  0.152855  0.146373  0.847355  1
  O  O86  1  0.313903  0.016683  0.848861  1
  O  O87  1  0.143892  0.359819  0.847370  1
  O  O88  1  0.028523  0.840564  0.589760  1
  O  O89  1  0.037304  0.594582  0.840603  1
  O  O90  1  0.150159  0.847535  0.357194  1
  O  O91  1  0.319090  0.848543  0.019648  1
  O  O92  1  0.153023  0.680363  0.688162  1
  O  O93  1  0.157074  0.967230  0.399723  1
  O  O94  1  0.157940  0.403631  0.974226  1
  O  O95  1  0.356634  0.845982  0.146157  1
  O  O96  1  0.217987  0.786971  0.493584  1
  O  O97  1  0.357705  0.146866  0.848326  1
  O  O98  1  0.217411  0.505225  0.783138  1
  O  O99  1  0.838953  0.028944  0.041681  1
  O  O100  1  0.493578  0.785630  0.002622  1
  O  O101  1  0.788232  0.219677  0.998414  1
  O  O102  1  0.312542  0.848874  0.318609  1
  O  O103  1  0.314573  0.307328  0.848591  1
  O  O104  1  0.153031  0.637198  0.854154  1
  O  O105  1  0.153306  0.855717  0.637994  1
  O  O106  1  0.222173  0.989640  0.501572  1
  O  O107  1  0.403755  0.157549  0.964445  1
  O  O108  1  0.401704  0.975535  0.155454  1
  O  O109  1  0.155344  0.980203  0.677098  1
  O  O110  1  0.154017  0.689018  0.978609  1
  O  O111  1  0.843231  0.152220  0.145182  1
  O  O112  1  0.494542  0.213826  0.782898  1
  O  O113  1  0.502506  0.786033  0.222888  1
  O  O114  1  0.153460  0.854227  0.854150  1
  O  O115  1  0.850293  0.314176  0.014728  1
  O  O116  1  0.850643  0.013678  0.321233  1
  O  O117  1  0.593307  0.026813  0.838688  1
  O  O118  1  0.591059  0.838591  0.041336  1
  O  O119  1  0.787865  0.997103  0.493891  1
  O  O120  1  0.843336  0.144657  0.359368  1
  O  O121  1  0.841570  0.359962  0.152753  1
  O  O122  1  0.677844  0.687755  0.155760  1
  O  O123  1  0.688600  0.156078  0.676644  1
  O  O124  1  0.222625  0.787547  0.987193  1
  O  O125  1  0.504850  0.216844  0.994984  1
  O  O126  1  0.156283  0.977054  0.966590  1
  O  O127  1  0.786770  0.494079  0.220351  1
  O  O128  1  0.638353  0.852562  0.154562  1
  O  O129  1  0.790005  0.222109  0.500509  1
  O  O130  1  0.636687  0.152932  0.855766  1
  O  O131  1  0.838399  0.591179  0.029130  1
  O  O132  1  0.838592  0.041041  0.590752  1
  O  O133  1  0.849632  0.321119  0.314218  1
  O  O134  1  0.680229  0.153560  0.978398  1
  O  O135  1  0.854513  0.153201  0.637625  1
  O  O136  1  0.965046  0.401999  0.155491  1
  O  O137  1  0.977230  0.156033  0.399417  1
  O  O138  1  0.853868  0.639611  0.153517  1
  O  O139  1  0.687981  0.977276  0.158689  1
  O  O140  1  0.853804  0.854887  0.153216  1
  O  O141  1  0.986050  0.503792  0.222999  1
  O  O142  1  0.856321  0.152554  0.852516  1
  O  O143  1  0.401819  0.965475  0.976830  1
  O  O144  1  0.789607  0.986284  0.223587  1
  O  O145  1  0.503496  0.985584  0.787272  1
  O  O146  1  0.978000  0.678471  0.156126  1
  O  O147  1  0.980679  0.154638  0.687205  1
  O  O148  1  0.638529  0.853388  0.853982  1
  O  O149  1  0.990943  0.221014  0.786518  1
  O  O150  1  0.677993  0.977435  0.687250  1
  O  O151  1  0.687583  0.676328  0.978778  1
  O  O152  1  0.966982  0.156210  0.976540  1
  O  O153  1  0.976803  0.967630  0.156179  1
  O  O154  1  0.788404  0.500737  0.987989  1
  O  O155  1  0.852373  0.638272  0.854890  1
  O  O156  1  0.855026  0.853032  0.639216  1
  O  O157  1  0.987458  0.787048  0.502595  1
  O  O158  1  0.966586  0.977252  0.400656  1
  O  O159  1  0.975757  0.400730  0.967812  1
  O  O160  1  0.977717  0.688304  0.678071  1
