# generated using pymatgen
data_Pu31Pt20
_symmetry_space_group_name_H-M   'P 1'
_cell_length_a   11.27432316
_cell_length_b   11.27432360
_cell_length_c   20.28386327
_cell_angle_alpha   106.13572103
_cell_angle_beta   106.13572169
_cell_angle_gamma   90.00000096
_symmetry_Int_Tables_number   1
_chemical_formula_structural   Pu31Pt20
_chemical_formula_sum   'Pu62 Pt40'
_cell_volume   2370.80405226
_cell_formula_units_Z   2
loop_
 _symmetry_equiv_pos_site_id
 _symmetry_equiv_pos_as_xyz
  1  'x, y, z'
loop_
 _atom_site_type_symbol
 _atom_site_label
 _atom_site_symmetry_multiplicity
 _atom_site_fract_x
 _atom_site_fract_y
 _atom_site_fract_z
 _atom_site_occupancy
  Pu  Pu0  1  0.166348  0.666348  0.332695  1
  Pu  Pu1  1  0.436893  0.125018  0.424855  1
  Pu  Pu2  1  0.987963  0.299838  0.424855  1
  Pu  Pu3  1  0.563107  0.874982  0.575145  1
  Pu  Pu4  1  0.660058  0.839942  1.000000  1
  Pu  Pu5  1  0.058071  0.356212  0.274082  1
  Pu  Pu6  1  0.356212  0.216011  0.274082  1
  Pu  Pu7  1  0.922239  0.422239  0.844478  1
  Pu  Pu8  1  0.374982  0.063107  0.575145  1
  Pu  Pu9  1  0.849574  0.117798  0.100527  1
  Pu  Pu10  1  0.650426  0.517271  0.899473  1
  Pu  Pu11  1  0.982729  0.849574  0.100527  1
  Pu  Pu12  1  0.799838  0.487963  0.424855  1
  Pu  Pu13  1  0.512037  0.374982  0.575145  1
  Pu  Pu14  1  0.874982  0.012037  0.575145  1
  Pu  Pu15  1  0.558071  0.417869  0.274082  1
  Pu  Pu16  1  0.617798  0.349574  0.100527  1
  Pu  Pu17  1  0.249047  0.382202  0.899473  1
  Pu  Pu18  1  0.941929  0.643788  0.725918  1
  Pu  Pu19  1  0.517271  0.249047  0.899473  1
  Pu  Pu20  1  0.216011  0.917869  0.274082  1
  Pu  Pu21  1  0.716011  0.856212  0.274082  1
  Pu  Pu22  1  0.783989  0.082131  0.725918  1
  Pu  Pu23  1  0.125018  0.987963  0.424855  1
  Pu  Pu24  1  0.012037  0.700162  0.575145  1
  Pu  Pu25  1  0.417869  0.716011  0.274082  1
  Pu  Pu26  1  0.749047  0.017271  0.899473  1
  Pu  Pu27  1  0.487963  0.625018  0.424855  1
  Pu  Pu28  1  0.200162  0.512037  0.575145  1
  Pu  Pu29  1  0.643788  0.783989  0.725918  1
  Pu  Pu30  1  0.856212  0.558071  0.274082  1
  Pu  Pu31  1  0.333652  0.833652  0.667305  1
  Pu  Pu32  1  0.299838  0.436893  0.424855  1
  Pu  Pu33  1  0.482729  0.750953  0.100527  1
  Pu  Pu34  1  0.382202  0.650426  0.899473  1
  Pu  Pu35  1  0.250000  0.750000  0.500000  1
  Pu  Pu36  1  0.441929  0.582131  0.725918  1
  Pu  Pu37  1  0.750953  0.617798  0.100527  1
  Pu  Pu38  1  0.150426  0.882202  0.899473  1
  Pu  Pu39  1  0.422239  0.922239  0.844478  1
  Pu  Pu40  1  0.577761  0.077761  0.155522  1
  Pu  Pu41  1  0.017271  0.150426  0.899473  1
  Pu  Pu42  1  0.582131  0.283989  0.725918  1
  Pu  Pu43  1  0.143788  0.441929  0.725918  1
  Pu  Pu44  1  0.666348  0.166348  0.332695  1
  Pu  Pu45  1  0.917869  0.058071  0.274082  1
  Pu  Pu46  1  0.750000  0.250000  0.500000  1
  Pu  Pu47  1  0.283989  0.143788  0.725918  1
  Pu  Pu48  1  0.117798  0.250953  0.100527  1
  Pu  Pu49  1  0.936893  0.799838  0.424855  1
  Pu  Pu50  1  0.250953  0.982729  0.100527  1
  Pu  Pu51  1  0.882202  0.749047  0.899473  1
  Pu  Pu52  1  0.839942  0.339942  1.000000  1
  Pu  Pu53  1  0.833652  0.333652  0.667305  1
  Pu  Pu54  1  0.349574  0.482729  0.100527  1
  Pu  Pu55  1  0.160058  0.660058  0.000000  1
  Pu  Pu56  1  0.082131  0.941929  0.725918  1
  Pu  Pu57  1  0.077761  0.577761  0.155522  1
  Pu  Pu58  1  0.063107  0.200162  0.575145  1
  Pu  Pu59  1  0.339942  0.160058  0.000000  1
  Pu  Pu60  1  0.625018  0.936893  0.424855  1
  Pu  Pu61  1  0.700162  0.563107  0.575145  1
  Pt  Pt62  1  0.403728  0.903728  0.000000  1
  Pt  Pt63  1  0.392419  0.253986  0.146405  1
  Pt  Pt64  1  0.177147  0.177147  0.354294  1
  Pt  Pt65  1  0.607581  0.746014  0.853595  1
  Pt  Pt66  1  0.967160  0.784395  0.251555  1
  Pt  Pt67  1  0.892419  0.392419  0.146405  1
  Pt  Pt68  1  0.596272  0.096272  1.000000  1
  Pt  Pt69  1  0.467160  0.967160  0.251555  1
  Pt  Pt70  1  0.284395  0.467160  0.251555  1
  Pt  Pt71  1  0.032840  0.215605  0.748445  1
  Pt  Pt72  1  0.677147  0.677147  0.354294  1
  Pt  Pt73  1  0.107581  0.607581  0.853595  1
  Pt  Pt74  1  0.715605  0.532840  0.748445  1
  Pt  Pt75  1  0.322853  0.322853  0.645706  1
  Pt  Pt76  1  0.096272  0.403728  0.000000  1
  Pt  Pt77  1  0.899246  0.899246  0.798492  1
  Pt  Pt78  1  0.753986  0.892419  0.146405  1
  Pt  Pt79  1  0.444512  0.633941  0.578453  1
  Pt  Pt80  1  0.600754  0.600754  0.201508  1
  Pt  Pt81  1  0.253986  0.753986  0.146405  1
  Pt  Pt82  1  0.555488  0.366059  0.421547  1
  Pt  Pt83  1  0.366059  0.866059  0.421547  1
  Pt  Pt84  1  0.399246  0.399246  0.798492  1
  Pt  Pt85  1  0.944512  0.444512  0.578453  1
  Pt  Pt86  1  0.100754  0.100754  0.201508  1
  Pt  Pt87  1  0.246014  0.107581  0.853595  1
  Pt  Pt88  1  0.903728  0.596272  1.000000  1
  Pt  Pt89  1  0.750000  0.750000  0.500000  1
  Pt  Pt90  1  0.500000  0.500000  0.000000  1
  Pt  Pt91  1  0.133941  0.944512  0.578453  1
  Pt  Pt92  1  0.746014  0.246014  0.853595  1
  Pt  Pt93  1  0.532840  0.032840  0.748445  1
  Pt  Pt94  1  0.215605  0.715605  0.748445  1
  Pt  Pt95  1  0.784395  0.284395  0.251555  1
  Pt  Pt96  1  0.866059  0.055488  0.421547  1
  Pt  Pt97  1  0.000000  0.000000  0.000000  1
  Pt  Pt98  1  0.633941  0.133941  0.578453  1
  Pt  Pt99  1  0.055488  0.555488  0.421547  1
  Pt  Pt100  1  0.822853  0.822853  0.645706  1
  Pt  Pt101  1  0.250000  0.250000  0.500000  1
