# generated using pymatgen
data_Sn(BiTe2)2
_symmetry_space_group_name_H-M   'P 1'
_cell_length_a   14.96982206
_cell_length_b   14.96982194
_cell_length_c   74.78116159
_cell_angle_alpha   17.25026947
_cell_angle_beta   17.25027095
_cell_angle_gamma   17.11080716
_symmetry_Int_Tables_number   1
_chemical_formula_structural   Sn(BiTe2)2
_chemical_formula_sum   'Sn5 Bi10 Te20'
_cell_volume   1279.08308416
_cell_formula_units_Z   5
loop_
 _symmetry_equiv_pos_site_id
 _symmetry_equiv_pos_as_xyz
  1  'x, y, z'
loop_
 _atom_site_type_symbol
 _atom_site_label
 _atom_site_symmetry_multiplicity
 _atom_site_fract_x
 _atom_site_fract_y
 _atom_site_fract_z
 _atom_site_occupancy
  Sn  Sn0  1  0.989704  0.989704  0.404283  1
  Sn  Sn1  1  0.456293  0.456293  0.673081  1
  Sn  Sn2  1  0.008463  0.008463  0.597436  1
  Sn  Sn3  1  0.374594  0.374594  0.896303  1
  Sn  Sn4  1  0.593593  0.593593  0.913824  1
  Bi  Bi5  1  0.415004  0.415004  0.087354  1
  Bi  Bi6  1  0.568559  0.568559  0.120445  1
  Bi  Bi7  1  0.421724  0.421724  0.283273  1
  Bi  Bi8  1  0.568525  0.568525  0.316621  1
  Bi  Bi9  1  0.006887  0.006887  0.196254  1
  Bi  Bi10  1  0.433487  0.433487  0.481773  1
  Bi  Bi11  1  0.575805  0.575805  0.515492  1
  Bi  Bi12  1  0.577906  0.577906  0.718245  1
  Bi  Bi13  1  0.517262  0.517262  0.892132  1
  Bi  Bi14  1  0.004582  0.004582  0.800504  1
  Te  Te15  1  0.120520  0.120520  0.027109  1
  Te  Te16  1  0.269610  0.269610  0.066038  1
  Te  Te17  1  0.123481  0.123481  0.226192  1
  Te  Te18  1  0.286350  0.286350  0.259822  1
  Te  Te19  1  0.706183  0.706183  0.142564  1
  Te  Te20  1  0.137134  0.137134  0.422318  1
  Te  Te21  1  0.860315  0.860315  0.178819  1
  Te  Te22  1  0.293928  0.293928  0.457218  1
  Te  Te23  1  0.704980  0.704980  0.342906  1
  Te  Te24  1  0.149208  0.149208  0.618162  1
  Te  Te25  1  0.863467  0.863467  0.376441  1
  Te  Te26  1  0.294859  0.294859  0.656610  1
  Te  Te27  1  0.710619  0.710619  0.541297  1
  Te  Te28  1  0.117275  0.117275  0.827423  1
  Te  Te29  1  0.871892  0.871892  0.575157  1
  Te  Te30  1  0.307255  0.307255  0.853291  1
  Te  Te31  1  0.719420  0.719420  0.737693  1
  Te  Te32  1  0.871981  0.871981  0.776655  1
  Te  Te33  1  0.688456  0.688456  0.947139  1
  Te  Te34  1  0.890680  0.890680  0.970123  1
