# generated using pymatgen
data_P2Os4C15O13F6
_symmetry_space_group_name_H-M   'P 1'
_cell_length_a   9.91651145
_cell_length_b   10.45790546
_cell_length_c   29.98481403
_cell_angle_alpha   96.05461209
_cell_angle_beta   90.00000000
_cell_angle_gamma   118.30177994
_symmetry_Int_Tables_number   1
_chemical_formula_structural   P2Os4C15O13F6
_chemical_formula_sum   'P8 Os16 C60 O52 F24'
_cell_volume   2718.17248286
_cell_formula_units_Z   4
loop_
 _symmetry_equiv_pos_site_id
 _symmetry_equiv_pos_as_xyz
  1  'x, y, z'
loop_
 _atom_site_type_symbol
 _atom_site_label
 _atom_site_symmetry_multiplicity
 _atom_site_fract_x
 _atom_site_fract_y
 _atom_site_fract_z
 _atom_site_occupancy
  P  P0  1  0.498678  0.295390  0.349833  1
  P  P1  1  0.796711  0.295390  0.849833  1
  P  P2  1  0.314396  0.547839  0.085666  1
  P  P3  1  0.766557  0.452161  0.414334  1
  P  P4  1  0.685604  0.452161  0.914334  1
  P  P5  1  0.233443  0.547839  0.585666  1
  P  P6  1  0.501322  0.704610  0.650167  1
  P  P7  1  0.203289  0.704610  0.150167  1
  Os  Os8  1  0.658535  0.427750  0.832647  1
  Os  Os9  1  0.059069  0.463552  0.108554  1
  Os  Os10  1  0.230785  0.572250  0.667353  1
  Os  Os11  1  0.245924  0.781653  0.602539  1
  Os  Os12  1  0.464271  0.218347  0.897461  1
  Os  Os13  1  0.586954  0.932009  0.615842  1
  Os  Os14  1  0.754076  0.218347  0.397461  1
  Os  Os15  1  0.341465  0.572250  0.167353  1
  Os  Os16  1  0.413046  0.067991  0.384158  1
  Os  Os17  1  0.769215  0.427750  0.332647  1
  Os  Os18  1  0.595517  0.536448  0.391446  1
  Os  Os19  1  0.404483  0.463552  0.608554  1
  Os  Os20  1  0.345055  0.932009  0.115842  1
  Os  Os21  1  0.940931  0.536448  0.891446  1
  Os  Os22  1  0.535729  0.781653  0.102539  1
  Os  Os23  1  0.654945  0.067991  0.884158  1
  C  C24  1  0.344049  0.393089  0.054512  1
  C  C25  1  0.498297  0.276562  0.792764  1
  C  C26  1  0.049040  0.393089  0.554512  1
  C  C27  1  0.649773  0.737637  0.697054  1
  C  C28  1  0.501703  0.723438  0.207236  1
  C  C29  1  0.655951  0.606911  0.945488  1
  C  C30  1  0.550129  0.497860  0.564421  1
  C  C31  1  0.350227  0.262363  0.302946  1
  C  C32  1  0.970926  0.299245  0.399879  1
  C  C33  1  0.504906  0.401776  0.650059  1
  C  C34  1  0.500454  0.098147  0.089458  1
  C  C35  1  0.947731  0.497860  0.064421  1
  C  C36  1  0.052269  0.502140  0.935579  1
  C  C37  1  0.685780  0.950608  0.140155  1
  C  C38  1  0.802167  0.994635  0.626217  1
  C  C39  1  0.203669  0.467181  0.211205  1
  C  C40  1  0.550695  0.977643  0.824549  1
  C  C41  1  0.260390  0.828149  0.055865  1
  C  C42  1  0.192468  0.994635  0.126217  1
  C  C43  1  0.274551  0.863530  0.547844  1
  C  C44  1  0.402307  0.901853  0.410542  1
  C  C45  1  0.726469  0.736514  0.417396  1
  C  C46  1  0.570564  0.557923  0.834534  1
  C  C47  1  0.796331  0.532819  0.788795  1
  C  C48  1  0.989955  0.263486  0.082604  1
  C  C49  1  0.263512  0.467181  0.711205  1
  C  C50  1  0.411020  0.136470  0.952156  1
  C  C51  1  0.432241  0.171851  0.444135  1
  C  C52  1  0.912136  0.262363  0.802946  1
  C  C53  1  0.264828  0.950608  0.640155  1
  C  C54  1  0.010045  0.736514  0.917396  1
  C  C55  1  0.495094  0.598224  0.349941  1
  C  C56  1  0.950960  0.606911  0.445488  1
  C  C57  1  0.273531  0.263486  0.582604  1
  C  C58  1  0.739610  0.171851  0.944135  1
  C  C59  1  0.725449  0.136470  0.452156  1
  C  C60  1  0.597693  0.098147  0.589458  1
  C  C61  1  0.987360  0.557923  0.334534  1
  C  C62  1  0.429436  0.442077  0.165466  1
  C  C63  1  0.588980  0.863530  0.047844  1
  C  C64  1  0.896870  0.401776  0.150059  1
  C  C65  1  0.736488  0.532819  0.288795  1
  C  C66  1  0.221735  0.723438  0.707236  1
  C  C67  1  0.499546  0.901853  0.910542  1
  C  C68  1  0.573051  0.022357  0.675451  1
  C  C69  1  0.328319  0.299245  0.899879  1
  C  C70  1  0.807532  0.005365  0.873783  1
  C  C71  1  0.671681  0.700755  0.100121  1
  C  C72  1  0.426949  0.977643  0.324549  1
  C  C73  1  0.314220  0.049392  0.859845  1
  C  C74  1  0.778265  0.276562  0.292764  1
  C  C75  1  0.012640  0.442077  0.665466  1
  C  C76  1  0.735172  0.049392  0.359845  1
  C  C77  1  0.029074  0.700755  0.600121  1
  C  C78  1  0.103130  0.598224  0.849941  1
  C  C79  1  0.087864  0.737637  0.197054  1
  C  C80  1  0.567759  0.828149  0.555865  1
  C  C81  1  0.449871  0.502140  0.435579  1
  C  C82  1  0.449305  0.022357  0.175451  1
  C  C83  1  0.197833  0.005365  0.373783  1
  O  O84  1  0.882940  0.519694  0.036406  1
  O  O85  1  0.234563  0.335859  0.900096  1
  O  O86  1  0.511246  0.080266  0.209982  1
  O  O87  1  0.563667  0.361584  0.674414  1
  O  O88  1  0.117060  0.480306  0.963594  1
  O  O89  1  0.787074  0.188941  0.267539  1
  O  O90  1  0.797917  0.361584  0.174414  1
  O  O91  1  0.562111  0.771828  0.520045  1
  O  O92  1  0.620727  0.910246  0.013477  1
  O  O93  1  0.101440  0.032916  0.133103  1
  O  O94  1  0.765437  0.664141  0.099904  1
  O  O95  1  0.202674  0.143593  0.565983  1
  O  O96  1  0.068524  0.967084  0.366897  1
  O  O97  1  0.402444  0.803708  0.425178  1
  O  O98  1  0.730973  0.949348  0.337611  1
  O  O99  1  0.873832  0.594633  0.760932  1
  O  O100  1  0.202083  0.638416  0.825586  1
  O  O101  1  0.279199  0.405367  0.739068  1
  O  O102  1  0.797326  0.856407  0.434017  1
  O  O103  1  0.710481  0.089754  0.486523  1
  O  O104  1  0.940919  0.143593  0.065983  1
  O  O105  1  0.379273  0.089754  0.986523  1
  O  O106  1  0.126168  0.405367  0.239068  1
  O  O107  1  0.117958  0.637759  0.333821  1
  O  O108  1  0.598133  0.811059  0.232461  1
  O  O109  1  0.059081  0.856407  0.934017  1
  O  O110  1  0.898704  0.664141  0.599904  1
  O  O111  1  0.401867  0.188941  0.767539  1
  O  O112  1  0.720801  0.594633  0.260932  1
  O  O113  1  0.212926  0.811059  0.732461  1
  O  O114  1  0.519801  0.637759  0.833821  1
  O  O115  1  0.790283  0.228172  0.979955  1
  O  O116  1  0.488754  0.919734  0.790018  1
  O  O117  1  0.101296  0.335859  0.400096  1
  O  O118  1  0.781625  0.050652  0.162389  1
  O  O119  1  0.218375  0.949348  0.837611  1
  O  O120  1  0.569020  0.080266  0.709982  1
  O  O121  1  0.430980  0.919734  0.290018  1
  O  O122  1  0.597556  0.196292  0.574822  1
  O  O123  1  0.598736  0.196292  0.074822  1
  O  O124  1  0.636754  0.519694  0.536406  1
  O  O125  1  0.436333  0.638416  0.325586  1
  O  O126  1  0.289519  0.910246  0.513477  1
  O  O127  1  0.882042  0.362241  0.666179  1
  O  O128  1  0.363246  0.480306  0.463594  1
  O  O129  1  0.931476  0.032916  0.633103  1
  O  O130  1  0.437889  0.228172  0.479955  1
  O  O131  1  0.209717  0.771828  0.020045  1
  O  O132  1  0.401264  0.803708  0.925178  1
  O  O133  1  0.269027  0.050652  0.662389  1
  O  O134  1  0.898560  0.967084  0.866897  1
  O  O135  1  0.480199  0.362241  0.166179  1
  F  F136  1  0.935808  0.430810  0.551043  1
  F  F137  1  0.721284  0.732988  0.925700  1
  F  F138  1  0.307956  0.132432  0.276592  1
  F  F139  1  0.918573  0.640073  0.487982  1
  F  F140  1  0.278716  0.267012  0.074300  1
  F  F141  1  0.824476  0.132432  0.776592  1
  F  F142  1  0.035537  0.630492  0.225075  1
  F  F143  1  0.963381  0.743972  0.180253  1
  F  F144  1  0.175524  0.867568  0.223408  1
  F  F145  1  0.219409  0.256028  0.319747  1
  F  F146  1  0.780591  0.743972  0.680253  1
  F  F147  1  0.064192  0.569190  0.448957  1
  F  F148  1  0.988296  0.267012  0.574300  1
  F  F149  1  0.692044  0.867568  0.723408  1
  F  F150  1  0.964463  0.369508  0.774925  1
  F  F151  1  0.405045  0.369508  0.274925  1
  F  F152  1  0.011704  0.732988  0.425700  1
  F  F153  1  0.721500  0.640073  0.987982  1
  F  F154  1  0.594955  0.630492  0.725075  1
  F  F155  1  0.278500  0.359927  0.012018  1
  F  F156  1  0.081427  0.359927  0.512018  1
  F  F157  1  0.504998  0.569190  0.948957  1
  F  F158  1  0.036619  0.256028  0.819747  1
  F  F159  1  0.495002  0.430810  0.051043  1
