# generated using pymatgen
data_Hf(TeCl6)2
_symmetry_space_group_name_H-M   'P 1'
_cell_length_a   26.72795387
_cell_length_b   26.72795407
_cell_length_c   26.72795458
_cell_angle_alpha   27.37490181
_cell_angle_beta   27.37490100
_cell_angle_gamma   27.37490107
_symmetry_Int_Tables_number   1
_chemical_formula_structural   Hf(TeCl6)2
_chemical_formula_sum   'Hf6 Te12 Cl72'
_cell_volume   3562.55880290
_cell_formula_units_Z   6
loop_
 _symmetry_equiv_pos_site_id
 _symmetry_equiv_pos_as_xyz
  1  'x, y, z'
loop_
 _atom_site_type_symbol
 _atom_site_label
 _atom_site_symmetry_multiplicity
 _atom_site_fract_x
 _atom_site_fract_y
 _atom_site_fract_z
 _atom_site_occupancy
  Hf  Hf0  1  0.750000  0.750000  0.750000  1
  Hf  Hf1  1  0.358301  0.358301  0.358301  1
  Hf  Hf2  1  0.641699  0.641699  0.641699  1
  Hf  Hf3  1  0.858301  0.858301  0.858301  1
  Hf  Hf4  1  0.141699  0.141699  0.141699  1
  Hf  Hf5  1  0.250000  0.250000  0.250000  1
  Te  Te6  1  0.286060  0.959624  0.608213  1
  Te  Te7  1  0.608213  0.286060  0.959624  1
  Te  Te8  1  0.040376  0.391787  0.713940  1
  Te  Te9  1  0.891787  0.540376  0.213940  1
  Te  Te10  1  0.391787  0.713940  0.040376  1
  Te  Te11  1  0.108213  0.459624  0.786060  1
  Te  Te12  1  0.786060  0.108213  0.459624  1
  Te  Te13  1  0.459624  0.786060  0.108213  1
  Te  Te14  1  0.959624  0.608213  0.286060  1
  Te  Te15  1  0.540376  0.213940  0.891787  1
  Te  Te16  1  0.713940  0.040376  0.391787  1
  Te  Te17  1  0.213940  0.891787  0.540376  1
  Cl  Cl18  1  0.033636  0.482976  0.068274  1
  Cl  Cl19  1  0.775155  0.478308  0.716238  1
  Cl  Cl20  1  0.244470  0.444299  0.608718  1
  Cl  Cl21  1  0.671184  0.443883  0.729496  1
  Cl  Cl22  1  0.255530  0.891282  0.055701  1
  Cl  Cl23  1  0.828816  0.770504  0.056117  1
  Cl  Cl24  1  0.533636  0.568274  -0.017024  1
  Cl  Cl25  1  0.025113  0.247978  0.803122  1
  Cl  Cl26  1  0.943883  0.171184  0.229496  1
  Cl  Cl27  1  0.665317  -0.048496  0.688074  1
  Cl  Cl28  1  -0.033636  0.517024  0.931726  1
  Cl  Cl29  1  0.931726  -0.033636  0.517024  1
  Cl  Cl30  1  0.474887  0.696878  0.252022  1
  Cl  Cl31  1  0.548496  0.834683  0.811926  1
  Cl  Cl32  1  0.021692  0.724845  0.783762  1
  Cl  Cl33  1  0.391282  0.755530  0.555701  1
  Cl  Cl34  1  0.752022  0.196878  0.974887  1
  Cl  Cl35  1  0.478308  0.716238  0.775155  1
  Cl  Cl36  1  0.556117  0.270504  0.328816  1
  Cl  Cl37  1  0.068274  0.033636  0.482976  1
  Cl  Cl38  1  0.334683  0.048496  0.311926  1
  Cl  Cl39  1  0.252022  0.474887  0.696878  1
  Cl  Cl40  1  0.466364  0.431726  0.017024  1
  Cl  Cl41  1  0.283762  0.224845  0.521692  1
  Cl  Cl42  1  0.048496  0.311926  0.334683  1
  Cl  Cl43  1  0.803122  0.025113  0.247978  1
  Cl  Cl44  1  0.724845  0.783762  0.021692  1
  Cl  Cl45  1  0.744470  0.108718  0.944299  1
  Cl  Cl46  1  0.108718  0.944299  0.744470  1
  Cl  Cl47  1  0.696878  0.252022  0.474887  1
  Cl  Cl48  1  -0.048496  0.688074  0.665317  1
  Cl  Cl49  1  0.482976  0.068274  0.033636  1
  Cl  Cl50  1  -0.017024  0.533636  0.568274  1
  Cl  Cl51  1  0.055701  0.255530  0.891282  1
  Cl  Cl52  1  0.311926  0.334683  0.048496  1
  Cl  Cl53  1  0.188074  0.451504  0.165317  1
  Cl  Cl54  1  0.521692  0.283762  0.224845  1
  Cl  Cl55  1  0.017024  0.466364  0.431726  1
  Cl  Cl56  1  0.811926  0.548496  0.834683  1
  Cl  Cl57  1  0.783762  0.021692  0.724845  1
  Cl  Cl58  1  0.978308  0.275155  0.216238  1
  Cl  Cl59  1  0.247978  0.803122  0.025113  1
  Cl  Cl60  1  0.303122  0.747978  0.525113  1
  Cl  Cl61  1  0.196878  0.974887  0.752022  1
  Cl  Cl62  1  0.770504  0.056117  0.828816  1
  Cl  Cl63  1  0.944299  0.744470  0.108718  1
  Cl  Cl64  1  0.056117  0.828816  0.770504  1
  Cl  Cl65  1  0.431726  0.017024  0.466364  1
  Cl  Cl66  1  0.517024  0.931726  -0.033636  1
  Cl  Cl67  1  0.270504  0.328816  0.556117  1
  Cl  Cl68  1  0.328816  0.556117  0.270504  1
  Cl  Cl69  1  0.688074  0.665317  -0.048496  1
  Cl  Cl70  1  0.608718  0.244470  0.444299  1
  Cl  Cl71  1  0.729496  0.671184  0.443883  1
  Cl  Cl72  1  0.568274  -0.017024  0.533636  1
  Cl  Cl73  1  0.974887  0.752022  0.196878  1
  Cl  Cl74  1  0.444299  0.608718  0.244470  1
  Cl  Cl75  1  0.834683  0.811926  0.548496  1
  Cl  Cl76  1  0.755530  0.555701  0.391282  1
  Cl  Cl77  1  0.443883  0.729496  0.671184  1
  Cl  Cl78  1  0.224845  0.521692  0.283762  1
  Cl  Cl79  1  0.275155  0.216238  0.978308  1
  Cl  Cl80  1  0.171184  0.229496  0.943883  1
  Cl  Cl81  1  0.216238  0.978308  0.275155  1
  Cl  Cl82  1  0.525113  0.303122  0.747978  1
  Cl  Cl83  1  0.747978  0.525113  0.303122  1
  Cl  Cl84  1  0.229496  0.943883  0.171184  1
  Cl  Cl85  1  0.891282  0.055701  0.255530  1
  Cl  Cl86  1  0.451504  0.165317  0.188074  1
  Cl  Cl87  1  0.555701  0.391282  0.755530  1
  Cl  Cl88  1  0.165317  0.188074  0.451504  1
  Cl  Cl89  1  0.716238  0.775155  0.478308  1
