# generated using pymatgen
data_LiZr3H18N4F19
_symmetry_space_group_name_H-M   'P 1'
_cell_length_a   11.56922281
_cell_length_b   12.82793219
_cell_length_c   13.33996325
_cell_angle_alpha   90.00000000
_cell_angle_beta   90.00000000
_cell_angle_gamma   110.56774332
_symmetry_Int_Tables_number   1
_chemical_formula_structural   LiZr3H18N4F19
_chemical_formula_sum   'Li4 Zr12 H72 N16 F76'
_cell_volume   1853.57758646
_cell_formula_units_Z   4
loop_
 _symmetry_equiv_pos_site_id
 _symmetry_equiv_pos_as_xyz
  1  'x, y, z'
loop_
 _atom_site_type_symbol
 _atom_site_label
 _atom_site_symmetry_multiplicity
 _atom_site_fract_x
 _atom_site_fract_y
 _atom_site_fract_z
 _atom_site_occupancy
  Li  Li0  1  0.751389  0.247487  0.877362  1
  Li  Li1  1  0.748611  0.252513  0.377362  1
  Li  Li2  1  0.251389  0.747487  0.622638  1
  Li  Li3  1  0.248611  0.752513  0.122638  1
  Zr  Zr4  1  0.416967  0.761073  0.873639  1
  Zr  Zr5  1  0.228304  0.250944  0.625771  1
  Zr  Zr6  1  0.271696  0.249056  0.125771  1
  Zr  Zr7  1  0.728304  0.750944  0.874229  1
  Zr  Zr8  1  0.087376  0.735000  0.873411  1
  Zr  Zr9  1  0.916967  0.261073  0.626361  1
  Zr  Zr10  1  0.083033  0.738927  0.373639  1
  Zr  Zr11  1  0.587376  0.235000  0.626589  1
  Zr  Zr12  1  0.912624  0.265000  0.126589  1
  Zr  Zr13  1  0.771696  0.749056  0.374229  1
  Zr  Zr14  1  0.412624  0.765000  0.373411  1
  Zr  Zr15  1  0.583033  0.238927  0.126361  1
  H  H16  1  0.920342  0.009625  0.379863  1
  H  H17  1  0.945796  0.994728  0.868663  1
  H  H18  1  0.438352  0.113739  0.406899  1
  H  H19  1  0.569237  0.357166  0.882534  1
  H  H20  1  0.459546  0.398158  0.436260  1
  H  H21  1  0.826939  0.604424  0.565437  1
  H  H22  1  0.042205  0.104400  0.437095  1
  H  H23  1  0.133095  0.521585  0.124362  1
  H  H24  1  0.680066  0.011511  0.129716  1
  H  H25  1  0.935293  0.611560  0.651405  1
  H  H26  1  0.319934  0.988489  0.870284  1
  H  H27  1  0.288700  0.092647  0.811586  1
  H  H28  1  0.079658  0.990375  0.620137  1
  H  H29  1  0.961168  0.890553  0.189145  1
  H  H30  1  0.064707  0.388440  0.348595  1
  H  H31  1  0.791999  0.594935  0.054769  1
  H  H32  1  0.180066  0.511511  0.370284  1
  H  H33  1  0.938352  0.613739  0.093101  1
  H  H34  1  0.542205  0.604400  0.062905  1
  H  H35  1  0.430763  0.642834  0.117466  1
  H  H36  1  0.959546  0.898158  0.063740  1
  H  H37  1  0.177697  0.507162  0.881456  1
  H  H38  1  0.420342  0.509625  0.120137  1
  H  H39  1  0.711300  0.907353  0.188414  1
  H  H40  1  0.930763  0.142834  0.382534  1
  H  H41  1  0.708001  0.905065  0.554769  1
  H  H42  1  0.329803  0.112498  0.322834  1
  H  H43  1  0.208001  0.405065  0.945231  1
  H  H44  1  0.031120  0.103667  0.311707  1
  H  H45  1  0.134147  0.513828  0.620978  1
  H  H46  1  0.829803  0.612498  0.177166  1
  H  H47  1  0.054204  0.005272  0.131337  1
  H  H48  1  0.326939  0.104424  0.934563  1
  H  H49  1  0.788700  0.592647  0.688414  1
  H  H50  1  0.414745  0.613055  0.623657  1
  H  H51  1  0.819934  0.488489  0.629716  1
  H  H52  1  0.540454  0.601842  0.563740  1
  H  H53  1  0.634147  0.013828  0.879022  1
  H  H54  1  0.561648  0.886261  0.593101  1
  H  H55  1  0.866905  0.478415  0.875638  1
  H  H56  1  0.554204  0.505272  0.368663  1
  H  H57  1  0.435293  0.111560  0.848595  1
  H  H58  1  0.365853  0.986172  0.120978  1
  H  H59  1  0.585255  0.386945  0.376343  1
  H  H60  1  0.531120  0.603667  0.188293  1
  H  H61  1  0.366905  0.978415  0.624362  1
  H  H62  1  0.670197  0.887502  0.677166  1
  H  H63  1  0.468880  0.396333  0.811707  1
  H  H64  1  0.677697  0.007162  0.618544  1
  H  H65  1  0.170197  0.387502  0.822834  1
  H  H66  1  0.173061  0.395576  0.434563  1
  H  H67  1  0.957795  0.895600  0.562905  1
  H  H68  1  0.538832  0.609447  0.689145  1
  H  H69  1  0.291999  0.094935  0.445231  1
  H  H70  1  0.461168  0.390553  0.310855  1
  H  H71  1  0.968880  0.896333  0.688293  1
  H  H72  1  0.633095  0.021585  0.375638  1
  H  H73  1  0.445796  0.494728  0.631337  1
  H  H74  1  0.914745  0.113055  0.876343  1
  H  H75  1  0.564707  0.888440  0.151405  1
  H  H76  1  0.865853  0.486172  0.379022  1
  H  H77  1  0.038832  0.109447  0.810855  1
  H  H78  1  0.040454  0.101842  0.936260  1
  H  H79  1  0.085255  0.886945  0.123657  1
  H  H80  1  0.322303  0.992838  0.381456  1
  H  H81  1  0.061648  0.386261  0.906899  1
  H  H82  1  0.457795  0.395600  0.937095  1
  H  H83  1  0.211300  0.407353  0.311586  1
  H  H84  1  0.673061  0.895576  0.065437  1
  H  H85  1  0.579658  0.490375  0.879863  1
  H  H86  1  0.069237  0.857166  0.617466  1
  H  H87  1  0.822303  0.492838  0.118544  1
  N  N88  1  0.984039  0.080093  0.873328  1
  N  N89  1  0.154000  0.421362  0.889222  1
  N  N90  1  0.980980  0.090311  0.377769  1
  N  N91  1  0.484039  0.580093  0.626672  1
  N  N92  1  0.343108  0.074490  0.866272  1
  N  N93  1  0.480980  0.590311  0.122231  1
  N  N94  1  0.015961  0.919907  0.126672  1
  N  N95  1  0.656892  0.925510  0.133728  1
  N  N96  1  0.019020  0.909689  0.622231  1
  N  N97  1  0.846000  0.578638  0.110778  1
  N  N98  1  0.519020  0.409689  0.877769  1
  N  N99  1  0.346000  0.078638  0.389222  1
  N  N100  1  0.156892  0.425510  0.366272  1
  N  N101  1  0.654000  0.921362  0.610778  1
  N  N102  1  0.515961  0.419907  0.373328  1
  N  N103  1  0.843108  0.574490  0.633728  1
  F  F104  1  0.513476  0.938643  0.379658  1
  F  F105  1  0.367529  0.751187  0.727141  1
  F  F106  1  0.816603  0.878270  0.478510  1
  F  F107  1  0.912637  0.276720  0.279283  1
  F  F108  1  0.393976  0.211746  0.626332  1
  F  F109  1  0.411088  0.224425  0.217512  1
  F  F110  1  0.412637  0.776720  0.220717  1
  F  F111  1  0.183397  0.121730  0.521490  1
  F  F112  1  0.683397  0.621730  0.978510  1
  F  F113  1  0.418577  0.609595  0.366599  1
  F  F114  1  0.013476  0.438643  0.120342  1
  F  F115  1  0.918577  0.109595  0.133401  1
  F  F116  1  0.628475  0.238664  0.978970  1
  F  F117  1  0.171921  0.134550  0.229206  1
  F  F118  1  0.280158  0.932044  0.110916  1
  F  F119  1  0.780158  0.432044  0.389084  1
  F  F120  1  0.814381  0.879376  0.272377  1
  F  F121  1  0.589715  0.234135  0.473717  1
  F  F122  1  0.314381  0.379376  0.227623  1
  F  F123  1  0.592071  0.782908  0.964184  1
  F  F124  1  0.780420  0.351990  0.123708  1
  F  F125  1  0.783066  0.419954  0.870252  1
  F  F126  1  0.128475  0.738664  0.521030  1
  F  F127  1  0.910285  0.265865  0.973717  1
  F  F128  1  0.588912  0.775575  0.782488  1
  F  F129  1  0.283066  0.919954  0.629748  1
  F  F130  1  0.132471  0.748813  0.227141  1
  F  F131  1  0.719842  0.067956  0.889085  1
  F  F132  1  0.668952  0.636990  0.479069  1
  F  F133  1  0.087363  0.723280  0.720717  1
  F  F134  1  0.216934  0.580046  0.129748  1
  F  F135  1  0.106024  0.288254  0.126332  1
  F  F136  1  0.632471  0.248813  0.272859  1
  F  F137  1  0.410285  0.765865  0.526283  1
  F  F138  1  0.088912  0.275575  0.717512  1
  F  F139  1  0.685619  0.620624  0.772377  1
  F  F140  1  0.777368  0.346081  0.627938  1
  F  F141  1  0.985007  0.566931  0.368247  1
  F  F142  1  0.911088  0.724425  0.282488  1
  F  F143  1  0.316603  0.378270  0.021490  1
  F  F144  1  0.219842  0.567956  0.610915  1
  F  F145  1  0.485007  0.066931  0.131753  1
  F  F146  1  0.828079  0.865450  0.770794  1
  F  F147  1  0.606024  0.788254  0.373668  1
  F  F148  1  0.222632  0.653919  0.372062  1
  F  F149  1  0.926776  0.106564  0.621134  1
  F  F150  1  0.831048  0.863010  0.979069  1
  F  F151  1  0.407929  0.217092  0.035816  1
  F  F152  1  0.280420  0.851990  0.376292  1
  F  F153  1  0.081423  0.890405  0.866599  1
  F  F154  1  0.486524  0.061357  0.620342  1
  F  F155  1  0.871525  0.261336  0.478970  1
  F  F156  1  0.722632  0.153919  0.127938  1
  F  F157  1  0.671921  0.634550  0.270794  1
  F  F158  1  0.014993  0.433069  0.631753  1
  F  F159  1  0.277368  0.846081  0.872062  1
  F  F160  1  0.867529  0.251187  0.772859  1
  F  F161  1  0.328079  0.365450  0.729206  1
  F  F162  1  0.719580  0.148010  0.623708  1
  F  F163  1  0.581423  0.390405  0.633401  1
  F  F164  1  0.716934  0.080046  0.370252  1
  F  F165  1  0.907929  0.717092  0.464184  1
  F  F166  1  0.168952  0.136990  0.020931  1
  F  F167  1  0.219580  0.648010  0.876292  1
  F  F168  1  0.426776  0.606564  0.878866  1
  F  F169  1  0.573224  0.393436  0.121134  1
  F  F170  1  0.986524  0.561357  0.879658  1
  F  F171  1  0.893976  0.711746  0.873668  1
  F  F172  1  0.371525  0.761336  0.021030  1
  F  F173  1  0.514993  0.933069  0.868247  1
  F  F174  1  0.092071  0.282908  0.535816  1
  F  F175  1  0.089715  0.734135  0.026283  1
  F  F176  1  0.185619  0.120624  0.727623  1
  F  F177  1  0.331048  0.363010  0.520931  1
  F  F178  1  0.587363  0.223280  0.779283  1
  F  F179  1  0.073224  0.893436  0.378866  1
