# generated using pymatgen
data_NaTiPO5
_symmetry_space_group_name_H-M   'P 1'
_cell_length_a   6.72610086
_cell_length_b   7.21025888
_cell_length_c   8.58280133
_cell_angle_alpha   90.00000000
_cell_angle_beta   90.00000000
_cell_angle_gamma   115.38711417
_symmetry_Int_Tables_number   1
_chemical_formula_structural   NaTiPO5
_chemical_formula_sum   'Na4 Ti4 P4 O20'
_cell_volume   376.04397680
_cell_formula_units_Z   4
loop_
 _symmetry_equiv_pos_site_id
 _symmetry_equiv_pos_as_xyz
  1  'x, y, z'
loop_
 _atom_site_type_symbol
 _atom_site_label
 _atom_site_symmetry_multiplicity
 _atom_site_fract_x
 _atom_site_fract_y
 _atom_site_fract_z
 _atom_site_occupancy
  O  O0  1  0.247662  0.247990  0.682392  1
  O  O1  1  0.752338  0.252010  0.182392  1
  O  O2  1  0.752338  0.752010  0.317608  1
  O  O3  1  0.247662  0.747990  0.817608  1
  O  O4  1  0.662693  0.376605  0.466680  1
  O  O5  1  0.337307  0.123395  0.966680  1
  O  O6  1  0.337307  0.623395  0.533320  1
  O  O7  1  0.662693  0.876605  0.033320  1
  O  O8  1  0.841016  0.124922  0.468662  1
  O  O9  1  0.158984  0.375078  0.968662  1
  O  O10  1  0.158984  0.875078  0.531338  1
  O  O11  1  0.841016  0.624922  0.031338  1
  O  O12  1  0.930490  0.895833  0.818019  1
  O  O13  1  0.069510  0.604167  0.318019  1
  O  O14  1  0.069510  0.104167  0.181981  1
  O  O15  1  0.930490  0.395833  0.681981  1
  O  O16  1  0.563489  0.600801  0.821682  1
  O  O17  1  0.436511  0.899199  0.321682  1
  O  O18  1  0.436511  0.399199  0.178318  1
  O  O19  1  0.563489  0.100801  0.678318  1
  Na  Na20  1  0.249542  0.772471  0.079008  1
  Na  Na21  1  0.750458  0.727529  0.579008  1
  Na  Na22  1  0.249542  0.272471  0.420992  1
  Na  Na23  1  0.750458  0.227529  0.920992  1
  P  P24  1  0.749609  0.249427  0.570568  1
  P  P25  1  0.250391  0.750573  0.429432  1
  P  P26  1  0.250391  0.250573  0.070568  1
  P  P27  1  0.749609  0.749427  0.929432  1
  Ti  Ti28  1  0.248543  0.016876  0.742679  1
  Ti  Ti29  1  0.751457  0.483124  0.242679  1
  Ti  Ti30  1  0.751457  0.983124  0.257321  1
  Ti  Ti31  1  0.248543  0.516876  0.757321  1
