# generated using pymatgen
data_SrLaNiRuO6
_symmetry_space_group_name_H-M   'P 1'
_cell_length_a   5.67450500
_cell_length_b   5.58916418
_cell_length_c   7.90643580
_cell_angle_alpha   90.02187755
_cell_angle_beta   90.00000000
_cell_angle_gamma   90.00000000
_symmetry_Int_Tables_number   1
_chemical_formula_structural   SrLaNiRuO6
_chemical_formula_sum   'Sr2 La2 Ni2 Ru2 O12'
_cell_volume   250.75844489
_cell_formula_units_Z   2
loop_
 _symmetry_equiv_pos_site_id
 _symmetry_equiv_pos_as_xyz
  1  'x, y, z'
loop_
 _atom_site_type_symbol
 _atom_site_label
 _atom_site_symmetry_multiplicity
 _atom_site_fract_x
 _atom_site_fract_y
 _atom_site_fract_z
 _atom_site_occupancy
  Sr  Sr0  1  0.039311  0.007309  0.250008  1
  Sr  Sr1  1  0.460689  0.507309  0.750008  1
  La  La2  1  0.547343  0.489510  0.251880  1
  La  La3  1  0.952657  0.989510  0.751880  1
  Ni  Ni4  1  0.002101  0.499598  0.500273  1
  Ni  Ni5  1  0.497899  0.999598  0.000273  1
  Ru  Ru6  1  0.002426  0.499877  0.000102  1
  Ru  Ru7  1  0.497574  0.999877  0.500102  1
  O  O8  1  0.016043  0.415096  0.755796  1
  O  O9  1  0.202338  0.785307  0.957850  1
  O  O10  1  0.213580  0.801319  0.543489  1
  O  O11  1  0.286420  0.301319  0.043489  1
  O  O12  1  0.297662  0.285307  0.457850  1
  O  O13  1  0.483957  0.915096  0.255796  1
  O  O14  1  0.520608  0.067946  0.744260  1
  O  O15  1  0.710619  0.723135  0.536253  1
  O  O16  1  0.726555  0.710903  0.960088  1
  O  O17  1  0.773445  0.210903  0.460088  1
  O  O18  1  0.789381  0.223135  0.036253  1
  O  O19  1  0.979392  0.567946  0.244260  1
