# generated using pymatgen
data_LiNi3P2
_symmetry_space_group_name_H-M   'P 1'
_cell_length_a   8.98882650
_cell_length_b   17.98471858
_cell_length_c   7.19974947
_cell_angle_alpha   90.00000000
_cell_angle_beta   90.00000000
_cell_angle_gamma   119.98762828
_symmetry_Int_Tables_number   1
_chemical_formula_structural   LiNi3P2
_chemical_formula_sum   'Li14 Ni42 P28'
_cell_volume   1008.11201035
_cell_formula_units_Z   14
loop_
 _symmetry_equiv_pos_site_id
 _symmetry_equiv_pos_as_xyz
  1  'x, y, z'
loop_
 _atom_site_type_symbol
 _atom_site_label
 _atom_site_symmetry_multiplicity
 _atom_site_fract_x
 _atom_site_fract_y
 _atom_site_fract_z
 _atom_site_occupancy
  Li  Li0  1  0.334000  0.834087  0.993570  1
  Li  Li1  1  0.334000  0.834087  0.506430  1
  Li  Li2  1  0.222185  0.551602  0.250000  1
  Li  Li3  1  0.879493  0.887912  0.750000  1
  Li  Li4  1  0.669709  0.668536  0.250000  1
  Li  Li5  1  0.663536  0.663794  0.750000  1
  Li  Li6  1  0.335527  0.334113  0.003529  1
  Li  Li7  1  0.335527  0.334113  0.496471  1
  Li  Li8  1  0.217756  0.050065  0.250000  1
  Li  Li9  1  0.896676  0.557372  0.750000  1
  Li  Li10  1  0.878388  0.388603  0.750000  1
  Li  Li11  1  0.668978  0.167694  0.250000  1
  Li  Li12  1  0.667477  0.167066  0.750000  1
  Li  Li13  1  0.896599  0.060331  0.250000  1
  Ni  Ni14  1  0.115803  0.917602  0.008285  1
  Ni  Ni15  1  0.115803  0.917602  0.491715  1
  Ni  Ni16  1  0.048466  0.804966  0.250000  1
  Ni  Ni17  1  0.045977  0.804555  0.750000  1
  Ni  Ni18  1  0.165683  0.640958  0.996032  1
  Ni  Ni19  1  0.165683  0.640958  0.503968  1
  Ni  Ni20  1  0.559648  0.974918  0.750000  1
  Ni  Ni21  1  0.566735  0.978117  0.250000  1
  Ni  Ni22  1  0.393508  0.719248  0.250000  1
  Ni  Ni23  1  0.387488  0.715315  0.750000  1
  Ni  Ni24  1  0.186276  0.538493  0.750000  1
  Ni  Ni25  1  0.119506  0.418938  0.005545  1
  Ni  Ni26  1  0.119506  0.418938  0.494455  1
  Ni  Ni27  1  0.048115  0.307034  0.750000  1
  Ni  Ni28  1  0.052206  0.306109  0.250000  1
  Ni  Ni29  1  0.717840  0.941425  0.992873  1
  Ni  Ni30  1  0.717840  0.941425  0.507127  1
  Ni  Ni31  1  0.630009  0.785759  0.000219  1
  Ni  Ni32  1  0.630009  0.785759  0.499781  1
  Ni  Ni33  1  0.431342  0.529671  0.001264  1
  Ni  Ni34  1  0.431342  0.529671  0.498736  1
  Ni  Ni35  1  0.884872  0.904116  0.250000  1
  Ni  Ni36  1  0.164283  0.141928  0.997035  1
  Ni  Ni37  1  0.164283  0.141928  0.502965  1
  Ni  Ni38  1  0.569308  0.476840  0.250000  1
  Ni  Ni39  1  0.562672  0.477495  0.750000  1
  Ni  Ni40  1  0.389276  0.216252  0.250000  1
  Ni  Ni41  1  0.389555  0.217314  0.750000  1
  Ni  Ni42  1  0.201697  0.040712  0.750000  1
  Ni  Ni43  1  0.942172  0.684966  0.003819  1
  Ni  Ni44  1  0.942172  0.684966  0.496181  1
  Ni  Ni45  1  0.714882  0.439375  0.000986  1
  Ni  Ni46  1  0.714882  0.439375  0.499014  1
  Ni  Ni47  1  0.628875  0.284103  0.000280  1
  Ni  Ni48  1  0.628875  0.284103  0.499720  1
  Ni  Ni49  1  0.915510  0.561837  0.250000  1
  Ni  Ni50  1  0.428583  0.028558  0.996544  1
  Ni  Ni51  1  0.428583  0.028558  0.503456  1
  Ni  Ni52  1  0.878978  0.392370  0.250000  1
  Ni  Ni53  1  0.942470  0.186555  0.999190  1
  Ni  Ni54  1  0.942470  0.186555  0.500810  1
  Ni  Ni55  1  0.908411  0.062856  0.750000  1
  P  P56  1  0.293444  0.936696  0.250000  1
  P  P57  1  0.282540  0.938100  0.750000  1
  P  P58  1  0.125435  0.704094  0.250000  1
  P  P59  1  0.125689  0.708326  0.750000  1
  P  P60  1  0.996558  0.499280  0.007458  1
  P  P61  1  0.996558  0.499280  0.492542  1
  P  P62  1  0.593924  0.858233  0.250000  1
  P  P63  1  0.579868  0.853021  0.750000  1
  P  P64  1  0.424587  0.650099  0.999692  1
  P  P65  1  0.424587  0.650099  0.500308  1
  P  P66  1  0.295766  0.437441  0.250000  1
  P  P67  1  0.285242  0.440783  0.750000  1
  P  P68  1  0.128795  0.207497  0.250000  1
  P  P69  1  0.121971  0.207255  0.750000  1
  P  P70  1  0.000672  0.001588  0.993364  1
  P  P71  1  0.000672  0.001588  0.506636  1
  P  P72  1  0.877463  0.788266  0.002586  1
  P  P73  1  0.877463  0.788266  0.497414  1
  P  P74  1  0.701439  0.561131  0.001791  1
  P  P75  1  0.701439  0.561131  0.498209  1
  P  P76  1  0.589502  0.353460  0.250000  1
  P  P77  1  0.583023  0.355824  0.750000  1
  P  P78  1  0.421382  0.148858  0.997370  1
  P  P79  1  0.421382  0.148858  0.502630  1
  P  P80  1  0.878888  0.289609  0.003242  1
  P  P81  1  0.878888  0.289609  0.496758  1
  P  P82  1  0.700691  0.062007  0.995669  1
  P  P83  1  0.700691  0.062007  0.504331  1
