# generated using pymatgen
data_NaSn4(PO4)3
_symmetry_space_group_name_H-M   'P 1'
_cell_length_a   10.06075403
_cell_length_b   10.06075403
_cell_length_c   10.06075403
_cell_angle_alpha   58.67374228
_cell_angle_beta   58.67374227
_cell_angle_gamma   58.67374227
_symmetry_Int_Tables_number   1
_chemical_formula_structural   NaSn4(PO4)3
_chemical_formula_sum   'Na2 Sn8 P6 O24'
_cell_volume   698.24805213
_cell_formula_units_Z   2
loop_
 _symmetry_equiv_pos_site_id
 _symmetry_equiv_pos_as_xyz
  1  'x, y, z'
loop_
 _atom_site_type_symbol
 _atom_site_label
 _atom_site_symmetry_multiplicity
 _atom_site_fract_x
 _atom_site_fract_y
 _atom_site_fract_z
 _atom_site_occupancy
  O  O0  1  0.765873  0.118714  0.295630  1
  O  O1  1  0.795630  0.618714  0.265873  1
  O  O2  1  0.379001  0.854643  0.809551  1
  O  O3  1  0.854643  0.809551  0.379001  1
  O  O4  1  0.809551  0.379001  0.854643  1
  O  O5  1  0.309551  0.354643  0.879001  1
  O  O6  1  0.354643  0.879001  0.309551  1
  O  O7  1  0.879001  0.309551  0.354643  1
  O  O8  1  0.244139  0.094045  0.436028  1
  O  O9  1  0.094045  0.436028  0.244139  1
  O  O10  1  0.436028  0.244139  0.094045  1
  O  O11  1  0.936028  0.594045  0.744139  1
  O  O12  1  0.618714  0.265873  0.795630  1
  O  O13  1  0.744139  0.936028  0.594045  1
  O  O14  1  0.931304  0.369403  0.028515  1
  O  O15  1  0.028515  0.931304  0.369403  1
  O  O16  1  0.369403  0.028515  0.931304  1
  O  O17  1  0.869403  0.431304  0.528515  1
  O  O18  1  0.528515  0.869403  0.431304  1
  O  O19  1  0.431304  0.528515  0.869403  1
  O  O20  1  0.594045  0.744139  0.936028  1
  O  O21  1  0.295630  0.765873  0.118714  1
  O  O22  1  0.118714  0.295630  0.765873  1
  O  O23  1  0.265873  0.795630  0.618714  1
  Na  Na24  1  0.661306  0.661306  0.661306  1
  Na  Na25  1  0.161306  0.161306  0.161306  1
  P  P26  1  0.909767  0.449607  0.349295  1
  P  P27  1  0.349295  0.909767  0.449607  1
  P  P28  1  0.449607  0.349295  0.909767  1
  P  P29  1  0.409767  0.849295  0.949607  1
  P  P30  1  0.849295  0.949607  0.409767  1
  P  P31  1  0.949607  0.409767  0.849295  1
  Sn  Sn32  1  0.743430  0.875284  0.208864  1
  Sn  Sn33  1  0.208864  0.743430  0.875284  1
  Sn  Sn34  1  0.875284  0.208864  0.743430  1
  Sn  Sn35  1  0.375284  0.243430  0.708864  1
  Sn  Sn36  1  0.243430  0.708864  0.375284  1
  Sn  Sn37  1  0.708864  0.375284  0.243430  1
  Sn  Sn38  1  0.310434  0.310434  0.310434  1
  Sn  Sn39  1  0.810434  0.810434  0.810434  1
