# generated using pymatgen
data_La16Mg2Ga14O47
_symmetry_space_group_name_H-M   'P 1'
_cell_length_a   5.53601071
_cell_length_b   11.10362259
_cell_length_c   22.09568639
_cell_angle_alpha   60.75348080
_cell_angle_beta   60.88743854
_cell_angle_gamma   60.67469171
_symmetry_Int_Tables_number   1
_chemical_formula_structural   La16Mg2Ga14O47
_chemical_formula_sum   'La16 Mg2 Ga14 O47'
_cell_volume   977.12106160
_cell_formula_units_Z   1
loop_
 _symmetry_equiv_pos_site_id
 _symmetry_equiv_pos_as_xyz
  1  'x, y, z'
loop_
 _atom_site_type_symbol
 _atom_site_label
 _atom_site_symmetry_multiplicity
 _atom_site_fract_x
 _atom_site_fract_y
 _atom_site_fract_z
 _atom_site_occupancy
  La  La0  1  0.252201  0.111596  0.062766  1
  La  La1  1  0.246996  0.125697  0.311187  1
  La  La2  1  0.257473  0.633817  0.062796  1
  La  La3  1  0.249042  0.124486  0.563368  1
  La  La4  1  0.244593  0.627398  0.312992  1
  La  La5  1  0.722776  0.375024  0.195022  1
  La  La6  1  0.254890  0.124161  0.811968  1
  La  La7  1  0.250233  0.624775  0.562606  1
  La  La8  1  0.742908  0.877746  0.188399  1
  La  La9  1  0.751388  0.375655  0.437173  1
  La  La10  1  0.251906  0.627301  0.810180  1
  La  La11  1  0.749553  0.374354  0.688440  1
  La  La12  1  0.748461  0.875735  0.437151  1
  La  La13  1  0.750100  0.374902  0.936364  1
  La  La14  1  0.749118  0.875221  0.687827  1
  La  La15  1  0.755281  0.871210  0.937717  1
  Mg  Mg16  1  0.525785  0.240759  0.127833  1
  Mg  Mg17  1  0.985030  0.509892  0.993499  1
  Ga  Ga18  1  0.995059  0.004018  0.998474  1
  Ga  Ga19  1  0.496140  0.248652  0.376932  1
  Ga  Ga20  1  0.508925  0.747338  0.125472  1
  Ga  Ga21  1  0.500067  0.250443  0.624746  1
  Ga  Ga22  1  0.499294  0.750424  0.375266  1
  Ga  Ga23  1  0.991426  0.500986  0.249861  1
  Ga  Ga24  1  0.500971  0.248705  0.876963  1
  Ga  Ga25  1  0.501308  0.750240  0.624442  1
  Ga  Ga26  1  -0.000631  0.500024  0.500451  1
  Ga  Ga27  1  0.005328  0.999576  0.248731  1
  Ga  Ga28  1  0.501011  0.747653  0.875553  1
  Ga  Ga29  1  0.000108  0.499889  0.750059  1
  Ga  Ga30  1  0.999142  0.999833  0.500186  1
  Ga  Ga31  1  0.998352  0.000561  0.750185  1
  O  O32  1  0.308332  0.094930  0.185061  1
  O  O33  1  0.213694  0.347768  0.201672  1
  O  O34  1  0.739064  0.162772  0.042548  1
  O  O35  1  0.181718  0.875172  0.079930  1
  O  O36  1  0.187814  0.372285  0.326751  1
  O  O37  1  0.671773  0.412842  0.065550  1
  O  O38  1  0.318143  0.089979  0.438059  1
  O  O39  1  0.318923  0.588891  0.189190  1
  O  O40  1  0.827734  0.113958  0.173193  1
  O  O41  1  0.246760  0.340020  0.455050  1
  O  O42  1  0.257499  0.836858  0.204962  1
  O  O43  1  0.743150  0.159980  0.296397  1
  O  O44  1  0.762752  0.653746  0.049576  1
  O  O45  1  0.179397  0.374872  0.580046  1
  O  O46  1  0.181144  0.877495  0.329175  1
  O  O47  1  0.670906  0.411033  0.313463  1
  O  O48  1  0.685567  0.907922  0.062234  1
  O  O49  1  0.319124  0.090305  0.687593  1
  O  O50  1  0.320007  0.589893  0.437286  1
  O  O51  1  0.819878  0.629541  0.170916  1
  O  O52  1  0.822056  0.125366  0.419407  1
  O  O53  1  0.250517  0.340805  0.704844  1
  O  O54  1  0.248957  0.839922  0.455057  1
  O  O55  1  0.748423  0.160990  0.544496  1
  O  O56  1  0.748754  0.659815  0.295871  1
  O  O57  1  0.179709  0.875235  0.579939  1
  O  O58  1  0.184485  0.376363  0.830516  1
  O  O59  1  0.680002  0.410206  0.561891  1
  O  O60  1  0.680175  0.909090  0.313359  1
  O  O61  1  0.319480  0.590505  0.687460  1
  O  O62  1  0.321480  0.089142  0.938111  1
  O  O63  1  0.819978  0.126364  0.669307  1
  O  O64  1  0.819306  0.624336  0.420444  1
  O  O65  1  0.251293  0.841671  0.703896  1
  O  O66  1  0.266005  0.331349  0.960779  1
  O  O67  1  0.749342  0.660722  0.544523  1
  O  O68  1  0.749129  0.160200  0.794775  1
  O  O69  1  0.179986  0.871450  0.830617  1
  O  O70  1  0.680209  0.910365  0.562062  1
  O  O71  1  0.682159  0.409046  0.813115  1
  O  O72  1  0.330136  0.585297  0.943013  1
  O  O73  1  0.820608  0.624235  0.669439  1
  O  O74  1  0.828283  0.119807  0.917624  1
  O  O75  1  0.251801  0.843029  0.954387  1
  O  O76  1  0.745417  0.659907  0.793902  1
  O  O77  1  0.678891  0.912686  0.809630  1
  O  O78  1  0.822804  0.638767  0.914024  1
