# generated using pymatgen
data_H3CSClO
_symmetry_space_group_name_H-M   'P 1'
_cell_length_a   5.41010209
_cell_length_b   8.53206880
_cell_length_c   8.93556997
_cell_angle_alpha   90.00000000
_cell_angle_beta   90.04757744
_cell_angle_gamma   90.00000000
_symmetry_Int_Tables_number   1
_chemical_formula_structural   H3CSClO
_chemical_formula_sum   'H12 C4 S4 Cl4 O4'
_cell_volume   412.46007803
_cell_formula_units_Z   4
loop_
 _symmetry_equiv_pos_site_id
 _symmetry_equiv_pos_as_xyz
  1  'x, y, z'
loop_
 _atom_site_type_symbol
 _atom_site_label
 _atom_site_symmetry_multiplicity
 _atom_site_fract_x
 _atom_site_fract_y
 _atom_site_fract_z
 _atom_site_occupancy
  H  H0  1  0.428802  0.229209  0.424451  1
  H  H1  1  0.928802  0.270791  0.924451  1
  H  H2  1  0.571198  0.770791  0.575549  1
  H  H3  1  0.071198  0.729209  0.075549  1
  H  H4  1  0.291010  0.037134  0.454398  1
  H  H5  1  0.791010  0.462866  0.954398  1
  H  H6  1  0.708990  0.962866  0.545602  1
  H  H7  1  0.208990  0.537134  0.045602  1
  H  H8  1  0.096207  0.203460  0.414368  1
  H  H9  1  0.596207  0.296540  0.914368  1
  H  H10  1  0.903793  0.796540  0.585632  1
  H  H11  1  0.403793  0.703460  0.085632  1
  C  C12  1  0.277900  0.149332  0.394812  1
  C  C13  1  0.777900  0.350668  0.894812  1
  C  C14  1  0.722100  0.850668  0.605188  1
  C  C15  1  0.222100  0.649332  0.105188  1
  S  S16  1  0.291766  0.109141  0.197442  1
  S  S17  1  0.791766  0.390859  0.697442  1
  S  S18  1  0.708234  0.890859  0.802558  1
  S  S19  1  0.208234  0.609141  0.302558  1
  Cl  Cl20  1  0.664200  0.016341  0.201540  1
  Cl  Cl21  1  0.164200  0.483659  0.701540  1
  Cl  Cl22  1  0.335800  0.983659  0.798460  1
  Cl  Cl23  1  0.835800  0.516341  0.298460  1
  O  O24  1  0.297403  0.263239  0.120885  1
  O  O25  1  0.797403  0.236761  0.620885  1
  O  O26  1  0.702597  0.736761  0.879115  1
  O  O27  1  0.202597  0.763239  0.379115  1
