# generated using pymatgen
data_Hg8Br3O4
_symmetry_space_group_name_H-M   'P 1'
_cell_length_a   6.48858380
_cell_length_b   7.77578013
_cell_length_c   41.59163004
_cell_angle_alpha   96.40101486
_cell_angle_beta   90.00000000
_cell_angle_gamma   90.00000000
_symmetry_Int_Tables_number   1
_chemical_formula_structural   Hg8Br3O4
_chemical_formula_sum   'Hg32 Br12 O16'
_cell_volume   2085.37393559
_cell_formula_units_Z   4
loop_
 _symmetry_equiv_pos_site_id
 _symmetry_equiv_pos_as_xyz
  1  'x, y, z'
loop_
 _atom_site_type_symbol
 _atom_site_label
 _atom_site_symmetry_multiplicity
 _atom_site_fract_x
 _atom_site_fract_y
 _atom_site_fract_z
 _atom_site_occupancy
  Hg  Hg0  1  0.667455  0.582887  0.213800  1
  Hg  Hg1  1  0.193566  0.944781  0.199910  1
  Hg  Hg2  1  0.860433  0.595630  0.385862  1
  Hg  Hg3  1  0.444922  0.239100  0.171241  1
  Hg  Hg4  1  0.167455  0.917113  0.286200  1
  Hg  Hg5  1  0.569845  0.550162  0.654209  1
  Hg  Hg6  1  0.287972  0.505865  0.109365  1
  Hg  Hg7  1  0.639567  0.095630  0.885862  1
  Hg  Hg8  1  0.430155  0.449838  0.345791  1
  Hg  Hg9  1  0.139567  0.404370  0.614138  1
  Hg  Hg10  1  0.712028  0.494135  0.890635  1
  Hg  Hg11  1  0.055078  0.739100  0.671241  1
  Hg  Hg12  1  0.944922  0.260900  0.328759  1
  Hg  Hg13  1  0.069845  -0.050162  0.845791  1
  Hg  Hg14  1  0.810153  0.520839  0.489581  1
  Hg  Hg15  1  0.689847  0.020839  -0.010419  1
  Hg  Hg16  1  0.225961  0.871931  0.757869  1
  Hg  Hg17  1  0.774039  0.128069  0.242131  1
  Hg  Hg18  1  0.189847  0.479161  0.510419  1
  Hg  Hg19  1  0.693566  0.555219  0.300090  1
  Hg  Hg20  1  0.930155  0.050162  0.154209  1
  Hg  Hg21  1  0.360433  -0.095630  0.114138  1
  Hg  Hg22  1  0.832545  0.082887  0.713800  1
  Hg  Hg23  1  0.806434  0.055219  0.800090  1
  Hg  Hg24  1  0.274039  0.371931  0.257869  1
  Hg  Hg25  1  0.725961  0.628069  0.742131  1
  Hg  Hg26  1  0.555078  0.760900  0.828759  1
  Hg  Hg27  1  0.310153  -0.020839  0.010419  1
  Hg  Hg28  1  0.787972  -0.005865  0.390635  1
  Hg  Hg29  1  0.306434  0.444781  0.699910  1
  Hg  Hg30  1  0.212028  0.005865  0.609365  1
  Hg  Hg31  1  0.332545  0.417113  0.786200  1
  Br  Br32  1  0.240537  0.713376  0.885381  1
  Br  Br33  1  0.009892  0.091576  0.957423  1
  Br  Br34  1  0.847750  0.416011  0.797429  1
  Br  Br35  1  0.490108  0.591576  0.457423  1
  Br  Br36  1  0.259463  0.213376  0.385381  1
  Br  Br37  1  -0.009892  0.908424  0.042577  1
  Br  Br38  1  0.759463  0.286624  0.114619  1
  Br  Br39  1  0.347750  0.083989  0.702571  1
  Br  Br40  1  0.152250  0.583989  0.202571  1
  Br  Br41  1  0.509892  0.408424  0.542577  1
  Br  Br42  1  0.740537  0.786624  0.614619  1
  Br  Br43  1  0.652250  0.916011  0.297429  1
  O  O44  1  0.378909  0.602343  0.752905  1
  O  O45  1  0.450924  0.127604  0.409627  1
  O  O46  1  0.666873  0.808202  0.189527  1
  O  O47  1  0.333127  0.191798  0.810473  1
  O  O48  1  0.440632  0.061778  0.790376  1
  O  O49  1  0.621091  0.397657  0.247095  1
  O  O50  1  0.950924  0.372396  0.090373  1
  O  O51  1  0.833127  0.308202  0.689527  1
  O  O52  1  0.166873  0.691798  0.310473  1
  O  O53  1  0.559368  0.938222  0.209624  1
  O  O54  1  0.549076  0.872396  0.590373  1
  O  O55  1  0.940632  0.438222  0.709624  1
  O  O56  1  0.878909  0.897657  0.747095  1
  O  O57  1  0.121091  0.102343  0.252905  1
  O  O58  1  0.059368  0.561778  0.290376  1
  O  O59  1  0.049076  0.627604  0.909627  1
