# generated using pymatgen
data_K2Fe2P2O7F2
_symmetry_space_group_name_H-M   'P 1'
_cell_length_a   7.31031887
_cell_length_b   11.11278956
_cell_length_c   11.89247913
_cell_angle_alpha   90.00000000
_cell_angle_beta   90.00000000
_cell_angle_gamma   90.00000000
_symmetry_Int_Tables_number   1
_chemical_formula_structural   K2Fe2P2O7F2
_chemical_formula_sum   'K8 Fe8 P8 O28 F8'
_cell_volume   966.12163840
_cell_formula_units_Z   4
loop_
 _symmetry_equiv_pos_site_id
 _symmetry_equiv_pos_as_xyz
  1  'x, y, z'
loop_
 _atom_site_type_symbol
 _atom_site_label
 _atom_site_symmetry_multiplicity
 _atom_site_fract_x
 _atom_site_fract_y
 _atom_site_fract_z
 _atom_site_occupancy
  K  K0  1  0.572824  0.951214  0.815212  1
  K  K1  1  0.927176  0.451214  0.684788  1
  K  K2  1  0.927176  0.951214  0.315212  1
  K  K3  1  0.572824  0.451214  0.184788  1
  K  K4  1  0.072824  0.048786  0.684788  1
  K  K5  1  0.427176  0.048786  0.184788  1
  K  K6  1  0.072824  0.548786  0.315212  1
  K  K7  1  0.427176  0.548786  0.815212  1
  Fe  Fe8  1  0.000000  0.750000  0.884817  1
  Fe  Fe9  1  0.500000  0.250000  0.615183  1
  Fe  Fe10  1  0.500000  0.750000  0.384817  1
  Fe  Fe11  1  0.000000  0.500000  0.000000  1
  Fe  Fe12  1  0.000000  0.000000  0.000000  1
  Fe  Fe13  1  0.000000  0.250000  0.115183  1
  Fe  Fe14  1  0.500000  0.000000  0.500000  1
  Fe  Fe15  1  0.500000  0.500000  0.500000  1
  P  P16  1  0.194634  0.718093  0.584446  1
  P  P17  1  0.694634  0.781907  0.084446  1
  P  P18  1  0.694634  0.281907  0.915554  1
  P  P19  1  0.305366  0.218093  0.915554  1
  P  P20  1  0.194634  0.218093  0.415554  1
  P  P21  1  0.805366  0.281907  0.415554  1
  P  P22  1  0.305366  0.718093  0.084446  1
  P  P23  1  0.805366  0.781907  0.584446  1
  O  O24  1  0.725464  0.706510  0.981910  1
  O  O25  1  0.774536  0.706510  0.481910  1
  O  O26  1  0.274536  0.293490  0.018090  1
  O  O27  1  0.440809  0.083546  0.634375  1
  O  O28  1  0.225464  0.293490  0.518090  1
  O  O29  1  0.277487  0.084733  0.914938  1
  O  O30  1  0.000000  0.250000  0.358059  1
  O  O31  1  0.000000  0.750000  0.641941  1
  O  O32  1  0.559191  0.416454  0.634375  1
  O  O33  1  0.277487  0.584733  0.085062  1
  O  O34  1  0.222513  0.584733  0.585062  1
  O  O35  1  0.722513  0.415267  0.914938  1
  O  O36  1  0.722513  0.915267  0.085062  1
  O  O37  1  0.940809  0.916454  0.865625  1
  O  O38  1  0.725464  0.206510  0.018090  1
  O  O39  1  0.440809  0.583546  0.365625  1
  O  O40  1  0.222513  0.084733  0.414938  1
  O  O41  1  0.559191  0.916454  0.365625  1
  O  O42  1  0.274536  0.793490  0.981910  1
  O  O43  1  0.225464  0.793490  0.481910  1
  O  O44  1  0.774536  0.206510  0.518090  1
  O  O45  1  0.500000  0.250000  0.858059  1
  O  O46  1  0.777487  0.415267  0.414938  1
  O  O47  1  0.940809  0.416454  0.134375  1
  O  O48  1  0.059191  0.083546  0.134375  1
  O  O49  1  0.777487  0.915267  0.585062  1
  O  O50  1  0.059191  0.583546  0.865625  1
  O  O51  1  0.500000  0.750000  0.141941  1
  F  F52  1  0.315278  0.773325  0.685053  1
  F  F53  1  0.684722  0.226675  0.314947  1
  F  F54  1  0.184722  0.273325  0.814947  1
  F  F55  1  0.315278  0.273325  0.314947  1
  F  F56  1  0.815278  0.726675  0.185053  1
  F  F57  1  0.184722  0.773325  0.185053  1
  F  F58  1  0.684722  0.726675  0.685053  1
  F  F59  1  0.815278  0.226675  0.814947  1
