# generated using pymatgen
data_K2CuH8(CO3)4
_symmetry_space_group_name_H-M   'P 1'
_cell_length_a   3.89233998
_cell_length_b   10.96164865
_cell_length_c   14.87618484
_cell_angle_alpha   90.00000000
_cell_angle_beta   90.00000000
_cell_angle_gamma   93.39160407
_symmetry_Int_Tables_number   1
_chemical_formula_structural   K2CuH8(CO3)4
_chemical_formula_sum   'K4 Cu2 H16 C8 O24'
_cell_volume   633.60249786
_cell_formula_units_Z   2
loop_
 _symmetry_equiv_pos_site_id
 _symmetry_equiv_pos_as_xyz
  1  'x, y, z'
loop_
 _atom_site_type_symbol
 _atom_site_label
 _atom_site_symmetry_multiplicity
 _atom_site_fract_x
 _atom_site_fract_y
 _atom_site_fract_z
 _atom_site_occupancy
  K  K0  1  0.220099  0.486760  0.631218  1
  K  K1  1  0.779901  0.513240  0.368782  1
  K  K2  1  0.720099  0.986760  0.868782  1
  K  K3  1  0.279901  0.013240  0.131218  1
  Cu  Cu4  1  0.500000  0.000000  0.500000  1
  Cu  Cu5  1  0.000000  0.500000  0.000000  1
  H  H6  1  0.212515  0.237638  0.874605  1
  H  H7  1  0.101881  0.978286  0.688883  1
  H  H8  1  0.283125  0.298052  0.271730  1
  H  H9  1  0.216875  0.201948  0.771730  1
  H  H10  1  0.783125  0.798052  0.228270  1
  H  H11  1  0.601881  0.478286  0.811117  1
  H  H12  1  0.898119  0.021714  0.311117  1
  H  H13  1  0.828547  0.154212  0.285727  1
  H  H14  1  0.287485  0.262362  0.374605  1
  H  H15  1  0.716875  0.701948  0.728270  1
  H  H16  1  0.671453  0.345788  0.785727  1
  H  H17  1  0.787485  0.762362  0.125395  1
  H  H18  1  0.398119  0.521714  0.188883  1
  H  H19  1  0.712515  0.737638  0.625395  1
  H  H20  1  0.328547  0.654212  0.214273  1
  H  H21  1  0.171453  0.845788  0.714273  1
  C  C22  1  0.121521  0.825922  0.401887  1
  C  C23  1  0.814189  0.255251  0.025222  1
  C  C24  1  0.685811  0.244749  0.525222  1
  C  C25  1  0.378479  0.674078  0.901887  1
  C  C26  1  0.878479  0.174078  0.598113  1
  C  C27  1  0.185811  0.744749  0.974778  1
  C  C28  1  0.314189  0.755251  0.474778  1
  C  C29  1  0.621521  0.325922  0.098113  1
  O  O30  1  0.499469  0.175609  0.471142  1
  O  O31  1  0.561019  0.731062  0.845302  1
  O  O32  1  0.438981  0.268938  0.154698  1
  O  O33  1  0.665070  0.443873  0.093532  1
  O  O34  1  0.785564  0.141841  0.021459  1
  O  O35  1  0.833458  0.689774  0.670426  1
  O  O36  1  0.299401  0.570306  0.236980  1
  O  O37  1  0.714436  0.358159  0.521459  1
  O  O38  1  0.666542  0.810226  0.170426  1
  O  O39  1  0.500531  0.824391  0.528858  1
  O  O40  1  0.166542  0.310226  0.329574  1
  O  O41  1  0.214436  0.858159  0.978541  1
  O  O42  1  0.700599  0.429694  0.763020  1
  O  O43  1  0.333458  0.189774  0.829574  1
  O  O44  1  0.200599  0.929694  0.736980  1
  O  O45  1  0.334930  0.556127  0.906468  1
  O  O46  1  0.061019  0.231062  0.654698  1
  O  O47  1  0.799401  0.070306  0.263020  1
  O  O48  1  0.000531  0.324391  0.971142  1
  O  O49  1  0.165070  0.943873  0.406468  1
  O  O50  1  0.938981  0.768938  0.345302  1
  O  O51  1  0.999469  0.675609  0.028858  1
  O  O52  1  0.285564  0.641841  0.478541  1
  O  O53  1  0.834930  0.056127  0.593532  1
