# generated using pymatgen
data_SiO2
_symmetry_space_group_name_H-M   'P 1'
_cell_length_a   20.03578554
_cell_length_b   7.61392694
_cell_length_c   9.13074034
_cell_angle_alpha   90.00000000
_cell_angle_beta   90.00000000
_cell_angle_gamma   90.00000000
_symmetry_Int_Tables_number   1
_chemical_formula_structural   SiO2
_chemical_formula_sum   'Si24 O48'
_cell_volume   1392.90363614
_cell_formula_units_Z   24
loop_
 _symmetry_equiv_pos_site_id
 _symmetry_equiv_pos_as_xyz
  1  'x, y, z'
loop_
 _atom_site_type_symbol
 _atom_site_label
 _atom_site_symmetry_multiplicity
 _atom_site_fract_x
 _atom_site_fract_y
 _atom_site_fract_z
 _atom_site_occupancy
  Si  Si0  1  0.053228  0.203836  0.290232  1
  Si  Si1  1  0.553228  0.796164  0.709768  1
  Si  Si2  1  0.946772  0.203836  0.709768  1
  Si  Si3  1  0.446772  0.796164  0.290232  1
  Si  Si4  1  0.946772  0.796164  0.709768  1
  Si  Si5  1  0.446772  0.203836  0.290232  1
  Si  Si6  1  0.053228  0.796164  0.290232  1
  Si  Si7  1  0.553228  0.203836  0.709768  1
  Si  Si8  1  0.095652  0.203819  0.617848  1
  Si  Si9  1  0.595652  0.796181  0.382152  1
  Si  Si10  1  0.904348  0.203819  0.382152  1
  Si  Si11  1  0.404348  0.796181  0.617848  1
  Si  Si12  1  0.904348  0.796181  0.382152  1
  Si  Si13  1  0.404348  0.203819  0.617848  1
  Si  Si14  1  0.095652  0.796181  0.617848  1
  Si  Si15  1  0.595652  0.203819  0.382152  1
  Si  Si16  1  0.075013  0.500000  0.064603  1
  Si  Si17  1  0.575013  0.500000  0.935397  1
  Si  Si18  1  0.924987  0.500000  0.935397  1
  Si  Si19  1  0.424987  0.500000  0.064603  1
  Si  Si20  1  0.671300  0.500000  0.217683  1
  Si  Si21  1  0.171300  0.500000  0.782317  1
  Si  Si22  1  0.328700  0.500000  0.782317  1
  Si  Si23  1  0.828700  0.500000  0.217683  1
  O  O24  1  0.976605  0.266958  0.318900  1
  O  O25  1  0.476605  0.733043  0.681100  1
  O  O26  1  0.023395  0.266958  0.681100  1
  O  O27  1  0.523395  0.733043  0.318900  1
  O  O28  1  0.023395  0.733043  0.681100  1
  O  O29  1  0.523395  0.266958  0.318900  1
  O  O30  1  0.976605  0.733043  0.318900  1
  O  O31  1  0.476605  0.266958  0.681100  1
  O  O32  1  0.053836  0.000000  0.236548  1
  O  O33  1  0.553836  0.000000  0.763452  1
  O  O34  1  0.946164  0.000000  0.763452  1
  O  O35  1  0.446164  0.000000  0.236548  1
  O  O36  1  0.096272  0.223624  0.440361  1
  O  O37  1  0.596272  0.776376  0.559639  1
  O  O38  1  0.903728  0.223624  0.559639  1
  O  O39  1  0.403728  0.776376  0.440361  1
  O  O40  1  0.903728  0.776376  0.559639  1
  O  O41  1  0.403728  0.223624  0.440361  1
  O  O42  1  0.096272  0.776376  0.440361  1
  O  O43  1  0.596272  0.223624  0.559639  1
  O  O44  1  0.086376  0.325282  0.164255  1
  O  O45  1  0.586376  0.674718  0.835745  1
  O  O46  1  0.913624  0.325282  0.835745  1
  O  O47  1  0.413624  0.674718  0.164255  1
  O  O48  1  0.913624  0.674718  0.835745  1
  O  O49  1  0.413624  0.325282  0.164255  1
  O  O50  1  0.086376  0.674718  0.164255  1
  O  O51  1  0.586376  0.325282  0.835745  1
  O  O52  1  0.153892  0.325204  0.686785  1
  O  O53  1  0.653892  0.674796  0.313215  1
  O  O54  1  0.846108  0.325204  0.313215  1
  O  O55  1  0.346108  0.674796  0.686785  1
  O  O56  1  0.846108  0.674796  0.313215  1
  O  O57  1  0.346108  0.325204  0.686785  1
  O  O58  1  0.153892  0.674796  0.686785  1
  O  O59  1  0.653892  0.325204  0.313215  1
  O  O60  1  0.108895  0.000000  0.662714  1
  O  O61  1  0.608895  0.000000  0.337286  1
  O  O62  1  0.891105  0.000000  0.337286  1
  O  O63  1  0.391105  0.000000  0.662714  1
  O  O64  1  0.000000  0.500000  0.000000  1
  O  O65  1  0.500000  0.500000  0.000000  1
  O  O66  1  0.128614  0.500000  0.932899  1
  O  O67  1  0.628614  0.500000  0.067101  1
  O  O68  1  0.871386  0.500000  0.067101  1
  O  O69  1  0.371386  0.500000  0.932899  1
  O  O70  1  0.750000  0.500000  0.177754  1
  O  O71  1  0.250000  0.500000  0.822246  1
