# generated using pymatgen
data_H9BrO4
_symmetry_space_group_name_H-M   'P 1'
_cell_length_a   7.23638878
_cell_length_b   11.38618986
_cell_length_c   7.79476294
_cell_angle_alpha   90.00000000
_cell_angle_beta   110.32860237
_cell_angle_gamma   90.00000000
_symmetry_Int_Tables_number   1
_chemical_formula_structural   H9BrO4
_chemical_formula_sum   'H36 Br4 O16'
_cell_volume   602.24662837
_cell_formula_units_Z   4
loop_
 _symmetry_equiv_pos_site_id
 _symmetry_equiv_pos_as_xyz
  1  'x, y, z'
loop_
 _atom_site_type_symbol
 _atom_site_label
 _atom_site_symmetry_multiplicity
 _atom_site_fract_x
 _atom_site_fract_y
 _atom_site_fract_z
 _atom_site_occupancy
  H  H0  1  0.342468  0.315972  0.055098  1
  H  H1  1  0.345192  0.177453  0.075969  1
  H  H2  1  0.657532  0.815972  0.944902  1
  H  H3  1  0.654808  0.677453  0.924031  1
  H  H4  1  0.948822  0.169452  0.122171  1
  H  H5  1  0.074261  0.253540  0.033782  1
  H  H6  1  0.051178  0.669452  0.877829  1
  H  H7  1  0.925739  0.753540  0.966218  1
  H  H8  1  0.801962  0.256252  0.949997  1
  H  H9  1  0.659175  0.261727  0.684807  1
  H  H10  1  0.554697  0.179942  0.789190  1
  H  H11  1  0.445303  0.679942  0.210810  1
  H  H12  1  0.198038  0.756252  0.050003  1
  H  H13  1  0.340825  0.761727  0.315193  1
  H  H14  1  0.685115  0.315504  0.417179  1
  H  H15  1  0.638383  0.180435  0.423643  1
  H  H16  1  0.314885  0.815504  0.582821  1
  H  H17  1  0.361617  0.680435  0.576357  1
  H  H18  1  0.142923  0.145215  0.502177  1
  H  H19  1  0.976228  0.230592  0.519570  1
  H  H20  1  0.857077  0.645215  0.497823  1
  H  H21  1  0.023772  0.730592  0.480430  1
  H  H22  1  0.347414  0.403397  0.387585  1
  H  H23  1  0.194286  0.319105  0.479805  1
  H  H24  1  0.652586  0.903397  0.612415  1
  H  H25  1  0.805714  0.819105  0.520196  1
  H  H26  1  0.440938  0.510475  0.714349  1
  H  H27  1  0.641120  0.551518  0.698196  1
  H  H28  1  0.358880  0.051518  0.301804  1
  H  H29  1  0.559062  0.010475  0.285651  1
  H  H30  1  0.990673  0.503284  0.067820  1
  H  H31  1  0.024321  0.602117  0.217633  1
  H  H32  1  0.123397  0.447716  0.336089  1
  H  H33  1  0.975679  0.102117  0.782367  1
  H  H34  1  0.009327  0.003284  0.932180  1
  H  H35  1  0.876603  0.947716  0.663911  1
  Br  Br36  1  0.969669  0.500444  0.762851  1
  Br  Br37  1  0.030331  0.000444  0.237149  1
  Br  Br38  1  0.530353  0.464302  0.232961  1
  Br  Br39  1  0.469647  0.964302  0.767039  1
  O  O40  1  0.263117  0.243783  0.009580  1
  O  O41  1  0.736883  0.743783  0.990420  1
  O  O42  1  0.940897  0.249688  0.063809  1
  O  O43  1  0.059103  0.749688  0.936191  1
  O  O44  1  0.626206  0.255360  0.798904  1
  O  O45  1  0.373794  0.755360  0.201096  1
  O  O46  1  0.728015  0.244003  0.495420  1
  O  O47  1  0.271985  0.744003  0.504580  1
  O  O48  1  0.121678  0.222624  0.547102  1
  O  O49  1  0.878322  0.722624  0.452898  1
  O  O50  1  0.238172  0.403084  0.439414  1
  O  O51  1  0.761828  0.903084  0.560586  1
  O  O52  1  0.519562  0.580795  0.716264  1
  O  O53  1  0.480438  0.080795  0.283736  1
  O  O54  1  0.993648  0.518830  0.194096  1
  O  O55  1  0.006352  0.018830  0.805904  1
