# generated using pymatgen
data_AsN9
_symmetry_space_group_name_H-M   'P 1'
_cell_length_a   7.06355647
_cell_length_b   7.40774032
_cell_length_c   11.84318815
_cell_angle_alpha   90.00000000
_cell_angle_beta   90.00000000
_cell_angle_gamma   107.22929515
_symmetry_Int_Tables_number   1
_chemical_formula_structural   AsN9
_chemical_formula_sum   'As4 N36'
_cell_volume   591.88719060
_cell_formula_units_Z   4
loop_
 _symmetry_equiv_pos_site_id
 _symmetry_equiv_pos_as_xyz
  1  'x, y, z'
loop_
 _atom_site_type_symbol
 _atom_site_label
 _atom_site_symmetry_multiplicity
 _atom_site_fract_x
 _atom_site_fract_y
 _atom_site_fract_z
 _atom_site_occupancy
  As  As0  1  0.621654  0.286800  0.446641  1
  As  As1  1  0.378346  0.713200  0.553359  1
  As  As2  1  0.878346  0.713200  0.946641  1
  As  As3  1  0.121654  0.286800  0.053359  1
  N  N4  1  0.149506  0.172784  0.197751  1
  N  N5  1  0.482104  0.477347  0.816832  1
  N  N6  1  0.978095  0.974329  0.777386  1
  N  N7  1  0.078507  0.219229  0.478773  1
  N  N8  1  0.091548  0.113632  0.749403  1
  N  N9  1  0.863412  0.110767  0.017978  1
  N  N10  1  0.977908  0.499739  0.779314  1
  N  N11  1  0.363412  0.110767  0.482022  1
  N  N12  1  0.982104  0.477347  0.683168  1
  N  N13  1  0.523625  0.486341  0.382600  1
  N  N14  1  0.921493  0.780771  0.521227  1
  N  N15  1  0.649506  0.172784  0.302249  1
  N  N16  1  0.022092  0.500261  0.220686  1
  N  N17  1  0.976375  0.513659  0.882600  1
  N  N18  1  0.850494  0.827216  0.802249  1
  N  N19  1  0.908452  0.886368  0.250597  1
  N  N20  1  0.280480  0.828528  0.978961  1
  N  N21  1  0.023625  0.486341  0.117400  1
  N  N22  1  0.136588  0.889233  0.982022  1
  N  N23  1  0.478095  0.974329  0.722614  1
  N  N24  1  0.476375  0.513659  0.617400  1
  N  N25  1  0.021905  0.025671  0.222614  1
  N  N26  1  0.636588  0.889233  0.517978  1
  N  N27  1  0.350494  0.827216  0.697751  1
  N  N28  1  0.017896  0.522653  0.316832  1
  N  N29  1  0.780480  0.828528  0.521039  1
  N  N30  1  0.421493  0.780771  0.978773  1
  N  N31  1  0.477908  0.499739  0.720686  1
  N  N32  1  0.591548  0.113632  0.750597  1
  N  N33  1  0.521905  0.025671  0.277386  1
  N  N34  1  0.408452  0.886368  0.249403  1
  N  N35  1  0.219520  0.171472  0.478961  1
  N  N36  1  0.522092  0.500261  0.279314  1
  N  N37  1  0.517896  0.522653  0.183168  1
  N  N38  1  0.578507  0.219229  0.021227  1
  N  N39  1  0.719520  0.171472  0.021039  1
