# generated using pymatgen
data_PH15C18INCl2
_symmetry_space_group_name_H-M   'P 1'
_cell_length_a   8.83556620
_cell_length_b   14.40295167
_cell_length_c   15.47940222
_cell_angle_alpha   90.00000000
_cell_angle_beta   90.00000000
_cell_angle_gamma   90.00000000
_symmetry_Int_Tables_number   1
_chemical_formula_structural   PH15C18INCl2
_chemical_formula_sum   'P4 H60 C72 I4 N4 Cl8'
_cell_volume   1969.88137373
_cell_formula_units_Z   4
loop_
 _symmetry_equiv_pos_site_id
 _symmetry_equiv_pos_as_xyz
  1  'x, y, z'
loop_
 _atom_site_type_symbol
 _atom_site_label
 _atom_site_symmetry_multiplicity
 _atom_site_fract_x
 _atom_site_fract_y
 _atom_site_fract_z
 _atom_site_occupancy
  P  P0  1  0.831806  0.321114  0.421112  1
  P  P1  1  0.331806  0.678886  0.578888  1
  P  P2  1  0.331806  0.821114  0.078888  1
  P  P3  1  0.831806  0.178886  0.921112  1
  H  H4  1  0.228466  0.869858  0.556904  1
  H  H5  1  0.652625  0.766795  0.113465  1
  H  H6  1  0.912684  0.519799  0.397503  1
  H  H7  1  0.975282  0.138121  0.614479  1
  H  H8  1  0.652625  0.733205  0.613465  1
  H  H9  1  0.702102  0.482671  0.506017  1
  H  H10  1  0.280310  0.114081  0.381860  1
  H  H11  1  0.780310  0.885919  0.618139  1
  H  H12  1  0.858910  0.522922  0.937558  1
  H  H13  1  0.634116  0.468575  0.092844  1
  H  H14  1  0.412684  0.480201  0.602497  1
  H  H15  1  0.475282  0.638121  0.885521  1
  H  H16  1  0.912684  0.980201  0.897503  1
  H  H17  1  0.475282  0.861879  0.385521  1
  H  H18  1  0.390565  0.771182  0.258852  1
  H  H19  1  0.152625  0.233205  0.886535  1
  H  H20  1  0.997113  0.609030  0.270151  1
  H  H21  1  0.228466  0.630142  0.056904  1
  H  H22  1  0.280310  0.385919  0.881861  1
  H  H23  1  0.497113  0.109030  0.229849  1
  H  H24  1  0.202102  0.517329  0.493983  1
  H  H25  1  0.358910  0.477078  0.062442  1
  H  H26  1  0.975282  0.361879  0.114479  1
  H  H27  1  0.768288  0.567723  0.640029  1
  H  H28  1  0.268288  0.432277  0.359971  1
  H  H29  1  0.983016  0.515784  0.730906  1
  H  H30  1  0.029153  0.530967  0.128366  1
  H  H31  1  0.890565  0.228818  0.741148  1
  H  H32  1  0.983016  0.984216  0.230906  1
  H  H33  1  0.633920  0.623087  0.312836  1
  H  H34  1  0.858910  0.977078  0.437558  1
  H  H35  1  0.497113  0.390970  0.729849  1
  H  H36  1  0.768288  0.932277  0.140029  1
  H  H37  1  0.529153  0.030967  0.371634  1
  H  H38  1  0.997113  0.890970  0.770151  1
  H  H39  1  0.358910  0.022922  0.562442  1
  H  H40  1  0.570604  0.708667  0.445951  1
  H  H41  1  0.202102  0.982671  0.993983  1
  H  H42  1  0.070604  0.291333  0.554049  1
  H  H43  1  0.134116  0.531425  0.907156  1
  H  H44  1  0.529153  0.469033  0.871634  1
  H  H45  1  0.133920  0.123087  0.187164  1
  H  H46  1  0.890565  0.271182  0.241148  1
  H  H47  1  0.483016  0.015784  0.769094  1
  H  H48  1  0.780310  0.614081  0.118139  1
  H  H49  1  0.728466  0.369858  0.943096  1
  H  H50  1  0.634116  0.031425  0.592844  1
  H  H51  1  0.702102  0.017329  0.006017  1
  H  H52  1  0.633920  0.876913  0.812836  1
  H  H53  1  0.412684  0.019799  0.102497  1
  H  H54  1  0.570604  0.791333  0.945951  1
  H  H55  1  0.728466  0.130142  0.443096  1
  H  H56  1  0.390565  0.728818  0.758852  1
  H  H57  1  0.483016  0.484216  0.269094  1
  H  H58  1  0.070604  0.208667  0.054049  1
  H  H59  1  0.134116  0.968575  0.407156  1
  H  H60  1  0.029153  0.969033  0.628366  1
  H  H61  1  0.268288  0.067723  0.859971  1
  H  H62  1  0.133920  0.376913  0.687164  1
  H  H63  1  0.152625  0.266795  0.386535  1
  C  C64  1  0.297025  0.540614  0.454617  1
  C  C65  1  0.460762  0.896259  0.323517  1
  C  C66  1  0.039331  0.099812  0.147443  1
  C  C67  1  0.454866  0.522221  0.327792  1
  C  C68  1  0.413396  0.845143  0.251964  1
  C  C69  1  0.003311  0.351782  0.571923  1
  C  C70  1  0.797025  0.040614  0.045383  1
  C  C71  1  0.077766  0.464014  0.909700  1
  C  C72  1  0.003311  0.148218  0.071923  1
  C  C73  1  0.086853  0.203941  0.397959  1
  C  C74  1  0.973370  0.535025  0.264022  1
  C  C75  1  0.491377  0.991113  0.315720  1
  C  C76  1  0.925399  0.484321  0.335826  1
  C  C77  1  0.503311  0.648218  0.428077  1
  C  C78  1  0.577766  0.964014  0.590300  1
  C  C79  1  0.430657  0.709408  0.084668  1
  C  C80  1  0.849547  0.373048  0.929722  1
  C  C81  1  0.954866  0.477779  0.672208  1
  C  C82  1  0.086853  0.296059  0.897959  1
  C  C83  1  0.333863  0.007105  0.879223  1
  C  C84  1  0.922478  0.040932  0.426988  1
  C  C85  1  0.913396  0.345143  0.248036  1
  C  C86  1  0.895947  0.111259  0.828641  1
  C  C87  1  0.881353  0.380920  0.520305  1
  C  C88  1  0.973370  0.964975  0.764022  1
  C  C89  1  0.425399  0.984321  0.164174  1
  C  C90  1  0.849547  0.126952  0.429722  1
  C  C91  1  0.954866  0.022221  0.172208  1
  C  C92  1  0.430657  0.790592  0.584668  1
  C  C93  1  0.454866  0.977779  0.827792  1
  C  C94  1  0.960762  0.396259  0.176483  1
  C  C95  1  0.381353  0.880920  0.979695  1
  C  C96  1  0.586853  0.703941  0.102041  1
  C  C97  1  0.539331  0.599812  0.352557  1
  C  C98  1  0.659399  0.617783  0.104608  1
  C  C99  1  0.913396  0.154857  0.748036  1
  C  C100  1  0.922478  0.459068  0.926988  1
  C  C101  1  0.473370  0.464975  0.735978  1
  C  C102  1  0.960762  0.103741  0.676483  1
  C  C103  1  0.991377  0.008887  0.684280  1
  C  C104  1  0.425399  0.515679  0.664174  1
  C  C105  1  0.159399  0.117783  0.395392  1
  C  C106  1  0.925399  0.015679  0.835826  1
  C  C107  1  0.159399  0.382217  0.895392  1
  C  C108  1  0.586853  0.796059  0.602041  1
  C  C109  1  0.930657  0.290592  0.915332  1
  C  C110  1  0.349547  0.626952  0.070278  1
  C  C111  1  0.991377  0.491113  0.184280  1
  C  C112  1  0.577766  0.535986  0.090300  1
  C  C113  1  0.077766  0.035986  0.409700  1
  C  C114  1  0.381353  0.619080  0.479695  1
  C  C115  1  0.659399  0.882217  0.604608  1
  C  C116  1  0.473370  0.035025  0.235978  1
  C  C117  1  0.395947  0.611259  0.671359  1
  C  C118  1  0.833863  0.507105  0.620777  1
  C  C119  1  0.833863  0.992895  0.120777  1
  C  C120  1  0.422478  0.959068  0.573012  1
  C  C121  1  0.460762  0.603741  0.823517  1
  C  C122  1  0.797025  0.459386  0.545383  1
  C  C123  1  0.881353  0.119080  0.020305  1
  C  C124  1  0.349547  0.873048  0.570278  1
  C  C125  1  0.895947  0.388741  0.328641  1
  C  C126  1  0.503311  0.851782  0.928077  1
  C  C127  1  0.422478  0.540932  0.073012  1
  C  C128  1  0.539331  0.900188  0.852557  1
  C  C129  1  0.491377  0.508887  0.815720  1
  C  C130  1  0.413396  0.654857  0.751964  1
  C  C131  1  0.039331  0.400188  0.647443  1
  C  C132  1  0.333863  0.492895  0.379223  1
  C  C133  1  0.395947  0.888741  0.171359  1
  C  C134  1  0.930657  0.209408  0.415332  1
  C  C135  1  0.297025  0.959386  0.954617  1
  I  I136  1  0.000816  0.762389  0.959139  1
  I  I137  1  0.000816  0.737611  0.459139  1
  I  I138  1  0.500816  0.237611  0.040861  1
  I  I139  1  0.500816  0.262389  0.540861  1
  N  N140  1  0.644112  0.184073  0.923891  1
  N  N141  1  0.144112  0.815927  0.076109  1
  N  N142  1  0.144112  0.684073  0.576109  1
  N  N143  1  0.644112  0.315927  0.423891  1
  Cl  Cl144  1  0.061182  0.718166  0.673257  1
  Cl  Cl145  1  0.561182  0.218166  0.826743  1
  Cl  Cl146  1  0.327929  0.293831  0.162178  1
  Cl  Cl147  1  0.061182  0.781834  0.173257  1
  Cl  Cl148  1  0.327929  0.206169  0.662178  1
  Cl  Cl149  1  0.827929  0.793831  0.337822  1
  Cl  Cl150  1  0.827929  0.706169  0.837822  1
  Cl  Cl151  1  0.561182  0.281834  0.326743  1
