# generated using pymatgen
data_Na7Zr4Si5PO24
_symmetry_space_group_name_H-M   'P 1'
_cell_length_a   9.34883283
_cell_length_b   9.31205823
_cell_length_c   9.31123892
_cell_angle_alpha   59.79779290
_cell_angle_beta   59.62602484
_cell_angle_gamma   59.70832738
_symmetry_Int_Tables_number   1
_chemical_formula_structural   Na7Zr4Si5PO24
_chemical_formula_sum   'Na7 Zr4 Si5 P1 O24'
_cell_volume   569.41718365
_cell_formula_units_Z   1
loop_
 _symmetry_equiv_pos_site_id
 _symmetry_equiv_pos_as_xyz
  1  'x, y, z'
loop_
 _atom_site_type_symbol
 _atom_site_label
 _atom_site_symmetry_multiplicity
 _atom_site_fract_x
 _atom_site_fract_y
 _atom_site_fract_z
 _atom_site_occupancy
  Na  Na0  1  0.006812  0.995792  0.994164  1
  Na  Na1  1  0.119744  0.383044  0.747829  1
  Na  Na2  1  0.388717  0.745254  0.117282  1
  Na  Na3  1  0.320486  0.711646  0.539882  1
  Na  Na4  1  0.744222  0.126590  0.387033  1
  Na  Na5  1  0.612477  0.253353  0.875148  1
  Na  Na6  1  0.872898  0.615618  0.255925  1
  Zr  Zr7  1  0.151379  0.143877  0.148276  1
  Zr  Zr8  1  0.358089  0.354763  0.351776  1
  Zr  Zr9  1  0.641081  0.650402  0.649144  1
  Zr  Zr10  1  0.853377  0.849971  0.853040  1
  Si  Si11  1  0.035056  0.752023  0.452478  1
  Si  Si12  1  0.456633  0.041865  0.754741  1
  Si  Si13  1  0.753033  0.453759  0.039426  1
  Si  Si14  1  0.246232  0.545534  0.961886  1
  Si  Si15  1  0.546759  0.956778  0.248373  1
  P  P16  1  0.960556  0.249354  0.545747  1
  O  O17  1  0.120723  0.284968  0.513714  1
  O  O18  1  0.274575  0.516789  0.135383  1
  O  O19  1  0.060239  0.924779  0.274989  1
  O  O20  1  0.508867  0.132286  0.279993  1
  O  O21  1  0.004776  0.782158  0.627550  1
  O  O22  1  0.218696  0.583104  0.434662  1
  O  O23  1  0.274378  0.064540  0.925468  1
  O  O24  1  0.424418  0.216442  0.583621  1
  O  O25  1  0.578293  0.433532  0.215430  1
  O  O26  1  0.211568  0.371616  0.996826  1
  O  O27  1  0.073870  0.724626  0.938465  1
  O  O28  1  0.374560  0.980021  0.219700  1
  O  O29  1  0.628017  0.019107  0.782543  1
  O  O30  1  0.922018  0.274016  0.070722  1
  O  O31  1  0.781509  0.629743  0.008344  1
  O  O32  1  0.421816  0.558854  0.783978  1
  O  O33  1  0.576728  0.773480  0.414838  1
  O  O34  1  0.726561  0.940130  0.073681  1
  O  O35  1  0.792703  0.414196  0.563361  1
  O  O36  1  0.991467  0.213223  0.384748  1
  O  O37  1  0.497946  0.859293  0.733201  1
  O  O38  1  0.929506  0.092692  0.719156  1
  O  O39  1  0.728870  0.481832  0.863749  1
  O  O40  1  0.865744  0.720749  0.479727  1
