# generated using pymatgen
data_Al(ICl2)3
_symmetry_space_group_name_H-M   'P 1'
_cell_length_a   7.75043356
_cell_length_b   14.97543152
_cell_length_c   14.49747523
_cell_angle_alpha   106.50347197
_cell_angle_beta   105.50383158
_cell_angle_gamma   90.00000263
_symmetry_Int_Tables_number   1
_chemical_formula_structural   Al(ICl2)3
_chemical_formula_sum   'Al4 I12 Cl24'
_cell_volume   1549.37879829
_cell_formula_units_Z   4
loop_
 _symmetry_equiv_pos_site_id
 _symmetry_equiv_pos_as_xyz
  1  'x, y, z'
loop_
 _atom_site_type_symbol
 _atom_site_label
 _atom_site_symmetry_multiplicity
 _atom_site_fract_x
 _atom_site_fract_y
 _atom_site_fract_z
 _atom_site_occupancy
  Al  Al0  1  0.577156  0.460919  0.261832  1
  Al  Al1  1  0.315324  0.039081  0.738168  1
  Al  Al2  1  0.684676  0.960919  0.261832  1
  Al  Al3  1  0.422844  0.539081  0.738168  1
  I  I4  1  0.769088  0.102821  0.066581  1
  I  I5  1  0.932707  0.783130  0.768500  1
  I  I6  1  0.835793  0.283130  0.768500  1
  I  I7  1  0.164207  0.716870  0.231500  1
  I  I8  1  0.230912  0.897179  0.933419  1
  I  I9  1  0.702507  0.397179  0.933419  1
  I  I10  1  0.067293  0.216870  0.231500  1
  I  I11  1  0.050258  0.827159  0.403926  1
  I  I12  1  0.646331  0.672841  0.596074  1
  I  I13  1  0.297493  0.602821  0.066581  1
  I  I14  1  0.353669  0.327159  0.403926  1
  I  I15  1  0.949742  0.172841  0.596074  1
  Cl  Cl16  1  0.977979  0.990374  0.333667  1
  Cl  Cl17  1  0.404889  0.916173  0.788673  1
  Cl  Cl18  1  0.595111  0.083827  0.211327  1
  Cl  Cl19  1  0.397356  0.212733  0.490518  1
  Cl  Cl20  1  0.644312  0.509626  0.666333  1
  Cl  Cl21  1  0.118900  0.894332  0.070178  1
  Cl  Cl22  1  0.093162  0.712733  0.490518  1
  Cl  Cl23  1  0.383784  0.416173  0.788673  1
  Cl  Cl24  1  0.446882  0.045531  0.628894  1
  Cl  Cl25  1  0.817989  0.454469  0.371106  1
  Cl  Cl26  1  0.881100  0.105668  0.929822  1
  Cl  Cl27  1  0.022021  0.009626  0.666333  1
  Cl  Cl28  1  0.553118  0.954469  0.371106  1
  Cl  Cl29  1  0.951277  0.394332  0.070178  1
  Cl  Cl30  1  0.511770  0.659669  0.862536  1
  Cl  Cl31  1  0.602644  0.787267  0.509482  1
  Cl  Cl32  1  0.355688  0.490374  0.333667  1
  Cl  Cl33  1  0.350766  0.159669  0.862536  1
  Cl  Cl34  1  0.182011  0.545531  0.628894  1
  Cl  Cl35  1  0.906838  0.287267  0.509482  1
  Cl  Cl36  1  0.488230  0.340331  0.137464  1
  Cl  Cl37  1  0.616216  0.583827  0.211327  1
  Cl  Cl38  1  0.048723  0.605668  0.929822  1
  Cl  Cl39  1  0.649234  0.840331  0.137464  1
