# generated using pymatgen
data_Ce10US16
_symmetry_space_group_name_H-M   'P 1'
_cell_length_a   14.68902218
_cell_length_b   8.48755860
_cell_length_c   8.46699756
_cell_angle_alpha   90.00000000
_cell_angle_beta   54.80109558
_cell_angle_gamma   54.70288755
_symmetry_Int_Tables_number   1
_chemical_formula_structural   Ce10US16
_chemical_formula_sum   'Ce10 U1 S16'
_cell_volume   609.95113107
_cell_formula_units_Z   1
loop_
 _symmetry_equiv_pos_site_id
 _symmetry_equiv_pos_as_xyz
  1  'x, y, z'
loop_
 _atom_site_type_symbol
 _atom_site_label
 _atom_site_symmetry_multiplicity
 _atom_site_fract_x
 _atom_site_fract_y
 _atom_site_fract_z
 _atom_site_occupancy
  Ce  Ce0  1  0.005329  0.119493  0.757365  1
  Ce  Ce1  1  0.125178  0.630151  0.362128  1
  Ce  Ce2  1  0.250000  0.250000  0.621628  1
  Ce  Ce3  1  0.494671  0.380507  0.268024  1
  Ce  Ce4  1  0.374822  0.869849  0.112483  1
  Ce  Ce5  1  0.495523  0.138000  0.749136  1
  Ce  Ce6  1  0.616477  0.629046  0.388864  1
  Ce  Ce7  1  0.750000  0.250000  0.628372  1
  Ce  Ce8  1  0.883523  0.870954  0.121817  1
  Ce  Ce9  1  0.004477  0.362000  0.240182  1
  U  U10  1  0.750000  0.750000  0.875000  1
  S  S11  1  0.171497  0.495850  -0.002177  1
  S  S12  1  0.069606  0.361170  0.503504  1
  S  S13  1  0.068503  0.010434  0.369713  1
  S  S14  1  0.430394  0.138830  0.142716  1
  S  S15  1  0.431497  0.489566  0.006720  1
  S  S16  1  0.171063  0.647441  0.640720  1
  S  S17  1  0.328503  0.004150  0.840818  1
  S  S18  1  0.328937  0.852559  0.482846  1
  S  S19  1  0.680776  0.499618  0.996114  1
  S  S20  1  0.582653  0.338845  0.498027  1
  S  S21  1  0.578172  0.995780  0.342249  1
  S  S22  1  0.917347  0.161155  0.163332  1
  S  S23  1  0.921828  0.504220  -0.001408  1
  S  S24  1  0.819224  0.000382  0.857666  1
  S  S25  1  0.676048  0.652123  0.653532  1
  S  S26  1  0.823952  0.847877  0.505628  1
