# generated using pymatgen
data_Sn14Sb11Pt8
_symmetry_space_group_name_H-M   'P 1'
_cell_length_a   9.52146038
_cell_length_b   9.58067263
_cell_length_c   9.50132568
_cell_angle_alpha   90.29449544
_cell_angle_beta   90.22596333
_cell_angle_gamma   90.26914536
_symmetry_Int_Tables_number   1
_chemical_formula_structural   Sn14Sb11Pt8
_chemical_formula_sum   'Sn14 Sb11 Pt8'
_cell_volume   866.70204673
_cell_formula_units_Z   1
loop_
 _symmetry_equiv_pos_site_id
 _symmetry_equiv_pos_as_xyz
  1  'x, y, z'
loop_
 _atom_site_type_symbol
 _atom_site_label
 _atom_site_symmetry_multiplicity
 _atom_site_fract_x
 _atom_site_fract_y
 _atom_site_fract_z
 _atom_site_occupancy
  Sn  Sn0  1  0.334433  0.999388  0.153973  1
  Sn  Sn1  1  0.161055  0.496394  0.651229  1
  Sn  Sn2  1  0.841597  0.498313  0.336688  1
  Sn  Sn3  1  0.997071  0.849898  0.337230  1
  Sn  Sn4  1  0.996918  0.152917  0.663506  1
  Sn  Sn5  1  0.663769  0.860015  0.496503  1
  Sn  Sn6  1  0.651959  0.167606  0.500320  1
  Sn  Sn7  1  0.496092  0.654585  0.153975  1
  Sn  Sn8  1  0.850744  0.492540  0.664837  1
  Sn  Sn9  1  0.494700  0.654839  0.840091  1
  Sn  Sn10  1  0.567596  0.559723  0.520316  1
  Sn  Sn11  1  0.336691  0.998464  0.846660  1
  Sn  Sn12  1  0.847531  0.337132  0.000462  1
  Sn  Sn13  1  0.153275  0.336509  0.998428  1
  Sb  Sb14  1  0.845280  0.649656  0.997489  1
  Sb  Sb15  1  0.648226  0.996791  0.153580  1
  Sb  Sb16  1  0.498048  0.345136  0.846416  1
  Sb  Sb17  1  0.343317  0.843150  0.498269  1
  Sb  Sb18  1  0.649808  0.995622  0.845146  1
  Sb  Sb19  1  0.996382  0.845917  0.651726  1
  Sb  Sb20  1  0.996215  0.155859  0.347217  1
  Sb  Sb21  1  0.344866  0.154918  0.500306  1
  Sb  Sb22  1  0.497434  0.346858  0.159549  1
  Sb  Sb23  1  0.153044  0.500448  0.344005  1
  Sb  Sb24  1  0.155939  0.650921  0.996692  1
  Pt  Pt25  1  0.248111  0.250149  0.252151  1
  Pt  Pt26  1  0.748439  0.749974  0.244866  1
  Pt  Pt27  1  0.246157  0.749239  0.249026  1
  Pt  Pt28  1  0.746787  0.246207  0.246628  1
  Pt  Pt29  1  0.244308  0.750222  0.746448  1
  Pt  Pt30  1  0.745071  0.244992  0.754790  1
  Pt  Pt31  1  0.251438  0.247823  0.748213  1
  Pt  Pt32  1  0.748298  0.747595  0.748465  1
