# generated using pymatgen
data_Hg8Br3O4
_symmetry_space_group_name_H-M   'P 1'
_cell_length_a   6.54374687
_cell_length_b   6.96262514
_cell_length_c   39.27683440
_cell_angle_alpha   99.10640543
_cell_angle_beta   90.00000000
_cell_angle_gamma   90.00000000
_symmetry_Int_Tables_number   1
_chemical_formula_structural   Hg8Br3O4
_chemical_formula_sum   'Hg32 Br12 O16'
_cell_volume   1766.96276925
_cell_formula_units_Z   4
loop_
 _symmetry_equiv_pos_site_id
 _symmetry_equiv_pos_as_xyz
  1  'x, y, z'
loop_
 _atom_site_type_symbol
 _atom_site_label
 _atom_site_symmetry_multiplicity
 _atom_site_fract_x
 _atom_site_fract_y
 _atom_site_fract_z
 _atom_site_occupancy
  Hg  Hg0  1  0.687541  0.688066  0.170862  1
  Hg  Hg1  1  0.264312  0.891291  0.235975  1
  Hg  Hg2  1  0.858966  0.648619  0.390076  1
  Hg  Hg3  1  0.386712  0.149917  0.183000  1
  Hg  Hg4  1  0.187541  0.811934  0.329138  1
  Hg  Hg5  1  0.572771  0.580846  0.628914  1
  Hg  Hg6  1  0.245046  0.476476  0.107735  1
  Hg  Hg7  1  0.641034  0.148619  0.890076  1
  Hg  Hg8  1  0.427229  0.419154  0.371086  1
  Hg  Hg9  1  0.141034  0.351381  0.609924  1
  Hg  Hg10  1  0.754954  0.523524  0.892265  1
  Hg  Hg11  1  0.113288  0.649917  0.683000  1
  Hg  Hg12  1  0.886712  0.350083  0.317000  1
  Hg  Hg13  1  0.072771  0.919154  0.871086  1
  Hg  Hg14  1  0.807179  0.530634  0.492318  1
  Hg  Hg15  1  0.692821  0.030634  0.992318  1
  Hg  Hg16  1  0.268125  0.898018  0.757792  1
  Hg  Hg17  1  0.731875  0.101982  0.242208  1
  Hg  Hg18  1  0.192821  0.469366  0.507682  1
  Hg  Hg19  1  0.764312  0.608709  0.264025  1
  Hg  Hg20  1  0.927229  0.080846  0.128914  1
  Hg  Hg21  1  0.358966  0.851381  0.109924  1
  Hg  Hg22  1  0.812459  0.188066  0.670862  1
  Hg  Hg23  1  0.735688  0.108709  0.764025  1
  Hg  Hg24  1  0.231875  0.398018  0.257792  1
  Hg  Hg25  1  0.768125  0.601982  0.742208  1
  Hg  Hg26  1  0.613288  0.850083  0.817000  1
  Hg  Hg27  1  0.307179  0.969366  0.007682  1
  Hg  Hg28  1  0.745046  0.023524  0.392265  1
  Hg  Hg29  1  0.235688  0.391291  0.735975  1
  Hg  Hg30  1  0.254954  0.976476  0.607735  1
  Hg  Hg31  1  0.312459  0.311934  0.829138  1
  Br  Br32  1  0.257632  0.532927  0.889827  1
  Br  Br33  1  0.015172  0.159854  0.964479  1
  Br  Br34  1  0.903060  0.429054  0.811325  1
  Br  Br35  1  0.484828  0.659854  0.464479  1
  Br  Br36  1  0.242368  0.032927  0.389827  1
  Br  Br37  1  0.984828  0.840146  0.035521  1
  Br  Br38  1  0.742368  0.467073  0.110173  1
  Br  Br39  1  0.403060  0.070946  0.688675  1
  Br  Br40  1  0.096940  0.570946  0.188675  1
  Br  Br41  1  0.515172  0.340146  0.535521  1
  Br  Br42  1  0.757632  0.967073  0.610173  1
  Br  Br43  1  0.596940  0.929054  0.311325  1
  O  O44  1  0.442734  0.622262  0.759165  1
  O  O45  1  0.717067  0.327740  0.383061  1
  O  O46  1  0.654502  0.973453  0.143448  1
  O  O47  1  0.345498  0.026547  0.856552  1
  O  O48  1  0.405848  0.200352  0.776661  1
  O  O49  1  0.557266  0.377738  0.240835  1
  O  O50  1  0.217067  0.172260  0.116939  1
  O  O51  1  0.845498  0.473453  0.643448  1
  O  O52  1  0.154502  0.526547  0.356552  1
  O  O53  1  0.594152  0.799648  0.223339  1
  O  O54  1  0.282933  0.672260  0.616939  1
  O  O55  1  0.905848  0.299648  0.723339  1
  O  O56  1  0.942734  0.877738  0.740835  1
  O  O57  1  0.057266  0.122262  0.259165  1
  O  O58  1  0.094152  0.700352  0.276661  1
  O  O59  1  0.782933  0.827740  0.883061  1
