# generated using pymatgen
data_Cs10(Mo2N5)3
_symmetry_space_group_name_H-M   'P 1'
_cell_length_a   12.26891063
_cell_length_b   12.26891136
_cell_length_c   12.26891063
_cell_angle_alpha   65.66586198
_cell_angle_beta   65.66586035
_cell_angle_gamma   65.66586014
_symmetry_Int_Tables_number   1
_chemical_formula_structural   Cs10(Mo2N5)3
_chemical_formula_sum   'Cs20 Mo12 N30'
_cell_volume   1466.48990615
_cell_formula_units_Z   2
loop_
 _symmetry_equiv_pos_site_id
 _symmetry_equiv_pos_as_xyz
  1  'x, y, z'
loop_
 _atom_site_type_symbol
 _atom_site_label
 _atom_site_symmetry_multiplicity
 _atom_site_fract_x
 _atom_site_fract_y
 _atom_site_fract_z
 _atom_site_occupancy
  Cs  Cs0  1  0.443240  0.823982  0.556024  1
  Cs  Cs1  1  0.556024  0.443240  0.823982  1
  Cs  Cs2  1  0.823982  0.556024  0.443240  1
  Cs  Cs3  1  0.577413  0.922587  0.750000  1
  Cs  Cs4  1  0.750000  0.577413  0.922587  1
  Cs  Cs5  1  0.922587  0.750000  0.577413  1
  Cs  Cs6  1  0.676018  0.056760  0.943976  1
  Cs  Cs7  1  0.943976  0.676018  0.056760  1
  Cs  Cs8  1  0.056760  0.943976  0.676018  1
  Cs  Cs9  1  0.000000  0.000000  0.000000  1
  Cs  Cs10  1  0.943240  0.056024  0.323982  1
  Cs  Cs11  1  0.056024  0.323982  0.943240  1
  Cs  Cs12  1  0.323982  0.943240  0.056024  1
  Cs  Cs13  1  0.077413  0.250000  0.422587  1
  Cs  Cs14  1  0.250000  0.422587  0.077413  1
  Cs  Cs15  1  0.422587  0.077413  0.250000  1
  Cs  Cs16  1  0.176018  0.443976  0.556760  1
  Cs  Cs17  1  0.443976  0.556760  0.176018  1
  Cs  Cs18  1  0.556760  0.176018  0.443976  1
  Cs  Cs19  1  0.500000  0.500000  0.500000  1
  Mo  Mo20  1  0.204741  0.598292  0.747704  1
  Mo  Mo21  1  0.598292  0.747704  0.204741  1
  Mo  Mo22  1  0.747704  0.204741  0.598292  1
  Mo  Mo23  1  0.752296  0.901708  0.295259  1
  Mo  Mo24  1  0.704741  0.247704  0.098292  1
  Mo  Mo25  1  0.901708  0.295259  0.752296  1
  Mo  Mo26  1  0.098292  0.704741  0.247704  1
  Mo  Mo27  1  0.295259  0.752296  0.901708  1
  Mo  Mo28  1  0.247704  0.098292  0.704741  1
  Mo  Mo29  1  0.252296  0.795259  0.401708  1
  Mo  Mo30  1  0.401708  0.252296  0.795259  1
  Mo  Mo31  1  0.795259  0.401708  0.252296  1
  N  N32  1  0.234430  0.695326  0.573737  1
  N  N33  1  0.573737  0.234430  0.695326  1
  N  N34  1  0.695326  0.573737  0.234430  1
  N  N35  1  0.455760  0.688411  0.894363  1
  N  N36  1  0.333435  0.166565  0.750000  1
  N  N37  1  0.688411  0.894363  0.455760  1
  N  N38  1  0.605637  0.811589  0.044240  1
  N  N39  1  0.750000  0.333435  0.166565  1
  N  N40  1  0.894363  0.455760  0.688411  1
  N  N41  1  0.811589  0.044240  0.605637  1
  N  N42  1  0.166565  0.750000  0.333435  1
  N  N43  1  0.044240  0.605637  0.811589  1
  N  N44  1  0.734430  0.073737  0.195326  1
  N  N45  1  0.804674  0.265570  0.926263  1
  N  N46  1  0.926263  0.804674  0.265570  1
  N  N47  1  0.073737  0.195326  0.734430  1
  N  N48  1  0.195326  0.734430  0.073737  1
  N  N49  1  0.265570  0.926263  0.804674  1
  N  N50  1  0.955760  0.394363  0.188411  1
  N  N51  1  0.833435  0.250000  0.666565  1
  N  N52  1  0.188411  0.955760  0.394363  1
  N  N53  1  0.105637  0.544240  0.311589  1
  N  N54  1  0.250000  0.666565  0.833435  1
  N  N55  1  0.394363  0.188411  0.955760  1
  N  N56  1  0.311589  0.105637  0.544240  1
  N  N57  1  0.666565  0.833435  0.250000  1
  N  N58  1  0.544240  0.311589  0.105637  1
  N  N59  1  0.304674  0.426263  0.765570  1
  N  N60  1  0.426263  0.765570  0.304674  1
  N  N61  1  0.765570  0.304674  0.426263  1
