# generated using pymatgen
data_KAlH4
_symmetry_space_group_name_H-M   'P 1'
_cell_length_a   7.36992754
_cell_length_b   7.36992754
_cell_length_c   7.36992754
_cell_angle_alpha   137.01688722
_cell_angle_beta   137.01688722
_cell_angle_gamma   62.41206841
_symmetry_Int_Tables_number   1
_chemical_formula_structural   KAlH4
_chemical_formula_sum   'K2 Al2 H8'
_cell_volume   183.82259050
_cell_formula_units_Z   2
loop_
 _symmetry_equiv_pos_site_id
 _symmetry_equiv_pos_as_xyz
  1  'x, y, z'
loop_
 _atom_site_type_symbol
 _atom_site_label
 _atom_site_symmetry_multiplicity
 _atom_site_fract_x
 _atom_site_fract_y
 _atom_site_fract_z
 _atom_site_occupancy
  K  K0  1  0.375000  0.125000  0.250000  1
  K  K1  1  0.625000  0.875000  0.750000  1
  Al  Al2  1  0.875000  0.625000  0.250000  1
  Al  Al3  1  0.125000  0.375000  0.750000  1
  H  H4  1  0.178438  0.601942  0.384438  1
  H  H5  1  0.717505  0.794001  0.115562  1
  H  H6  1  0.294001  0.678438  0.076496  1
  H  H7  1  0.101942  0.217505  0.423504  1
  H  H8  1  0.821562  0.398058  0.615562  1
  H  H9  1  0.282495  0.205999  0.884438  1
  H  H10  1  0.705999  0.321562  0.923504  1
  H  H11  1  0.898058  0.782495  0.576496  1
