# generated using pymatgen
data_Na3CaAl4Si8ClO24
_symmetry_space_group_name_H-M   'P 1'
_cell_length_a   7.71425618
_cell_length_b   9.39511039
_cell_length_c   9.39906179
_cell_angle_alpha   80.41696533
_cell_angle_beta   66.26766338
_cell_angle_gamma   65.88973288
_symmetry_Int_Tables_number   1
_chemical_formula_structural   Na3CaAl4Si8ClO24
_chemical_formula_sum   'Na3 Ca1 Al4 Si8 Cl1 O24'
_cell_volume   569.19880655
_cell_formula_units_Z   1
loop_
 _symmetry_equiv_pos_site_id
 _symmetry_equiv_pos_as_xyz
  1  'x, y, z'
loop_
 _atom_site_type_symbol
 _atom_site_label
 _atom_site_symmetry_multiplicity
 _atom_site_fract_x
 _atom_site_fract_y
 _atom_site_fract_z
 _atom_site_occupancy
  Na  Na0  1  0.133047  0.082405  0.659103  1
  Na  Na1  1  0.220840  0.666146  0.912445  1
  Na  Na2  1  0.869552  0.916130  0.342738  1
  Ca  Ca3  1  0.781902  0.351108  0.082359  1
  Al  Al4  1  0.133076  0.749708  0.575148  1
  Al  Al5  1  0.453562  0.252984  0.426457  1
  Al  Al6  1  0.712828  0.423144  0.744364  1
  Al  Al7  1  0.879163  0.572991  0.254673  1
  Si  Si8  1  0.337432  0.067955  0.253578  1
  Si  Si9  1  0.123111  0.424706  0.753451  1
  Si  Si10  1  0.291189  0.577824  0.246731  1
  Si  Si11  1  0.412781  0.250254  0.930074  1
  Si  Si12  1  0.586706  0.746846  0.070882  1
  Si  Si13  1  0.543159  0.752263  0.577688  1
  Si  Si14  1  0.874560  0.242487  0.421162  1
  Si  Si15  1  0.661380  0.929186  0.747394  1
  Cl  Cl16  1  0.975643  0.032810  0.010409  1
  O  O17  1  0.096735  0.093888  0.355731  1
  O  O18  1  0.126750  0.574558  0.181341  1
  O  O19  1  0.346921  0.188502  0.107266  1
  O  O20  1  0.171832  0.697918  0.390611  1
  O  O21  1  0.435984  0.097798  0.362111  1
  O  O22  1  0.262194  0.302735  0.609823  1
  O  O23  1  0.132735  0.596062  0.710460  1
  O  O24  1  0.197008  0.360402  0.904418  1
  O  O25  1  0.443209  0.405975  0.284027  1
  O  O26  1  0.450072  0.641174  0.095204  1
  O  O27  1  0.313964  0.817402  0.574977  1
  O  O28  1  0.456688  0.888706  0.193890  1
  O  O29  1  0.533046  0.107667  0.807729  1
  O  O30  1  0.704018  0.181400  0.423907  1
  O  O31  1  0.551135  0.351309  0.904324  1
  O  O32  1  0.563506  0.609502  0.702611  1
  O  O33  1  0.791981  0.625590  0.099334  1
  O  O34  1  0.872470  0.384199  0.291501  1
  O  O35  1  0.728536  0.705265  0.408531  1
  O  O36  1  0.552753  0.902068  0.641452  1
  O  O37  1  0.848431  0.293424  0.587128  1
  O  O38  1  0.642749  0.808926  0.893588  1
  O  O39  1  0.891157  0.422604  0.820137  1
  O  O40  1  0.896193  0.903979  0.641244  1
