# generated using pymatgen
data_K2P4PbO12
_symmetry_space_group_name_H-M   'P 1'
_cell_length_a   9.33453926
_cell_length_b   15.68322424
_cell_length_c   15.65595730
_cell_angle_alpha   90.00000000
_cell_angle_beta   90.00000000
_cell_angle_gamma   90.00000000
_symmetry_Int_Tables_number   1
_chemical_formula_structural   K2P4PbO12
_chemical_formula_sum   'K16 P32 Pb8 O96'
_cell_volume   2291.96439587
_cell_formula_units_Z   8
loop_
 _symmetry_equiv_pos_site_id
 _symmetry_equiv_pos_as_xyz
  1  'x, y, z'
loop_
 _atom_site_type_symbol
 _atom_site_label
 _atom_site_symmetry_multiplicity
 _atom_site_fract_x
 _atom_site_fract_y
 _atom_site_fract_z
 _atom_site_occupancy
  K  K0  1  0.806297  0.260547  0.694791  1
  K  K1  1  0.693703  0.760547  0.694791  1
  K  K2  1  0.693703  0.739453  0.194791  1
  K  K3  1  0.134260  0.394391  0.100144  1
  K  K4  1  0.865740  0.605609  0.899856  1
  K  K5  1  0.365740  0.605609  0.600144  1
  K  K6  1  0.634260  0.394391  0.399856  1
  K  K7  1  0.134260  0.105609  0.600144  1
  K  K8  1  0.306297  0.239453  0.305209  1
  K  K9  1  0.193703  0.760547  0.805209  1
  K  K10  1  0.865740  0.894391  0.399856  1
  K  K11  1  0.634260  0.105609  0.899856  1
  K  K12  1  0.365740  0.894391  0.100144  1
  K  K13  1  0.306297  0.260547  0.805209  1
  K  K14  1  0.193703  0.739453  0.305209  1
  K  K15  1  0.806297  0.239453  0.194791  1
  P  P16  1  0.971003  0.887249  0.162243  1
  P  P17  1  0.750390  0.003921  0.099132  1
  P  P18  1  0.028997  0.387249  0.337757  1
  P  P19  1  0.944553  0.258650  0.947573  1
  P  P20  1  0.749610  0.503921  0.099132  1
  P  P21  1  0.249610  0.996079  0.900868  1
  P  P22  1  0.998514  0.902043  0.670017  1
  P  P23  1  0.444553  0.258650  0.552427  1
  P  P24  1  0.471003  0.887249  0.337757  1
  P  P25  1  0.001486  0.402043  0.829983  1
  P  P26  1  0.498514  0.597957  0.329983  1
  P  P27  1  0.528997  0.112751  0.662243  1
  P  P28  1  0.749610  0.996079  0.599132  1
  P  P29  1  0.444553  0.241350  0.052427  1
  P  P30  1  0.028997  0.112751  0.837757  1
  P  P31  1  0.498514  0.902043  0.829983  1
  P  P32  1  0.971003  0.612751  0.662243  1
  P  P33  1  0.501486  0.402043  0.670017  1
  P  P34  1  0.944553  0.241350  0.447573  1
  P  P35  1  0.055447  0.741350  0.052427  1
  P  P36  1  0.250390  0.003921  0.400868  1
  P  P37  1  0.750390  0.496079  0.599132  1
  P  P38  1  0.998514  0.597957  0.170017  1
  P  P39  1  0.249610  0.503921  0.400868  1
  P  P40  1  0.250390  0.496079  0.900868  1
  P  P41  1  0.528997  0.387249  0.162243  1
  P  P42  1  0.001486  0.097957  0.329983  1
  P  P43  1  0.501486  0.097957  0.170017  1
  P  P44  1  0.555447  0.758650  0.947573  1
  P  P45  1  0.055447  0.758650  0.552427  1
  P  P46  1  0.471003  0.612751  0.837757  1
  P  P47  1  0.555447  0.741350  0.447573  1
  Pb  Pb48  1  0.621295  0.393909  0.898895  1
  Pb  Pb49  1  0.378705  0.893909  0.601105  1
  Pb  Pb50  1  0.121295  0.393909  0.601105  1
  Pb  Pb51  1  0.878705  0.606091  0.398895  1
  Pb  Pb52  1  0.121295  0.106091  0.101105  1
  Pb  Pb53  1  0.621295  0.106091  0.398895  1
  Pb  Pb54  1  0.378705  0.606091  0.101105  1
  Pb  Pb55  1  0.878705  0.893909  0.898895  1
  O  O56  1  0.304048  0.247783  0.099497  1
  O  O57  1  0.695952  0.752217  0.900503  1
  O  O58  1  0.804048  0.247783  0.400503  1
  O  O59  1  0.485955  0.843285  0.253768  1
  O  O60  1  0.030224  0.156148  0.414513  1
  O  O61  1  0.188779  0.428447  0.339255  1
  O  O62  1  0.804048  0.252217  0.900503  1
  O  O63  1  0.095243  0.014877  0.354231  1
  O  O64  1  0.348692  0.068201  0.174487  1
  O  O65  1  0.279376  0.032087  0.988227  1
  O  O66  1  0.188779  0.071553  0.839255  1
  O  O67  1  0.053299  0.316246  0.414120  1
  O  O68  1  0.919142  0.450876  0.368499  1
  O  O69  1  0.946701  0.816246  0.085880  1
  O  O70  1  0.848692  0.068201  0.325513  1
  O  O71  1  0.064697  0.143489  0.254009  1
  O  O72  1  0.595243  0.014877  0.145769  1
  O  O73  1  0.811221  0.571553  0.660745  1
  O  O74  1  0.095243  0.485123  0.854231  1
  O  O75  1  0.553299  0.316246  0.085880  1
  O  O76  1  0.688779  0.071553  0.660745  1
  O  O77  1  0.220624  0.532087  0.988227  1
  O  O78  1  0.151308  0.568201  0.174487  1
  O  O79  1  0.162216  0.584034  0.392876  1
  O  O80  1  0.014045  0.343285  0.253768  1
  O  O81  1  0.311221  0.571553  0.839255  1
  O  O82  1  0.404757  0.985123  0.854231  1
  O  O83  1  0.043995  0.740267  0.957134  1
  O  O84  1  0.946701  0.683754  0.585880  1
  O  O85  1  0.304048  0.252217  0.599497  1
  O  O86  1  0.337784  0.084034  0.392876  1
  O  O87  1  0.530224  0.156148  0.085487  1
  O  O88  1  0.469776  0.656148  0.414513  1
  O  O89  1  0.811221  0.928447  0.160746  1
  O  O90  1  0.919142  0.049124  0.868499  1
  O  O91  1  0.514045  0.156715  0.746232  1
  O  O92  1  0.404757  0.514877  0.354231  1
  O  O93  1  0.837784  0.415966  0.607124  1
  O  O94  1  0.419142  0.450876  0.131501  1
  O  O95  1  0.514045  0.343285  0.246232  1
  O  O96  1  0.848692  0.431799  0.825513  1
  O  O97  1  0.337784  0.415966  0.892876  1
  O  O98  1  0.956005  0.240267  0.542866  1
  O  O99  1  0.456005  0.240267  0.957134  1
  O  O100  1  0.564697  0.356511  0.745991  1
  O  O101  1  0.435303  0.643489  0.254009  1
  O  O102  1  0.348692  0.431799  0.674487  1
  O  O103  1  0.956005  0.259733  0.042866  1
  O  O104  1  0.651308  0.568201  0.325513  1
  O  O105  1  0.720624  0.532087  0.511773  1
  O  O106  1  0.279376  0.467913  0.488227  1
  O  O107  1  0.220624  0.967913  0.488227  1
  O  O108  1  0.969776  0.843852  0.585487  1
  O  O109  1  0.662216  0.915966  0.607124  1
  O  O110  1  0.985955  0.656715  0.746232  1
  O  O111  1  0.030224  0.343852  0.914513  1
  O  O112  1  0.162216  0.915966  0.892876  1
  O  O113  1  0.935303  0.643489  0.245991  1
  O  O114  1  0.969776  0.656148  0.085487  1
  O  O115  1  0.080858  0.549124  0.631501  1
  O  O116  1  0.904757  0.985123  0.645769  1
  O  O117  1  0.053299  0.183754  0.914120  1
  O  O118  1  0.662216  0.584034  0.107124  1
  O  O119  1  0.485955  0.656715  0.753768  1
  O  O120  1  0.311221  0.928447  0.339255  1
  O  O121  1  0.543995  0.740267  0.542866  1
  O  O122  1  0.446701  0.683754  0.914120  1
  O  O123  1  0.595243  0.485123  0.645769  1
  O  O124  1  0.935303  0.856511  0.745991  1
  O  O125  1  0.837784  0.084034  0.107124  1
  O  O126  1  0.564697  0.143489  0.245991  1
  O  O127  1  0.446701  0.816246  0.414120  1
  O  O128  1  0.904757  0.514877  0.145769  1
  O  O129  1  0.469776  0.843852  0.914513  1
  O  O130  1  0.543995  0.759733  0.042866  1
  O  O131  1  0.080858  0.950876  0.131501  1
  O  O132  1  0.651308  0.931799  0.825513  1
  O  O133  1  0.014045  0.156715  0.753768  1
  O  O134  1  0.419142  0.049124  0.631501  1
  O  O135  1  0.151308  0.931799  0.674487  1
  O  O136  1  0.695952  0.747783  0.400503  1
  O  O137  1  0.435303  0.856511  0.754009  1
  O  O138  1  0.985955  0.843285  0.246232  1
  O  O139  1  0.043995  0.759733  0.457134  1
  O  O140  1  0.553299  0.183754  0.585880  1
  O  O141  1  0.779376  0.467913  0.011773  1
  O  O142  1  0.580858  0.950876  0.368499  1
  O  O143  1  0.064697  0.356511  0.754009  1
  O  O144  1  0.195952  0.747783  0.099497  1
  O  O145  1  0.580858  0.549124  0.868499  1
  O  O146  1  0.456005  0.259733  0.457134  1
  O  O147  1  0.779376  0.032087  0.511773  1
  O  O148  1  0.688779  0.428447  0.160746  1
  O  O149  1  0.195952  0.752217  0.599497  1
  O  O150  1  0.530224  0.343852  0.585487  1
  O  O151  1  0.720624  0.967913  0.011773  1
