# generated using pymatgen
data_Co2Bi11O20
_symmetry_space_group_name_H-M   'P 1'
_cell_length_a   8.84131105
_cell_length_b   8.98149271
_cell_length_c   8.74216105
_cell_angle_alpha   110.75772822
_cell_angle_beta   108.70136422
_cell_angle_gamma   109.10268730
_symmetry_Int_Tables_number   1
_chemical_formula_structural   Co2Bi11O20
_chemical_formula_sum   'Co2 Bi11 O20'
_cell_volume   533.27021322
_cell_formula_units_Z   1
loop_
 _symmetry_equiv_pos_site_id
 _symmetry_equiv_pos_as_xyz
  1  'x, y, z'
loop_
 _atom_site_type_symbol
 _atom_site_label
 _atom_site_symmetry_multiplicity
 _atom_site_fract_x
 _atom_site_fract_y
 _atom_site_fract_z
 _atom_site_occupancy
  Co  Co0  1  0.238099  0.905305  0.710755  1
  Co  Co1  1  0.010660  0.981817  0.985778  1
  Bi  Bi2  1  0.144502  0.340641  0.839249  1
  Bi  Bi3  1  0.164893  0.515836  0.334134  1
  Bi  Bi4  1  0.333751  0.847686  0.142195  1
  Bi  Bi5  1  0.505790  0.684376  0.820543  1
  Bi  Bi6  1  0.300144  0.168418  0.487972  1
  Bi  Bi7  1  0.664462  0.807219  0.510676  1
  Bi  Bi8  1  0.483322  0.285446  0.145157  1
  Bi  Bi9  1  0.708610  0.203165  0.853792  1
  Bi  Bi10  1  0.808605  0.514518  0.663497  1
  Bi  Bi11  1  0.857021  0.695781  0.200263  1
  Bi  Bi12  1  0.832714  0.138489  0.326912  1
  O  O13  1  0.099946  0.740743  0.407940  1
  O  O14  1  0.024034  0.940539  0.769894  1
  O  O15  1  0.235907  0.614065  0.884435  1
  O  O16  1  0.262139  0.389137  0.617740  1
  O  O17  1  0.365504  0.765778  0.650630  1
  O  O18  1  0.374334  0.643797  0.281728  1
  O  O19  1  0.207523  0.188229  0.201159  1
  O  O20  1  0.357566  0.126495  0.743725  1
  O  O21  1  0.600947  0.609121  0.607492  1
  O  O22  1  0.650016  0.393226  0.767742  1
  O  O23  1  0.617554  0.876981  0.227266  1
  O  O24  1  0.720772  0.619992  0.353080  1
  O  O25  1  0.387758  0.985234  0.983959  1
  O  O26  1  0.613136  0.256086  0.375379  1
  O  O27  1  0.998843  0.003608  0.385820  1
  O  O28  1  0.879949  0.239195  0.619453  1
  O  O29  1  0.739847  0.350746  0.120416  1
  O  O30  1  0.802112  0.987504  0.965943  1
  O  O31  1  0.003766  0.784822  0.005930  1
  O  O32  1  0.005771  0.396006  0.009345  1
