# generated using pymatgen
data_Mn2SbTe
_symmetry_space_group_name_H-M   'P 1'
_cell_length_a   3.86204324
_cell_length_b   7.64474483
_cell_length_c   7.24387158
_cell_angle_alpha   90.08298042
_cell_angle_beta   89.93903229
_cell_angle_gamma   120.04044047
_symmetry_Int_Tables_number   1
_chemical_formula_structural   Mn2SbTe
_chemical_formula_sum   'Mn4 Sb2 Te2'
_cell_volume   185.14154780
_cell_formula_units_Z   2
loop_
 _symmetry_equiv_pos_site_id
 _symmetry_equiv_pos_as_xyz
  1  'x, y, z'
loop_
 _atom_site_type_symbol
 _atom_site_label
 _atom_site_symmetry_multiplicity
 _atom_site_fract_x
 _atom_site_fract_y
 _atom_site_fract_z
 _atom_site_occupancy
  Mn  Mn0  1  0.324126  0.828451  0.241944  1
  Mn  Mn1  1  0.338050  0.334366  0.251477  1
  Mn  Mn2  1  0.665842  0.668618  0.741936  1
  Mn  Mn3  1  0.658047  0.162649  0.753906  1
  Sb  Sb4  1  0.992848  0.998652  0.000286  1
  Sb  Sb5  1  -0.000379  0.499339  0.496077  1
  Te  Te6  1  0.004063  0.001188  0.500758  1
  Te  Te7  1  0.996526  0.497427  0.991927  1
