# generated using pymatgen
data_Cu11Sb4S13
_symmetry_space_group_name_H-M   'P 1'
_cell_length_a   9.09942664
_cell_length_b   8.91107828
_cell_length_c   8.91107758
_cell_angle_alpha   106.03878555
_cell_angle_beta   110.69652829
_cell_angle_gamma   110.69652410
_symmetry_Int_Tables_number   1
_chemical_formula_structural   Cu11Sb4S13
_chemical_formula_sum   'Cu11 Sb4 S13'
_cell_volume   561.94485391
_cell_formula_units_Z   1
loop_
 _symmetry_equiv_pos_site_id
 _symmetry_equiv_pos_as_xyz
  1  'x, y, z'
loop_
 _atom_site_type_symbol
 _atom_site_label
 _atom_site_symmetry_multiplicity
 _atom_site_fract_x
 _atom_site_fract_y
 _atom_site_fract_z
 _atom_site_occupancy
  Cu  Cu0  1  0.231613  0.002521  0.221517  1
  Cu  Cu1  1  0.984585  0.205463  0.205463  1
  Cu  Cu2  1  0.388586  0.710943  0.710943  1
  Cu  Cu3  1  0.231613  0.221517  0.002521  1
  Cu  Cu4  1  0.493493  0.255500  0.749956  1
  Cu  Cu5  1  0.493493  0.749956  0.255500  1
  Cu  Cu6  1  0.976642  0.771683  0.771683  1
  Cu  Cu7  1  0.756352  0.254665  0.508941  1
  Cu  Cu8  1  0.756352  0.508941  0.254665  1
  Cu  Cu9  1  0.774410  0.004309  0.779108  1
  Cu  Cu10  1  0.774410  0.779108  0.004309  1
  Sb  Sb11  1  0.007882  0.003547  0.467037  1
  Sb  Sb12  1  0.544692  0.532071  0.532071  1
  Sb  Sb13  1  0.468724  0.025043  0.025043  1
  Sb  Sb14  1  0.007882  0.467037  0.003547  1
  S  S15  1  0.248418  0.251467  0.766467  1
  S  S16  1  0.248418  0.766467  0.251467  1
  S  S17  1  0.233366  0.458405  0.458405  1
  S  S18  1  0.002228  0.997906  0.997906  1
  S  S19  1  0.484936  0.222033  0.481540  1
  S  S20  1  0.484936  0.481540  0.222033  1
  S  S21  1  0.524983  0.766655  0.008312  1
  S  S22  1  0.524983  0.008312  0.766655  1
  S  S23  1  0.998093  0.523520  0.747441  1
  S  S24  1  0.998093  0.747441  0.523520  1
  S  S25  1  0.748659  0.514420  0.996490  1
  S  S26  1  0.748659  0.996490  0.514420  1
  S  S27  1  0.783500  0.263039  0.263039  1
