# generated using pymatgen
data_Pr4Si4N7ClO3
_symmetry_space_group_name_H-M   'P 1'
_cell_length_a   10.60309810
_cell_length_b   10.42905729
_cell_length_c   10.47631714
_cell_angle_alpha   90.00000000
_cell_angle_beta   90.00000000
_cell_angle_gamma   90.00000000
_symmetry_Int_Tables_number   1
_chemical_formula_structural   Pr4Si4N7ClO3
_chemical_formula_sum   'Pr16 Si16 N28 Cl4 O12'
_cell_volume   1158.47447595
_cell_formula_units_Z   4
loop_
 _symmetry_equiv_pos_site_id
 _symmetry_equiv_pos_as_xyz
  1  'x, y, z'
loop_
 _atom_site_type_symbol
 _atom_site_label
 _atom_site_symmetry_multiplicity
 _atom_site_fract_x
 _atom_site_fract_y
 _atom_site_fract_z
 _atom_site_occupancy
  Pr  Pr0  1  0.043103  0.817000  0.690161  1
  Pr  Pr1  1  0.102016  0.107628  0.108702  1
  Pr  Pr2  1  0.178577  0.193672  0.450888  1
  Pr  Pr3  1  0.189573  0.455348  0.185377  1
  Pr  Pr4  1  0.310427  0.544652  0.685377  1
  Pr  Pr5  1  0.321423  0.806328  0.950888  1
  Pr  Pr6  1  0.397984  0.892372  0.608702  1
  Pr  Pr7  1  0.456897  0.183000  0.190161  1
  Pr  Pr8  1  0.543103  0.683000  0.309839  1
  Pr  Pr9  1  0.602016  0.392372  0.891298  1
  Pr  Pr10  1  0.678577  0.306328  0.549112  1
  Pr  Pr11  1  0.689573  0.044652  0.814623  1
  Pr  Pr12  1  0.810427  0.955348  0.314623  1
  Pr  Pr13  1  0.821423  0.693672  0.049112  1
  Pr  Pr14  1  0.897984  0.607628  0.391298  1
  Pr  Pr15  1  0.956897  0.317000  0.809839  1
  Si  Si16  1  0.071296  0.571813  0.928763  1
  Si  Si17  1  0.076515  0.747503  0.197851  1
  Si  Si18  1  0.195729  0.080926  0.743689  1
  Si  Si19  1  0.245125  0.303992  0.919071  1
  Si  Si20  1  0.254875  0.696008  0.419071  1
  Si  Si21  1  0.304271  0.919074  0.243689  1
  Si  Si22  1  0.423485  0.252497  0.697851  1
  Si  Si23  1  0.428704  0.428187  0.428763  1
  Si  Si24  1  0.571296  0.928187  0.071237  1
  Si  Si25  1  0.576515  0.752497  0.802149  1
  Si  Si26  1  0.695729  0.419074  0.256311  1
  Si  Si27  1  0.745125  0.196008  0.080929  1
  Si  Si28  1  0.754875  0.803992  0.580929  1
  Si  Si29  1  0.804271  0.580926  0.756311  1
  Si  Si30  1  0.923485  0.247503  0.302149  1
  Si  Si31  1  0.928704  0.071813  0.571237  1
  N  N32  1  0.056187  0.634436  0.077437  1
  N  N33  1  0.074985  0.287082  0.260559  1
  N  N34  1  0.076544  0.053600  0.635374  1
  N  N35  1  0.130052  0.651892  0.325754  1
  N  N36  1  0.134144  0.421509  0.943159  1
  N  N37  1  0.152420  0.174257  0.871855  1
  N  N38  1  0.176383  0.871126  0.153431  1
  N  N39  1  0.323617  0.128874  0.653431  1
  N  N40  1  0.347580  0.825743  0.371855  1
  N  N41  1  0.365856  0.578491  0.443159  1
  N  N42  1  0.369948  0.348108  0.825754  1
  N  N43  1  0.423456  0.946400  0.135374  1
  N  N44  1  0.425015  0.712918  0.760559  1
  N  N45  1  0.443813  0.365564  0.577437  1
  N  N46  1  0.556187  0.865564  0.922563  1
  N  N47  1  0.574985  0.212918  0.739441  1
  N  N48  1  0.576544  0.446400  0.364626  1
  N  N49  1  0.630052  0.848108  0.674246  1
  N  N50  1  0.634144  0.078491  0.056841  1
  N  N51  1  0.652420  0.325743  0.128145  1
  N  N52  1  0.676383  0.628874  0.846569  1
  N  N53  1  0.823617  0.371126  0.346569  1
  N  N54  1  0.847580  0.674257  0.628145  1
  N  N55  1  0.865856  0.921509  0.556841  1
  N  N56  1  0.869948  0.151892  0.174246  1
  N  N57  1  0.923456  0.553600  0.864626  1
  N  N58  1  0.925015  0.787082  0.239441  1
  N  N59  1  0.943813  0.134436  0.422563  1
  Cl  Cl60  1  0.071569  0.426483  0.575319  1
  Cl  Cl61  1  0.428431  0.573517  0.075319  1
  Cl  Cl62  1  0.571569  0.073517  0.424681  1
  Cl  Cl63  1  0.928431  0.926483  0.924681  1
  O  O64  1  0.159917  0.665022  0.835488  1
  O  O65  1  0.209574  0.737813  0.568097  1
  O  O66  1  0.234318  0.930179  0.787757  1
  O  O67  1  0.265682  0.069821  0.287757  1
  O  O68  1  0.290426  0.262187  0.068097  1
  O  O69  1  0.340083  0.334978  0.335488  1
  O  O70  1  0.659917  0.834978  0.164512  1
  O  O71  1  0.709574  0.762187  0.431903  1
  O  O72  1  0.734318  0.569821  0.212243  1
  O  O73  1  0.765682  0.430179  0.712243  1
  O  O74  1  0.790426  0.237813  0.931903  1
  O  O75  1  0.840083  0.165022  0.664512  1
