# generated using pymatgen
data_RbClO4
_symmetry_space_group_name_H-M   'P 1'
_cell_length_a   5.02207676
_cell_length_b   9.03473010
_cell_length_c   7.49060355
_cell_angle_alpha   33.88833206
_cell_angle_beta   47.92875789
_cell_angle_gamma   56.23217834
_symmetry_Int_Tables_number   1
_chemical_formula_structural   RbClO4
_chemical_formula_sum   'Rb2 Cl2 O8'
_cell_volume   140.67142659
_cell_formula_units_Z   2
loop_
 _symmetry_equiv_pos_site_id
 _symmetry_equiv_pos_as_xyz
  1  'x, y, z'
loop_
 _atom_site_type_symbol
 _atom_site_label
 _atom_site_symmetry_multiplicity
 _atom_site_fract_x
 _atom_site_fract_y
 _atom_site_fract_z
 _atom_site_occupancy
  Rb  Rb0  1  0.495683  0.000018  0.501450  1
  Rb  Rb1  1  0.508984  0.506581  0.492761  1
  Cl  Cl2  1  -0.000195  0.002282  -0.000369  1
  Cl  Cl3  1  -0.001422  0.500975  -0.001298  1
  O  O4  1  0.121450  0.001939  0.130137  1
  O  O5  1  0.619098  0.002053  0.127413  1
  O  O6  1  0.129692  0.751346  0.121244  1
  O  O7  1  0.130675  0.252713  0.618501  1
  O  O8  1  0.863534  0.251216  0.381357  1
  O  O9  1  0.378475  0.498485  0.875318  1
  O  O10  1  0.882677  0.499650  0.866598  1
  O  O11  1  0.871708  0.754074  0.871404  1
