# generated using pymatgen
data_NaLaS2
_symmetry_space_group_name_H-M   'P 1'
_cell_length_a   8.20241127
_cell_length_b   11.01696673
_cell_length_c   7.35195286
_cell_angle_alpha   28.95542339
_cell_angle_beta   56.07943469
_cell_angle_gamma   41.82813629
_symmetry_Int_Tables_number   1
_chemical_formula_structural   NaLaS2
_chemical_formula_sum   'Na2 La2 S4'
_cell_volume   205.21583448
_cell_formula_units_Z   2
loop_
 _symmetry_equiv_pos_site_id
 _symmetry_equiv_pos_as_xyz
  1  'x, y, z'
loop_
 _atom_site_type_symbol
 _atom_site_label
 _atom_site_symmetry_multiplicity
 _atom_site_fract_x
 _atom_site_fract_y
 _atom_site_fract_z
 _atom_site_occupancy
  Na  Na0  1  0.002472  0.998175  0.001842  1
  Na  Na1  1  0.745803  0.505237  0.994200  1
  La  La2  1  0.250432  0.501965  0.997101  1
  La  La3  1  0.500215  0.001194  0.997732  1
  S  S4  1  0.013604  0.501281  0.470598  1
  S  S5  1  0.488768  0.499276  0.526607  1
  S  S6  1  0.262203  0.003837  0.467704  1
  S  S7  1  0.736315  0.001986  0.524129  1
