# generated using pymatgen
data_Fe2MoC10(SeO5)2
_symmetry_space_group_name_H-M   'P 1'
_cell_length_a   6.88925621
_cell_length_b   9.50959056
_cell_length_c   13.82779901
_cell_angle_alpha   81.86479782
_cell_angle_beta   82.22991119
_cell_angle_gamma   85.42509042
_symmetry_Int_Tables_number   1
_chemical_formula_structural   Fe2MoC10(SeO5)2
_chemical_formula_sum   'Fe4 Mo2 C20 Se4 O20'
_cell_volume   886.86505708
_cell_formula_units_Z   2
loop_
 _symmetry_equiv_pos_site_id
 _symmetry_equiv_pos_as_xyz
  1  'x, y, z'
loop_
 _atom_site_type_symbol
 _atom_site_label
 _atom_site_symmetry_multiplicity
 _atom_site_fract_x
 _atom_site_fract_y
 _atom_site_fract_z
 _atom_site_occupancy
  Fe  Fe0  1  0.285577  0.003146  0.273303  1
  Fe  Fe1  1  0.714423  0.996854  0.726697  1
  Fe  Fe2  1  0.643792  0.672877  0.634384  1
  Fe  Fe3  1  0.356208  0.327123  0.365616  1
  Mo  Mo4  1  0.605492  0.726072  0.834004  1
  Mo  Mo5  1  0.394508  0.273928  0.165996  1
  C  C6  1  0.547723  0.135144  0.774965  1
  C  C7  1  0.210481  0.248686  0.065466  1
  C  C8  1  0.727205  0.522135  0.859493  1
  C  C9  1  0.913582  0.049709  0.785168  1
  C  C10  1  0.208735  0.492875  0.367882  1
  C  C11  1  0.789519  0.751314  0.934534  1
  C  C12  1  0.574940  0.413579  0.376556  1
  C  C13  1  0.272795  0.477865  0.140507  1
  C  C14  1  0.426451  0.844943  0.927297  1
  C  C15  1  0.452277  0.864856  0.225035  1
  C  C16  1  0.573549  0.155057  0.072703  1
  C  C17  1  0.773159  0.083904  0.605586  1
  C  C18  1  0.698632  0.748674  0.509928  1
  C  C19  1  0.636837  0.391548  0.137437  1
  C  C20  1  0.301368  0.251326  0.490072  1
  C  C21  1  0.425060  0.586421  0.623444  1
  C  C22  1  0.226841  0.916096  0.394414  1
  C  C23  1  0.363163  0.608452  0.862563  1
  C  C24  1  0.086418  0.950291  0.214832  1
  C  C25  1  0.791265  0.507125  0.632118  1
  Se  Se26  1  0.447133  0.875319  0.687898  1
  Se  Se27  1  0.552867  0.124681  0.312102  1
  Se  Se28  1  0.900088  0.779144  0.696895  1
  Se  Se29  1  0.099912  0.220856  0.303105  1
  O  O30  1  0.192607  0.861681  0.474768  1
  O  O31  1  0.790424  0.405723  0.876607  1
  O  O32  1  0.267733  0.201267  0.571595  1
  O  O33  1  0.287859  0.529976  0.612882  1
  O  O34  1  0.895015  0.768078  0.989977  1
  O  O35  1  0.807393  0.138319  0.525232  1
  O  O36  1  0.225991  0.541379  0.876921  1
  O  O37  1  0.041432  0.084310  0.820762  1
  O  O38  1  0.325070  0.909176  0.981827  1
  O  O39  1  0.104985  0.231922  0.010023  1
  O  O40  1  0.958568  0.915690  0.179238  1
  O  O41  1  0.674930  0.090824  0.018173  1
  O  O42  1  0.209576  0.594277  0.123393  1
  O  O43  1  0.712141  0.470024  0.387118  1
  O  O44  1  0.447722  0.228422  0.803119  1
  O  O45  1  0.117297  0.600381  0.370095  1
  O  O46  1  0.732267  0.798733  0.428405  1
  O  O47  1  0.774009  0.458621  0.123079  1
  O  O48  1  0.552278  0.771578  0.196881  1
  O  O49  1  0.882703  0.399619  0.629905  1
