# generated using pymatgen
data_CdI2
_symmetry_space_group_name_H-M   'P 1'
_cell_length_a   4.34195482
_cell_length_b   4.34195509
_cell_length_c   110.42731157
_cell_angle_alpha   90.00000000
_cell_angle_beta   90.00000000
_cell_angle_gamma   119.99999793
_symmetry_Int_Tables_number   1
_chemical_formula_structural   CdI2
_chemical_formula_sum   'Cd15 I30'
_cell_volume   1802.92544172
_cell_formula_units_Z   15
loop_
 _symmetry_equiv_pos_site_id
 _symmetry_equiv_pos_as_xyz
  1  'x, y, z'
loop_
 _atom_site_type_symbol
 _atom_site_label
 _atom_site_symmetry_multiplicity
 _atom_site_fract_x
 _atom_site_fract_y
 _atom_site_fract_z
 _atom_site_occupancy
  Cd  Cd0  1  0.666667  0.333333  0.016668  1
  Cd  Cd1  1  0.666667  0.333333  0.816665  1
  Cd  Cd2  1  0.000000  0.000000  0.416670  1
  Cd  Cd3  1  0.666667  0.333333  0.616667  1
  Cd  Cd4  1  0.666667  0.333333  0.349998  1
  Cd  Cd5  1  0.000000  0.000000  0.549998  1
  Cd  Cd6  1  0.000000  0.000000  0.949994  1
  Cd  Cd7  1  0.666667  0.333333  0.283339  1
  Cd  Cd8  1  0.000000  0.000000  0.216660  1
  Cd  Cd9  1  0.000000  0.000000  0.683324  1
  Cd  Cd10  1  0.666667  0.333333  0.149999  1
  Cd  Cd11  1  0.666667  0.333333  0.483333  1
  Cd  Cd12  1  0.000000  0.000000  0.083327  1
  Cd  Cd13  1  0.000000  0.000000  0.883334  1
  Cd  Cd14  1  0.000000  0.000000  0.749996  1
  I  I15  1  0.333333  0.666667  0.565651  1
  I  I16  1  0.000000  0.000000  0.801025  1
  I  I17  1  0.333333  0.666667  0.165649  1
  I  I18  1  0.333333  0.666667  0.365650  1
  I  I19  1  0.333333  0.666667  0.898984  1
  I  I20  1  0.000000  0.000000  0.467695  1
  I  I21  1  0.333333  0.666667  0.965639  1
  I  I22  1  0.333333  0.666667  0.232316  1
  I  I23  1  0.666667  0.333333  0.401017  1
  I  I24  1  0.333333  0.666667  0.698971  1
  I  I25  1  0.000000  0.000000  0.601026  1
  I  I26  1  0.666667  0.333333  0.867689  1
  I  I27  1  0.333333  0.666667  0.765645  1
  I  I28  1  0.666667  0.333333  0.734348  1
  I  I29  1  0.333333  0.666667  0.632313  1
  I  I30  1  0.666667  0.333333  0.201019  1
  I  I31  1  0.666667  0.333333  0.534355  1
  I  I32  1  0.333333  0.666667  0.098978  1
  I  I33  1  0.000000  0.000000  0.001028  1
  I  I34  1  0.000000  0.000000  0.134361  1
  I  I35  1  0.666667  0.333333  0.067679  1
  I  I36  1  0.333333  0.666667  0.032318  1
  I  I37  1  0.000000  0.000000  0.267695  1
  I  I38  1  0.333333  0.666667  0.298986  1
  I  I39  1  0.000000  0.000000  0.334360  1
  I  I40  1  0.666667  0.333333  0.934344  1
  I  I41  1  0.333333  0.666667  0.832316  1
  I  I42  1  0.666667  0.333333  0.667670  1
  I  I43  1  0.333333  0.666667  0.432317  1
  I  I44  1  0.333333  0.666667  0.498982  1
