# generated using pymatgen
data_HNO
_symmetry_space_group_name_H-M   'P 1'
_cell_length_a   6.74572439
_cell_length_b   4.69036740
_cell_length_c   4.69036740
_cell_angle_alpha   68.92929970
_cell_angle_beta   107.62366189
_cell_angle_gamma   107.62366189
_symmetry_Int_Tables_number   1
_chemical_formula_structural   HNO
_chemical_formula_sum   'H4 N4 O4'
_cell_volume   128.80526729
_cell_formula_units_Z   4
loop_
 _symmetry_equiv_pos_site_id
 _symmetry_equiv_pos_as_xyz
  1  'x, y, z'
loop_
 _atom_site_type_symbol
 _atom_site_label
 _atom_site_symmetry_multiplicity
 _atom_site_fract_x
 _atom_site_fract_y
 _atom_site_fract_z
 _atom_site_occupancy
  H  H0  1  0.075642  0.263249  0.227276  1
  H  H1  1  0.575642  0.227276  0.263249  1
  H  H2  1  0.924358  0.736751  0.772724  1
  H  H3  1  0.424358  0.772724  0.736751  1
  N  N4  1  0.250000  0.594737  0.405263  1
  N  N5  1  0.750000  0.405263  0.594737  1
  N  N6  1  0.250000  0.814376  0.185624  1
  N  N7  1  0.750000  0.185624  0.814376  1
  O  O8  1  0.127691  0.276779  0.443715  1
  O  O9  1  0.627691  0.443715  0.276779  1
  O  O10  1  0.872309  0.723221  0.556285  1
  O  O11  1  0.372309  0.556285  0.723221  1
