# generated using pymatgen
data_TlSnF3
_symmetry_space_group_name_H-M   'P 1'
_cell_length_a   8.66113958
_cell_length_b   10.22689169
_cell_length_c   10.22689108
_cell_angle_alpha   80.38286848
_cell_angle_beta   71.96903268
_cell_angle_gamma   71.96903764
_symmetry_Int_Tables_number   1
_chemical_formula_structural   TlSnF3
_chemical_formula_sum   'Tl8 Sn8 F24'
_cell_volume   816.52520597
_cell_formula_units_Z   8
loop_
 _symmetry_equiv_pos_site_id
 _symmetry_equiv_pos_as_xyz
  1  'x, y, z'
loop_
 _atom_site_type_symbol
 _atom_site_label
 _atom_site_symmetry_multiplicity
 _atom_site_fract_x
 _atom_site_fract_y
 _atom_site_fract_z
 _atom_site_occupancy
  Tl  Tl0  1  0.251731  0.028803  0.489664  1
  Tl  Tl1  1  0.453502  0.152688  0.105034  1
  Tl  Tl2  1  0.041107  0.890267  0.854406  1
  Tl  Tl3  1  0.245714  0.519755  0.983625  1
  Tl  Tl4  1  0.751731  0.489664  0.028803  1
  Tl  Tl5  1  0.953502  0.105034  0.152688  1
  Tl  Tl6  1  0.541107  0.854406  0.890267  1
  Tl  Tl7  1  0.745714  0.983625  0.519755  1
  Sn  Sn8  1  0.044399  0.616271  0.625698  1
  Sn  Sn9  1  0.222789  0.263377  0.783495  1
  Sn  Sn10  1  0.249768  0.741533  0.260395  1
  Sn  Sn11  1  0.456544  0.363666  0.383806  1
  Sn  Sn12  1  0.544399  0.625698  0.616271  1
  Sn  Sn13  1  0.749768  0.260395  0.741533  1
  Sn  Sn14  1  0.722789  0.783495  0.263377  1
  Sn  Sn15  1  0.956544  0.383806  0.363666  1
  F  F16  1  0.080846  0.313088  0.167244  1
  F  F17  1  0.046046  0.176404  0.720883  1
  F  F18  1  0.232605  0.295674  0.379604  1
  F  F19  1  0.048778  0.821349  0.563924  1
  F  F20  1  0.273259  0.755827  0.048452  1
  F  F21  1  0.253018  0.083239  0.912820  1
  F  F22  1  0.240641  0.949756  0.236028  1
  F  F23  1  0.451815  0.434042  0.176117  1
  F  F24  1  0.398387  0.163655  0.617502  1
  F  F25  1  0.273761  0.612403  0.699214  1
  F  F26  1  0.580846  0.167244  0.313088  1
  F  F27  1  0.469059  0.273949  0.825583  1
  F  F28  1  0.546046  0.720883  0.176404  1
  F  F29  1  0.428331  0.825991  0.674370  1
  F  F30  1  0.732605  0.379604  0.295674  1
  F  F31  1  0.548778  0.563924  0.821349  1
  F  F32  1  0.773259  0.048452  0.755827  1
  F  F33  1  0.753018  0.912820  0.083239  1
  F  F34  1  0.740641  0.236028  0.949756  1
  F  F35  1  0.951815  0.176117  0.434042  1
  F  F36  1  0.898387  0.617502  0.163655  1
  F  F37  1  0.773761  0.699214  0.612403  1
  F  F38  1  0.969059  0.825583  0.273949  1
  F  F39  1  0.928331  0.674370  0.825991  1
