# generated using pymatgen
data_Cu4H7SO11
_symmetry_space_group_name_H-M   'P 1'
_cell_length_a   11.04560389
_cell_length_b   6.52594942
_cell_length_c   8.26490782
_cell_angle_alpha   90.00000000
_cell_angle_beta   118.70764799
_cell_angle_gamma   90.00000000
_symmetry_Int_Tables_number   1
_chemical_formula_structural   Cu4H7SO11
_chemical_formula_sum   'Cu8 H14 S2 O22'
_cell_volume   522.53021395
_cell_formula_units_Z   2
loop_
 _symmetry_equiv_pos_site_id
 _symmetry_equiv_pos_as_xyz
  1  'x, y, z'
loop_
 _atom_site_type_symbol
 _atom_site_label
 _atom_site_symmetry_multiplicity
 _atom_site_fract_x
 _atom_site_fract_y
 _atom_site_fract_z
 _atom_site_occupancy
  Cu  Cu0  1  0.124246  0.528181  0.064829  1
  Cu  Cu1  1  0.624246  0.471819  0.064829  1
  Cu  Cu2  1  0.583192  0.008332  0.028681  1
  Cu  Cu3  1  0.083192  0.991668  0.028681  1
  Cu  Cu4  1  0.299286  0.178078  -0.046581  1
  Cu  Cu5  1  0.799286  0.821922  -0.046581  1
  Cu  Cu6  1  0.762336  0.304422  0.897647  1
  Cu  Cu7  1  0.262336  0.695578  0.897647  1
  H  H8  1  0.665027  0.267179  0.335975  1
  H  H9  1  0.165027  0.732821  0.335975  1
  H  H10  1  0.849262  0.042718  0.754353  1
  H  H11  1  0.349262  -0.042718  0.754353  1
  H  H12  1  0.837291  0.010585  0.366064  1
  H  H13  1  0.337291  0.989415  0.366064  1
  H  H14  1  0.519258  0.329241  0.299723  1
  H  H15  1  0.019258  0.670759  0.299723  1
  H  H16  1  0.825071  0.151572  0.167871  1
  H  H17  1  0.325071  0.848428  0.167871  1
  H  H18  1  0.534597  0.438206  0.549859  1
  H  H19  1  0.034597  0.561794  0.549859  1
  H  H20  1  0.441279  0.238661  0.491748  1
  H  H21  1  0.941279  0.761339  0.491748  1
  S  S22  1  0.146447  0.256539  0.403801  1
  S  S23  1  0.646447  0.743461  0.403801  1
  O  O24  1  -0.021859  0.650959  0.445424  1
  O  O25  1  0.478141  0.349041  0.445424  1
  O  O26  1  0.372174  0.936911  0.884527  1
  O  O27  1  0.872174  0.063089  0.884527  1
  O  O28  1  0.786601  0.015972  0.170443  1
  O  O29  1  0.286601  0.984028  0.170443  1
  O  O30  1  0.574914  0.299335  0.230347  1
  O  O31  1  0.074914  0.700665  0.230347  1
  O  O32  1  0.247002  0.433886  -0.020374  1
  O  O33  1  0.747002  0.566114  -0.020374  1
  O  O34  1  0.360314  0.013254  0.505719  1
  O  O35  1  0.860314  0.986746  0.505719  1
  O  O36  1  0.119003  0.260666  0.204563  1
  O  O37  1  0.619003  0.739334  0.204563  1
  O  O38  1  0.584442  0.246899  0.894669  1
  O  O39  1  0.084442  0.753101  0.894669  1
  O  O40  1  0.521482  0.772128  0.416178  1
  O  O41  1  0.021482  0.227872  0.416178  1
  O  O42  1  0.719771  0.971910  0.482036  1
  O  O43  1  0.219771  0.028090  0.482036  1
  O  O44  1  0.742464  0.588138  0.516197  1
  O  O45  1  0.242464  0.411862  0.516197  1
