# generated using pymatgen
data_CsC2I3N2
_symmetry_space_group_name_H-M   'P 1'
_cell_length_a   4.62675046
_cell_length_b   6.79609195
_cell_length_c   16.57050395
_cell_angle_alpha   90.00002775
_cell_angle_beta   90.00000143
_cell_angle_gamma   90.00001815
_symmetry_Int_Tables_number   1
_chemical_formula_structural   CsC2I3N2
_chemical_formula_sum   'Cs2 C4 I6 N4'
_cell_volume   521.03996929
_cell_formula_units_Z   2
loop_
 _symmetry_equiv_pos_site_id
 _symmetry_equiv_pos_as_xyz
  1  'x, y, z'
loop_
 _atom_site_type_symbol
 _atom_site_label
 _atom_site_symmetry_multiplicity
 _atom_site_fract_x
 _atom_site_fract_y
 _atom_site_fract_z
 _atom_site_occupancy
  Cs  Cs0  1  0.817967  0.750000  0.250000  1
  Cs  Cs1  1  0.182033  0.250000  0.750000  1
  C  C2  1  0.719085  0.250000  0.538258  1
  C  C3  1  0.280915  0.750000  0.461742  1
  C  C4  1  0.280915  0.750000  0.038258  1
  C  C5  1  0.719085  0.250000  0.961742  1
  I  I6  1  0.906699  0.250000  0.074791  1
  I  I7  1  0.247186  0.250000  0.250000  1
  I  I8  1  0.906698  0.250000  0.425209  1
  I  I9  1  0.752814  0.750000  0.750000  1
  I  I10  1  0.093301  0.750000  0.925209  1
  I  I11  1  0.093301  0.750000  0.574791  1
  N  N12  1  0.372770  0.750000  0.104113  1
  N  N13  1  0.372770  0.750000  0.395887  1
  N  N14  1  0.627231  0.250000  0.895887  1
  N  N15  1  0.627230  0.250000  0.604113  1
