# generated using pymatgen
data_Tm2MnS4
_symmetry_space_group_name_H-M   'P 1'
_cell_length_a   7.12944202
_cell_length_b   7.12944207
_cell_length_c   7.12944221
_cell_angle_alpha   110.38690414
_cell_angle_beta   110.38690933
_cell_angle_gamma   107.65497488
_symmetry_Int_Tables_number   1
_chemical_formula_structural   Tm2MnS4
_chemical_formula_sum   'Tm4 Mn2 S8'
_cell_volume   278.75238643
_cell_formula_units_Z   2
loop_
 _symmetry_equiv_pos_site_id
 _symmetry_equiv_pos_as_xyz
  1  'x, y, z'
loop_
 _atom_site_type_symbol
 _atom_site_label
 _atom_site_symmetry_multiplicity
 _atom_site_fract_x
 _atom_site_fract_y
 _atom_site_fract_z
 _atom_site_occupancy
  Mn  Mn0  1  0.625000  0.375000  0.250000  1
  Mn  Mn1  1  0.875000  0.125000  0.750000  1
  S  S2  1  0.006201  0.884954  0.511475  1
  S  S3  1  0.994726  0.373479  0.488525  1
  S  S4  1  0.493799  0.005274  0.878753  1
  S  S5  1  0.115046  0.126521  0.121247  1
  S  S6  1  0.384954  0.506201  0.011475  1
  S  S7  1  0.626521  0.615046  0.621247  1
  S  S8  1  0.505274  0.993799  0.378753  1
  S  S9  1  0.873479  0.494726  0.988525  1
  Tm  Tm10  1  0.114077  0.750000  0.864077  1
  Tm  Tm11  1  0.250000  0.614077  0.364077  1
  Tm  Tm12  1  0.385923  0.250000  0.635923  1
  Tm  Tm13  1  0.750000  0.885923  0.135923  1
