# generated using pymatgen
data_ZnH14C2(N2Cl)4
_symmetry_space_group_name_H-M   'P 1'
_cell_length_a   7.80399621
_cell_length_b   7.78969344
_cell_length_c   24.36775586
_cell_angle_alpha   90.00000000
_cell_angle_beta   90.00000000
_cell_angle_gamma   100.35335307
_symmetry_Int_Tables_number   1
_chemical_formula_structural   ZnH14C2(N2Cl)4
_chemical_formula_sum   'Zn4 H56 C8 N32 Cl16'
_cell_volume   1457.21495346
_cell_formula_units_Z   4
loop_
 _symmetry_equiv_pos_site_id
 _symmetry_equiv_pos_as_xyz
  1  'x, y, z'
loop_
 _atom_site_type_symbol
 _atom_site_label
 _atom_site_symmetry_multiplicity
 _atom_site_fract_x
 _atom_site_fract_y
 _atom_site_fract_z
 _atom_site_occupancy
  Zn  Zn0  1  0.889107  0.127352  0.368740  1
  Zn  Zn1  1  0.110893  0.872648  0.631260  1
  Zn  Zn2  1  0.389107  0.127352  0.131260  1
  Zn  Zn3  1  0.610893  0.872648  0.868740  1
  H  H4  1  0.496497  0.346828  0.635421  1
  H  H5  1  0.778608  0.361086  0.481868  1
  H  H6  1  0.093267  0.250351  0.948347  1
  H  H7  1  0.503503  0.653172  0.364579  1
  H  H8  1  0.893123  0.650320  0.842233  1
  H  H9  1  0.415572  0.228996  0.330845  1
  H  H10  1  0.549765  0.823538  0.228625  1
  H  H11  1  0.413629  0.367141  0.252137  1
  H  H12  1  0.785804  0.302425  0.581490  1
  H  H13  1  0.584428  0.771004  0.669155  1
  H  H14  1  0.266122  0.159529  0.458240  1
  H  H15  1  0.003503  0.653172  0.135421  1
  H  H16  1  0.586371  0.632859  0.747863  1
  H  H17  1  0.863998  0.605138  0.428822  1
  H  H18  1  0.664141  0.655690  0.582090  1
  H  H19  1  0.593267  0.250351  0.551653  1
  H  H20  1  0.636002  0.394862  0.928822  1
  H  H21  1  0.393123  0.650320  0.657767  1
  H  H22  1  0.049765  0.823538  0.271375  1
  H  H23  1  0.913629  0.367141  0.247863  1
  H  H24  1  0.285804  0.302425  0.918510  1
  H  H25  1  0.498708  0.616659  0.198665  1
  H  H26  1  0.996497  0.346828  0.864579  1
  H  H27  1  0.721392  0.638914  0.981868  1
  H  H28  1  0.001292  0.383341  0.698665  1
  H  H29  1  0.178525  0.191215  0.549487  1
  H  H30  1  0.086371  0.632859  0.752137  1
  H  H31  1  0.084428  0.771004  0.830845  1
  H  H32  1  0.363998  0.605138  0.071178  1
  H  H33  1  0.450235  0.176462  0.771375  1
  H  H34  1  0.164141  0.655690  0.917910  1
  H  H35  1  0.678525  0.191215  0.950513  1
  H  H36  1  0.221392  0.638914  0.518132  1
  H  H37  1  0.906733  0.749649  0.051653  1
  H  H38  1  0.136002  0.394862  0.571178  1
  H  H39  1  0.401083  0.163604  0.675219  1
  H  H40  1  0.598917  0.836396  0.324781  1
  H  H41  1  0.233878  0.840471  0.958240  1
  H  H42  1  0.501292  0.383341  0.801335  1
  H  H43  1  0.915572  0.228996  0.169155  1
  H  H44  1  0.950235  0.176462  0.728625  1
  H  H45  1  0.214196  0.697575  0.418510  1
  H  H46  1  0.106877  0.349680  0.157767  1
  H  H47  1  0.835859  0.344310  0.082090  1
  H  H48  1  0.321475  0.808785  0.049487  1
  H  H49  1  0.335859  0.344310  0.417910  1
  H  H50  1  0.766122  0.159529  0.041760  1
  H  H51  1  0.098917  0.836396  0.175219  1
  H  H52  1  0.606877  0.349680  0.342233  1
  H  H53  1  0.998708  0.616659  0.301335  1
  H  H54  1  0.733878  0.840471  0.541760  1
  H  H55  1  0.406733  0.749649  0.448347  1
  H  H56  1  0.821475  0.808785  0.450513  1
  H  H57  1  0.714196  0.697575  0.081490  1
  H  H58  1  0.278608  0.361086  0.018132  1
  H  H59  1  0.901083  0.163604  0.824781  1
  C  C60  1  0.758045  0.609235  0.506028  1
  C  C61  1  0.241955  0.390765  0.493972  1
  C  C62  1  0.258045  0.609235  0.993972  1
  C  C63  1  0.491665  0.385176  0.717759  1
  C  C64  1  0.741955  0.390765  0.006028  1
  C  C65  1  0.008335  0.614824  0.217759  1
  C  C66  1  0.991665  0.385176  0.782241  1
  C  C67  1  0.508335  0.614824  0.282241  1
  N  N68  1  0.757217  0.438126  0.514468  1
  N  N69  1  0.186095  0.321786  0.542471  1
  N  N70  1  0.688187  0.353398  0.562629  1
  N  N71  1  0.977203  0.355500  0.163743  1
  N  N72  1  0.295978  0.291935  0.455215  1
  N  N73  1  0.963524  0.439968  0.214719  1
  N  N74  1  0.552470  0.706028  0.328223  1
  N  N75  1  0.742783  0.561874  0.014468  1
  N  N76  1  0.311813  0.646602  0.437371  1
  N  N77  1  0.477203  0.355500  0.336257  1
  N  N78  1  0.463524  0.439968  0.285281  1
  N  N79  1  0.014239  0.692009  0.266718  1
  N  N80  1  0.514239  0.692009  0.233282  1
  N  N81  1  0.447530  0.293972  0.671777  1
  N  N82  1  0.188187  0.353398  0.937371  1
  N  N83  1  0.257217  0.438126  0.985532  1
  N  N84  1  0.536476  0.560032  0.714719  1
  N  N85  1  0.704022  0.708065  0.544785  1
  N  N86  1  0.052470  0.706028  0.171777  1
  N  N87  1  0.204022  0.708065  0.955215  1
  N  N88  1  0.036476  0.560032  0.785281  1
  N  N89  1  0.813905  0.678214  0.457529  1
  N  N90  1  0.242783  0.561874  0.485532  1
  N  N91  1  0.795978  0.291935  0.044785  1
  N  N92  1  0.686095  0.321786  0.957529  1
  N  N93  1  0.522797  0.644500  0.663743  1
  N  N94  1  0.313905  0.678214  0.042471  1
  N  N95  1  0.811813  0.646602  0.062629  1
  N  N96  1  0.022797  0.644500  0.836257  1
  N  N97  1  0.485761  0.307991  0.766718  1
  N  N98  1  0.947530  0.293972  0.828223  1
  N  N99  1  0.985761  0.307991  0.733282  1
  Cl  Cl100  1  0.799505  0.935157  0.942032  1
  Cl  Cl101  1  0.894927  0.030893  0.624405  1
  Cl  Cl102  1  0.970917  0.427072  0.371486  1
  Cl  Cl103  1  0.249239  0.091643  0.214835  1
  Cl  Cl104  1  0.750761  0.908357  0.785165  1
  Cl  Cl105  1  0.394927  0.030893  0.875595  1
  Cl  Cl106  1  0.605073  0.969107  0.124405  1
  Cl  Cl107  1  0.105073  0.969107  0.375595  1
  Cl  Cl108  1  0.250761  0.908357  0.714835  1
  Cl  Cl109  1  0.029083  0.572928  0.628514  1
  Cl  Cl110  1  0.299505  0.935157  0.557968  1
  Cl  Cl111  1  0.700495  0.064843  0.442032  1
  Cl  Cl112  1  0.529083  0.572928  0.871486  1
  Cl  Cl113  1  0.470917  0.427072  0.128514  1
  Cl  Cl114  1  0.749239  0.091643  0.285165  1
  Cl  Cl115  1  0.200495  0.064843  0.057968  1
