# generated using pymatgen
data_K9(Mo6S7)8
_symmetry_space_group_name_H-M   'P 1'
_cell_length_a   10.57223666
_cell_length_b   10.57223666
_cell_length_c   24.16006372
_cell_angle_alpha   90.00000000
_cell_angle_beta   90.00000000
_cell_angle_gamma   119.99999997
_symmetry_Int_Tables_number   1
_chemical_formula_structural   K9(Mo6S7)8
_chemical_formula_sum   'K9 Mo48 S56'
_cell_volume   2338.63507905
_cell_formula_units_Z   1
loop_
 _symmetry_equiv_pos_site_id
 _symmetry_equiv_pos_as_xyz
  1  'x, y, z'
loop_
 _atom_site_type_symbol
 _atom_site_label
 _atom_site_symmetry_multiplicity
 _atom_site_fract_x
 _atom_site_fract_y
 _atom_site_fract_z
 _atom_site_occupancy
  K  K0  1  0.000000  0.000000  0.842515  1
  K  K1  1  0.333333  0.666667  0.152932  1
  K  K2  1  0.333333  0.666667  0.612144  1
  K  K3  1  0.000000  0.000000  0.045623  1
  K  K4  1  0.000000  0.000000  0.250000  1
  K  K5  1  0.000000  0.000000  0.454377  1
  K  K6  1  0.000000  0.000000  0.657485  1
  K  K7  1  0.666667  0.333333  0.347068  1
  K  K8  1  0.666667  0.333333  0.887856  1
  Mo  Mo9  1  0.207118  0.722534  0.328926  1
  Mo  Mo10  1  0.196740  0.692415  0.821612  1
  Mo  Mo11  1  0.000111  0.489786  0.536083  1
  Mo  Mo12  1  0.137647  0.709826  0.044273  1
  Mo  Mo13  1  0.992634  0.541508  0.191839  1
  Mo  Mo14  1  0.071907  0.458574  0.728014  1
  Mo  Mo15  1  0.373218  0.858358  0.422458  1
  Mo  Mo16  1  0.256640  0.762315  0.931441  1
  Mo  Mo17  1  0.141642  0.514860  0.422458  1
  Mo  Mo18  1  0.237685  0.494324  0.931441  1
  Mo  Mo19  1  0.548875  0.007366  0.191839  1
  Mo  Mo20  1  0.386667  0.928093  0.728014  1
  Mo  Mo21  1  0.489674  -0.000111  0.536083  1
  Mo  Mo22  1  0.572179  0.862353  0.044273  1
  Mo  Mo23  1  0.277466  0.484583  0.328926  1
  Mo  Mo24  1  0.307585  0.504325  0.821612  1
  Mo  Mo25  1  0.515417  0.792882  0.328926  1
  Mo  Mo26  1  0.495675  0.803260  0.821612  1
  Mo  Mo27  1  0.510214  0.510326  0.536083  1
  Mo  Mo28  1  0.290174  0.427821  0.044273  1
  Mo  Mo29  1  0.458492  0.451125  0.191839  1
  Mo  Mo30  1  0.541426  0.613333  0.728014  1
  Mo  Mo31  1  0.485140  0.626782  0.422458  1
  Mo  Mo32  1  0.505676  0.743360  0.931441  1
  Mo  Mo33  1  0.514860  0.373218  0.077542  1
  Mo  Mo34  1  0.494324  0.256640  0.568559  1
  Mo  Mo35  1  0.541508  0.548875  0.308161  1
  Mo  Mo36  1  0.458574  0.386667  0.771986  1
  Mo  Mo37  1  0.489786  0.489674  0.963917  1
  Mo  Mo38  1  0.709826  0.572179  0.455727  1
  Mo  Mo39  1  0.484583  0.207118  0.171074  1
  Mo  Mo40  1  0.504325  0.196740  0.678388  1
  Mo  Mo41  1  0.722534  0.515417  0.171074  1
  Mo  Mo42  1  0.692415  0.495675  0.678388  1
  Mo  Mo43  1  0.510326  0.000111  0.963917  1
  Mo  Mo44  1  0.427821  0.137647  0.455727  1
  Mo  Mo45  1  0.451125  0.992634  0.308161  1
  Mo  Mo46  1  0.613333  0.071907  0.771986  1
  Mo  Mo47  1  0.858358  0.485140  0.077542  1
  Mo  Mo48  1  0.762315  0.505676  0.568559  1
  Mo  Mo49  1  0.626782  0.141642  0.077542  1
  Mo  Mo50  1  0.743360  0.237685  0.568559  1
  Mo  Mo51  1  0.007366  0.458492  0.308161  1
  Mo  Mo52  1  0.928093  0.541426  0.771986  1
  Mo  Mo53  1  -0.000111  0.510214  0.963917  1
  Mo  Mo54  1  0.862353  0.290174  0.455727  1
  Mo  Mo55  1  0.792882  0.277466  0.171074  1
  Mo  Mo56  1  0.803260  0.307585  0.678388  1
  S  S57  1  0.924862  0.512525  0.400258  1
  S  S58  1  0.010767  0.685176  0.888609  1
  S  S59  1  0.980917  0.661411  0.275522  1
  S  S60  1  0.106715  0.798955  0.758254  1
  S  S61  1  0.255014  0.915491  0.495054  1
  S  S62  1  0.264788  0.948419  0.990772  1
  S  S63  1  0.035807  0.285836  0.368441  1
  S  S64  1  0.054619  0.440191  0.852759  1
  S  S65  1  0.250029  0.964193  0.368441  1
  S  S66  1  0.385572  0.945381  0.852759  1
  S  S67  1  0.084509  0.339523  0.495054  1
  S  S68  1  0.051581  0.316369  0.990772  1
  S  S69  1  0.333333  0.666667  0.013042  1
  S  S70  1  0.333333  0.666667  0.485752  1
  S  S71  1  0.333333  0.666667  0.262779  1
  S  S72  1  0.333333  0.666667  0.731515  1
  S  S73  1  0.201045  0.307760  0.758254  1
  S  S74  1  0.338589  0.319505  0.275522  1
  S  S75  1  0.587662  0.075138  0.400258  1
  S  S76  1  0.674410  0.989233  0.888609  1
  S  S77  1  0.487475  0.412338  0.400258  1
  S  S78  1  0.314824  0.325590  0.888609  1
  S  S79  1  0.680495  0.019083  0.275522  1
  S  S80  1  0.692240  0.893285  0.758254  1
  S  S81  1  0.285836  0.250029  0.131559  1
  S  S82  1  0.440191  0.385572  0.647241  1
  S  S83  1  0.339523  0.255014  0.004946  1
  S  S84  1  0.316369  0.264788  0.509228  1
  S  S85  1  0.660477  0.744986  0.495054  1
  S  S86  1  0.683631  0.735212  0.990772  1
  S  S87  1  0.714164  0.749971  0.368441  1
  S  S88  1  0.559809  0.614428  0.852759  1
  S  S89  1  0.319505  0.980917  0.224478  1
  S  S90  1  0.307760  0.106715  0.741746  1
  S  S91  1  0.685176  0.674410  0.611391  1
  S  S92  1  0.512525  0.587662  0.099742  1
  S  S93  1  0.412338  0.924862  0.099742  1
  S  S94  1  0.325590  0.010767  0.611391  1
  S  S95  1  0.798955  0.692240  0.741746  1
  S  S96  1  0.661411  0.680495  0.224478  1
  S  S97  1  0.666667  0.333333  0.237221  1
  S  S98  1  0.666667  0.333333  0.768485  1
  S  S99  1  0.666667  0.333333  0.486958  1
  S  S100  1  0.666667  0.333333  0.014248  1
  S  S101  1  0.915491  0.660477  0.004946  1
  S  S102  1  0.948419  0.683631  0.509228  1
  S  S103  1  0.749971  0.035807  0.131559  1
  S  S104  1  0.614428  0.054619  0.647241  1
  S  S105  1  0.964193  0.714164  0.131559  1
  S  S106  1  0.945381  0.559809  0.647241  1
  S  S107  1  0.744986  0.084509  0.004946  1
  S  S108  1  0.735212  0.051581  0.509228  1
  S  S109  1  0.019083  0.338589  0.224478  1
  S  S110  1  0.893285  0.201045  0.741746  1
  S  S111  1  0.075138  0.487475  0.099742  1
  S  S112  1  0.989233  0.314824  0.611391  1
