# generated using pymatgen
data_Zr(InBr3)2
_symmetry_space_group_name_H-M   'P 1'
_cell_length_a   7.54679095
_cell_length_b   7.54136515
_cell_length_c   10.91841587
_cell_angle_alpha   90.01025713
_cell_angle_beta   90.05315179
_cell_angle_gamma   90.05977354
_symmetry_Int_Tables_number   1
_chemical_formula_structural   Zr(InBr3)2
_chemical_formula_sum   'Zr2 In4 Br12'
_cell_volume   621.40034723
_cell_formula_units_Z   2
loop_
 _symmetry_equiv_pos_site_id
 _symmetry_equiv_pos_as_xyz
  1  'x, y, z'
loop_
 _atom_site_type_symbol
 _atom_site_label
 _atom_site_symmetry_multiplicity
 _atom_site_fract_x
 _atom_site_fract_y
 _atom_site_fract_z
 _atom_site_occupancy
  Zr  Zr0  1  0.500096  0.500043  0.500080  1
  Zr  Zr1  1  0.000210  0.000548  0.999923  1
  In  In2  1  0.499527  0.998009  0.249689  1
  In  In3  1  0.499242  0.998301  0.749749  1
  In  In4  1  0.999159  0.500235  0.751066  1
  In  In5  1  0.999474  0.499967  0.250272  1
  Br  Br6  1  0.296593  0.213091  0.499821  1
  Br  Br7  1  0.713552  0.796431  0.999759  1
  Br  Br8  1  0.999764  0.000383  0.757271  1
  Br  Br9  1  0.787243  0.296783  0.500076  1
  Br  Br10  1  0.499931  0.500227  0.257268  1
  Br  Br11  1  0.286925  0.203916  0.000128  1
  Br  Br12  1  0.203540  0.713547  0.999922  1
  Br  Br13  1  0.796779  0.287107  0.999838  1
  Br  Br14  1  0.500408  0.500292  0.742759  1
  Br  Br15  1  0.703803  0.787222  0.499975  1
  Br  Br16  1  0.000375  0.000011  0.242543  1
  Br  Br17  1  0.213381  0.703886  0.499859  1
