# generated using pymatgen
data_Co3Bi(CO)9
_symmetry_space_group_name_H-M   'P 1'
_cell_length_a   11.28500546
_cell_length_b   11.28500562
_cell_length_c   7.62511293
_cell_angle_alpha   90.00000000
_cell_angle_beta   90.00000000
_cell_angle_gamma   119.99999954
_symmetry_Int_Tables_number   1
_chemical_formula_structural   Co3Bi(CO)9
_chemical_formula_sum   'Co6 Bi2 C18 O18'
_cell_volume   840.96992913
_cell_formula_units_Z   2
loop_
 _symmetry_equiv_pos_site_id
 _symmetry_equiv_pos_as_xyz
  1  'x, y, z'
loop_
 _atom_site_type_symbol
 _atom_site_label
 _atom_site_symmetry_multiplicity
 _atom_site_fract_x
 _atom_site_fract_y
 _atom_site_fract_z
 _atom_site_occupancy
  Co  Co0  1  0.257569  0.515138  0.314409  1
  Co  Co1  1  0.742431  0.484862  0.814409  1
  Co  Co2  1  0.515138  0.257569  0.814409  1
  Co  Co3  1  0.742431  0.257569  0.814409  1
  Co  Co4  1  0.257569  0.742431  0.314409  1
  Co  Co5  1  0.484862  0.742431  0.314409  1
  Bi  Bi6  1  0.666667  0.333333  0.528171  1
  Bi  Bi7  1  0.333333  0.666667  0.028171  1
  C  C8  1  0.444361  0.555639  0.328724  1
  C  C9  1  0.187290  0.812710  0.173007  1
  C  C10  1  0.437122  0.218561  0.022215  1
  C  C11  1  0.812710  0.625420  0.673007  1
  C  C12  1  0.218561  0.781439  0.522215  1
  C  C13  1  0.781439  0.562878  0.022215  1
  C  C14  1  0.625420  0.812710  0.173007  1
  C  C15  1  0.888721  0.444361  0.828724  1
  C  C16  1  0.781439  0.218561  0.022215  1
  C  C17  1  0.187290  0.374580  0.173007  1
  C  C18  1  0.374580  0.187290  0.673007  1
  C  C19  1  0.111279  0.555639  0.328724  1
  C  C20  1  0.812710  0.187290  0.673007  1
  C  C21  1  0.555639  0.444361  0.828724  1
  C  C22  1  0.555639  0.111279  0.828724  1
  C  C23  1  0.218561  0.437122  0.522215  1
  C  C24  1  0.562878  0.781439  0.522215  1
  C  C25  1  0.444361  0.888721  0.328724  1
  O  O26  1  0.863098  0.726197  0.592355  1
  O  O27  1  0.495527  0.991055  0.843505  1
  O  O28  1  0.136902  0.863098  0.092355  1
  O  O29  1  0.273803  0.136902  0.592355  1
  O  O30  1  0.008945  0.504473  0.843505  1
  O  O31  1  0.616624  0.808312  0.657595  1
  O  O32  1  0.504473  0.495527  0.343505  1
  O  O33  1  0.863098  0.136902  0.592355  1
  O  O34  1  0.495527  0.504473  0.843505  1
  O  O35  1  0.191688  0.808312  0.657595  1
  O  O36  1  0.136902  0.273803  0.092355  1
  O  O37  1  0.726197  0.863098  0.092355  1
  O  O38  1  0.191688  0.383376  0.657595  1
  O  O39  1  0.504473  0.008945  0.343505  1
  O  O40  1  0.383376  0.191688  0.157595  1
  O  O41  1  0.808312  0.191688  0.157595  1
  O  O42  1  0.808312  0.616624  0.157595  1
  O  O43  1  0.991055  0.495527  0.343505  1
