# generated using pymatgen
data_CuGe2P3
_symmetry_space_group_name_H-M   'P 1'
_cell_length_a   3.76130114
_cell_length_b   7.60547114
_cell_length_c   17.19373565
_cell_angle_alpha   49.24007530
_cell_angle_beta   56.84540249
_cell_angle_gamma   60.35978101
_symmetry_Int_Tables_number   1
_chemical_formula_structural   CuGe2P3
_chemical_formula_sum   'Cu2 Ge4 P6'
_cell_volume   304.48285179
_cell_formula_units_Z   2
loop_
 _symmetry_equiv_pos_site_id
 _symmetry_equiv_pos_as_xyz
  1  'x, y, z'
loop_
 _atom_site_type_symbol
 _atom_site_label
 _atom_site_symmetry_multiplicity
 _atom_site_fract_x
 _atom_site_fract_y
 _atom_site_fract_z
 _atom_site_occupancy
  Cu  Cu0  1  0.971432  0.848838  0.271892  1
  Cu  Cu1  1  0.000940  0.254089  0.497988  1
  Ge  Ge2  1  0.999149  0.376055  0.249919  1
  Ge  Ge3  1  0.009118  0.138066  0.741127  1
  Ge  Ge4  1  0.016662  0.743309  0.496011  1
  Ge  Ge5  1  0.011258  0.623942  0.745920  1
  P  P6  1  0.243318  0.479417  0.310906  1
  P  P7  1  0.277673  0.345082  0.550898  1
  P  P8  1  0.265250  0.977403  0.302939  1
  P  P9  1  0.227874  0.198054  0.829629  1
  P  P10  1  0.246407  0.868317  0.554111  1
  P  P11  1  0.230919  0.709928  0.823661  1
