# generated using pymatgen
data_Mg3BH2O5F
_symmetry_space_group_name_H-M   'P 1'
_cell_length_a   9.06792378
_cell_length_b   9.01338700
_cell_length_c   3.18210039
_cell_angle_alpha   90.00000000
_cell_angle_beta   90.00000000
_cell_angle_gamma   120.25185047
_symmetry_Int_Tables_number   1
_chemical_formula_structural   Mg3BH2O5F
_chemical_formula_sum   'Mg6 B2 H4 O10 F2'
_cell_volume   224.66355482
_cell_formula_units_Z   2
loop_
 _symmetry_equiv_pos_site_id
 _symmetry_equiv_pos_as_xyz
  1  'x, y, z'
loop_
 _atom_site_type_symbol
 _atom_site_label
 _atom_site_symmetry_multiplicity
 _atom_site_fract_x
 _atom_site_fract_y
 _atom_site_fract_z
 _atom_site_occupancy
  Mg  Mg0  1  0.021989  0.364668  0.750000  1
  Mg  Mg1  1  0.339330  0.965298  0.750000  1
  Mg  Mg2  1  0.367774  0.337940  0.250000  1
  Mg  Mg3  1  0.628643  0.654796  0.750000  1
  Mg  Mg4  1  0.648711  0.021212  0.250000  1
  Mg  Mg5  1  0.967845  0.629018  0.250000  1
  B  B6  1  0.326733  0.659648  0.250000  1
  B  B7  1  0.663853  0.331330  0.750000  1
  H  H8  1  0.142489  0.147674  0.750000  1
  H  H9  1  0.818521  0.984807  0.750000  1
  H  H10  1  0.858807  0.831930  0.250000  1
  H  H11  1  0.985756  0.152320  0.250000  1
  O  O12  1  0.150489  0.547015  0.250000  1
  O  O13  1  0.389667  0.838003  0.250000  1
  O  O14  1  0.193822  0.271705  0.750000  1
  O  O15  1  0.439268  0.596726  0.250000  1
  O  O16  1  0.696415  0.907048  0.750000  1
  O  O17  1  0.550072  0.393845  0.750000  1
  O  O18  1  0.795762  0.707460  0.250000  1
  O  O19  1  0.598098  0.153586  0.750000  1
  O  O20  1  0.840079  0.444207  0.750000  1
  O  O21  1  0.906508  0.195370  0.250000  1
  F  F22  1  0.091935  0.790093  0.750000  1
  F  F23  1  0.297433  0.084304  0.250000  1
