# generated using pymatgen
data_YNiBC
_symmetry_space_group_name_H-M   'P 1'
_cell_length_a   3.58995687
_cell_length_b   3.59014468
_cell_length_c   7.54355388
_cell_angle_alpha   90.04661431
_cell_angle_beta   89.96158301
_cell_angle_gamma   90.00000976
_symmetry_Int_Tables_number   1
_chemical_formula_structural   YNiBC
_chemical_formula_sum   'Y2 Ni2 B2 C2'
_cell_volume   97.22477277
_cell_formula_units_Z   2
loop_
 _symmetry_equiv_pos_site_id
 _symmetry_equiv_pos_as_xyz
  1  'x, y, z'
loop_
 _atom_site_type_symbol
 _atom_site_label
 _atom_site_symmetry_multiplicity
 _atom_site_fract_x
 _atom_site_fract_y
 _atom_site_fract_z
 _atom_site_occupancy
  Y  Y0  1  0.750617  0.749074  0.834844  1
  Y  Y1  1  0.249376  0.250766  0.165085  1
  Ni  Ni2  1  0.750067  0.250265  0.500299  1
  Ni  Ni3  1  0.249884  0.749977  0.499651  1
  B  B4  1  0.249961  0.250055  0.643717  1
  B  B5  1  0.750140  0.750008  0.356323  1
  C  C6  1  0.749357  0.750751  0.158100  1
  C  C7  1  0.250598  0.249104  0.841981  1
