# generated using pymatgen
data_H4NClO2
_symmetry_space_group_name_H-M   'P 1'
_cell_length_a   6.48478887
_cell_length_b   6.48478887
_cell_length_c   3.78620429
_cell_angle_alpha   90.00000000
_cell_angle_beta   90.00000000
_cell_angle_gamma   90.00000000
_symmetry_Int_Tables_number   1
_chemical_formula_structural   H4NClO2
_chemical_formula_sum   'H8 N2 Cl2 O4'
_cell_volume   159.21930551
_cell_formula_units_Z   2
loop_
 _symmetry_equiv_pos_site_id
 _symmetry_equiv_pos_as_xyz
  1  'x, y, z'
loop_
 _atom_site_type_symbol
 _atom_site_label
 _atom_site_symmetry_multiplicity
 _atom_site_fract_x
 _atom_site_fract_y
 _atom_site_fract_z
 _atom_site_occupancy
  H  H0  1  0.373305  0.458473  0.341668  1
  H  H1  1  0.126695  0.958473  0.658332  1
  H  H2  1  0.626695  0.541527  0.341668  1
  H  H3  1  0.873305  0.041527  0.658332  1
  H  H4  1  0.541527  0.373305  0.658332  1
  H  H5  1  0.958473  0.873305  0.341668  1
  H  H6  1  0.458473  0.626695  0.658332  1
  H  H7  1  0.041527  0.126695  0.341668  1
  N  N8  1  0.500000  0.500000  0.500000  1
  N  N9  1  0.000000  0.000000  0.500000  1
  Cl  Cl10  1  0.000000  0.500000  0.890816  1
  Cl  Cl11  1  0.500000  0.000000  0.109184  1
  O  O12  1  0.644723  0.144723  0.877557  1
  O  O13  1  0.855277  0.644723  0.122443  1
  O  O14  1  0.355277  0.855277  0.877557  1
  O  O15  1  0.144723  0.355277  0.122443  1
