# generated using pymatgen
data_Mn5Si2
_symmetry_space_group_name_H-M   'P 1'
_cell_length_a   8.53070712
_cell_length_b   8.72373662
_cell_length_c   8.72373662
_cell_angle_alpha   90.00000000
_cell_angle_beta   90.00000000
_cell_angle_gamma   90.00000000
_symmetry_Int_Tables_number   1
_chemical_formula_structural   Mn5Si2
_chemical_formula_sum   'Mn40 Si16'
_cell_volume   649.21735701
_cell_formula_units_Z   8
loop_
 _symmetry_equiv_pos_site_id
 _symmetry_equiv_pos_as_xyz
  1  'x, y, z'
loop_
 _atom_site_type_symbol
 _atom_site_label
 _atom_site_symmetry_multiplicity
 _atom_site_fract_x
 _atom_site_fract_y
 _atom_site_fract_z
 _atom_site_occupancy
  Mn  Mn0  1  0.000000  0.863732  0.863732  1
  Mn  Mn1  1  0.000000  0.546387  0.546387  1
  Mn  Mn2  1  0.902083  0.723699  0.326010  1
  Mn  Mn3  1  0.785622  0.456706  0.369063  1
  Mn  Mn4  1  0.250000  0.953613  0.046387  1
  Mn  Mn5  1  0.169726  0.814282  0.579616  1
  Mn  Mn6  1  0.035622  0.130937  0.956706  1
  Mn  Mn7  1  0.152083  0.173990  0.223699  1
  Mn  Mn8  1  0.080274  0.685718  0.079616  1
  Mn  Mn9  1  0.714378  0.630937  0.543294  1
  Mn  Mn10  1  0.500000  0.453613  0.453613  1
  Mn  Mn11  1  0.580274  0.314282  0.920384  1
  Mn  Mn12  1  0.214378  0.369063  0.456706  1
  Mn  Mn13  1  0.073928  0.398112  0.009259  1
  Mn  Mn14  1  0.323928  0.490741  0.898112  1
  Mn  Mn15  1  0.830274  0.579616  0.814282  1
  Mn  Mn16  1  0.919726  0.079616  0.685718  1
  Mn  Mn17  1  0.500000  0.136268  0.136268  1
  Mn  Mn18  1  0.597917  0.673990  0.276301  1
  Mn  Mn19  1  0.176072  0.101888  0.509259  1
  Mn  Mn20  1  0.652083  0.826010  0.776301  1
  Mn  Mn21  1  0.669726  0.185718  0.420384  1
  Mn  Mn22  1  0.847917  0.223699  0.173990  1
  Mn  Mn23  1  0.535622  0.869063  0.043294  1
  Mn  Mn24  1  0.285622  0.543294  0.630937  1
  Mn  Mn25  1  0.330274  0.420384  0.185718  1
  Mn  Mn26  1  0.926072  0.009259  0.398112  1
  Mn  Mn27  1  0.750000  0.046387  0.953613  1
  Mn  Mn28  1  0.250000  0.636268  0.363732  1
  Mn  Mn29  1  0.676072  0.898112  0.490741  1
  Mn  Mn30  1  0.823928  0.509259  0.101888  1
  Mn  Mn31  1  0.573928  0.601888  0.990741  1
  Mn  Mn32  1  0.419726  0.920384  0.314282  1
  Mn  Mn33  1  0.402083  0.276301  0.673990  1
  Mn  Mn34  1  0.097917  0.326010  0.723699  1
  Mn  Mn35  1  0.426072  0.990741  0.601888  1
  Mn  Mn36  1  0.464378  0.043294  0.869063  1
  Mn  Mn37  1  0.750000  0.363732  0.636268  1
  Mn  Mn38  1  0.347917  0.776301  0.826010  1
  Mn  Mn39  1  0.964378  0.956706  0.130937  1
  Si  Si40  1  0.351222  0.692722  0.116155  1
  Si  Si41  1  0.898778  0.807278  0.616155  1
  Si  Si42  1  0.148778  0.883845  0.307278  1
  Si  Si43  1  0.851222  0.307278  0.883845  1
  Si  Si44  1  0.048114  0.467409  0.265495  1
  Si  Si45  1  0.201885  0.032591  0.765495  1
  Si  Si46  1  0.648778  0.116155  0.692722  1
  Si  Si47  1  0.101222  0.616155  0.807278  1
  Si  Si48  1  0.548114  0.532591  0.734505  1
  Si  Si49  1  0.798114  0.765495  0.032591  1
  Si  Si50  1  0.701886  0.967409  0.234505  1
  Si  Si51  1  0.451885  0.734505  0.532591  1
  Si  Si52  1  0.398778  0.192722  0.383845  1
  Si  Si53  1  0.298115  0.234505  0.967409  1
  Si  Si54  1  0.601222  0.383845  0.192722  1
  Si  Si55  1  0.951886  0.265495  0.467409  1
