# generated using pymatgen
data_La13Al12Si18(N13O5)3
_symmetry_space_group_name_H-M   'P 1'
_cell_length_a   11.72912362
_cell_length_b   11.76760015
_cell_length_c   11.76760016
_cell_angle_alpha   109.53735976
_cell_angle_beta   109.40500113
_cell_angle_gamma   109.40500103
_symmetry_Int_Tables_number   1
_chemical_formula_structural   La13Al12Si18(N13O5)3
_chemical_formula_sum   'La13 Al12 Si18 N39 O15'
_cell_volume   1251.33543951
_cell_formula_units_Z   1
loop_
 _symmetry_equiv_pos_site_id
 _symmetry_equiv_pos_as_xyz
  1  'x, y, z'
loop_
 _atom_site_type_symbol
 _atom_site_label
 _atom_site_symmetry_multiplicity
 _atom_site_fract_x
 _atom_site_fract_y
 _atom_site_fract_z
 _atom_site_occupancy
  La  La0  1  0.992634  0.315544  0.572608  1
  La  La1  1  0.992634  0.572608  0.315544  1
  La  La2  1  0.324574  1.000000  0.577014  1
  La  La3  1  0.259514  0.669753  0.669753  1
  La  La4  1  0.992204  0.000000  0.000000  1
  La  La5  1  0.420026  0.742936  0.427393  1
  La  La6  1  0.420026  0.427393  0.742936  1
  La  La7  1  0.324574  0.577014  1.000000  1
  La  La8  1  0.677090  0.684456  0.257064  1
  La  La9  1  0.677090  0.257064  0.684456  1
  La  La10  1  0.747560  0.422986  0.422986  1
  La  La11  1  0.589760  1.000000  0.330247  1
  La  La12  1  0.589760  0.330247  1.000000  1
  Al  Al13  1  0.000321  0.839471  0.246590  1
  Al  Al14  1  0.000321  0.246590  0.839471  1
  Al  Al15  1  0.245610  0.000000  0.838422  1
  Al  Al16  1  0.160850  0.160529  0.407119  1
  Al  Al17  1  0.160850  0.407119  0.160529  1
  Al  Al18  1  0.245610  0.838422  0.000000  1
  Al  Al19  1  0.590384  0.752296  0.752296  1
  Al  Al20  1  0.753731  0.592881  0.753410  1
  Al  Al21  1  0.753731  0.753410  0.592881  1
  Al  Al22  1  0.407189  0.161578  0.161578  1
  Al  Al23  1  0.838088  1.000000  0.247704  1
  Al  Al24  1  0.838088  0.247704  1.000000  1
  Si  Si25  1  0.001036  0.700056  0.700056  1
  Si  Si26  1  0.999460  0.540091  0.839903  1
  Si  Si27  1  0.999460  0.839903  0.540091  1
  Si  Si28  1  0.159557  0.160097  0.700188  1
  Si  Si29  1  0.159557  0.700188  0.160097  1
  Si  Si30  1  0.540102  1.000000  0.842273  1
  Si  Si31  1  0.301852  0.461071  0.461071  1
  Si  Si32  1  0.300980  0.000000  0.299944  1
  Si  Si33  1  0.300980  0.299944  0.000000  1
  Si  Si34  1  0.459368  0.299812  0.459909  1
  Si  Si35  1  0.459368  0.459909  0.299812  1
  Si  Si36  1  0.540102  0.842273  1.000000  1
  Si  Si37  1  0.840781  0.000000  0.538929  1
  Si  Si38  1  0.702402  1.000000  0.703636  1
  Si  Si39  1  0.702402  0.703636  1.000000  1
  Si  Si40  1  0.697829  0.157727  0.157727  1
  Si  Si41  1  0.840781  0.538929  0.000000  1
  Si  Si42  1  0.998766  0.296364  0.296364  1
  N  N43  1  0.000251  0.696885  0.551108  1
  N  N44  1  0.000251  0.551108  0.696885  1
  N  N45  1  0.149926  0.000000  0.673682  1
  N  N46  1  0.148821  0.846181  0.846181  1
  N  N47  1  0.156671  1.000000  0.308308  1
  N  N48  1  0.001135  0.678060  0.149594  1
  N  N49  1  0.001135  0.149594  0.678060  1
  N  N50  1  0.141770  0.444495  0.444495  1
  N  N51  1  0.000153  0.151925  0.299732  1
  N  N52  1  0.000153  0.299732  0.151925  1
  N  N53  1  0.303366  0.854223  0.303115  1
  N  N54  1  0.303366  0.303115  0.854223  1
  N  N55  1  0.149926  0.673682  0.000000  1
  N  N56  1  0.302640  0.000000  0.153819  1
  N  N57  1  0.527134  0.853333  0.853333  1
  N  N58  1  0.421176  0.610533  0.610533  1
  N  N59  1  0.156671  0.308308  1.000000  1
  N  N60  1  0.323075  0.321940  0.471534  1
  N  N61  1  0.323075  0.471534  0.321940  1
  N  N62  1  0.697275  0.000000  0.555505  1
  N  N63  1  0.700421  0.852193  0.700268  1
  N  N64  1  0.700421  0.700268  0.852193  1
  N  N65  1  0.449143  0.448892  0.145777  1
  N  N66  1  0.449143  0.145777  0.448892  1
  N  N67  1  0.476244  0.326318  0.326318  1
  N  N68  1  0.302640  0.153819  0.000000  1
  N  N69  1  0.552395  0.000000  0.699590  1
  N  N70  1  0.552395  0.699590  0.000000  1
  N  N71  1  0.810643  0.000000  0.389467  1
  N  N72  1  0.848363  0.691692  0.691692  1
  N  N73  1  0.851541  0.850406  0.528466  1
  N  N74  1  0.851541  0.528466  0.850406  1
  N  N75  1  0.697275  0.555505  0.000000  1
  N  N76  1  0.848228  0.147807  0.848075  1
  N  N77  1  0.848228  0.848075  0.147807  1
  N  N78  1  0.673801  0.000000  0.146667  1
  N  N79  1  0.673801  0.146667  0.000000  1
  N  N80  1  0.852805  0.300410  0.300410  1
  N  N81  1  0.810643  0.389467  0.000000  1
  O  O82  1  0.249194  0.752274  0.495396  1
  O  O83  1  0.249194  0.495396  0.752274  1
  O  O84  1  0.183742  0.576215  0.185780  1
  O  O85  1  0.183742  0.185780  0.576215  1
  O  O86  1  0.390593  1.000000  0.814708  1
  O  O87  1  0.390593  0.814708  1.000000  1
  O  O88  1  0.496921  0.247726  0.743123  1
  O  O89  1  0.496921  0.743123  0.247726  1
  O  O90  1  0.607526  0.609565  0.423785  1
  O  O91  1  0.607526  0.423785  0.609565  1
  O  O92  1  0.575885  0.185292  0.185292  1
  O  O93  1  0.753798  0.504604  0.256877  1
  O  O94  1  0.753798  0.256877  0.504604  1
  O  O95  1  0.997961  0.814220  0.390435  1
  O  O96  1  0.997961  0.390435  0.814220  1
