# generated using pymatgen
data_LiZnPO4
_symmetry_space_group_name_H-M   'P 1'
_cell_length_a   9.87990501
_cell_length_b   10.04042068
_cell_length_c   17.12004012
_cell_angle_alpha   74.25070491
_cell_angle_beta   73.22895774
_cell_angle_gamma   60.52744775
_symmetry_Int_Tables_number   1
_chemical_formula_structural   LiZnPO4
_chemical_formula_sum   'Li16 Zn16 P16 O64'
_cell_volume   1398.44332657
_cell_formula_units_Z   16
loop_
 _symmetry_equiv_pos_site_id
 _symmetry_equiv_pos_as_xyz
  1  'x, y, z'
loop_
 _atom_site_type_symbol
 _atom_site_label
 _atom_site_symmetry_multiplicity
 _atom_site_fract_x
 _atom_site_fract_y
 _atom_site_fract_z
 _atom_site_occupancy
  Li  Li0  1  0.892561  0.999424  0.088970  1
  Li  Li1  1  0.393803  0.558638  0.088255  1
  Li  Li2  1  0.144425  0.730215  0.339329  1
  Li  Li3  1  0.518804  0.985754  0.589748  1
  Li  Li4  1  0.646826  0.230667  0.339028  1
  Li  Li5  1  0.783478  0.730667  0.839028  1
  Li  Li6  1  0.395393  0.052875  0.086447  1
  Li  Li7  1  0.959304  0.058638  0.588255  1
  Li  Li8  1  0.283815  0.671858  0.839009  1
  Li  Li9  1  0.286166  0.168706  0.837852  1
  Li  Li10  1  0.786031  0.230215  0.839329  1
  Li  Li11  1  0.707276  0.668706  0.337852  1
  Li  Li12  1  0.905694  0.485754  0.089748  1
  Li  Li13  1  0.019045  0.499424  0.588970  1
  Li  Li14  1  0.205318  0.171858  0.339009  1
  Li  Li15  1  0.465284  0.552875  0.586447  1
  Zn  Zn16  1  0.655343  0.547473  0.714222  1
  Zn  Zn17  1  0.582216  0.553329  0.214871  1
  Zn  Zn18  1  0.337729  0.433516  0.464153  1
  Zn  Zn19  1  0.401997  0.871883  0.463279  1
  Zn  Zn20  1  0.837715  0.932561  0.464303  1
  Zn  Zn21  1  0.764603  0.933516  0.964153  1
  Zn  Zn22  1  0.266535  0.868931  0.963932  1
  Zn  Zn23  1  0.765421  0.432561  0.964303  1
  Zn  Zn24  1  0.152308  0.105046  0.714288  1
  Zn  Zn25  1  0.082962  0.047473  0.214222  1
  Zn  Zn26  1  0.262842  0.371883  0.963279  1
  Zn  Zn27  1  0.149248  0.608821  0.714725  1
  Zn  Zn28  1  0.649584  0.053329  0.714871  1
  Zn  Zn29  1  0.900602  0.368931  0.463932  1
  Zn  Zn30  1  0.527206  0.108821  0.214725  1
  Zn  Zn31  1  0.028358  0.605046  0.214288  1
  P  P32  1  0.086159  0.178869  0.024498  1
  P  P33  1  0.963115  0.420235  0.777592  1
  P  P34  1  0.463066  0.864639  0.775757  1
  P  P35  1  0.839058  0.920235  0.277592  1
  P  P36  1  0.649477  0.235000  0.526806  1
  P  P37  1  0.150597  0.739386  0.526860  1
  P  P38  1  0.588718  0.735000  0.026806  1
  P  P39  1  0.960233  0.924598  0.777428  1
  P  P40  1  0.896538  0.364639  0.275757  1
  P  P41  1  0.460460  0.369057  0.775757  1
  P  P42  1  0.710474  0.678869  0.524498  1
  P  P43  1  0.394725  0.869058  0.275757  1
  P  P44  1  0.337741  0.424598  0.277428  1
  P  P45  1  0.084418  0.681491  0.025658  1
  P  P46  1  0.583157  0.239386  0.026860  1
  P  P47  1  0.208433  0.181491  0.525658  1
  O  O48  1  0.252843  0.855568  0.262903  1
  O  O49  1  0.697675  0.159479  0.448396  1
  O  O50  1  0.476351  0.202940  0.787288  1
  O  O51  1  0.067360  0.545373  0.010017  1
  O  O52  1  0.604188  0.125744  0.601080  1
  O  O53  1  0.919645  0.823287  0.039091  1
  O  O54  1  0.941655  0.972088  0.199525  1
  O  O55  1  0.194347  0.660513  0.450294  1
  O  O56  1  0.163289  0.130290  0.101525  1
  O  O57  1  0.124349  0.782834  0.761250  1
  O  O58  1  0.010000  0.903712  0.515073  1
  O  O59  1  0.879189  0.542488  0.509325  1
  O  O60  1  0.751558  0.357078  0.262382  1
  O  O61  1  0.656208  0.133366  0.104003  1
  O  O62  1  0.694450  0.659479  0.948396  1
  O  O63  1  0.720716  0.819142  0.539525  1
  O  O64  1  0.668988  0.625744  0.101080  1
  O  O65  1  0.292788  0.752378  0.539560  1
  O  O66  1  0.419149  0.380921  0.352103  1
  O  O67  1  0.574591  0.899866  0.015312  1
  O  O68  1  0.630910  0.723041  0.448840  1
  O  O69  1  0.510230  0.399866  0.515312  1
  O  O70  1  0.165306  0.554986  0.294524  1
  O  O71  1  0.831968  0.778153  0.262032  1
  O  O72  1  0.199721  0.721041  0.950539  1
  O  O73  1  0.197210  0.223041  0.948840  1
  O  O74  1  0.331567  0.282834  0.261250  1
  O  O75  1  0.920617  0.319142  0.039525  1
  O  O76  1  0.128700  0.221041  0.450539  1
  O  O77  1  0.985184  0.054986  0.794524  1
  O  O78  1  0.984959  0.552529  0.793774  1
  O  O79  1  0.571215  0.403712  0.015073  1
  O  O80  1  0.437195  0.482469  0.200759  1
  O  O81  1  0.127847  0.278153  0.762032  1
  O  O82  1  0.879577  0.982469  0.700759  1
  O  O83  1  0.694846  0.160513  0.950294  1
  O  O84  1  0.441586  0.975499  0.199980  1
  O  O85  1  0.106423  0.633366  0.604003  1
  O  O86  1  0.385532  0.968963  0.699443  1
  O  O87  1  0.349199  0.947046  0.352754  1
  O  O88  1  0.852946  0.443904  0.352241  1
  O  O89  1  0.847828  0.880921  0.852103  1
  O  O90  1  0.032067  0.197881  0.287693  1
  O  O91  1  0.217977  0.323287  0.539091  1
  O  O92  1  0.415275  0.252378  0.039560  1
  O  O93  1  0.604897  0.630290  0.601525  1
  O  O94  1  0.157409  0.635341  0.104098  1
  O  O95  1  0.418908  0.750029  0.040938  1
  O  O96  1  0.377250  0.045373  0.510017  1
  O  O97  1  0.790125  0.250029  0.540938  1
  O  O98  1  0.382934  0.475499  0.699980  1
  O  O99  1  0.668737  0.052529  0.293774  1
  O  O100  1  0.533421  0.702940  0.287288  1
  O  O101  1  0.482359  0.697881  0.787693  1
  O  O102  1  0.068997  0.042488  0.009325  1
  O  O103  1  0.886732  0.472088  0.699525  1
  O  O104  1  0.103151  0.135341  0.604098  1
  O  O105  1  0.920147  0.878181  0.352263  1
  O  O106  1  0.350909  0.943904  0.852241  1
  O  O107  1  0.946062  0.468963  0.199443  1
  O  O108  1  0.849409  0.378181  0.852263  1
  O  O109  1  0.628982  0.857078  0.762382  1
  O  O110  1  0.628686  0.355568  0.762903  1
  O  O111  1  0.351001  0.447046  0.852754  1
