# generated using pymatgen
data_KEu(WO4)2
_symmetry_space_group_name_H-M   'P 1'
_cell_length_a   7.75231546
_cell_length_b   7.75231518
_cell_length_c   7.48463127
_cell_angle_alpha   62.52403357
_cell_angle_beta   62.52403447
_cell_angle_gamma   88.96685943
_symmetry_Int_Tables_number   1
_chemical_formula_structural   KEu(WO4)2
_chemical_formula_sum   'K2 Eu2 W4 O16'
_cell_volume   343.04488774
_cell_formula_units_Z   2
loop_
 _symmetry_equiv_pos_site_id
 _symmetry_equiv_pos_as_xyz
  1  'x, y, z'
loop_
 _atom_site_type_symbol
 _atom_site_label
 _atom_site_symmetry_multiplicity
 _atom_site_fract_x
 _atom_site_fract_y
 _atom_site_fract_z
 _atom_site_occupancy
  Eu  Eu0  1  0.274108  0.725892  0.250000  1
  Eu  Eu1  1  0.725892  0.274108  0.750000  1
  K  K2  1  0.293528  0.706472  0.750000  1
  K  K3  1  0.706472  0.293528  0.250000  1
  W  W4  1  0.189876  0.199961  0.784882  1
  W  W5  1  0.810124  0.800039  0.215118  1
  W  W6  1  0.800039  0.810124  0.715118  1
  W  W7  1  0.199961  0.189876  0.284882  1
  O  O8  1  0.454234  0.279573  0.683319  1
  O  O9  1  0.248684  0.124681  0.557542  1
  O  O10  1  0.124681  0.248684  0.057542  1
  O  O11  1  0.127967  0.911571  0.027948  1
  O  O12  1  0.279573  0.454234  0.183319  1
  O  O13  1  0.720427  0.545766  0.816681  1
  O  O14  1  0.126728  0.434682  0.632189  1
  O  O15  1  0.875319  0.751316  0.942458  1
  O  O16  1  0.545766  0.720427  0.316681  1
  O  O17  1  0.434682  0.126728  0.132189  1
  O  O18  1  0.751316  0.875319  0.442458  1
  O  O19  1  0.088429  0.872033  0.472052  1
  O  O20  1  0.911571  0.127967  0.527948  1
  O  O21  1  0.872033  0.088429  0.972052  1
  O  O22  1  0.565318  0.873272  0.867811  1
  O  O23  1  0.873272  0.565318  0.367811  1
