# generated using pymatgen
data_SbH3CS2N
_symmetry_space_group_name_H-M   'P 1'
_cell_length_a   6.97044759
_cell_length_b   7.92684827
_cell_length_c   12.19507753
_cell_angle_alpha   94.59187274
_cell_angle_beta   97.52035162
_cell_angle_gamma   107.87197904
_symmetry_Int_Tables_number   1
_chemical_formula_structural   SbH3CS2N
_chemical_formula_sum   'Sb4 H12 C4 S8 N4'
_cell_volume   630.60910381
_cell_formula_units_Z   4
loop_
 _symmetry_equiv_pos_site_id
 _symmetry_equiv_pos_as_xyz
  1  'x, y, z'
loop_
 _atom_site_type_symbol
 _atom_site_label
 _atom_site_symmetry_multiplicity
 _atom_site_fract_x
 _atom_site_fract_y
 _atom_site_fract_z
 _atom_site_occupancy
  Sb  Sb0  1  0.518017  0.697821  0.374593  1
  Sb  Sb1  1  0.481983  0.302179  0.625407  1
  Sb  Sb2  1  0.123768  0.707735  0.155309  1
  Sb  Sb3  1  0.876232  0.292265  0.844691  1
  H  H4  1  0.109758  0.705123  0.581856  1
  H  H5  1  0.890242  0.294877  0.418144  1
  H  H6  1  0.729319  0.682220  0.635073  1
  H  H7  1  0.270681  0.317780  0.364927  1
  H  H8  1  0.078730  0.716543  0.722658  1
  H  H9  1  0.921270  0.283457  0.277342  1
  H  H10  1  0.886731  0.670469  0.901273  1
  H  H11  1  0.113269  0.329531  0.098727  1
  H  H12  1  0.546263  0.706312  0.824769  1
  H  H13  1  0.453737  0.293688  0.175231  1
  H  H14  1  0.531952  0.714418  0.968254  1
  H  H15  1  0.468048  0.285582  0.031746  1
  C  C16  1  0.146797  0.955204  0.658955  1
  C  C17  1  0.853203  0.044796  0.341045  1
  C  C18  1  0.682025  0.951412  0.917954  1
  C  C19  1  0.317975  0.048588  0.082046  1
  S  S20  1  0.475149  0.358495  0.368710  1
  S  S21  1  0.524851  0.641505  0.631290  1
  S  S22  1  0.159029  0.675955  0.367895  1
  S  S23  1  0.840971  0.324045  0.632105  1
  S  S24  1  0.465830  0.680704  0.162265  1
  S  S25  1  0.534170  0.319296  0.837735  1
  S  S26  1  0.933246  0.359777  0.103075  1
  S  S27  1  0.066754  0.640223  0.896925  1
  N  N28  1  0.107644  0.785466  0.653395  1
  N  N29  1  0.892356  0.214534  0.346605  1
  N  N30  1  0.583848  0.783763  0.902978  1
  N  N31  1  0.416152  0.216237  0.097022  1
