# generated using pymatgen
data_Yb2SmS4
_symmetry_space_group_name_H-M   'P 1'
_cell_length_a   7.30502150
_cell_length_b   7.30502197
_cell_length_c   7.30502221
_cell_angle_alpha   108.70326261
_cell_angle_beta   108.70326415
_cell_angle_gamma   111.01829977
_symmetry_Int_Tables_number   1
_chemical_formula_structural   Yb2SmS4
_chemical_formula_sum   'Yb4 Sm2 S8'
_cell_volume   299.91929681
_cell_formula_units_Z   2
loop_
 _symmetry_equiv_pos_site_id
 _symmetry_equiv_pos_as_xyz
  1  'x, y, z'
loop_
 _atom_site_type_symbol
 _atom_site_label
 _atom_site_symmetry_multiplicity
 _atom_site_fract_x
 _atom_site_fract_y
 _atom_site_fract_z
 _atom_site_occupancy
  Yb  Yb0  1  0.125085  0.750000  0.875085  1
  Yb  Yb1  1  0.250000  0.625085  0.375085  1
  Yb  Yb2  1  0.374915  0.250000  0.624915  1
  Yb  Yb3  1  0.750000  0.874915  0.124915  1
  Sm  Sm4  1  0.625000  0.375000  0.250000  1
  Sm  Sm5  1  0.875000  0.125000  0.750000  1
  S  S6  1  0.995796  0.352724  0.506339  1
  S  S7  1  0.510543  0.004204  0.856928  1
  S  S8  1  0.153615  0.147276  0.143072  1
  S  S9  1  0.346385  0.489457  0.993661  1
  S  S10  1  0.647276  0.653615  0.643072  1
  S  S11  1  0.504204  0.010543  0.356928  1
  S  S12  1  0.989457  0.846385  0.493661  1
  S  S13  1  0.852724  0.495796  0.006339  1
