# generated using pymatgen
data_In2Br3
_symmetry_space_group_name_H-M   'P 1'
_cell_length_a   13.22947982
_cell_length_b   13.34453364
_cell_length_c   33.05137009
_cell_angle_alpha   90.11640064
_cell_angle_beta   90.00000000
_cell_angle_gamma   90.00000000
_symmetry_Int_Tables_number   1
_chemical_formula_structural   In2Br3
_chemical_formula_sum   'In64 Br96'
_cell_volume   5834.91776825
_cell_formula_units_Z   32
loop_
 _symmetry_equiv_pos_site_id
 _symmetry_equiv_pos_as_xyz
  1  'x, y, z'
loop_
 _atom_site_type_symbol
 _atom_site_label
 _atom_site_symmetry_multiplicity
 _atom_site_fract_x
 _atom_site_fract_y
 _atom_site_fract_z
 _atom_site_occupancy
  In  In0  1  0.060336  0.343417  0.129193  1
  In  In1  1  0.060010  0.343773  0.628825  1
  In  In2  1  0.061681  0.502103  0.485349  1
  In  In3  1  0.067192  0.125255  0.034523  1
  In  In4  1  0.066194  0.122247  0.535239  1
  In  In5  1  0.099981  0.468109  0.274600  1
  In  In6  1  0.098121  0.469793  0.775902  1
  In  In7  1  0.136930  0.806097  0.335626  1
  In  In8  1  0.136303  0.805288  0.834495  1
  In  In9  1  0.138205  0.804766  0.419422  1
  In  In10  1  0.139871  0.804614  0.918156  1
  In  In11  1  0.211782  0.485878  0.128224  1
  In  In12  1  0.211973  0.486223  0.628570  1
  In  In13  1  0.229629  0.171034  0.375488  1
  In  In14  1  0.227490  0.174872  0.876166  1
  In  In15  1  0.270548  0.830415  0.126598  1
  In  In16  1  0.270149  0.828875  0.625386  1
  In  In17  1  0.288122  0.514030  0.378570  1
  In  In18  1  0.284779  0.511039  0.879417  1
  In  In19  1  0.361927  0.194837  0.168496  1
  In  In20  1  0.361743  0.195425  0.669285  1
  In  In21  1  0.367357  0.194366  0.084512  1
  In  In22  1  0.363909  0.194185  0.585493  1
  In  In23  1  0.396410  0.523707  0.024357  1
  In  In24  1  0.401003  0.530800  0.524689  1
  In  In25  1  0.433860  0.879445  0.781470  1
  In  In26  1  0.434435  0.878754  0.285186  1
  In  In27  1  0.438053  0.497145  0.235155  1
  In  In28  1  0.437988  0.497226  0.735114  1
  In  In29  1  0.440032  0.656542  0.378742  1
  In  In30  1  0.438951  0.651013  0.877467  1
  In  In31  1  0.450093  0.905286  0.974902  1
  In  In32  1  0.560010  0.156227  0.371175  1
  In  In33  1  0.560336  0.156583  0.870807  1
  In  In34  1  0.561681  0.997897  0.514651  1
  In  In35  1  0.566194  0.377753  0.464761  1
  In  In36  1  0.567192  0.374745  0.965477  1
  In  In37  1  0.598121  0.030207  0.224098  1
  In  In38  1  0.599981  0.031891  0.725400  1
  In  In39  1  0.636303  0.694712  0.165505  1
  In  In40  1  0.636930  0.693903  0.664374  1
  In  In41  1  0.639871  0.695386  0.081844  1
  In  In42  1  0.638205  0.695234  0.580578  1
  In  In43  1  0.711973  0.013777  0.371430  1
  In  In44  1  0.711782  0.014122  0.871776  1
  In  In45  1  0.727490  0.325128  0.123834  1
  In  In46  1  0.729629  0.328966  0.624512  1
  In  In47  1  0.770149  0.671125  0.374614  1
  In  In48  1  0.770548  0.669585  0.873402  1
  In  In49  1  0.784779  0.988961  0.120583  1
  In  In50  1  0.788122  0.985970  0.621430  1
  In  In51  1  0.861743  0.304575  0.330715  1
  In  In52  1  0.861927  0.305163  0.831504  1
  In  In53  1  0.863909  0.305815  0.414507  1
  In  In54  1  0.867357  0.305634  0.915488  1
  In  In55  1  0.901003  0.969200  0.475311  1
  In  In56  1  0.896410  0.976293  0.975643  1
  In  In57  1  0.933860  0.620555  0.218530  1
  In  In58  1  0.934435  0.621246  0.714814  1
  In  In59  1  0.937988  0.002774  0.264886  1
  In  In60  1  0.938053  0.002855  0.764845  1
  In  In61  1  0.938951  0.848987  0.122533  1
  In  In62  1  0.940032  0.843458  0.621258  1
  In  In63  1  0.950093  0.594714  0.025098  1
  Br  Br64  1  0.037181  0.250119  0.299617  1
  Br  Br65  1  0.036807  0.250100  0.799534  1
  Br  Br66  1  0.039126  0.265331  0.447305  1
  Br  Br67  1  0.040262  0.260656  0.947205  1
  Br  Br68  1  0.056491  0.863751  0.186013  1
  Br  Br69  1  0.055191  0.863061  0.685473  1
  Br  Br70  1  0.063719  0.870567  0.061561  1
  Br  Br71  1  0.066441  0.875959  0.561745  1
  Br  Br72  1  0.091828  0.537540  0.375704  1
  Br  Br73  1  0.091247  0.539178  0.874992  1
  Br  Br74  1  0.089140  0.150989  0.131614  1
  Br  Br75  1  0.089910  0.150927  0.631500  1
  Br  Br76  1  0.160398  0.985028  0.448738  1
  Br  Br77  1  0.165251  0.983552  0.948937  1
  Br  Br78  1  0.174607  0.978697  0.301055  1
  Br  Br79  1  0.174586  0.978789  0.800895  1
  Br  Br80  1  0.195632  0.609384  0.065965  1
  Br  Br81  1  0.198622  0.609888  0.566412  1
  Br  Br82  1  0.197367  0.611032  0.689003  1
  Br  Br83  1  0.196931  0.610353  0.188945  1
  Br  Br84  1  0.240474  0.304618  0.043256  1
  Br  Br85  1  0.240288  0.305073  0.543137  1
  Br  Br86  1  0.243675  0.308326  0.211649  1
  Br  Br87  1  0.243484  0.308375  0.711848  1
  Br  Br88  1  0.256735  0.691698  0.461862  1
  Br  Br89  1  0.261252  0.698808  0.962238  1
  Br  Br90  1  0.259770  0.694717  0.293059  1
  Br  Br91  1  0.260726  0.694520  0.792504  1
  Br  Br92  1  0.302833  0.389524  0.439033  1
  Br  Br93  1  0.307218  0.387039  0.938939  1
  Br  Br94  1  0.301325  0.389865  0.316314  1
  Br  Br95  1  0.301668  0.390065  0.816193  1
  Br  Br96  1  0.319728  0.020249  0.052435  1
  Br  Br97  1  0.325252  0.021178  0.551037  1
  Br  Br98  1  0.339607  0.015024  0.198723  1
  Br  Br99  1  0.339112  0.015044  0.698548  1
  Br  Br100  1  0.410019  0.849243  0.381627  1
  Br  Br101  1  0.407603  0.846984  0.878209  1
  Br  Br102  1  0.407708  0.463313  0.125593  1
  Br  Br103  1  0.408295  0.462464  0.625735  1
  Br  Br104  1  0.433105  0.124097  0.311824  1
  Br  Br105  1  0.434082  0.123481  0.811435  1
  Br  Br106  1  0.445009  0.137059  0.435514  1
  Br  Br107  1  0.442722  0.135831  0.934922  1
  Br  Br108  1  0.460127  0.734830  0.197380  1
  Br  Br109  1  0.460857  0.734301  0.697014  1
  Br  Br110  1  0.459134  0.742657  0.053526  1
  Br  Br111  1  0.462899  0.750025  0.549661  1
  Br  Br112  1  0.537181  0.249881  0.700383  1
  Br  Br113  1  0.536807  0.249900  0.200466  1
  Br  Br114  1  0.539126  0.234669  0.552695  1
  Br  Br115  1  0.540262  0.239344  0.052795  1
  Br  Br116  1  0.556491  0.636249  0.813987  1
  Br  Br117  1  0.555191  0.636939  0.314527  1
  Br  Br118  1  0.566441  0.624041  0.438255  1
  Br  Br119  1  0.563719  0.629433  0.938439  1
  Br  Br120  1  0.591247  0.960822  0.125008  1
  Br  Br121  1  0.591828  0.962460  0.624296  1
  Br  Br122  1  0.589910  0.349073  0.368500  1
  Br  Br123  1  0.589140  0.349011  0.868386  1
  Br  Br124  1  0.660398  0.514972  0.551262  1
  Br  Br125  1  0.665251  0.516448  0.051063  1
  Br  Br126  1  0.674586  0.521211  0.199105  1
  Br  Br127  1  0.674607  0.521303  0.698945  1
  Br  Br128  1  0.698622  0.890112  0.433588  1
  Br  Br129  1  0.695632  0.890616  0.934035  1
  Br  Br130  1  0.697367  0.888968  0.310997  1
  Br  Br131  1  0.696931  0.889647  0.811055  1
  Br  Br132  1  0.740288  0.194927  0.456863  1
  Br  Br133  1  0.740474  0.195382  0.956744  1
  Br  Br134  1  0.743484  0.191625  0.288152  1
  Br  Br135  1  0.743675  0.191674  0.788351  1
  Br  Br136  1  0.756735  0.808302  0.538138  1
  Br  Br137  1  0.761252  0.801192  0.037762  1
  Br  Br138  1  0.760726  0.805480  0.207496  1
  Br  Br139  1  0.759770  0.805283  0.706941  1
  Br  Br140  1  0.807218  0.112961  0.061061  1
  Br  Br141  1  0.802833  0.110476  0.560967  1
  Br  Br142  1  0.801668  0.109935  0.183807  1
  Br  Br143  1  0.801325  0.110135  0.683686  1
  Br  Br144  1  0.825252  0.478822  0.448963  1
  Br  Br145  1  0.819728  0.479751  0.947565  1
  Br  Br146  1  0.839112  0.484956  0.301452  1
  Br  Br147  1  0.839607  0.484976  0.801277  1
  Br  Br148  1  0.907603  0.653016  0.121791  1
  Br  Br149  1  0.910019  0.650757  0.618373  1
  Br  Br150  1  0.908295  0.037536  0.374265  1
  Br  Br151  1  0.907708  0.036687  0.874407  1
  Br  Br152  1  0.934082  0.376519  0.188565  1
  Br  Br153  1  0.933105  0.375903  0.688176  1
  Br  Br154  1  0.942722  0.364169  0.065078  1
  Br  Br155  1  0.945009  0.362941  0.564486  1
  Br  Br156  1  0.960857  0.765699  0.302986  1
  Br  Br157  1  0.960127  0.765170  0.802620  1
  Br  Br158  1  0.962899  0.749975  0.450339  1
  Br  Br159  1  0.959134  0.757343  0.946474  1
