# generated using pymatgen
data_NaH9O5
_symmetry_space_group_name_H-M   'P 1'
_cell_length_a   8.07077652
_cell_length_b   7.92917241
_cell_length_c   9.69118352
_cell_angle_alpha   61.30817261
_cell_angle_beta   118.69503131
_cell_angle_gamma   148.77333138
_symmetry_Int_Tables_number   1
_chemical_formula_structural   NaH9O5
_chemical_formula_sum   'Na2 H18 O10'
_cell_volume   278.71772724
_cell_formula_units_Z   2
loop_
 _symmetry_equiv_pos_site_id
 _symmetry_equiv_pos_as_xyz
  1  'x, y, z'
loop_
 _atom_site_type_symbol
 _atom_site_label
 _atom_site_symmetry_multiplicity
 _atom_site_fract_x
 _atom_site_fract_y
 _atom_site_fract_z
 _atom_site_occupancy
  Na  Na0  1  0.537613  0.438910  0.862528  1
  Na  Na1  1  0.446692  0.541452  0.144911  1
  H  H2  1  0.625758  0.150594  0.622163  1
  H  H3  1  0.369125  0.845522  0.378464  1
  H  H4  1  0.935673  0.454572  0.975498  1
  H  H5  1  0.733948  0.261033  0.828445  1
  H  H6  1  0.277551  0.751735  0.171018  1
  H  H7  1  0.455271  0.936741  0.022559  1
  H  H8  1  0.191183  0.488356  0.789933  1
  H  H9  1  0.558623  0.857368  0.804006  1
  H  H10  1  0.448028  0.150668  0.199457  1
  H  H11  1  0.819392  0.516963  0.210950  1
  H  H12  1  0.917485  0.054519  0.730989  1
  H  H13  1  0.064986  0.851373  0.669284  1
  H  H14  1  0.045994  0.910022  0.265868  1
  H  H15  1  0.908840  0.127758  0.326950  1
  H  H16  1  0.995657  0.612629  0.640215  1
  H  H17  1  0.041884  0.928614  0.414280  1
  H  H18  1  0.975065  0.086381  0.586082  1
  H  H19  1  0.005480  0.388520  0.356101  1
  O  O20  1  0.797573  0.234977  0.714004  1
  O  O21  1  0.203428  0.767072  0.283760  1
  O  O22  1  0.717118  0.297569  0.906787  1
  O  O23  1  0.296813  0.717593  0.092516  1
  O  O24  1  0.409178  0.620229  0.853051  1
  O  O25  1  0.600507  0.387980  0.150233  1
  O  O26  1  0.990918  0.019569  0.706385  1
  O  O27  1  0.005722  0.977049  0.293292  1
  O  O28  1  0.103972  0.832550  0.599787  1
  O  O29  1  0.898083  0.169243  0.400483  1
