# generated using pymatgen
data_SiO2
_symmetry_space_group_name_H-M   'P 1'
_cell_length_a   14.46041777
_cell_length_b   7.22823903
_cell_length_c   9.12809882
_cell_angle_alpha   90.00000000
_cell_angle_beta   90.00000000
_cell_angle_gamma   90.00000000
_symmetry_Int_Tables_number   1
_chemical_formula_structural   SiO2
_chemical_formula_sum   'Si16 O32'
_cell_volume   954.09952362
_cell_formula_units_Z   16
loop_
 _symmetry_equiv_pos_site_id
 _symmetry_equiv_pos_as_xyz
  1  'x, y, z'
loop_
 _atom_site_type_symbol
 _atom_site_label
 _atom_site_symmetry_multiplicity
 _atom_site_fract_x
 _atom_site_fract_y
 _atom_site_fract_z
 _atom_site_occupancy
  Si  Si0  1  0.141195  0.215886  0.340857  1
  Si  Si1  1  0.641195  0.784114  0.659143  1
  Si  Si2  1  0.858805  0.215886  0.659143  1
  Si  Si3  1  0.358805  0.784114  0.340857  1
  Si  Si4  1  0.858805  0.784114  0.659143  1
  Si  Si5  1  0.358805  0.215886  0.340857  1
  Si  Si6  1  0.141195  0.784114  0.340857  1
  Si  Si7  1  0.641195  0.215886  0.659143  1
  Si  Si8  1  0.143003  0.500000  0.595785  1
  Si  Si9  1  0.643003  0.500000  0.404215  1
  Si  Si10  1  0.856997  0.500000  0.404215  1
  Si  Si11  1  0.356997  0.500000  0.595785  1
  Si  Si12  1  0.020462  0.500000  0.173467  1
  Si  Si13  1  0.520462  0.500000  0.826533  1
  Si  Si14  1  0.979538  0.500000  0.826533  1
  Si  Si15  1  0.479538  0.500000  0.173467  1
  O  O16  1  0.079429  0.315284  0.215418  1
  O  O17  1  0.579429  0.684716  0.784582  1
  O  O18  1  0.920571  0.315284  0.784582  1
  O  O19  1  0.420571  0.684716  0.215418  1
  O  O20  1  0.920571  0.684716  0.784582  1
  O  O21  1  0.420571  0.315284  0.215418  1
  O  O22  1  0.079429  0.684716  0.215418  1
  O  O23  1  0.579429  0.315284  0.784582  1
  O  O24  1  0.111613  0.000000  0.353132  1
  O  O25  1  0.611613  0.000000  0.646868  1
  O  O26  1  0.888387  0.000000  0.646868  1
  O  O27  1  0.388387  0.000000  0.353132  1
  O  O28  1  0.122798  0.315153  0.498437  1
  O  O29  1  0.622798  0.684847  0.501563  1
  O  O30  1  0.877202  0.315153  0.501563  1
  O  O31  1  0.377202  0.684847  0.498437  1
  O  O32  1  0.877202  0.684847  0.501563  1
  O  O33  1  0.377202  0.315153  0.498437  1
  O  O34  1  0.122798  0.684847  0.498437  1
  O  O35  1  0.622798  0.315153  0.501563  1
  O  O36  1  0.250000  0.233187  0.296710  1
  O  O37  1  0.750000  0.766813  0.703290  1
  O  O38  1  0.750000  0.233187  0.703290  1
  O  O39  1  0.250000  0.766813  0.296710  1
  O  O40  1  0.077151  0.500000  0.738311  1
  O  O41  1  0.577151  0.500000  0.261689  1
  O  O42  1  0.922849  0.500000  0.261689  1
  O  O43  1  0.422849  0.500000  0.738311  1
  O  O44  1  0.250000  0.500000  0.649759  1
  O  O45  1  0.750000  0.500000  0.350241  1
  O  O46  1  0.000000  0.500000  0.000000  1
  O  O47  1  0.500000  0.500000  0.000000  1
