# generated using pymatgen
data_Sr13Mn8O30
_symmetry_space_group_name_H-M   'P 1'
_cell_length_a   8.58218238
_cell_length_b   9.36506041
_cell_length_c   10.28805257
_cell_angle_alpha   89.16433236
_cell_angle_beta   93.86228705
_cell_angle_gamma   96.18810835
_symmetry_Int_Tables_number   1
_chemical_formula_structural   Sr13Mn8O30
_chemical_formula_sum   'Sr13 Mn8 O30'
_cell_volume   820.17079662
_cell_formula_units_Z   1
loop_
 _symmetry_equiv_pos_site_id
 _symmetry_equiv_pos_as_xyz
  1  'x, y, z'
loop_
 _atom_site_type_symbol
 _atom_site_label
 _atom_site_symmetry_multiplicity
 _atom_site_fract_x
 _atom_site_fract_y
 _atom_site_fract_z
 _atom_site_occupancy
  Sr  Sr0  1  0.099144  0.811596  0.510183  1
  Sr  Sr1  1  0.994744  0.716915  0.994555  1
  Sr  Sr2  1  0.118162  0.031977  0.801503  1
  Sr  Sr3  1  0.113776  0.450727  0.268244  1
  Sr  Sr4  1  0.197195  0.359459  0.626135  1
  Sr  Sr5  1  0.371045  0.094226  0.444796  1
  Sr  Sr6  1  0.488700  0.446279  0.994895  1
  Sr  Sr7  1  0.668963  0.883686  0.806540  1
  Sr  Sr8  1  0.782610  0.631461  0.326340  1
  Sr  Sr9  1  0.879214  0.549025  0.657674  1
  Sr  Sr10  1  0.806502  0.981961  0.155464  1
  Sr  Sr11  1  0.866022  0.269399  0.944264  1
  Sr  Sr12  1  0.858014  0.118274  0.491802  1
  Mn  Mn13  1  0.245384  0.679832  0.779358  1
  Mn  Mn14  1  0.222509  0.823427  0.219916  1
  Mn  Mn15  1  0.468030  0.747062  0.538295  1
  Mn  Mn16  1  0.395917  0.779792  0.020247  1
  Mn  Mn17  1  0.472879  0.101657  0.948926  1
  Mn  Mn18  1  0.516377  0.405255  0.454032  1
  Mn  Mn19  1  0.663880  0.280615  0.691395  1
  Mn  Mn20  1  0.708560  0.284517  0.229834  1
  O  O21  1  0.884723  0.244069  0.707555  1
  O  O22  1  0.912312  0.231436  0.215452  1
  O  O23  1  0.131490  0.511976  0.821528  1
  O  O24  1  0.295892  0.632813  0.615452  1
  O  O25  1  0.124753  0.087093  0.556117  1
  O  O26  1  0.245184  0.910561  0.048443  1
  O  O27  1  0.445379  0.665375  0.879153  1
  O  O28  1  0.358762  0.890879  0.759966  1
  O  O29  1  0.324538  0.221192  0.904264  1
  O  O30  1  0.333791  0.828050  0.380701  1
  O  O31  1  0.271347  0.641036  0.119994  1
  O  O32  1  0.312743  0.351172  0.397733  1
  O  O33  1  0.746365  0.614162  0.080359  1
  O  O34  1  0.717233  0.353126  0.524140  1
  O  O35  1  0.669982  0.880752  0.556043  1
  O  O36  1  0.394097  0.913603  0.624358  1
  O  O37  1  0.614616  0.132538  0.812289  1
  O  O38  1  0.581375  0.423717  0.278994  1
  O  O39  1  0.584799  0.595654  0.497964  1
  O  O40  1  0.692245  0.425686  0.809255  1
  O  O41  1  0.461888  0.294232  0.611220  1
  O  O42  1  0.561662  0.925834  0.014068  1
  O  O43  1  0.636558  0.126519  0.321324  1
  O  O44  1  0.621864  0.228023  0.065576  1
  O  O45  1  0.900988  0.967404  0.943253  1
  O  O46  1  0.816077  0.830587  0.515167  1
  O  O47  1  0.005012  0.542930  0.453782  1
  O  O48  1  0.845057  0.494227  0.121259  1
  O  O49  1  0.055990  0.765428  0.756772  1
  O  O50  1  0.009649  0.822783  0.251422  1
