# generated using pymatgen
data_K3H3S2(O4F)2
_symmetry_space_group_name_H-M   'P 1'
_cell_length_a   10.16029652
_cell_length_b   10.16029652
_cell_length_c   9.88457480
_cell_angle_alpha   70.98776306
_cell_angle_beta   109.01223694
_cell_angle_gamma   141.49090151
_symmetry_Int_Tables_number   1
_chemical_formula_structural   K3H3S2(O4F)2
_chemical_formula_sum   'K6 H6 S4 O16 F4'
_cell_volume   596.31602254
_cell_formula_units_Z   2
loop_
 _symmetry_equiv_pos_site_id
 _symmetry_equiv_pos_as_xyz
  1  'x, y, z'
loop_
 _atom_site_type_symbol
 _atom_site_label
 _atom_site_symmetry_multiplicity
 _atom_site_fract_x
 _atom_site_fract_y
 _atom_site_fract_z
 _atom_site_occupancy
  K  K0  1  0.379761  0.678124  0.457082  1
  K  K1  1  0.678124  0.379761  0.542918  1
  K  K2  1  0.272681  0.777150  0.823070  1
  K  K3  1  0.777150  0.272681  0.176930  1
  K  K4  1  0.146771  0.146771  0.000000  1
  K  K5  1  0.042253  0.042253  0.500000  1
  H  H6  1  0.406373  0.184715  0.262536  1
  H  H7  1  0.184715  0.406373  0.737464  1
  H  H8  1  0.513580  0.540334  0.307929  1
  H  H9  1  0.540334  0.513580  0.692071  1
  H  H10  1  0.676041  0.515322  0.996135  1
  H  H11  1  0.515322  0.676041  0.003865  1
  S  S12  1  0.639927  0.830741  0.156262  1
  S  S13  1  0.830741  0.639927  0.843738  1
  S  S14  1  0.143702  0.850463  0.330790  1
  S  S15  1  0.850463  0.143702  0.669210  1
  O  O16  1  0.874110  0.032909  0.172907  1
  O  O17  1  0.032909  0.874110  0.827093  1
  O  O18  1  0.591205  0.689462  0.315787  1
  O  O19  1  0.689462  0.591205  0.684213  1
  O  O20  1  0.438117  0.606181  0.908158  1
  O  O21  1  0.606181  0.438117  0.091842  1
  O  O22  1  0.518089  0.869031  0.136250  1
  O  O23  1  0.869031  0.518089  0.863750  1
  O  O24  1  0.263352  0.915109  0.493197  1
  O  O25  1  0.915109  0.263352  0.506803  1
  O  O26  1  0.364442  0.058706  0.251755  1
  O  O27  1  0.058706  0.364442  0.748245  1
  O  O28  1  0.087717  0.672352  0.313039  1
  O  O29  1  0.672352  0.087717  0.686961  1
  O  O30  1  0.070805  0.773872  0.566659  1
  O  O31  1  0.773872  0.070805  0.433341  1
  F  F32  1  0.746234  0.630077  0.158521  1
  F  F33  1  0.630077  0.746234  0.841479  1
  F  F34  1  0.397443  0.318020  0.319310  1
  F  F35  1  0.318020  0.397443  0.680690  1
