# generated using pymatgen
data_Sr5Ti5O13
_symmetry_space_group_name_H-M   'P 1'
_cell_length_a   19.77043901
_cell_length_b   8.84107668
_cell_length_c   5.60116927
_cell_angle_alpha   50.78696336
_cell_angle_beta   45.05258929
_cell_angle_gamma   26.49757022
_symmetry_Int_Tables_number   1
_chemical_formula_structural   Sr5Ti5O13
_chemical_formula_sum   'Sr5 Ti5 O13'
_cell_volume   309.15332114
_cell_formula_units_Z   1
loop_
 _symmetry_equiv_pos_site_id
 _symmetry_equiv_pos_as_xyz
  1  'x, y, z'
loop_
 _atom_site_type_symbol
 _atom_site_label
 _atom_site_symmetry_multiplicity
 _atom_site_fract_x
 _atom_site_fract_y
 _atom_site_fract_z
 _atom_site_occupancy
  Sr  Sr0  1  0.196515  0.505666  0.498057  1
  Sr  Sr1  1  0.403485  0.494334  0.501943  1
  Sr  Sr2  1  0.605590  0.486276  0.501216  1
  Sr  Sr3  1  0.800000  0.500000  0.500000  1
  Sr  Sr4  1  0.994410  0.513724  0.498784  1
  Ti  Ti5  1  0.008058  0.976607  0.996131  1
  Ti  Ti6  1  0.188912  0.015572  0.999286  1
  Ti  Ti7  1  0.411088  0.984428  0.000714  1
  Ti  Ti8  1  0.591942  0.023393  0.003869  1
  Ti  Ti9  1  0.800000  0.000000  0.000000  1
  O  O10  1  0.089622  0.018132  0.010824  1
  O  O11  1  0.201597  0.491243  0.987114  1
  O  O12  1  0.510378  0.981868  0.989176  1
  O  O13  1  0.398403  0.508757  0.012886  1
  O  O14  1  0.093071  0.031321  0.497787  1
  O  O15  1  0.716897  0.948056  0.014168  1
  O  O16  1  0.584002  0.500579  0.020798  1
  O  O17  1  0.300000  0.000000  0.500000  1
  O  O18  1  0.883103  0.051944  0.985832  1
  O  O19  1  0.506929  0.968679  0.502213  1
  O  O20  1  0.709292  0.977016  0.510107  1
  O  O21  1  0.015998  0.499421  0.979202  1
  O  O22  1  0.890708  0.022984  0.489893  1
