# generated using pymatgen
data_Li2Fe(PO4)2
_symmetry_space_group_name_H-M   'P 1'
_cell_length_a   4.96785387
_cell_length_b   8.64610936
_cell_length_c   6.77786342
_cell_angle_alpha   90.00000000
_cell_angle_beta   94.96031517
_cell_angle_gamma   90.00000000
_symmetry_Int_Tables_number   1
_chemical_formula_structural   Li2Fe(PO4)2
_chemical_formula_sum   'Li4 Fe2 P4 O16'
_cell_volume   290.03658855
_cell_formula_units_Z   2
loop_
 _symmetry_equiv_pos_site_id
 _symmetry_equiv_pos_as_xyz
  1  'x, y, z'
loop_
 _atom_site_type_symbol
 _atom_site_label
 _atom_site_symmetry_multiplicity
 _atom_site_fract_x
 _atom_site_fract_y
 _atom_site_fract_z
 _atom_site_occupancy
  Li  Li0  1  0.508545  0.355666  0.174375  1
  Li  Li1  1  0.007625  0.501542  0.987967  1
  Li  Li2  1  0.991455  0.855666  0.325625  1
  Li  Li3  1  0.492375  0.001542  0.512033  1
  Fe  Fe4  1  0.494542  0.001811  0.990211  1
  Fe  Fe5  1  0.005458  0.501811  0.509789  1
  P  P6  1  0.025774  0.178537  0.226059  1
  P  P7  1  0.534485  0.322288  0.723219  1
  P  P8  1  0.965515  0.822288  0.776781  1
  P  P9  1  0.474226  0.678537  0.273941  1
  O  O10  1  0.188884  0.144494  0.045847  1
  O  O11  1  0.678175  0.371836  0.539629  1
  O  O12  1  0.361002  0.573025  0.104236  1
  O  O13  1  0.430745  0.855075  0.228735  1
  O  O14  1  0.950023  0.643115  0.753070  1
  O  O15  1  0.236125  0.374869  0.700302  1
  O  O16  1  0.263875  0.874869  0.799698  1
  O  O17  1  0.138998  0.073025  0.395764  1
  O  O18  1  0.781114  0.644554  0.315947  1
  O  O19  1  0.069255  0.355075  0.271265  1
  O  O20  1  0.821825  0.871836  0.960371  1
  O  O21  1  0.311116  0.644494  0.454153  1
  O  O22  1  0.549977  0.143115  0.746930  1
  O  O23  1  0.669988  0.390502  0.917830  1
  O  O24  1  0.830012  0.890502  0.582170  1
  O  O25  1  0.718886  0.144554  0.184053  1
