# generated using pymatgen
data_SrMnRe2
_symmetry_space_group_name_H-M   'P 1'
_cell_length_a   4.55953565
_cell_length_b   4.55954513
_cell_length_c   4.55954492
_cell_angle_alpha   59.99991833
_cell_angle_beta   60.00054759
_cell_angle_gamma   60.00032658
_symmetry_Int_Tables_number   1
_chemical_formula_structural   SrMnRe2
_chemical_formula_sum   'Sr1 Mn1 Re2'
_cell_volume   67.02722451
_cell_formula_units_Z   1
loop_
 _symmetry_equiv_pos_site_id
 _symmetry_equiv_pos_as_xyz
  1  'x, y, z'
loop_
 _atom_site_type_symbol
 _atom_site_label
 _atom_site_symmetry_multiplicity
 _atom_site_fract_x
 _atom_site_fract_y
 _atom_site_fract_z
 _atom_site_occupancy
  Sr  Sr0  1  0.250000  0.250001  0.249999  1
  Mn  Mn1  1  0.500001  0.500001  0.499998  1
  Re  Re2  1  0.999998  0.999997  0.000004  1
  Re  Re3  1  0.750001  0.750001  0.749999  1
