# generated using pymatgen
data_NdPb7F17
_symmetry_space_group_name_H-M   'P 1'
_cell_length_a   4.17826972
_cell_length_b   4.21148732
_cell_length_c   33.97322937
_cell_angle_alpha   60.61863951
_cell_angle_beta   60.40526438
_cell_angle_gamma   60.28465461
_symmetry_Int_Tables_number   1
_chemical_formula_structural   NdPb7F17
_chemical_formula_sum   'Nd1 Pb7 F17'
_cell_volume   426.88244646
_cell_formula_units_Z   1
loop_
 _symmetry_equiv_pos_site_id
 _symmetry_equiv_pos_as_xyz
  1  'x, y, z'
loop_
 _atom_site_type_symbol
 _atom_site_label
 _atom_site_symmetry_multiplicity
 _atom_site_fract_x
 _atom_site_fract_y
 _atom_site_fract_z
 _atom_site_occupancy
  Nd  Nd0  1  0.961986  0.996434  0.881305  1
  Pb  Pb1  1  -0.001544  0.981203  0.001022  1
  Pb  Pb2  1  0.919675  0.039685  0.127477  1
  Pb  Pb3  1  0.957845  0.010846  0.253368  1
  Pb  Pb4  1  0.987584  0.993665  0.503219  1
  Pb  Pb5  1  0.983064  0.996053  0.378229  1
  Pb  Pb6  1  0.989323  0.995156  0.627618  1
  Pb  Pb7  1  0.981435  0.991310  0.754637  1
  F  F8  1  0.187637  0.292855  0.036776  1
  F  F9  1  0.209162  0.256062  0.285958  1
  F  F10  1  0.682734  0.786601  0.095047  1
  F  F11  1  0.176174  0.279576  0.159451  1
  F  F12  1  0.231237  0.245067  0.410186  1
  F  F13  1  0.705194  0.759638  0.222861  1
  F  F14  1  0.232633  0.240892  0.536004  1
  F  F15  1  0.731658  0.745243  0.347118  1
  F  F16  1  0.237942  0.246594  0.658845  1
  F  F17  1  0.737711  0.739672  0.472583  1
  F  F18  1  0.205863  0.225399  0.793601  1
  F  F19  1  0.741979  0.743309  0.596092  1
  F  F20  1  0.728240  0.734331  0.724961  1
  F  F21  1  0.286708  0.353277  0.882476  1
  F  F22  1  0.744700  0.771900  0.840652  1
  F  F23  1  0.477787  0.635466  0.927902  1
  F  F24  1  0.715274  0.823765  0.968111  1
