# generated using pymatgen
data_Ca19Si6S6(ClO24)2
_symmetry_space_group_name_H-M   'P 1'
_cell_length_a   9.75081731
_cell_length_b   9.72076228
_cell_length_c   13.78476241
_cell_angle_alpha   90.00000000
_cell_angle_beta   90.00000000
_cell_angle_gamma   119.82845689
_symmetry_Int_Tables_number   1
_chemical_formula_structural   Ca19Si6S6(ClO24)2
_chemical_formula_sum   'Ca19 Si6 S6 Cl2 O48'
_cell_volume   1133.49440483
_cell_formula_units_Z   1
loop_
 _symmetry_equiv_pos_site_id
 _symmetry_equiv_pos_as_xyz
  1  'x, y, z'
loop_
 _atom_site_type_symbol
 _atom_site_label
 _atom_site_symmetry_multiplicity
 _atom_site_fract_x
 _atom_site_fract_y
 _atom_site_fract_z
 _atom_site_occupancy
  Ca  Ca0  1  0.274404  0.020215  0.125000  1
  Ca  Ca1  1  0.260143  0.020724  0.625000  1
  Ca  Ca2  1  0.043113  0.292729  0.125000  1
  Ca  Ca3  1  0.042286  0.278114  0.625000  1
  Ca  Ca4  1  0.329058  0.671524  0.248277  1
  Ca  Ca5  1  0.329058  0.671524  0.001723  1
  Ca  Ca6  1  0.314382  0.657639  0.493557  1
  Ca  Ca7  1  0.314382  0.657639  0.756443  1
  Ca  Ca8  1  0.251784  0.257714  0.376005  1
  Ca  Ca9  1  0.251784  0.257714  0.873995  1
  Ca  Ca10  1  0.740771  0.731823  0.625000  1
  Ca  Ca11  1  0.652609  0.340849  0.252867  1
  Ca  Ca12  1  0.645026  0.326258  0.494879  1
  Ca  Ca13  1  0.645026  0.326258  0.755121  1
  Ca  Ca14  1  0.652609  0.340849  0.997133  1
  Ca  Ca15  1  0.024995  0.747860  0.373664  1
  Ca  Ca16  1  0.024995  0.747860  0.876336  1
  Ca  Ca17  1  0.731825  0.024079  0.374732  1
  Ca  Ca18  1  0.731825  0.024079  0.875268  1
  Si  Si19  1  0.022292  0.390940  0.375572  1
  Si  Si20  1  0.022292  0.390940  0.874428  1
  Si  Si21  1  0.368993  0.966970  0.375619  1
  Si  Si22  1  0.368993  0.966970  0.874381  1
  Si  Si23  1  0.392789  0.368007  0.125000  1
  Si  Si24  1  0.414787  0.386306  0.625000  1
  S  S25  1  0.609523  0.644642  0.872675  1
  S  S26  1  0.609523  0.644642  0.377325  1
  S  S27  1  0.637054  0.025726  0.125000  1
  S  S28  1  0.625846  0.031552  0.625000  1
  S  S29  1  0.965975  0.599762  0.125000  1
  S  S30  1  0.961393  0.580937  0.625000  1
  Cl  Cl31  1  0.985405  0.989807  0.477371  1
  Cl  Cl32  1  0.985405  0.989807  0.772629  1
  O  O33  1  0.243757  0.914483  0.283418  1
  O  O34  1  0.261993  0.897439  0.475774  1
  O  O35  1  0.261993  0.897439  0.774226  1
  O  O36  1  0.243757  0.914483  0.966582  1
  O  O37  1  0.140558  0.655240  0.125000  1
  O  O38  1  0.134137  0.639541  0.625000  1
  O  O39  1  0.126665  0.585383  0.359161  1
  O  O40  1  0.126665  0.585383  0.890839  1
  O  O41  1  0.062566  0.298294  0.290316  1
  O  O42  1  0.103714  0.368710  0.775217  1
  O  O43  1  0.103714  0.368710  0.474783  1
  O  O44  1  0.062566  0.298294  0.959684  1
  O  O45  1  0.465628  0.866677  0.883151  1
  O  O46  1  0.465628  0.866677  0.366849  1
  O  O47  1  0.321644  0.492394  0.125000  1
  O  O48  1  0.352557  0.514929  0.625000  1
  O  O49  1  0.508208  0.858271  0.125000  1
  O  O50  1  0.517898  0.858102  0.625000  1
  O  O51  1  0.433485  0.546549  0.359727  1
  O  O52  1  0.433485  0.546549  0.890273  1
  O  O53  1  0.323219  0.244481  0.218616  1
  O  O54  1  0.356854  0.266800  0.719740  1
  O  O55  1  0.323219  0.244481  0.031384  1
  O  O56  1  0.356854  0.266800  0.530260  1
  O  O57  1  0.629737  0.721929  0.473884  1
  O  O58  1  0.687382  0.766673  0.947202  1
  O  O59  1  0.687382  0.766673  0.302798  1
  O  O60  1  0.629737  0.721929  0.776116  1
  O  O61  1  0.584679  0.444840  0.125000  1
  O  O62  1  0.610642  0.470792  0.625000  1
  O  O63  1  0.493946  0.158154  0.373869  1
  O  O64  1  0.493946  0.158154  0.876131  1
  O  O65  1  0.676923  0.535412  0.379058  1
  O  O66  1  0.676923  0.535412  0.870942  1
  O  O67  1  0.560364  0.128480  0.125000  1
  O  O68  1  0.535499  0.119765  0.625000  1
  O  O69  1  0.922247  0.653844  0.036584  1
  O  O70  1  0.922247  0.653844  0.213416  1
  O  O71  1  0.915604  0.639317  0.537794  1
  O  O72  1  0.915604  0.639317  0.712206  1
  O  O73  1  0.879695  0.419671  0.125000  1
  O  O74  1  0.872874  0.403620  0.625000  1
  O  O75  1  0.830105  0.322489  0.379107  1
  O  O76  1  0.830105  0.322489  0.870893  1
  O  O77  1  0.741458  0.067712  0.039344  1
  O  O78  1  0.741458  0.067712  0.210656  1
  O  O79  1  0.729865  0.084002  0.538501  1
  O  O80  1  0.729865  0.084002  0.711499  1
