# generated using pymatgen
data_Ge2RuC4(Cl3O2)2
_symmetry_space_group_name_H-M   'P 1'
_cell_length_a   9.87149492
_cell_length_b   12.84463182
_cell_length_c   13.11312441
_cell_angle_alpha   90.00000000
_cell_angle_beta   91.50596158
_cell_angle_gamma   90.00000000
_symmetry_Int_Tables_number   1
_chemical_formula_structural   Ge2RuC4(Cl3O2)2
_chemical_formula_sum   'Ge8 Ru4 C16 Cl24 O16'
_cell_volume   1662.11372196
_cell_formula_units_Z   4
loop_
 _symmetry_equiv_pos_site_id
 _symmetry_equiv_pos_as_xyz
  1  'x, y, z'
loop_
 _atom_site_type_symbol
 _atom_site_label
 _atom_site_symmetry_multiplicity
 _atom_site_fract_x
 _atom_site_fract_y
 _atom_site_fract_z
 _atom_site_occupancy
  Ge  Ge0  1  0.562818  0.473849  0.642927  1
  Ge  Ge1  1  0.997669  0.181920  0.648282  1
  Ge  Ge2  1  0.518921  0.695929  0.811513  1
  Ge  Ge3  1  0.437182  0.973849  0.357073  1
  Ge  Ge4  1  0.997136  0.018489  0.872676  1
  Ge  Ge5  1  0.002864  0.518489  0.127324  1
  Ge  Ge6  1  0.002331  0.681920  0.351718  1
  Ge  Ge7  1  0.481079  0.195929  0.188487  1
  Ru  Ru8  1  0.960988  0.987154  0.681201  1
  Ru  Ru9  1  0.451736  0.998787  0.163958  1
  Ru  Ru10  1  0.548264  0.498787  0.836042  1
  Ru  Ru11  1  0.039012  0.487154  0.318799  1
  C  C12  1  0.230808  0.522444  0.300119  1
  C  C13  1  0.255254  0.029051  0.163247  1
  C  C14  1  0.063115  0.472262  0.467832  1
  C  C15  1  0.159480  0.970528  0.677632  1
  C  C16  1  0.744746  0.529051  0.836753  1
  C  C17  1  0.425590  0.847569  0.149762  1
  C  C18  1  0.064193  0.339011  0.288213  1
  C  C19  1  0.350178  0.482635  0.813398  1
  C  C20  1  0.531212  0.524377  0.984301  1
  C  C21  1  0.935807  0.839011  0.711787  1
  C  C22  1  0.468788  0.024377  0.015699  1
  C  C23  1  0.649822  0.982635  0.186602  1
  C  C24  1  0.574410  0.347569  0.850238  1
  C  C25  1  0.840520  0.470528  0.322368  1
  C  C26  1  0.769192  0.022444  0.699881  1
  C  C27  1  0.936885  0.972262  0.532168  1
  Cl  Cl28  1  0.048361  0.877661  0.958968  1
  Cl  Cl29  1  0.430840  0.272491  0.330685  1
  Cl  Cl30  1  0.793194  0.731753  0.366259  1
  Cl  Cl31  1  0.552661  0.311519  0.595860  1
  Cl  Cl32  1  0.599014  0.047574  0.447534  1
  Cl  Cl33  1  0.685238  0.250117  0.157970  1
  Cl  Cl34  1  0.839225  0.627121  0.089776  1
  Cl  Cl35  1  0.160775  0.127121  0.910224  1
  Cl  Cl36  1  0.746987  0.534539  0.577091  1
  Cl  Cl37  1  0.171146  0.583325  0.044060  1
  Cl  Cl38  1  0.314762  0.750117  0.842030  1
  Cl  Cl39  1  0.951639  0.377661  0.041032  1
  Cl  Cl40  1  0.355833  0.286053  0.078637  1
  Cl  Cl41  1  0.569160  0.772491  0.669315  1
  Cl  Cl42  1  0.099167  0.729254  0.497510  1
  Cl  Cl43  1  0.644167  0.786053  0.921363  1
  Cl  Cl44  1  0.085702  0.792522  0.243871  1
  Cl  Cl45  1  0.900833  0.229254  0.502490  1
  Cl  Cl46  1  0.447339  0.811519  0.404140  1
  Cl  Cl47  1  0.400986  0.547574  0.552466  1
  Cl  Cl48  1  0.253013  0.034539  0.422909  1
  Cl  Cl49  1  0.206806  0.231753  0.633741  1
  Cl  Cl50  1  0.828854  0.083325  0.955940  1
  Cl  Cl51  1  0.914298  0.292522  0.756129  1
  O  O52  1  0.724896  0.461699  0.322254  1
  O  O53  1  0.764295  0.974106  0.201748  1
  O  O54  1  0.076619  0.462253  0.554425  1
  O  O55  1  0.275104  0.961699  0.677746  1
  O  O56  1  0.923097  0.751846  0.728287  1
  O  O57  1  0.657677  0.044407  0.710109  1
  O  O58  1  0.923381  0.962253  0.445575  1
  O  O59  1  0.479924  0.037351  0.929623  1
  O  O60  1  0.141138  0.045762  0.163583  1
  O  O61  1  0.585382  0.259333  0.861920  1
  O  O62  1  0.076903  0.251846  0.271713  1
  O  O63  1  0.858862  0.545762  0.836417  1
  O  O64  1  0.520076  0.537351  0.070377  1
  O  O65  1  0.235705  0.474106  0.798252  1
  O  O66  1  0.414618  0.759333  0.138080  1
  O  O67  1  0.342323  0.544407  0.289891  1
