# generated using pymatgen
data_V3(HO4)2
_symmetry_space_group_name_H-M   'P 1'
_cell_length_a   17.22373269
_cell_length_b   9.42419869
_cell_length_c   3.69245330
_cell_angle_alpha   88.61503125
_cell_angle_beta   90.00000000
_cell_angle_gamma   90.00000000
_symmetry_Int_Tables_number   1
_chemical_formula_structural   V3(HO4)2
_chemical_formula_sum   'V12 H8 O32'
_cell_volume   599.18347952
_cell_formula_units_Z   4
loop_
 _symmetry_equiv_pos_site_id
 _symmetry_equiv_pos_as_xyz
  1  'x, y, z'
loop_
 _atom_site_type_symbol
 _atom_site_label
 _atom_site_symmetry_multiplicity
 _atom_site_fract_x
 _atom_site_fract_y
 _atom_site_fract_z
 _atom_site_occupancy
  V  V0  1  0.541717  0.373401  0.252514  1
  V  V1  1  0.041717  0.126599  0.247486  1
  V  V2  1  0.458283  0.626599  0.747486  1
  V  V3  1  0.958283  0.873401  0.752514  1
  V  V4  1  0.346606  0.446096  0.254953  1
  V  V5  1  0.846606  0.053904  0.245047  1
  V  V6  1  0.653394  0.553904  0.745047  1
  V  V7  1  0.153394  0.946096  0.754953  1
  V  V8  1  0.947467  0.415064  0.253278  1
  V  V9  1  0.447467  0.084936  0.246722  1
  V  V10  1  0.052533  0.584936  0.746722  1
  V  V11  1  0.552533  0.915064  0.753278  1
  H  H12  1  0.264444  0.664929  0.053587  1
  H  H13  1  0.764444  0.835071  0.446413  1
  H  H14  1  0.735556  0.335071  0.946413  1
  H  H15  1  0.235556  0.164929  0.553587  1
  H  H16  1  0.815313  0.545752  0.264948  1
  H  H17  1  0.315313  0.954248  0.235052  1
  H  H18  1  0.184687  0.454248  0.735052  1
  H  H19  1  0.684687  0.045752  0.764948  1
  O  O20  1  0.456729  0.569772  0.249350  1
  O  O21  1  0.956729  0.930228  0.250650  1
  O  O22  1  0.543271  0.430228  0.750650  1
  O  O23  1  0.043271  0.069772  0.749350  1
  O  O24  1  0.593294  0.228072  0.256108  1
  O  O25  1  0.093294  0.271928  0.243892  1
  O  O26  1  0.406706  0.771928  0.743892  1
  O  O27  1  0.906706  0.728072  0.756108  1
  O  O28  1  0.625187  0.528981  0.246939  1
  O  O29  1  0.125187  0.971019  0.253061  1
  O  O30  1  0.374813  0.471019  0.753061  1
  O  O31  1  0.874813  0.028981  0.746939  1
  O  O32  1  0.445102  0.291397  0.250581  1
  O  O33  1  0.945102  0.208603  0.249419  1
  O  O34  1  0.554898  0.708603  0.749419  1
  O  O35  1  0.054898  0.791397  0.750581  1
  O  O36  1  0.285208  0.313541  0.288746  1
  O  O37  1  0.785208  0.186459  0.211254  1
  O  O38  1  0.714792  0.686459  0.711254  1
  O  O39  1  0.214792  0.813541  0.788746  1
  O  O40  1  0.283538  0.595786  0.238013  1
  O  O41  1  0.783538  0.904214  0.261987  1
  O  O42  1  0.716462  0.404214  0.761987  1
  O  O43  1  0.216462  0.095786  0.738013  1
  O  O44  1  0.018482  0.575270  0.247119  1
  O  O45  1  0.518482  0.924730  0.252881  1
  O  O46  1  0.981518  0.424730  0.752881  1
  O  O47  1  0.481518  0.075270  0.747119  1
  O  O48  1  0.850344  0.464578  0.246702  1
  O  O49  1  0.350344  0.035422  0.253298  1
  O  O50  1  0.149656  0.535422  0.753298  1
  O  O51  1  0.649656  0.964578  0.746702  1
