# generated using pymatgen
data_Ba4Pr7Si12BN27
_symmetry_space_group_name_H-M   'P 1'
_cell_length_a   12.38218509
_cell_length_b   12.38218496
_cell_length_c   5.48455115
_cell_angle_alpha   90.00000000
_cell_angle_beta   90.00000000
_cell_angle_gamma   120.00000036
_symmetry_Int_Tables_number   1
_chemical_formula_structural   Ba4Pr7Si12BN27
_chemical_formula_sum   'Ba4 Pr7 Si12 B1 N27'
_cell_volume   728.22620004
_cell_formula_units_Z   1
loop_
 _symmetry_equiv_pos_site_id
 _symmetry_equiv_pos_as_xyz
  1  'x, y, z'
loop_
 _atom_site_type_symbol
 _atom_site_label
 _atom_site_symmetry_multiplicity
 _atom_site_fract_x
 _atom_site_fract_y
 _atom_site_fract_z
 _atom_site_occupancy
  Ba  Ba0  1  0.920433  0.488727  0.500000  1
  Ba  Ba1  1  0.511273  0.431706  0.500000  1
  Ba  Ba2  1  0.333333  0.666667  0.500000  1
  Ba  Ba3  1  0.568294  0.079567  0.500000  1
  Pr  Pr4  1  0.779286  0.023844  0.000000  1
  Pr  Pr5  1  0.676593  0.705239  0.000000  1
  Pr  Pr6  1  0.028646  0.323407  0.000000  1
  Pr  Pr7  1  0.000000  0.000000  0.500000  1
  Pr  Pr8  1  0.976156  0.755442  0.000000  1
  Pr  Pr9  1  0.244558  0.220714  0.000000  1
  Pr  Pr10  1  0.294761  0.971354  0.000000  1
  Si  Si11  1  0.492804  0.795040  0.000000  1
  Si  Si12  1  0.758040  0.264190  0.000000  1
  Si  Si13  1  0.678374  0.870656  0.500000  1
  Si  Si14  1  0.874701  0.186176  0.500000  1
  Si  Si15  1  0.813824  0.688524  0.500000  1
  Si  Si16  1  0.735810  0.493851  0.000000  1
  Si  Si17  1  0.192282  0.321626  0.500000  1
  Si  Si18  1  0.302235  0.507196  0.000000  1
  Si  Si19  1  0.129344  0.807718  0.500000  1
  Si  Si20  1  0.311476  0.125299  0.500000  1
  Si  Si21  1  0.204960  0.697765  0.000000  1
  Si  Si22  1  0.506149  0.241960  0.000000  1
  B  B23  1  0.000000  0.000000  0.000000  1
  N  N24  1  0.246314  0.963744  0.500000  1
  N  N25  1  0.136500  0.729234  0.246250  1
  N  N26  1  0.136500  0.729234  0.753750  1
  N  N27  1  0.036256  0.282570  0.500000  1
  N  N28  1  0.187353  0.551529  0.000000  1
  N  N29  1  0.874037  0.889396  0.000000  1
  N  N30  1  0.015359  0.125963  0.000000  1
  N  N31  1  0.364176  0.812647  0.000000  1
  N  N32  1  0.270766  0.407266  0.246250  1
  N  N33  1  0.270766  0.407266  0.753750  1
  N  N34  1  0.110604  0.984641  0.000000  1
  N  N35  1  0.208290  0.185750  0.500000  1
  N  N36  1  0.448471  0.635824  0.000000  1
  N  N37  1  0.592734  0.863500  0.246250  1
  N  N38  1  0.592734  0.863500  0.753750  1
  N  N39  1  0.401922  0.179917  0.242373  1
  N  N40  1  0.401922  0.179917  0.757627  1
  N  N41  1  0.717430  0.753686  0.500000  1
  N  N42  1  0.576457  0.401458  0.000000  1
  N  N43  1  0.777995  0.598078  0.242373  1
  N  N44  1  0.777995  0.598078  0.757627  1
  N  N45  1  0.598542  0.174999  0.000000  1
  N  N46  1  0.977460  0.791710  0.500000  1
  N  N47  1  0.825001  0.423543  0.000000  1
  N  N48  1  0.820083  0.222005  0.757627  1
  N  N49  1  0.820083  0.222005  0.242373  1
  N  N50  1  0.814250  0.022540  0.500000  1
