# generated using pymatgen
data_Ba2Dy(CuO2)4
_symmetry_space_group_name_H-M   'P 1'
_cell_length_a   3.88624588
_cell_length_b   3.89752120
_cell_length_c   13.87885894
_cell_angle_alpha   98.07169702
_cell_angle_beta   90.00000000
_cell_angle_gamma   90.00000000
_symmetry_Int_Tables_number   1
_chemical_formula_structural   Ba2Dy(CuO2)4
_chemical_formula_sum   'Ba2 Dy1 Cu4 O8'
_cell_volume   208.13665623
_cell_formula_units_Z   1
loop_
 _symmetry_equiv_pos_site_id
 _symmetry_equiv_pos_as_xyz
  1  'x, y, z'
loop_
 _atom_site_type_symbol
 _atom_site_label
 _atom_site_symmetry_multiplicity
 _atom_site_fract_x
 _atom_site_fract_y
 _atom_site_fract_z
 _atom_site_occupancy
  O  O0  1  0.000000  0.281538  0.563076  1
  O  O1  1  0.000000  0.718462  0.436924  1
  O  O2  1  0.000000  0.448129  0.896258  1
  O  O3  1  0.000000  0.551871  0.103742  1
  O  O4  1  0.500000  0.947965  0.895930  1
  O  O5  1  0.500000  0.052035  0.104070  1
  O  O6  1  0.000000  0.854674  0.709349  1
  O  O7  1  0.000000  0.145326  0.290651  1
  Cu  Cu8  1  0.000000  0.938757  0.877515  1
  Cu  Cu9  1  0.000000  0.061243  0.122485  1
  Cu  Cu10  1  0.000000  0.787371  0.574743  1
  Cu  Cu11  1  0.000000  0.212629  0.425257  1
  Ba  Ba12  1  0.500000  0.364356  0.728711  1
  Ba  Ba13  1  0.500000  0.635644  0.271289  1
  Dy  Dy14  1  0.500000  0.500000  0.000000  1
