# generated using pymatgen
data_Ag13Bi15I64
_symmetry_space_group_name_H-M   'P 1'
_cell_length_a   9.03418954
_cell_length_b   9.27442917
_cell_length_c   74.72163044
_cell_angle_alpha   58.00813567
_cell_angle_beta   58.15077585
_cell_angle_gamma   58.11308631
_symmetry_Int_Tables_number   1
_chemical_formula_structural   Ag13Bi15I64
_chemical_formula_sum   'Ag13 Bi15 I64'
_cell_volume   4233.16916436
_cell_formula_units_Z   1
loop_
 _symmetry_equiv_pos_site_id
 _symmetry_equiv_pos_as_xyz
  1  'x, y, z'
loop_
 _atom_site_type_symbol
 _atom_site_label
 _atom_site_symmetry_multiplicity
 _atom_site_fract_x
 _atom_site_fract_y
 _atom_site_fract_z
 _atom_site_occupancy
  Ag  Ag0  1  0.506595  0.001439  0.998659  1
  Ag  Ag1  1  0.486225  0.993708  0.128346  1
  Ag  Ag2  1  0.457042  0.993267  0.255233  1
  Ag  Ag3  1  0.489464  0.002298  0.376938  1
  Ag  Ag4  1  0.004107  0.482846  0.377922  1
  Ag  Ag5  1  0.004307  0.513532  0.622520  1
  Ag  Ag6  1  0.499871  0.999879  0.499999  1
  Ag  Ag7  1  0.998988  0.500887  0.499925  1
  Ag  Ag8  1  0.514765  0.002383  0.622470  1
  Ag  Ag9  1  0.006412  0.524800  0.870367  1
  Ag  Ag10  1  0.525503  0.002851  0.745649  1
  Ag  Ag11  1  0.006951  0.521042  0.745871  1
  Ag  Ag12  1  0.528680  0.999969  0.870466  1
  Bi  Bi13  1  0.994862  0.004728  0.999413  1
  Bi  Bi14  1  0.993641  0.509489  0.998738  1
  Bi  Bi15  1  0.004076  0.490080  0.126373  1
  Bi  Bi16  1  0.993357  0.006458  0.062423  1
  Bi  Bi17  1  -0.000469  0.960129  0.315979  1
  Bi  Bi18  1  0.007518  0.991095  0.126582  1
  Bi  Bi19  1  0.993952  0.472050  0.253717  1
  Bi  Bi20  1  0.985827  0.989893  0.195418  1
  Bi  Bi21  1  0.994161  0.000195  0.437981  1
  Bi  Bi22  1  0.004631  0.003495  0.562451  1
  Bi  Bi23  1  0.007411  0.010072  0.682149  1
  Bi  Bi24  1  0.000105  0.997255  0.873391  1
  Bi  Bi25  1  0.012206  0.014568  0.933057  1
  Bi  Bi26  1  0.000820  0.997812  0.747802  1
  Bi  Bi27  1  0.002724  0.005006  0.809212  1
  I  I28  1  0.249564  0.241161  0.029573  1
  I  I29  1  0.242061  0.251041  0.095433  1
  I  I30  1  0.237049  0.776257  0.030814  1
  I  I31  1  0.728596  0.287399  0.030890  1
  I  I32  1  0.258704  0.248046  0.153933  1
  I  I33  1  0.255261  0.740527  0.096253  1
  I  I34  1  0.755595  0.224215  0.094831  1
  I  I35  1  0.758350  0.756658  0.029330  1
  I  I36  1  0.277822  0.246706  0.221585  1
  I  I37  1  0.256880  0.760714  0.154428  1
  I  I38  1  0.752060  0.254088  0.154400  1
  I  I39  1  0.753773  0.760855  0.094810  1
  I  I40  1  0.236372  0.265478  0.281723  1
  I  I41  1  0.257982  0.756981  0.217792  1
  I  I42  1  0.755058  0.238270  0.218804  1
  I  I43  1  0.758690  0.745801  0.154936  1
  I  I44  1  0.244909  0.247346  0.352827  1
  I  I45  1  0.237518  0.761926  0.282638  1
  I  I46  1  0.751493  0.252566  0.281524  1
  I  I47  1  0.766876  0.750812  0.217498  1
  I  I48  1  0.236424  0.246045  0.411154  1
  I  I49  1  0.227825  0.724641  0.346012  1
  I  I50  1  0.742732  0.763929  0.275528  1
  I  I51  1  0.725062  0.205199  0.347257  1
  I  I52  1  0.249689  0.254959  0.476472  1
  I  I53  1  0.269220  0.783374  0.404504  1
  I  I54  1  0.766808  0.265188  0.406094  1
  I  I55  1  0.757367  0.748879  0.340105  1
  I  I56  1  0.245008  0.238615  0.535630  1
  I  I57  1  0.220023  0.722022  0.471413  1
  I  I58  1  0.729748  0.212972  0.471272  1
  I  I59  1  0.743450  0.742153  0.399331  1
  I  I60  1  0.256611  0.260160  0.600353  1
  I  I61  1  0.271508  0.786910  0.528506  1
  I  I62  1  0.779449  0.278810  0.528501  1
  I  I63  1  0.756727  0.760405  0.464255  1
  I  I64  1  0.243337  0.239023  0.657740  1
  I  I65  1  0.239842  0.740239  0.593155  1
  I  I66  1  0.242279  0.242231  0.723701  1
  I  I67  1  0.745017  0.230390  0.593501  1
  I  I68  1  0.748996  0.744917  0.523688  1
  I  I69  1  0.259059  0.773185  0.655123  1
  I  I70  1  0.762825  0.263292  0.655433  1
  I  I71  1  0.753788  0.757001  0.591069  1
  I  I72  1  0.236928  0.238311  0.779749  1
  I  I73  1  0.255197  0.760196  0.719840  1
  I  I74  1  0.240781  0.241976  0.849110  1
  I  I75  1  0.757905  0.252421  0.719717  1
  I  I76  1  0.758886  0.752257  0.646821  1
  I  I77  1  0.236631  0.750192  0.783850  1
  I  I78  1  0.743605  0.235921  0.783648  1
  I  I79  1  0.754559  0.753931  0.720396  1
  I  I80  1  0.239970  0.245846  0.904817  1
  I  I81  1  0.254474  0.760207  0.844946  1
  I  I82  1  0.757640  0.250566  0.844566  1
  I  I83  1  0.755303  0.758061  0.776829  1
  I  I84  1  0.239234  0.243596  0.970792  1
  I  I85  1  0.237600  0.753942  0.907556  1
  I  I86  1  0.745000  0.238479  0.908184  1
  I  I87  1  0.749074  0.748807  0.846406  1
  I  I88  1  0.258801  0.725000  0.967207  1
  I  I89  1  0.754812  0.230222  0.969221  1
  I  I90  1  0.753769  0.759460  0.902699  1
  I  I91  1  0.738690  0.757997  0.970780  1
