# generated using pymatgen
data_Cs2MnV2(BrO3)2
_symmetry_space_group_name_H-M   'P 1'
_cell_length_a   6.03324244
_cell_length_b   5.76299429
_cell_length_c   9.44540867
_cell_angle_alpha   107.76229190
_cell_angle_beta   90.00000000
_cell_angle_gamma   90.00000000
_symmetry_Int_Tables_number   1
_chemical_formula_structural   Cs2MnV2(BrO3)2
_chemical_formula_sum   'Cs2 Mn1 V2 Br2 O6'
_cell_volume   312.75722844
_cell_formula_units_Z   1
loop_
 _symmetry_equiv_pos_site_id
 _symmetry_equiv_pos_as_xyz
  1  'x, y, z'
loop_
 _atom_site_type_symbol
 _atom_site_label
 _atom_site_symmetry_multiplicity
 _atom_site_fract_x
 _atom_site_fract_y
 _atom_site_fract_z
 _atom_site_occupancy
  Cs  Cs0  1  0.055668  0.633399  0.266798  1
  Cs  Cs1  1  0.055668  0.366601  0.733202  1
  Mn  Mn2  1  0.544155  0.000000  0.000000  1
  V  V3  1  0.548313  0.800344  0.600688  1
  V  V4  1  0.548313  0.199656  0.399312  1
  Br  Br5  1  0.527325  0.500000  0.000000  1
  Br  Br6  1  0.975045  0.000000  0.000000  1
  O  O7  1  0.439858  0.500000  0.500000  1
  O  O8  1  0.454170  0.889666  0.779331  1
  O  O9  1  0.822218  0.797973  0.595947  1
  O  O10  1  0.822218  0.202027  0.404053  1
  O  O11  1  0.439858  0.000000  0.500000  1
  O  O12  1  0.454170  0.110334  0.220668  1
