# generated using pymatgen
data_Ca3YGa3B4O15
_symmetry_space_group_name_H-M   'P 1'
_cell_length_a   10.66628317
_cell_length_b   10.64805255
_cell_length_c   11.92467074
_cell_angle_alpha   90.00000000
_cell_angle_beta   90.00000000
_cell_angle_gamma   119.93010000
_symmetry_Int_Tables_number   1
_chemical_formula_structural   Ca3YGa3B4O15
_chemical_formula_sum   'Ca12 Y4 Ga12 B16 O60'
_cell_volume   1173.72347738
_cell_formula_units_Z   4
loop_
 _symmetry_equiv_pos_site_id
 _symmetry_equiv_pos_as_xyz
  1  'x, y, z'
loop_
 _atom_site_type_symbol
 _atom_site_label
 _atom_site_symmetry_multiplicity
 _atom_site_fract_x
 _atom_site_fract_y
 _atom_site_fract_z
 _atom_site_occupancy
  Ca  Ca0  1  0.120860  0.822808  0.625000  1
  Ca  Ca1  1  0.328396  0.661068  0.125000  1
  Ca  Ca2  1  0.165681  0.309538  0.125000  1
  Ca  Ca3  1  0.163577  0.304353  0.625000  1
  Ca  Ca4  1  0.250385  0.117281  0.375268  1
  Ca  Ca5  1  0.250385  0.117281  0.874732  1
  Ca  Ca6  1  0.675242  0.860760  0.125000  1
  Ca  Ca7  1  0.678292  0.865488  0.625000  1
  Ca  Ca8  1  0.835235  0.731645  0.374797  1
  Ca  Ca9  1  0.835235  0.731645  0.875203  1
  Ca  Ca10  1  0.871278  0.141189  0.373934  1
  Ca  Ca11  1  0.871278  0.141189  0.876066  1
  Y  Y12  1  0.124498  0.814209  0.125000  1
  Y  Y13  1  0.323477  0.664071  0.625000  1
  Y  Y14  1  0.657754  0.329715  0.374466  1
  Y  Y15  1  0.657754  0.329715  0.875534  1
  Ga  Ga16  1  0.992129  0.491888  0.996442  1
  Ga  Ga17  1  0.491236  0.495952  0.999318  1
  Ga  Ga18  1  0.492462  0.497822  0.499064  1
  Ga  Ga19  1  0.491236  0.495952  0.250682  1
  Ga  Ga20  1  0.492462  0.497822  0.750936  1
  Ga  Ga21  1  0.485261  0.995952  0.997810  1
  Ga  Ga22  1  0.485261  0.995952  0.252190  1
  Ga  Ga23  1  0.485729  0.998034  0.751248  1
  Ga  Ga24  1  0.485729  0.998034  0.498752  1
  Ga  Ga25  1  0.990564  0.494775  0.498886  1
  Ga  Ga26  1  0.992129  0.491888  0.253558  1
  Ga  Ga27  1  0.990564  0.494775  0.751114  1
  B  B28  1  0.217115  0.768778  0.377765  1
  B  B29  1  0.217115  0.768778  0.872235  1
  B  B30  1  0.222167  0.453728  0.375968  1
  B  B31  1  0.222167  0.453728  0.874032  1
  B  B32  1  0.988676  0.995582  0.999711  1
  B  B33  1  0.988676  0.995582  0.250289  1
  B  B34  1  0.985159  0.994676  0.495084  1
  B  B35  1  0.985159  0.994676  0.754916  1
  B  B36  1  0.525091  0.766163  0.874384  1
  B  B37  1  0.525091  0.766163  0.375616  1
  B  B38  1  0.443561  0.221496  0.125000  1
  B  B39  1  0.444117  0.223344  0.625000  1
  B  B40  1  0.762346  0.541032  0.125000  1
  B  B41  1  0.762720  0.540893  0.625000  1
  B  B42  1  0.761803  0.223383  0.125000  1
  B  B43  1  0.764219  0.224074  0.625000  1
  O  O44  1  0.164496  0.698427  0.276209  1
  O  O45  1  0.171247  0.694972  0.771095  1
  O  O46  1  0.164496  0.698427  0.973791  1
  O  O47  1  0.171247  0.694972  0.478905  1
  O  O48  1  0.086325  0.476289  0.125000  1
  O  O49  1  0.089725  0.475949  0.625000  1
  O  O50  1  0.320350  0.917855  0.376940  1
  O  O51  1  0.320350  0.917855  0.873060  1
  O  O52  1  0.073790  0.413327  0.375600  1
  O  O53  1  0.073790  0.413327  0.874400  1
  O  O54  1  0.363956  0.901745  0.125000  1
  O  O55  1  0.368057  0.900008  0.625000  1
  O  O56  1  0.292781  0.477351  0.478345  1
  O  O57  1  0.291603  0.470615  0.275024  1
  O  O58  1  0.291603  0.470615  0.974976  1
  O  O59  1  0.292781  0.477351  0.771655  1
  O  O60  1  0.499407  0.812666  0.477796  1
  O  O61  1  0.504951  0.817541  0.975433  1
  O  O62  1  0.504951  0.817541  0.274567  1
  O  O63  1  0.499407  0.812666  0.772204  1
  O  O64  1  0.518922  0.615037  0.125000  1
  O  O65  1  0.514164  0.617350  0.625000  1
  O  O66  1  0.571624  0.662723  0.375482  1
  O  O67  1  0.571624  0.662723  0.874518  1
  O  O68  1  0.404262  0.329423  0.125000  1
  O  O69  1  0.405828  0.331914  0.625000  1
  O  O70  1  0.468155  0.373959  0.375533  1
  O  O71  1  0.468155  0.373959  0.874467  1
  O  O72  1  0.840856  0.929807  0.258217  1
  O  O73  1  0.837979  0.939743  0.761235  1
  O  O74  1  0.837979  0.939743  0.488765  1
  O  O75  1  0.840856  0.929807  0.991783  1
  O  O76  1  0.461186  0.171365  0.228255  1
  O  O77  1  0.461164  0.172409  0.728004  1
  O  O78  1  0.461186  0.171365  0.021745  1
  O  O79  1  0.461164  0.172409  0.521996  1
  O  O80  1  0.693627  0.519590  0.022030  1
  O  O81  1  0.693627  0.519590  0.227970  1
  O  O82  1  0.693999  0.523469  0.522199  1
  O  O83  1  0.693999  0.523469  0.727801  1
  O  O84  1  0.054185  0.910488  0.997435  1
  O  O85  1  0.040423  0.902027  0.487139  1
  O  O86  1  0.040423  0.902027  0.762861  1
  O  O87  1  0.054185  0.910488  0.252565  1
  O  O88  1  0.611822  0.093888  0.375451  1
  O  O89  1  0.611822  0.093888  0.874549  1
  O  O90  1  0.911859  0.587322  0.125000  1
  O  O91  1  0.909416  0.578890  0.625000  1
  O  O92  1  0.651233  0.077078  0.125000  1
  O  O93  1  0.652646  0.078562  0.625000  1
  O  O94  1  0.892099  0.519936  0.374998  1
  O  O95  1  0.892099  0.519936  0.875002  1
  O  O96  1  0.814231  0.291963  0.022151  1
  O  O97  1  0.816902  0.292318  0.522085  1
  O  O98  1  0.814231  0.291963  0.227849  1
  O  O99  1  0.816902  0.292318  0.727915  1
  O  O100  1  0.073826  0.142823  0.991273  1
  O  O101  1  0.077466  0.142513  0.490302  1
  O  O102  1  0.073826  0.142823  0.258727  1
  O  O103  1  0.077466  0.142513  0.759698  1
