# generated using pymatgen
data_Ba(H2O3)2
_symmetry_space_group_name_H-M   'P 1'
_cell_length_a   6.56916560
_cell_length_b   6.29185771
_cell_length_c   6.79002292
_cell_angle_alpha   81.75308800
_cell_angle_beta   99.15302769
_cell_angle_gamma   84.47140521
_symmetry_Int_Tables_number   1
_chemical_formula_structural   Ba(H2O3)2
_chemical_formula_sum   'Ba2 H8 O12'
_cell_volume   272.16141971
_cell_formula_units_Z   2
loop_
 _symmetry_equiv_pos_site_id
 _symmetry_equiv_pos_as_xyz
  1  'x, y, z'
loop_
 _atom_site_type_symbol
 _atom_site_label
 _atom_site_symmetry_multiplicity
 _atom_site_fract_x
 _atom_site_fract_y
 _atom_site_fract_z
 _atom_site_occupancy
  Ba  Ba0  1  0.771523  0.836129  0.677052  1
  Ba  Ba1  1  0.176105  0.146415  0.231556  1
  H  H2  1  0.980440  0.650975  0.256419  1
  H  H3  1  0.319799  0.680612  0.115365  1
  H  H4  1  0.743253  0.376383  0.407157  1
  H  H5  1  0.945018  0.413263  0.757182  1
  H  H6  1  0.339959  0.695777  0.498872  1
  H  H7  1  0.243794  0.002169  0.697324  1
  H  H8  1  0.103843  0.239042  0.632726  1
  H  H9  1  0.687436  0.113783  0.164076  1
  O  O10  1  0.027376  0.740364  0.127279  1
  O  O11  1  0.757682  0.095726  0.308006  1
  O  O12  1  0.839092  0.158058  0.919520  1
  O  O13  1  0.111789  0.076995  0.621186  1
  O  O14  1  0.201475  0.594646  0.090733  1
  O  O15  1  0.637869  0.256588  0.396442  1
  O  O16  1  0.873496  0.376187  0.894987  1
  O  O17  1  0.414323  0.814689  0.453979  1
  O  O18  1  0.048670  0.487320  0.609844  1
  O  O19  1  0.477399  0.081591  0.963776  1
  O  O20  1  0.899176  0.527010  0.415379  1
  O  O21  1  0.467379  0.878709  0.938732  1
