# generated using pymatgen
data_Ce2(SeO3)3
_symmetry_space_group_name_H-M   'P 1'
_cell_length_a   7.11018551
_cell_length_b   8.49054942
_cell_length_c   14.35188022
_cell_angle_alpha   90.00000000
_cell_angle_beta   90.00000000
_cell_angle_gamma   90.00000000
_symmetry_Int_Tables_number   1
_chemical_formula_structural   Ce2(SeO3)3
_chemical_formula_sum   'Ce8 Se12 O36'
_cell_volume   866.41413164
_cell_formula_units_Z   4
loop_
 _symmetry_equiv_pos_site_id
 _symmetry_equiv_pos_as_xyz
  1  'x, y, z'
loop_
 _atom_site_type_symbol
 _atom_site_label
 _atom_site_symmetry_multiplicity
 _atom_site_fract_x
 _atom_site_fract_y
 _atom_site_fract_z
 _atom_site_occupancy
  Ce  Ce0  1  0.320266  0.698437  0.063376  1
  Ce  Ce1  1  0.320266  0.698437  0.436624  1
  Ce  Ce2  1  0.820266  0.801563  0.936624  1
  Ce  Ce3  1  0.679734  0.301563  0.563376  1
  Ce  Ce4  1  0.679734  0.301563  0.936624  1
  Ce  Ce5  1  0.179734  0.198437  0.063376  1
  Ce  Ce6  1  0.179734  0.198437  0.436624  1
  Ce  Ce7  1  0.820266  0.801563  0.563376  1
  Se  Se8  1  0.820512  0.547012  0.374055  1
  Se  Se9  1  0.908673  0.045684  0.750000  1
  Se  Se10  1  0.679488  0.047012  0.125945  1
  Se  Se11  1  0.320512  0.952988  0.625945  1
  Se  Se12  1  0.679488  0.047012  0.374055  1
  Se  Se13  1  0.820512  0.547012  0.125945  1
  Se  Se14  1  0.179488  0.452988  0.625945  1
  Se  Se15  1  0.091327  0.954316  0.250000  1
  Se  Se16  1  0.179488  0.452988  0.874055  1
  Se  Se17  1  0.591327  0.545684  0.750000  1
  Se  Se18  1  0.320512  0.952988  0.874055  1
  Se  Se19  1  0.408673  0.454316  0.250000  1
  O  O20  1  0.852105  0.072808  0.460031  1
  O  O21  1  0.911142  0.379170  0.077177  1
  O  O22  1  0.852105  0.072808  0.039969  1
  O  O23  1  0.088858  0.620830  0.922823  1
  O  O24  1  0.239503  0.942094  0.346189  1
  O  O25  1  0.739503  0.557906  0.846189  1
  O  O26  1  0.970115  0.700114  0.096671  1
  O  O27  1  0.739503  0.557906  0.653811  1
  O  O28  1  0.352105  0.427192  0.960031  1
  O  O29  1  0.147895  0.927192  0.539969  1
  O  O30  1  0.260497  0.442094  0.153811  1
  O  O31  1  0.411142  0.120830  0.922823  1
  O  O32  1  0.970115  0.700114  0.403329  1
  O  O33  1  0.239503  0.942094  0.153811  1
  O  O34  1  0.529885  0.200114  0.096671  1
  O  O35  1  0.029885  0.299886  0.903329  1
  O  O36  1  0.588858  0.879170  0.077177  1
  O  O37  1  0.935352  0.844071  0.750000  1
  O  O38  1  0.529885  0.200114  0.403329  1
  O  O39  1  0.411142  0.120830  0.577177  1
  O  O40  1  0.588858  0.879170  0.422823  1
  O  O41  1  0.147895  0.927192  0.960031  1
  O  O42  1  0.647895  0.572808  0.460031  1
  O  O43  1  0.352105  0.427192  0.539969  1
  O  O44  1  0.435352  0.655929  0.250000  1
  O  O45  1  0.470115  0.799886  0.903329  1
  O  O46  1  0.647895  0.572808  0.039969  1
  O  O47  1  0.088858  0.620830  0.577177  1
  O  O48  1  0.564648  0.344071  0.750000  1
  O  O49  1  0.911142  0.379170  0.422823  1
  O  O50  1  0.064648  0.155929  0.250000  1
  O  O51  1  0.470115  0.799886  0.596671  1
  O  O52  1  0.029885  0.299886  0.596671  1
  O  O53  1  0.260497  0.442094  0.346189  1
  O  O54  1  0.760497  0.057906  0.846189  1
  O  O55  1  0.760497  0.057906  0.653811  1
