# generated using pymatgen
data_SiO2
_symmetry_space_group_name_H-M   'P 1'
_cell_length_a   14.09493355
_cell_length_b   5.29049026
_cell_length_c   26.12041130
_cell_angle_alpha   90.00000000
_cell_angle_beta   90.00000000
_cell_angle_gamma   90.00000000
_symmetry_Int_Tables_number   1
_chemical_formula_structural   SiO2
_chemical_formula_sum   'Si32 O64'
_cell_volume   1947.77578852
_cell_formula_units_Z   32
loop_
 _symmetry_equiv_pos_site_id
 _symmetry_equiv_pos_as_xyz
  1  'x, y, z'
loop_
 _atom_site_type_symbol
 _atom_site_label
 _atom_site_symmetry_multiplicity
 _atom_site_fract_x
 _atom_site_fract_y
 _atom_site_fract_z
 _atom_site_occupancy
  Si  Si0  1  0.108333  0.250001  0.034672  1
  Si  Si1  1  0.108333  0.749999  0.965328  1
  Si  Si2  1  0.891667  0.749999  0.965328  1
  Si  Si3  1  0.891667  0.250001  0.034672  1
  Si  Si4  1  0.608333  0.749999  0.534672  1
  Si  Si5  1  0.608333  0.250001  0.465328  1
  Si  Si6  1  0.391667  0.250001  0.465328  1
  Si  Si7  1  0.391667  0.749999  0.534672  1
  Si  Si8  1  0.290008  0.750000  0.191250  1
  Si  Si9  1  0.290008  0.250000  0.808750  1
  Si  Si10  1  0.709992  0.250000  0.808750  1
  Si  Si11  1  0.709992  0.750000  0.191250  1
  Si  Si12  1  0.790008  0.250000  0.691250  1
  Si  Si13  1  0.790008  0.750000  0.308750  1
  Si  Si14  1  0.209992  0.750000  0.308750  1
  Si  Si15  1  0.209992  0.250000  0.691250  1
  Si  Si16  1  0.197750  0.250000  0.142743  1
  Si  Si17  1  0.197750  0.750000  0.857257  1
  Si  Si18  1  0.802250  0.750000  0.857257  1
  Si  Si19  1  0.802250  0.250000  0.142743  1
  Si  Si20  1  0.697750  0.750000  0.642743  1
  Si  Si21  1  0.697750  0.250000  0.357257  1
  Si  Si22  1  0.302250  0.250000  0.357257  1
  Si  Si23  1  0.302250  0.750000  0.642743  1
  Si  Si24  1  0.000000  0.750000  0.274144  1
  Si  Si25  1  0.000000  0.250000  0.725856  1
  Si  Si26  1  0.500000  0.250000  0.774144  1
  Si  Si27  1  0.500000  0.750000  0.225856  1
  Si  Si28  1  0.000000  0.250000  0.203425  1
  Si  Si29  1  0.000000  0.750000  0.796575  1
  Si  Si30  1  0.500000  0.750000  0.703425  1
  Si  Si31  1  0.500000  0.250000  0.296575  1
  O  O32  1  0.000000  0.250000  0.057582  1
  O  O33  1  0.000000  0.750000  0.942418  1
  O  O34  1  0.500000  0.750000  0.557582  1
  O  O35  1  0.500000  0.250000  0.442418  1
  O  O36  1  0.093159  0.250000  0.167946  1
  O  O37  1  0.093159  0.750000  0.832054  1
  O  O38  1  0.906841  0.750000  0.832054  1
  O  O39  1  0.906841  0.250000  0.167946  1
  O  O40  1  0.593159  0.750000  0.667946  1
  O  O41  1  0.593159  0.250000  0.332054  1
  O  O42  1  0.406842  0.250000  0.332054  1
  O  O43  1  0.406842  0.750000  0.667946  1
  O  O44  1  0.000000  0.499882  0.238757  1
  O  O45  1  0.000000  0.500118  0.761243  1
  O  O46  1  0.000000  -0.000119  0.761243  1
  O  O47  1  0.000000  0.000119  0.238757  1
  O  O48  1  0.500000  -0.000119  0.738757  1
  O  O49  1  0.500000  0.000119  0.261243  1
  O  O50  1  0.500000  0.499882  0.261243  1
  O  O51  1  0.500000  0.500118  0.738757  1
  O  O52  1  0.124249  0.000000  0.000000  1
  O  O53  1  0.875751  0.500000  0.000000  1
  O  O54  1  0.875751  0.000000  0.000000  1
  O  O55  1  0.124249  0.500000  0.000000  1
  O  O56  1  0.624249  0.500000  0.500000  1
  O  O57  1  0.375751  0.000000  0.500000  1
  O  O58  1  0.375751  0.500000  0.500000  1
  O  O59  1  0.624249  0.000000  0.500000  1
  O  O60  1  0.185682  0.250000  0.080715  1
  O  O61  1  0.185682  0.750000  0.919285  1
  O  O62  1  0.814318  0.750000  0.919285  1
  O  O63  1  0.814318  0.250000  0.080715  1
  O  O64  1  0.685682  0.750000  0.580715  1
  O  O65  1  0.685682  0.250000  0.419285  1
  O  O66  1  0.314318  0.250000  0.419285  1
  O  O67  1  0.314318  0.750000  0.580715  1
  O  O68  1  0.250000  0.750000  0.250000  1
  O  O69  1  0.250000  0.250000  0.750000  1
  O  O70  1  0.750000  0.250000  0.750000  1
  O  O71  1  0.750000  0.750000  0.250000  1
  O  O72  1  0.094490  0.750000  0.309606  1
  O  O73  1  0.094490  0.250000  0.690394  1
  O  O74  1  0.905510  0.250000  0.690394  1
  O  O75  1  0.905510  0.750000  0.309606  1
  O  O76  1  0.594490  0.250000  0.809606  1
  O  O77  1  0.594490  0.750000  0.190394  1
  O  O78  1  0.405510  0.750000  0.190394  1
  O  O79  1  0.405510  0.250000  0.809606  1
  O  O80  1  0.254520  0.500234  0.161042  1
  O  O81  1  0.254520  0.499766  0.838958  1
  O  O82  1  0.745480  0.000234  0.838958  1
  O  O83  1  0.745480  -0.000234  0.161042  1
  O  O84  1  0.745480  0.499766  0.838958  1
  O  O85  1  0.745480  0.500234  0.161042  1
  O  O86  1  0.254520  -0.000234  0.161042  1
  O  O87  1  0.254520  0.000234  0.838958  1
  O  O88  1  0.754520  0.000234  0.661042  1
  O  O89  1  0.754520  -0.000234  0.338958  1
  O  O90  1  0.245480  0.500234  0.338958  1
  O  O91  1  0.245480  0.499766  0.661042  1
  O  O92  1  0.245480  -0.000234  0.338958  1
  O  O93  1  0.245480  0.000234  0.661042  1
  O  O94  1  0.754520  0.499766  0.661042  1
  O  O95  1  0.754520  0.500234  0.338958  1
