# generated using pymatgen
data_K3Sc(HO)6
_symmetry_space_group_name_H-M   'P 1'
_cell_length_a   7.80253800
_cell_length_b   7.80253800
_cell_length_c   8.56114007
_cell_angle_alpha   89.11447900
_cell_angle_beta   90.88552100
_cell_angle_gamma   74.81833208
_symmetry_Int_Tables_number   1
_chemical_formula_structural   K3Sc(HO)6
_chemical_formula_sum   'K6 Sc2 H12 O12'
_cell_volume   502.84631960
_cell_formula_units_Z   2
loop_
 _symmetry_equiv_pos_site_id
 _symmetry_equiv_pos_as_xyz
  1  'x, y, z'
loop_
 _atom_site_type_symbol
 _atom_site_label
 _atom_site_symmetry_multiplicity
 _atom_site_fract_x
 _atom_site_fract_y
 _atom_site_fract_z
 _atom_site_occupancy
  K  K0  1  0.395817  0.395817  0.750000  1
  K  K1  1  0.604183  0.604183  0.250000  1
  K  K2  1  0.911798  0.241459  0.617067  1
  K  K3  1  0.241459  0.911798  0.882933  1
  K  K4  1  0.088202  0.758541  0.382933  1
  K  K5  1  0.758541  0.088202  0.117067  1
  Sc  Sc6  1  0.500000  0.000000  0.500000  1
  Sc  Sc7  1  0.000000  0.500000  0.000000  1
  H  H8  1  0.851433  0.783203  0.728813  1
  H  H9  1  0.783203  0.851433  0.771187  1
  H  H10  1  0.148567  0.216797  0.271187  1
  H  H11  1  0.216797  0.148567  0.228813  1
  H  H12  1  0.753493  0.709794  0.515799  1
  H  H13  1  0.709794  0.753493  -0.015799  1
  H  H14  1  0.246507  0.290206  0.484201  1
  H  H15  1  0.290206  0.246507  0.015799  1
  H  H16  1  0.633745  0.589286  0.787517  1
  H  H17  1  0.589286  0.633745  0.712483  1
  H  H18  1  0.366255  0.410714  0.212483  1
  H  H19  1  0.410714  0.366255  0.287517  1
  O  O20  1  0.784202  0.389095  -0.009954  1
  O  O21  1  0.389095  0.784202  0.509954  1
  O  O22  1  0.215798  0.610905  0.009954  1
  O  O23  1  0.610905  0.215798  0.490046  1
  O  O24  1  0.123411  0.638644  0.848791  1
  O  O25  1  0.638644  0.123411  0.651209  1
  O  O26  1  0.876589  0.361356  0.151209  1
  O  O27  1  0.361356  0.876589  0.348791  1
  O  O28  1  0.193299  0.249470  0.941316  1
  O  O29  1  0.249470  0.193299  0.558684  1
  O  O30  1  0.806701  0.750530  0.058684  1
  O  O31  1  0.750530  0.806701  0.441316  1
