# generated using pymatgen
data_Tl2In3Se5
_symmetry_space_group_name_H-M   'P 1'
_cell_length_a   6.79885429
_cell_length_b   6.79885402
_cell_length_c   67.78742927
_cell_angle_alpha   105.19293524
_cell_angle_beta   105.20992782
_cell_angle_gamma   118.49778033
_symmetry_Int_Tables_number   1
_chemical_formula_structural   Tl2In3Se5
_chemical_formula_sum   'Tl16 In24 Se40'
_cell_volume   2364.09309025
_cell_formula_units_Z   8
loop_
 _symmetry_equiv_pos_site_id
 _symmetry_equiv_pos_as_xyz
  1  'x, y, z'
loop_
 _atom_site_type_symbol
 _atom_site_label
 _atom_site_symmetry_multiplicity
 _atom_site_fract_x
 _atom_site_fract_y
 _atom_site_fract_z
 _atom_site_occupancy
  Tl  Tl0  1  0.250180  0.250142  0.900028  1
  Tl  Tl1  1  0.250202  0.250186  0.800023  1
  Tl  Tl2  1  0.249957  0.249972  0.699977  1
  Tl  Tl3  1  0.249859  0.249897  0.599972  1
  Tl  Tl4  1  0.249761  0.249854  0.499959  1
  Tl  Tl5  1  0.249982  0.249938  0.399989  1
  Tl  Tl6  1  0.750015  0.749934  0.499997  1
  Tl  Tl7  1  0.249930  0.249899  0.299989  1
  Tl  Tl8  1  0.749943  0.750014  0.399997  1
  Tl  Tl9  1  0.250007  0.250037  0.200011  1
  Tl  Tl10  1  0.750050  0.750047  0.300011  1
  Tl  Tl11  1  0.250048  0.250092  0.100011  1
  Tl  Tl12  1  0.749939  0.749943  0.199989  1
  Tl  Tl13  1  0.250261  0.250167  0.000041  1
  Tl  Tl14  1  0.750048  0.749978  0.100003  1
  Tl  Tl15  1  0.749959  0.750041  0.000003  1
  In  In16  1  0.249904  0.749603  0.950021  1
  In  In17  1  0.249526  0.749457  0.849986  1
  In  In18  1  0.249600  0.749600  0.750000  1
  In  In19  1  0.750573  0.750540  0.900101  1
  In  In20  1  0.750428  0.250469  0.950020  1
  In  In21  1  0.249595  0.749664  0.650014  1
  In  In22  1  0.749958  0.750073  0.800028  1
  In  In23  1  0.750251  0.250269  0.849983  1
  In  In24  1  0.249389  0.749690  0.549979  1
  In  In25  1  0.749790  0.749675  0.699972  1
  In  In26  1  0.750504  0.250504  0.750000  1
  In  In27  1  0.249650  0.749563  0.450004  1
  In  In28  1  0.749529  0.749561  0.599899  1
  In  In29  1  0.750440  0.250423  0.650017  1
  In  In30  1  0.249416  0.749488  0.349975  1
  In  In31  1  0.750266  0.250224  0.549980  1
  In  In32  1  0.249706  0.749706  0.250000  1
  In  In33  1  0.750481  0.250453  0.450015  1
  In  In34  1  0.249741  0.749669  0.150025  1
  In  In35  1  0.750456  0.250421  0.349997  1
  In  In36  1  0.249523  0.749610  0.049996  1
  In  In37  1  0.750348  0.250348  0.250000  1
  In  In38  1  0.750455  0.250490  0.150003  1
  In  In39  1  0.750305  0.250333  0.049985  1
  Se  Se40  1  0.169574  0.327346  0.949822  1
  Se  Se41  1  0.328084  0.828108  0.915620  1
  Se  Se42  1  0.171269  0.328852  0.850017  1
  Se  Se43  1  0.327985  0.827987  0.815610  1
  Se  Se44  1  0.671667  0.171677  0.984343  1
  Se  Se45  1  0.828767  0.670923  0.949823  1
  Se  Se46  1  0.171252  0.328805  0.750003  1
  Se  Se47  1  0.327902  0.828007  0.715591  1
  Se  Se48  1  0.671967  0.171993  0.884401  1
  Se  Se49  1  0.828847  0.671270  0.850015  1
  Se  Se50  1  0.171121  0.328698  0.649985  1
  Se  Se51  1  0.327984  0.827958  0.615599  1
  Se  Se52  1  0.672095  0.171990  0.784409  1
  Se  Se53  1  0.828771  0.671219  0.749997  1
  Se  Se54  1  0.172693  0.330536  0.550177  1
  Se  Se55  1  0.328243  0.828232  0.515657  1
  Se  Se56  1  0.671882  0.171880  0.684390  1
  Se  Se57  1  0.828681  0.671097  0.649983  1
  Se  Se58  1  0.170901  0.329035  0.449996  1
  Se  Se59  1  0.328246  0.828249  0.415655  1
  Se  Se60  1  0.671912  0.171888  0.584380  1
  Se  Se61  1  0.829127  0.671355  0.550178  1
  Se  Se62  1  0.170998  0.329077  0.350004  1
  Se  Se63  1  0.328308  0.828354  0.315665  1
  Se  Se64  1  0.671738  0.171721  0.484343  1
  Se  Se65  1  0.829087  0.670895  0.449987  1
  Se  Se66  1  0.171000  0.329039  0.249994  1
  Se  Se67  1  0.328301  0.828323  0.215655  1
  Se  Se68  1  0.671691  0.171608  0.384346  1
  Se  Se69  1  0.829023  0.670993  0.349993  1
  Se  Se70  1  0.171061  0.329091  0.150007  1
  Se  Se71  1  0.328146  0.828230  0.115654  1
  Se  Se72  1  0.671777  0.171755  0.284345  1
  Se  Se73  1  0.829094  0.671056  0.250006  1
  Se  Se74  1  0.171023  0.329215  0.050013  1
  Se  Se75  1  0.328291  0.828308  0.015657  1
  Se  Se76  1  0.671709  0.171663  0.184335  1
  Se  Se77  1  0.829038  0.670960  0.149996  1
  Se  Se78  1  0.671695  0.171692  0.084345  1
  Se  Se79  1  0.829075  0.670940  0.050004  1
