# generated using pymatgen
data_Al(HO)3
_symmetry_space_group_name_H-M   'P 1'
_cell_length_a   9.00204520
_cell_length_b   4.94031038
_cell_length_c   9.70458056
_cell_angle_alpha   90.00000000
_cell_angle_beta   90.73262432
_cell_angle_gamma   90.00000000
_symmetry_Int_Tables_number   1
_chemical_formula_structural   Al(HO)3
_chemical_formula_sum   'Al8 H24 O24'
_cell_volume   431.55553317
_cell_formula_units_Z   8
loop_
 _symmetry_equiv_pos_site_id
 _symmetry_equiv_pos_as_xyz
  1  'x, y, z'
loop_
 _atom_site_type_symbol
 _atom_site_label
 _atom_site_symmetry_multiplicity
 _atom_site_fract_x
 _atom_site_fract_y
 _atom_site_fract_z
 _atom_site_occupancy
  Al  Al0  1  0.335577  0.027878  0.500995  1
  Al  Al1  1  0.835577  0.472122  0.000995  1
  Al  Al2  1  0.664400  0.966902  0.501425  1
  Al  Al3  1  0.164400  0.533098  0.001425  1
  Al  Al4  1  0.160794  0.524874  0.501115  1
  Al  Al5  1  0.660794  0.975126  0.001115  1
  Al  Al6  1  0.839641  0.468898  0.500540  1
  Al  Al7  1  0.339641  0.031102  0.000540  1
  H  H8  1  0.398316  0.601437  0.624481  1
  H  H9  1  0.898316  0.898563  0.124481  1
  H  H10  1  0.604236  0.399187  0.375912  1
  H  H11  1  0.104236  0.100813  0.875912  1
  H  H12  1  0.813037  0.160354  0.703568  1
  H  H13  1  0.313037  0.339646  0.203568  1
  H  H14  1  0.187321  0.837403  0.297284  1
  H  H15  1  0.687321  0.662597  0.797284  1
  H  H16  1  0.976817  0.837926  0.605928  1
  H  H17  1  0.476817  0.662074  0.105928  1
  H  H18  1  0.024157  0.154711  0.395499  1
  H  H19  1  0.524157  0.345289  0.895499  1
  H  H20  1  0.504864  0.124860  0.706170  1
  H  H21  1  0.004864  0.375140  0.206170  1
  H  H22  1  0.495983  0.871928  0.297476  1
  H  H23  1  0.995983  0.628072  0.797476  1
  H  H24  1  0.199490  0.225661  0.706142  1
  H  H25  1  0.699490  0.274339  0.206142  1
  H  H26  1  0.801474  0.771973  0.295664  1
  H  H27  1  0.301474  0.728027  0.795664  1
  H  H28  1  0.605124  0.503969  0.612688  1
  H  H29  1  0.105124  0.996031  0.112688  1
  H  H30  1  0.395759  0.489375  0.389677  1
  H  H31  1  0.895759  0.010625  0.889677  1
  O  O32  1  0.309878  0.713605  0.614375  1
  O  O33  1  0.809878  0.786395  0.114375  1
  O  O34  1  0.689985  0.280629  0.387589  1
  O  O35  1  0.189985  0.219371  0.887589  1
  O  O36  1  0.822501  0.143677  0.602013  1
  O  O37  1  0.322501  0.356323  0.102013  1
  O  O38  1  0.178275  0.850923  0.399216  1
  O  O39  1  0.678275  0.649077  0.899216  1
  O  O40  1  0.995436  0.641294  0.608830  1
  O  O41  1  0.495435  0.858706  0.108830  1
  O  O42  1  0.005392  0.351579  0.392254  1
  O  O43  1  0.505392  0.148421  0.892254  1
  O  O44  1  0.509210  0.148716  0.604120  1
  O  O45  1  0.009210  0.351284  0.104120  1
  O  O46  1  0.491208  0.843841  0.398979  1
  O  O47  1  0.991208  0.656159  0.898980  1
  O  O48  1  0.193064  0.211098  0.604695  1
  O  O49  1  0.693064  0.288902  0.104695  1
  O  O50  1  0.807200  0.783341  0.397338  1
  O  O51  1  0.307200  0.716659  0.897338  1
  O  O52  1  0.682837  0.644740  0.613754  1
  O  O53  1  0.182837  0.855260  0.113754  1
  O  O54  1  0.317852  0.349026  0.388679  1
  O  O55  1  0.817852  0.150974  0.888679  1
