# generated using pymatgen
data_Mg4Al3(HO)17
_symmetry_space_group_name_H-M   'P 1'
_cell_length_a   7.18704469
_cell_length_b   7.17337118
_cell_length_c   50.45880037
_cell_angle_alpha   24.50659560
_cell_angle_beta   24.41938664
_cell_angle_gamma   24.41023741
_symmetry_Int_Tables_number   1
_chemical_formula_structural   Mg4Al3(HO)17
_chemical_formula_sum   'Mg4 Al3 H17 O17'
_cell_volume   391.65802109
_cell_formula_units_Z   1
loop_
 _symmetry_equiv_pos_site_id
 _symmetry_equiv_pos_as_xyz
  1  'x, y, z'
loop_
 _atom_site_type_symbol
 _atom_site_label
 _atom_site_symmetry_multiplicity
 _atom_site_fract_x
 _atom_site_fract_y
 _atom_site_fract_z
 _atom_site_occupancy
  Mg  Mg0  1  0.021940  0.023051  0.136858  1
  Mg  Mg1  1  0.005489  0.004371  0.284246  1
  Mg  Mg2  1  0.987576  0.986739  0.432357  1
  Mg  Mg3  1  0.977618  0.973228  0.578190  1
  Al  Al4  1  0.037530  0.050532  0.986964  1
  Al  Al5  1  0.991069  0.984387  0.715990  1
  Al  Al6  1  0.008060  0.019066  0.852160  1
  H  H7  1  0.506060  0.522054  0.036918  1
  H  H8  1  0.657273  0.673850  0.056339  1
  H  H9  1  0.433144  0.437852  0.202378  1
  H  H10  1  0.571113  0.570387  0.224189  1
  H  H11  1  0.414393  0.418608  0.350952  1
  H  H12  1  0.545038  0.544694  0.374704  1
  H  H13  1  0.377155  0.413956  0.499918  1
  H  H14  1  0.038803  0.154480  0.616058  1
  H  H15  1  0.494197  0.539844  0.525235  1
  H  H16  1  0.422781  0.382681  0.640187  1
  H  H17  1  0.058211  0.227250  0.747049  1
  H  H18  1  0.658276  0.511374  0.641964  1
  H  H19  1  0.443547  0.413233  0.776087  1
  H  H20  1  0.069161  0.198817  0.891540  1
  H  H21  1  0.641845  0.501796  0.788094  1
  H  H22  1  0.455571  0.413192  0.918137  1
  H  H23  1  0.651606  0.458052  0.933987  1
  O  O24  1  0.424866  0.437011  0.041189  1
  O  O25  1  0.681533  0.684345  0.071064  1
  O  O26  1  0.407736  0.410038  0.190343  1
  O  O27  1  0.643275  0.640192  0.223543  1
  O  O28  1  0.391807  0.393384  0.338120  1
  O  O29  1  0.622120  0.617269  0.372922  1
  O  O30  1  0.369078  0.372927  0.487279  1
  O  O31  1  0.605933  0.592611  0.521166  1
  O  O32  1  0.332345  0.339666  0.639230  1
  O  O33  1  0.735375  0.490719  0.613954  1
  O  O34  1  0.574376  0.561610  0.675144  1
  O  O35  1  0.347725  0.379085  0.774279  1
  O  O36  1  0.686242  0.396288  0.776264  1
  O  O37  1  0.609148  0.617597  0.806893  1
  O  O38  1  0.374511  0.411674  0.909460  1
  O  O39  1  0.727455  0.251541  0.933781  1
  O  O40  1  0.641201  0.655234  0.939821  1
