# generated using pymatgen
data_Mn2InC10BrO10
_symmetry_space_group_name_H-M   'P 1'
_cell_length_a   8.91181867
_cell_length_b   9.92806809
_cell_length_c   10.51104534
_cell_angle_alpha   116.62544949
_cell_angle_beta   92.16437871
_cell_angle_gamma   93.42062974
_symmetry_Int_Tables_number   1
_chemical_formula_structural   Mn2InC10BrO10
_chemical_formula_sum   'Mn4 In2 C20 Br2 O20'
_cell_volume   827.71476625
_cell_formula_units_Z   2
loop_
 _symmetry_equiv_pos_site_id
 _symmetry_equiv_pos_as_xyz
  1  'x, y, z'
loop_
 _atom_site_type_symbol
 _atom_site_label
 _atom_site_symmetry_multiplicity
 _atom_site_fract_x
 _atom_site_fract_y
 _atom_site_fract_z
 _atom_site_occupancy
  Mn  Mn0  1  0.758869  0.758844  0.593684  1
  Mn  Mn1  1  0.247003  0.718188  0.070088  1
  Mn  Mn2  1  0.241131  0.241156  0.406316  1
  Mn  Mn3  1  0.752997  0.281812  0.929912  1
  In  In4  1  0.843618  0.999898  0.846866  1
  In  In5  1  0.156382  0.000102  0.153134  1
  C  C6  1  0.307170  0.397449  0.576866  1
  C  C7  1  0.606174  0.213884  0.013200  1
  C  C8  1  0.038730  0.280774  0.425868  1
  C  C9  1  0.732354  0.644560  0.692218  1
  C  C10  1  0.393826  0.786116  0.986800  1
  C  C11  1  0.961270  0.719226  0.574132  1
  C  C12  1  0.911241  0.294928  0.825852  1
  C  C13  1  0.700591  0.475508  0.000590  1
  C  C14  1  0.088759  0.705072  0.174148  1
  C  C15  1  0.205938  0.102340  0.477846  1
  C  C16  1  0.375340  0.784924  0.234039  1
  C  C17  1  0.565622  0.820450  0.635218  1
  C  C18  1  0.267646  0.355440  0.307782  1
  C  C19  1  0.116633  0.672082  0.912742  1
  C  C20  1  0.794062  0.897660  0.522154  1
  C  C21  1  0.692830  0.602551  0.423134  1
  C  C22  1  0.434378  0.179550  0.364782  1
  C  C23  1  0.624660  0.215076  0.765961  1
  C  C24  1  0.883367  0.327918  0.087258  1
  C  C25  1  0.299409  0.524492  0.999410  1
  Br  Br26  1  0.154673  0.046003  0.910614  1
  Br  Br27  1  0.845327  0.953997  0.089386  1
  O  O28  1  0.185210  0.016643  0.523867  1
  O  O29  1  0.543449  0.176977  0.664748  1
  O  O30  1  0.513687  0.174457  0.067148  1
  O  O31  1  0.991625  0.697406  0.242251  1
  O  O32  1  0.914812  0.309271  0.445445  1
  O  O33  1  0.645998  0.501144  0.316261  1
  O  O34  1  0.288216  0.433709  0.253760  1
  O  O35  1  0.456551  0.823023  0.335253  1
  O  O36  1  0.555590  0.142818  0.342620  1
  O  O37  1  0.334079  0.401331  0.950363  1
  O  O38  1  0.008375  0.302594  0.757749  1
  O  O39  1  0.085188  0.690729  0.554555  1
  O  O40  1  0.354002  0.498856  0.683739  1
  O  O41  1  0.444410  0.857182  0.657380  1
  O  O42  1  0.711784  0.566291  0.746240  1
  O  O43  1  0.962416  0.362787  0.189244  1
  O  O44  1  0.814790  0.983357  0.476133  1
  O  O45  1  0.037584  0.637213  0.810756  1
  O  O46  1  0.665921  0.598669  0.049637  1
  O  O47  1  0.486313  0.825543  0.932852  1
