# generated using pymatgen
data_Os4C13S2O13
_symmetry_space_group_name_H-M   'P 1'
_cell_length_a   10.31670370
_cell_length_b   12.73000870
_cell_length_c   17.42750473
_cell_angle_alpha   90.00000000
_cell_angle_beta   96.94584444
_cell_angle_gamma   90.00000000
_symmetry_Int_Tables_number   1
_chemical_formula_structural   Os4C13S2O13
_chemical_formula_sum   'Os16 C52 S8 O52'
_cell_volume   2271.98668681
_cell_formula_units_Z   4
loop_
 _symmetry_equiv_pos_site_id
 _symmetry_equiv_pos_as_xyz
  1  'x, y, z'
loop_
 _atom_site_type_symbol
 _atom_site_label
 _atom_site_symmetry_multiplicity
 _atom_site_fract_x
 _atom_site_fract_y
 _atom_site_fract_z
 _atom_site_occupancy
  Os  Os0  1  0.656959  0.352621  0.302184  1
  Os  Os1  1  0.895518  0.222503  0.831491  1
  Os  Os2  1  0.156959  0.147379  0.802184  1
  Os  Os3  1  0.604482  0.722503  0.668509  1
  Os  Os4  1  0.168444  0.219800  0.965154  1
  Os  Os5  1  0.104482  0.777497  0.168509  1
  Os  Os6  1  0.331556  0.719800  0.534846  1
  Os  Os7  1  0.831556  0.780200  0.034846  1
  Os  Os8  1  0.343041  0.647379  0.697816  1
  Os  Os9  1  0.823489  0.301821  0.973326  1
  Os  Os10  1  0.668444  0.280200  0.465154  1
  Os  Os11  1  0.323489  0.198179  0.473326  1
  Os  Os12  1  0.395518  0.277497  0.331491  1
  Os  Os13  1  0.843041  0.852621  0.197816  1
  Os  Os14  1  0.676511  0.801821  0.526674  1
  Os  Os15  1  0.176511  0.698179  0.026674  1
  C  C16  1  0.589632  0.797737  0.762681  1
  C  C17  1  0.328436  0.767628  0.431489  1
  C  C18  1  0.718327  0.270461  0.829685  1
  C  C19  1  0.674239  0.228707  0.003964  1
  C  C20  1  0.269511  0.567710  0.046081  1
  C  C21  1  0.298296  0.792857  0.718259  1
  C  C22  1  0.679021  0.704520  0.053693  1
  C  C23  1  0.089632  0.702263  0.262681  1
  C  C24  1  0.163212  0.606614  0.681609  1
  C  C25  1  0.218327  0.229539  0.329685  1
  C  C26  1  0.386388  0.610391  0.804701  1
  C  C27  1  0.769511  0.932290  0.546081  1
  C  C28  1  0.910368  0.297737  0.737319  1
  C  C29  1  0.399403  0.512700  0.659614  1
  C  C30  1  0.701704  0.207143  0.281741  1
  C  C31  1  0.201704  0.292857  0.781741  1
  C  C32  1  0.325761  0.771293  0.996036  1
  C  C33  1  0.798296  0.707143  0.218259  1
  C  C34  1  0.174239  0.271293  0.503964  1
  C  C35  1  0.668005  0.594000  0.717093  1
  C  C36  1  0.831995  0.094000  0.782907  1
  C  C37  1  0.836788  0.393386  0.318391  1
  C  C38  1  0.877039  0.337233  0.077955  1
  C  C39  1  0.767497  0.403379  0.495844  1
  C  C40  1  0.171564  0.267628  0.068511  1
  C  C41  1  0.179021  0.795480  0.553693  1
  C  C42  1  0.122961  0.662767  0.922045  1
  C  C43  1  0.886388  0.889609  0.304701  1
  C  C44  1  0.663212  0.893386  0.181609  1
  C  C45  1  0.600597  0.487300  0.340386  1
  C  C46  1  0.100597  0.012700  0.840386  1
  C  C47  1  0.281673  0.729539  0.170315  1
  C  C48  1  0.613612  0.389609  0.195299  1
  C  C49  1  0.622961  0.837233  0.422045  1
  C  C50  1  0.820979  0.204520  0.446307  1
  C  C51  1  0.781673  0.770461  0.670315  1
  C  C52  1  0.899403  0.987300  0.159614  1
  C  C53  1  0.336788  0.106614  0.818391  1
  C  C54  1  0.113612  0.110391  0.695299  1
  C  C55  1  0.410368  0.202263  0.237319  1
  C  C56  1  0.168005  0.906000  0.217093  1
  C  C57  1  0.267497  0.096621  0.995844  1
  C  C58  1  0.320979  0.295480  0.946307  1
  C  C59  1  0.825761  0.728707  0.496036  1
  C  C60  1  0.671564  0.232372  0.568511  1
  C  C61  1  0.232503  0.596621  0.504156  1
  C  C62  1  0.730489  0.432290  0.953919  1
  C  C63  1  0.828436  0.732372  0.931489  1
  C  C64  1  0.331995  0.406000  0.282907  1
  C  C65  1  0.377039  0.162767  0.577955  1
  C  C66  1  0.732503  0.903379  0.004156  1
  C  C67  1  0.230489  0.067710  0.453919  1
  S  S68  1  0.986695  0.639779  0.087296  1
  S  S69  1  0.053564  0.859005  0.039916  1
  S  S70  1  0.446436  0.359005  0.460084  1
  S  S71  1  0.553564  0.640995  0.539916  1
  S  S72  1  0.513305  0.139779  0.412704  1
  S  S73  1  0.013305  0.360221  0.912704  1
  S  S74  1  0.946436  0.140995  0.960084  1
  S  S75  1  0.486695  0.860221  0.587296  1
  O  O76  1  0.595708  0.411227  0.130062  1
  O  O77  1  0.790713  0.016340  0.754759  1
  O  O78  1  0.904292  0.911227  0.369938  1
  O  O79  1  0.081900  0.653813  0.318337  1
  O  O80  1  0.183302  0.296898  0.132283  1
  O  O81  1  0.418100  0.153813  0.181663  1
  O  O82  1  0.324581  0.489343  0.059518  1
  O  O83  1  0.912142  0.685107  0.473490  1
  O  O84  1  0.554458  0.919139  0.172850  1
  O  O85  1  0.230328  0.378705  0.768832  1
  O  O86  1  0.390230  0.708310  0.192190  1
  O  O87  1  0.087859  0.314893  0.526510  1
  O  O88  1  0.329541  0.023844  0.017102  1
  O  O89  1  0.569908  0.569735  0.359996  1
  O  O90  1  0.290713  0.483660  0.254759  1
  O  O91  1  0.945542  0.419139  0.327150  1
  O  O92  1  0.930092  0.069735  0.140004  1
  O  O93  1  0.170459  0.523844  0.482897  1
  O  O94  1  0.088949  0.845045  0.565579  1
  O  O95  1  0.730328  0.121295  0.268832  1
  O  O96  1  0.316698  0.796898  0.367717  1
  O  O97  1  0.829541  0.476156  0.517103  1
  O  O98  1  0.109770  0.208310  0.307810  1
  O  O99  1  0.175419  0.989343  0.440482  1
  O  O100  1  0.581900  0.846187  0.818337  1
  O  O101  1  0.907226  0.358445  0.142448  1
  O  O102  1  0.407226  0.141555  0.642448  1
  O  O103  1  0.430092  0.430265  0.640004  1
  O  O104  1  0.683302  0.203102  0.632283  1
  O  O105  1  0.209287  0.983660  0.245241  1
  O  O106  1  0.670459  0.976156  0.982897  1
  O  O107  1  0.824581  0.010657  0.559518  1
  O  O108  1  0.412141  0.814893  0.973490  1
  O  O109  1  0.816698  0.703102  0.867717  1
  O  O110  1  0.587858  0.185107  0.026510  1
  O  O111  1  0.095709  0.088773  0.630062  1
  O  O112  1  0.709287  0.516340  0.745241  1
  O  O113  1  0.592774  0.858445  0.357552  1
  O  O114  1  0.609770  0.291690  0.807810  1
  O  O115  1  0.769672  0.621295  0.231168  1
  O  O116  1  0.269672  0.878705  0.731168  1
  O  O117  1  0.092774  0.641555  0.857552  1
  O  O118  1  0.911051  0.154955  0.434421  1
  O  O119  1  0.069908  0.930265  0.859996  1
  O  O120  1  0.675419  0.510657  0.940482  1
  O  O121  1  0.445542  0.080861  0.827150  1
  O  O122  1  0.411051  0.345045  0.934421  1
  O  O123  1  0.054458  0.580861  0.672850  1
  O  O124  1  0.588949  0.654955  0.065579  1
  O  O125  1  0.918100  0.346187  0.681663  1
  O  O126  1  0.404292  0.588773  0.869938  1
  O  O127  1  0.890230  0.791690  0.692190  1
