# generated using pymatgen
data_Ba6Nb5S17
_symmetry_space_group_name_H-M   'P 1'
_cell_length_a   20.54970183
_cell_length_b   12.04785303
_cell_length_c   8.99025470
_cell_angle_alpha   48.46524933
_cell_angle_beta   39.98854188
_cell_angle_gamma   29.97997717
_symmetry_Int_Tables_number   1
_chemical_formula_structural   Ba6Nb5S17
_chemical_formula_sum   'Ba6 Nb5 S17'
_cell_volume   714.75541811
_cell_formula_units_Z   1
loop_
 _symmetry_equiv_pos_site_id
 _symmetry_equiv_pos_as_xyz
  1  'x, y, z'
loop_
 _atom_site_type_symbol
 _atom_site_label
 _atom_site_symmetry_multiplicity
 _atom_site_fract_x
 _atom_site_fract_y
 _atom_site_fract_z
 _atom_site_occupancy
  Ba  Ba0  1  0.247075  0.344397  0.253273  1
  Ba  Ba1  1  0.094404  0.646389  0.749697  1
  Ba  Ba2  1  0.578480  0.318440  0.264105  1
  Ba  Ba3  1  0.415194  0.669610  0.773399  1
  Ba  Ba4  1  0.912806  0.348363  0.237753  1
  Ba  Ba5  1  0.760012  0.665785  0.726072  1
  Nb  Nb6  1  0.002219  0.999551  0.008188  1
  Nb  Nb7  1  0.134191  0.031116  0.500374  1
  Nb  Nb8  1  0.664793  0.994348  0.008702  1
  Nb  Nb9  1  0.480770  0.000765  0.557064  1
  Nb  Nb10  1  0.825881  0.008795  0.502146  1
  S  S11  1  0.088717  0.328131  0.259378  1
  S  S12  1  0.106230  0.141126  0.724642  1
  S  S13  1  0.244992  0.173603  0.743898  1
  S  S14  1  0.083870  0.839990  0.256307  1
  S  S15  1  0.416482  0.332616  0.247797  1
  S  S16  1  0.259672  0.816318  0.258831  1
  S  S17  1  0.423070  0.165609  0.743076  1
  S  S18  1  0.259305  0.678376  0.729584  1
  S  S19  1  0.575051  0.179117  0.745738  1
  S  S20  1  0.738881  0.350134  0.241544  1
  S  S21  1  0.574265  0.842189  0.242573  1
  S  S22  1  0.754142  0.162994  0.745967  1
  S  S23  1  0.597006  0.654042  0.735712  1
  S  S24  1  0.899624  0.176293  0.768742  1
  S  S25  1  0.758019  0.821391  0.243574  1
  S  S26  1  0.923924  0.825988  0.239987  1
  S  S27  1  0.920990  0.661124  0.741876  1
