# generated using pymatgen
data_Nb15IrS32
_symmetry_space_group_name_H-M   'P 1'
_cell_length_a   13.64593448
_cell_length_b   8.99552665
_cell_length_c   14.09022631
_cell_angle_alpha   68.44125877
_cell_angle_beta   60.92723469
_cell_angle_gamma   40.79890370
_symmetry_Int_Tables_number   1
_chemical_formula_structural   Nb15IrS32
_chemical_formula_sum   'Nb15 Ir1 S32'
_cell_volume   987.74311670
_cell_formula_units_Z   1
loop_
 _symmetry_equiv_pos_site_id
 _symmetry_equiv_pos_as_xyz
  1  'x, y, z'
loop_
 _atom_site_type_symbol
 _atom_site_label
 _atom_site_symmetry_multiplicity
 _atom_site_fract_x
 _atom_site_fract_y
 _atom_site_fract_z
 _atom_site_occupancy
  Nb  Nb0  1  0.020625  0.965844  0.001942  1
  Nb  Nb1  1  0.253298  0.014599  0.998626  1
  Nb  Nb2  1  0.971269  0.026816  0.502613  1
  Nb  Nb3  1  0.134935  0.490874  0.998827  1
  Nb  Nb4  1  0.254928  0.020431  0.499747  1
  Nb  Nb5  1  0.490502  0.010184  0.000026  1
  Nb  Nb6  1  0.370376  0.489100  0.000280  1
  Nb  Nb7  1  0.723832  0.031390  0.998479  1
  Nb  Nb8  1  0.531390  0.968769  0.498642  1
  Nb  Nb9  1  0.603837  0.535021  0.997442  1
  Nb  Nb10  1  0.364195  0.522966  0.502774  1
  Nb  Nb11  1  0.752164  -0.003619  0.498586  1
  Nb  Nb12  1  0.613173  0.502442  0.499932  1
  Nb  Nb13  1  0.898479  0.474205  0.000718  1
  Nb  Nb14  1  0.896147  0.491863  0.499242  1
  Ir  Ir15  1  0.111907  0.490116  0.500328  1
  S  S16  1  0.021038  0.334976  0.131354  1
  S  S17  1  0.105575  0.160122  0.380037  1
  S  S18  1  0.265791  0.334476  0.132086  1
  S  S19  1  0.017251  0.331519  0.635772  1
  S  S20  1  0.109808  0.159139  0.874096  1
  S  S21  1  0.150196  0.832163  0.124266  1
  S  S22  1  0.356086  0.176377  0.376166  1
  S  S23  1  0.216715  0.655894  0.388764  1
  S  S24  1  0.513354  0.344331  0.125849  1
  S  S25  1  0.267920  0.337552  0.608055  1
  S  S26  1  0.605786  0.169250  0.374915  1
  S  S27  1  0.359115  0.167443  0.866464  1
  S  S28  1  0.389994  0.841837  0.131632  1
  S  S29  1  0.143489  0.843792  0.620869  1
  S  S30  1  0.776100  0.332349  0.115424  1
  S  S31  1  0.234506  0.660579  0.866981  1
  S  S32  1  0.515598  0.330163  0.625970  1
  S  S33  1  0.471960  0.679114  0.372734  1
  S  S34  1  0.648055  0.832689  0.121005  1
  S  S35  1  0.852087  0.173568  0.369644  1
  S  S36  1  0.603264  0.168113  0.867092  1
  S  S37  1  0.400085  0.833322  0.626107  1
  S  S38  1  0.766248  0.338230  0.625022  1
  S  S39  1  0.735909  0.656346  0.376476  1
  S  S40  1  0.473735  0.671400  0.874720  1
  S  S41  1  0.848027  0.169989  0.883803  1
  S  S42  1  0.894050  0.837247  0.120513  1
  S  S43  1  0.650334  0.825106  0.630885  1
  S  S44  1  0.985314  0.663049  0.367941  1
  S  S45  1  0.729759  0.664820  0.879403  1
  S  S46  1  0.902529  0.818511  0.623033  1
  S  S47  1  0.975234  0.671286  0.878997  1
