# generated using pymatgen
data_Sr3La9Mn10(CuO18)2
_symmetry_space_group_name_H-M   'P 1'
_cell_length_a   5.50073229
_cell_length_b   5.50073275
_cell_length_c   33.01335976
_cell_angle_alpha   60.78586832
_cell_angle_beta   60.78586564
_cell_angle_gamma   60.75510468
_symmetry_Int_Tables_number   1
_chemical_formula_structural   Sr3La9Mn10(CuO18)2
_chemical_formula_sum   'Sr3 La9 Mn10 Cu2 O36'
_cell_volume   718.70192096
_cell_formula_units_Z   1
loop_
 _symmetry_equiv_pos_site_id
 _symmetry_equiv_pos_as_xyz
  1  'x, y, z'
loop_
 _atom_site_type_symbol
 _atom_site_label
 _atom_site_symmetry_multiplicity
 _atom_site_fract_x
 _atom_site_fract_y
 _atom_site_fract_z
 _atom_site_occupancy
  Sr  Sr0  1  0.245597  0.247926  0.043262  1
  Sr  Sr1  1  0.250092  0.249908  0.208333  1
  Sr  Sr2  1  0.252074  0.254403  0.373405  1
  La  La3  1  0.748255  0.748287  0.126066  1
  La  La4  1  0.253016  0.249661  0.540811  1
  La  La5  1  0.751713  0.751745  0.290601  1
  La  La6  1  0.250023  0.249977  0.708333  1
  La  La7  1  0.752408  0.751929  0.457137  1
  La  La8  1  0.250339  0.246984  0.875856  1
  La  La9  1  0.754609  0.754155  0.622611  1
  La  La10  1  0.745845  0.745391  0.794056  1
  La  La11  1  0.748071  0.747592  0.959529  1
  Mn  Mn12  1  0.998807  0.997277  0.000937  1
  Mn  Mn13  1  0.000363  0.999418  0.166667  1
  Mn  Mn14  1  0.000006  0.001074  0.333052  1
  Mn  Mn15  1  0.498926  0.499994  0.083614  1
  Mn  Mn16  1  0.500582  0.499637  0.250000  1
  Mn  Mn17  1  0.001996  0.998080  0.666520  1
  Mn  Mn18  1  0.502723  0.501193  0.415730  1
  Mn  Mn19  1  0.501920  0.498004  0.750147  1
  Mn  Mn20  1  0.997519  0.004745  0.499463  1
  Mn  Mn21  1  0.495255  0.502481  0.917204  1
  Cu  Cu22  1  0.500609  0.499348  0.583280  1
  Cu  Cu23  1  0.000652  0.999391  0.833386  1
  O  O24  1  0.192871  0.751752  0.050909  1
  O  O25  1  0.304611  0.194189  0.125065  1
  O  O26  1  0.249454  0.710107  0.131891  1
  O  O27  1  0.750069  0.304734  0.032091  1
  O  O28  1  0.195614  0.749590  0.217424  1
  O  O29  1  0.707501  0.793722  0.040761  1
  O  O30  1  0.305811  0.195389  0.291602  1
  O  O31  1  0.790597  0.249743  0.118483  1
  O  O32  1  0.250257  0.709403  0.298184  1
  O  O33  1  0.750410  0.304386  0.199243  1
  O  O34  1  0.195266  0.749931  0.384575  1
  O  O35  1  0.709208  0.790792  0.208333  1
  O  O36  1  0.307975  0.190433  0.459946  1
  O  O37  1  0.789893  0.250546  0.284775  1
  O  O38  1  0.247023  0.692956  0.468211  1
  O  O39  1  0.748248  0.307129  0.365758  1
  O  O40  1  0.183118  0.759352  0.550067  1
  O  O41  1  0.706278  0.792499  0.375906  1
  O  O42  1  0.307713  0.176188  0.627379  1
  O  O43  1  0.794852  0.249807  0.450758  1
  O  O44  1  0.239787  0.691307  0.637250  1
  O  O45  1  0.761886  0.308145  0.529757  1
  O  O46  1  0.182912  0.749434  0.719750  1
  O  O47  1  0.695005  0.819767  0.540497  1
  O  O48  1  0.323812  0.192287  0.789288  1
  O  O49  1  0.821828  0.238479  0.615805  1
  O  O50  1  0.261521  0.678172  0.800862  1
  O  O51  1  0.750566  0.317088  0.696917  1
  O  O52  1  0.191855  0.738114  0.886909  1
  O  O53  1  0.686279  0.813721  0.708333  1
  O  O54  1  0.309567  0.192025  0.956720  1
  O  O55  1  0.808693  0.260213  0.779416  1
  O  O56  1  0.250193  0.705148  0.965909  1
  O  O57  1  0.740648  0.316882  0.866600  1
  O  O58  1  0.680233  0.804995  0.876170  1
  O  O59  1  0.807044  0.252977  0.948456  1
