# generated using pymatgen
data_Cu2H4C4N3O
_symmetry_space_group_name_H-M   'P 1'
_cell_length_a   8.17302609
_cell_length_b   8.85787050
_cell_length_c   8.40522624
_cell_angle_alpha   90.00000000
_cell_angle_beta   90.00000000
_cell_angle_gamma   96.28099058
_symmetry_Int_Tables_number   1
_chemical_formula_structural   Cu2H4C4N3O
_chemical_formula_sum   'Cu8 H16 C16 N12 O4'
_cell_volume   604.84880669
_cell_formula_units_Z   4
loop_
 _symmetry_equiv_pos_site_id
 _symmetry_equiv_pos_as_xyz
  1  'x, y, z'
loop_
 _atom_site_type_symbol
 _atom_site_label
 _atom_site_symmetry_multiplicity
 _atom_site_fract_x
 _atom_site_fract_y
 _atom_site_fract_z
 _atom_site_occupancy
  Cu  Cu0  1  0.990403  0.166224  0.238457  1
  Cu  Cu1  1  0.020218  0.871225  0.203011  1
  Cu  Cu2  1  0.509597  0.333776  0.738457  1
  Cu  Cu3  1  0.479782  0.628775  0.703011  1
  Cu  Cu4  1  0.613575  0.335126  0.317146  1
  Cu  Cu5  1  0.705074  0.611078  0.265622  1
  Cu  Cu6  1  0.886425  0.164874  0.817146  1
  Cu  Cu7  1  0.794926  0.888922  0.765622  1
  H  H8  1  0.472277  0.093122  0.384495  1
  H  H9  1  0.452332  0.897793  0.156804  1
  H  H10  1  0.080871  0.023675  0.310965  1
  H  H11  1  0.121068  0.877449  0.722517  1
  H  H12  1  0.702147  0.109533  0.686010  1
  H  H13  1  0.632474  0.707210  0.986125  1
  H  H14  1  0.625224  0.886562  0.280427  1
  H  H15  1  0.535885  0.161028  0.173890  1
  H  H16  1  0.964115  0.338972  0.673890  1
  H  H17  1  0.874776  0.613438  0.780427  1
  H  H18  1  0.797853  0.390467  0.186010  1
  H  H19  1  0.867526  0.792790  0.486125  1
  H  H20  1  0.378932  0.622551  0.222517  1
  H  H21  1  0.419129  0.476325  0.810965  1
  H  H22  1  0.027723  0.406878  0.884495  1
  H  H23  1  0.047668  0.602207  0.656804  1
  C  C24  1  0.002939  0.664459  0.761302  1
  C  C25  1  0.006544  0.253930  0.589651  1
  C  C26  1  0.181442  0.192545  0.082690  1
  C  C27  1  0.314641  0.765975  0.487800  1
  C  C28  1  0.318558  0.307455  0.582690  1
  C  C29  1  0.185359  0.734025  0.987800  1
  C  C30  1  0.493456  0.246070  0.089651  1
  C  C31  1  0.497061  0.835541  0.261302  1
  C  C32  1  0.398433  0.878707  0.399641  1
  C  C33  1  0.666134  0.216765  0.627347  1
  C  C34  1  0.598641  0.282285  0.959018  1
  C  C35  1  0.660650  0.639903  0.540190  1
  C  C36  1  0.901359  0.217715  0.459018  1
  C  C37  1  0.839350  0.860097  0.040190  1
  C  C38  1  0.833866  0.283235  0.127347  1
  C  C39  1  0.101567  0.621293  0.899641  1
  N  N40  1  0.005068  0.822723  0.724890  1
  N  N41  1  0.175237  0.270288  0.578639  1
  N  N42  1  0.223879  0.844867  0.065363  1
  N  N43  1  0.324763  0.229712  0.078640  1
  N  N44  1  0.276121  0.655133  0.565363  1
  N  N45  1  0.494932  0.677277  0.224890  1
  N  N46  1  0.558547  0.854088  0.770545  1
  N  N47  1  0.742656  0.245838  0.489830  1
  N  N48  1  0.744348  0.743357  0.036619  1
  N  N49  1  0.757344  0.254162  0.989830  1
  N  N50  1  0.755652  0.756643  0.536619  1
  N  N51  1  0.941453  0.645912  0.270545  1
  O  O52  1  0.045047  0.557390  0.288324  1
  O  O53  1  0.107022  0.475329  0.945479  1
  O  O54  1  0.392978  0.024671  0.445479  1
  O  O55  1  0.454953  0.942610  0.788324  1
