# generated using pymatgen
data_Fe7(P2O7)4
_symmetry_space_group_name_H-M   'P 1'
_cell_length_a   6.53016737
_cell_length_b   6.53016663
_cell_length_c   23.95393424
_cell_angle_alpha   90.00000000
_cell_angle_beta   90.00000000
_cell_angle_gamma   97.93529252
_symmetry_Int_Tables_number   1
_chemical_formula_structural   Fe7(P2O7)4
_chemical_formula_sum   'Fe14 P16 O56'
_cell_volume   1011.68859300
_cell_formula_units_Z   2
loop_
 _symmetry_equiv_pos_site_id
 _symmetry_equiv_pos_as_xyz
  1  'x, y, z'
loop_
 _atom_site_type_symbol
 _atom_site_label
 _atom_site_symmetry_multiplicity
 _atom_site_fract_x
 _atom_site_fract_y
 _atom_site_fract_z
 _atom_site_occupancy
  Fe  Fe0  1  0.307570  0.307570  0.500000  1
  Fe  Fe1  1  0.071250  0.071250  0.000000  1
  Fe  Fe2  1  0.692430  0.692430  0.000000  1
  Fe  Fe3  1  0.964024  0.680321  0.637610  1
  Fe  Fe4  1  0.680321  0.964024  0.362390  1
  Fe  Fe5  1  0.285404  0.586252  0.376211  1
  Fe  Fe6  1  0.319679  0.035976  0.862390  1
  Fe  Fe7  1  0.928750  0.928750  0.500000  1
  Fe  Fe8  1  0.714596  0.413748  0.876211  1
  Fe  Fe9  1  0.035976  0.319679  0.137610  1
  Fe  Fe10  1  0.720799  0.279201  0.250000  1
  Fe  Fe11  1  0.279201  0.720799  0.750000  1
  Fe  Fe12  1  0.413748  0.714596  0.123789  1
  Fe  Fe13  1  0.586252  0.285404  0.623789  1
  P  P14  1  0.476128  0.759809  0.619892  1
  P  P15  1  0.073842  0.178370  0.624133  1
  P  P16  1  0.759809  0.476128  0.380109  1
  P  P17  1  0.189604  0.595090  0.004048  1
  P  P18  1  0.701780  0.776472  0.233008  1
  P  P19  1  0.223528  0.298220  0.266992  1
  P  P20  1  0.595090  0.189604  0.995952  1
  P  P21  1  0.523872  0.240191  0.119891  1
  P  P22  1  0.298220  0.223528  0.733008  1
  P  P23  1  0.810396  0.404910  0.504048  1
  P  P24  1  0.821630  0.926158  0.875867  1
  P  P25  1  0.240191  0.523872  0.880108  1
  P  P26  1  0.178370  0.073842  0.375867  1
  P  P27  1  0.926158  0.821630  0.124133  1
  P  P28  1  0.776472  0.701780  0.766992  1
  P  P29  1  0.404910  0.810396  0.495952  1
  O  O30  1  0.983928  0.572474  0.379665  1
  O  O31  1  0.721035  0.724530  0.904722  1
  O  O32  1  0.293173  0.716372  0.844200  1
  O  O33  1  0.956317  0.702679  0.725390  1
  O  O34  1  0.364159  0.390862  0.129075  1
  O  O35  1  0.779522  0.591787  0.258189  1
  O  O36  1  0.220478  0.408213  0.758189  1
  O  O37  1  0.016072  0.427526  0.879665  1
  O  O38  1  0.043683  0.297321  0.225390  1
  O  O39  1  0.635841  0.609138  0.629075  1
  O  O40  1  0.502993  0.270160  0.700955  1
  O  O41  1  0.293787  0.604325  0.943297  1
  O  O42  1  0.098964  0.379005  0.021267  1
  O  O43  1  0.408213  0.220478  0.241811  1
  O  O44  1  0.742589  0.025600  0.996508  1
  O  O45  1  0.706827  0.283628  0.344200  1
  O  O46  1  0.087636  0.667825  0.127317  1
  O  O47  1  0.278965  0.275470  0.404722  1
  O  O48  1  0.275470  0.278965  0.595278  1
  O  O49  1  0.390862  0.364159  0.870925  1
  O  O50  1  0.384617  0.681010  0.038382  1
  O  O51  1  0.010391  0.030344  0.097752  1
  O  O52  1  0.591787  0.779522  0.741811  1
  O  O53  1  0.716372  0.293173  0.155800  1
  O  O54  1  0.379005  0.098964  0.978733  1
  O  O55  1  0.969656  0.989609  0.402248  1
  O  O56  1  0.729840  0.497007  0.799045  1
  O  O57  1  0.030344  0.010391  0.902248  1
  O  O58  1  0.318990  0.615383  0.461618  1
  O  O59  1  0.724530  0.721035  0.095278  1
  O  O60  1  0.609138  0.635841  0.370925  1
  O  O61  1  0.395675  0.706213  0.556703  1
  O  O62  1  0.123901  0.128287  0.313264  1
  O  O63  1  0.989609  0.969656  0.597752  1
  O  O64  1  0.681010  0.384617  0.961618  1
  O  O65  1  0.257411  0.974400  0.496508  1
  O  O66  1  0.128287  0.123901  0.686736  1
  O  O67  1  0.497007  0.729840  0.200955  1
  O  O68  1  0.572474  0.983928  0.620335  1
  O  O69  1  0.901036  0.620995  0.521267  1
  O  O70  1  0.620995  0.901036  0.478733  1
  O  O71  1  0.283628  0.706827  0.655800  1
  O  O72  1  0.706213  0.395675  0.443297  1
  O  O73  1  0.604325  0.293787  0.056703  1
  O  O74  1  0.974400  0.257411  0.503492  1
  O  O75  1  0.615383  0.318990  0.538382  1
  O  O76  1  0.025600  0.742589  0.003492  1
  O  O77  1  0.297321  0.043683  0.774610  1
  O  O78  1  0.912364  0.332175  0.627317  1
  O  O79  1  0.667825  0.087636  0.872683  1
  O  O80  1  0.876099  0.871713  0.813264  1
  O  O81  1  0.427526  0.016072  0.120335  1
  O  O82  1  0.270160  0.502993  0.299045  1
  O  O83  1  0.702679  0.956317  0.274610  1
  O  O84  1  0.871713  0.876099  0.186736  1
  O  O85  1  0.332175  0.912364  0.372683  1
