# generated using pymatgen
data_H7NO6
_symmetry_space_group_name_H-M   'P 1'
_cell_length_a   9.92181096
_cell_length_b   14.78730993
_cell_length_c   3.62007193
_cell_angle_alpha   89.52115974
_cell_angle_beta   90.00000000
_cell_angle_gamma   90.00000000
_symmetry_Int_Tables_number   1
_chemical_formula_structural   H7NO6
_chemical_formula_sum   'H28 N4 O24'
_cell_volume   531.10716018
_cell_formula_units_Z   4
loop_
 _symmetry_equiv_pos_site_id
 _symmetry_equiv_pos_as_xyz
  1  'x, y, z'
loop_
 _atom_site_type_symbol
 _atom_site_label
 _atom_site_symmetry_multiplicity
 _atom_site_fract_x
 _atom_site_fract_y
 _atom_site_fract_z
 _atom_site_occupancy
  H  H0  1  0.802390  0.720387  0.236434  1
  H  H1  1  0.685162  0.279439  0.704460  1
  H  H2  1  0.302390  0.779613  0.763566  1
  H  H3  1  0.185162  0.220561  0.295540  1
  H  H4  1  0.891659  0.639500  0.893374  1
  H  H5  1  0.706989  0.681322  0.922436  1
  H  H6  1  0.611943  0.349507  0.358370  1
  H  H7  1  0.791667  0.317310  0.403165  1
  H  H8  1  0.391659  0.860500  0.106626  1
  H  H9  1  0.206989  0.818678  0.077564  1
  H  H10  1  0.111943  0.150493  0.641630  1
  H  H11  1  0.291667  0.182690  0.596835  1
  H  H12  1  0.755673  0.876700  0.811824  1
  H  H13  1  0.756689  0.078004  0.254278  1
  H  H14  1  0.704637  0.972242  0.718659  1
  H  H15  1  0.863517  0.000225  0.307036  1
  H  H16  1  0.255673  0.623300  0.188176  1
  H  H17  1  0.256689  0.421996  0.745722  1
  H  H18  1  0.204637  0.527758  0.281341  1
  H  H19  1  0.363517  0.499775  0.692964  1
  H  H20  1  0.515257  0.829495  0.420601  1
  H  H21  1  0.562157  0.903614  0.105989  1
  H  H22  1  0.967654  0.182936  0.951004  1
  H  H23  1  0.935863  0.103163  0.658864  1
  H  H24  1  0.062157  0.596386  0.894011  1
  H  H25  1  0.015257  0.670505  0.579399  1
  H  H26  1  0.435863  0.396837  0.341136  1
  H  H27  1  0.467654  0.317064  0.048996  1
  N  N28  1  0.976741  0.836989  0.351855  1
  N  N29  1  0.516951  0.156407  0.862692  1
  N  N30  1  0.476741  0.663011  0.648145  1
  N  N31  1  0.016951  0.343593  0.137308  1
  O  O32  1  0.859792  0.813885  0.468072  1
  O  O33  1  0.635412  0.180521  0.964769  1
  O  O34  1  0.359792  0.686115  0.531928  1
  O  O35  1  0.135412  0.319479  0.035231  1
  O  O36  1  0.065810  0.774819  0.319634  1
  O  O37  1  0.434033  0.221067  0.766793  1
  O  O38  1  0.565810  0.725181  0.680366  1
  O  O39  1  0.934033  0.278933  0.233207  1
  O  O40  1  0.003599  0.917177  0.268607  1
  O  O41  1  0.482177  0.076734  0.852982  1
  O  O42  1  0.503599  0.582823  0.731393  1
  O  O43  1  0.982177  0.423266  0.147018  1
  O  O44  1  0.784410  0.665797  0.084379  1
  O  O45  1  0.707001  0.332802  0.545321  1
  O  O46  1  0.284410  0.834203  0.915621  1
  O  O47  1  0.207001  0.167198  0.454679  1
  O  O48  1  0.694441  0.923555  0.904831  1
  O  O49  1  0.813596  0.048065  0.439656  1
  O  O50  1  0.194441  0.576445  0.095169  1
  O  O51  1  0.313596  0.451935  0.560344  1
  O  O52  1  0.482777  0.881190  0.267688  1
  O  O53  1  0.007966  0.130726  0.818103  1
  O  O54  1  0.982777  0.618810  0.732312  1
  O  O55  1  0.507966  0.369274  0.181897  1
