# generated using pymatgen
data_NiH12C4(N2O3)2
_symmetry_space_group_name_H-M   'P 1'
_cell_length_a   9.30472470
_cell_length_b   9.30472502
_cell_length_c   7.15752537
_cell_angle_alpha   90.00000000
_cell_angle_beta   90.00000000
_cell_angle_gamma   119.99999885
_symmetry_Int_Tables_number   1
_chemical_formula_structural   NiH12C4(N2O3)2
_chemical_formula_sum   'Ni2 H24 C8 N8 O12'
_cell_volume   536.66170268
_cell_formula_units_Z   2
loop_
 _symmetry_equiv_pos_site_id
 _symmetry_equiv_pos_as_xyz
  1  'x, y, z'
loop_
 _atom_site_type_symbol
 _atom_site_label
 _atom_site_symmetry_multiplicity
 _atom_site_fract_x
 _atom_site_fract_y
 _atom_site_fract_z
 _atom_site_occupancy
  Ni  Ni0  1  0.000000  0.000000  0.000000  1
  Ni  Ni1  1  0.000000  0.000000  0.500000  1
  H  H2  1  0.548910  0.644731  0.333666  1
  H  H3  1  0.095821  0.644731  0.333666  1
  H  H4  1  0.268955  0.731045  0.610909  1
  H  H5  1  0.904179  0.548910  0.666334  1
  H  H6  1  0.420542  0.579458  0.128706  1
  H  H7  1  0.095821  0.451090  0.333666  1
  H  H8  1  0.451090  0.095821  0.666334  1
  H  H9  1  0.158917  0.579458  0.128706  1
  H  H10  1  0.355269  0.904179  0.333666  1
  H  H11  1  0.579458  0.158917  0.871294  1
  H  H12  1  0.644731  0.095821  0.666334  1
  H  H13  1  0.731045  0.268955  0.389091  1
  H  H14  1  0.904179  0.355269  0.666334  1
  H  H15  1  0.355269  0.451090  0.333666  1
  H  H16  1  0.644731  0.548910  0.666334  1
  H  H17  1  0.731045  0.462089  0.389091  1
  H  H18  1  0.451090  0.355269  0.666334  1
  H  H19  1  0.548910  0.904179  0.333666  1
  H  H20  1  0.268955  0.537911  0.610909  1
  H  H21  1  0.579458  0.420542  0.871294  1
  H  H22  1  0.841083  0.420542  0.871294  1
  H  H23  1  0.462089  0.731045  0.610909  1
  H  H24  1  0.537911  0.268955  0.389091  1
  H  H25  1  0.420542  0.841083  0.128706  1
  C  C26  1  0.666667  0.333333  0.438557  1
  C  C27  1  0.333333  0.666667  0.561443  1
  C  C28  1  0.157643  0.578821  0.281500  1
  C  C29  1  0.578821  0.157643  0.718500  1
  C  C30  1  0.842357  0.421179  0.718500  1
  C  C31  1  0.421179  0.578821  0.281500  1
  C  C32  1  0.421179  0.842357  0.281500  1
  C  C33  1  0.578821  0.421179  0.718500  1
  N  N34  1  0.109635  0.219271  0.833289  1
  N  N35  1  0.219271  0.109635  0.166711  1
  N  N36  1  0.333333  0.666667  0.351438  1
  N  N37  1  0.109635  0.890365  0.833289  1
  N  N38  1  0.890365  0.780729  0.166711  1
  N  N39  1  0.780729  0.890365  0.833289  1
  N  N40  1  0.890365  0.109635  0.166711  1
  N  N41  1  0.666667  0.333333  0.648562  1
  O  O42  1  0.109467  0.890533  0.653064  1
  O  O43  1  0.821579  0.643159  0.090120  1
  O  O44  1  0.781067  0.890533  0.653064  1
  O  O45  1  0.643159  0.821579  0.909880  1
  O  O46  1  0.890533  0.781067  0.346936  1
  O  O47  1  0.178421  0.821579  0.909880  1
  O  O48  1  0.178421  0.356841  0.909880  1
  O  O49  1  0.218933  0.109467  0.346936  1
  O  O50  1  0.356841  0.178421  0.090120  1
  O  O51  1  0.821579  0.178421  0.090120  1
  O  O52  1  0.890533  0.109467  0.346936  1
  O  O53  1  0.109467  0.218933  0.653064  1
