# generated using pymatgen
data_NaCdPO4
_symmetry_space_group_name_H-M   'P 1'
_cell_length_a   5.11989522
_cell_length_b   6.61149029
_cell_length_c   11.03046606
_cell_angle_alpha   90.00000000
_cell_angle_beta   90.00000000
_cell_angle_gamma   90.00000000
_symmetry_Int_Tables_number   1
_chemical_formula_structural   NaCdPO4
_chemical_formula_sum   'Na4 Cd4 P4 O16'
_cell_volume   373.38279318
_cell_formula_units_Z   4
loop_
 _symmetry_equiv_pos_site_id
 _symmetry_equiv_pos_as_xyz
  1  'x, y, z'
loop_
 _atom_site_type_symbol
 _atom_site_label
 _atom_site_symmetry_multiplicity
 _atom_site_fract_x
 _atom_site_fract_y
 _atom_site_fract_z
 _atom_site_occupancy
  O  O0  1  0.325026  0.750000  0.471013  1
  O  O1  1  0.825026  0.250000  0.028987  1
  O  O2  1  0.674974  0.250000  0.528987  1
  O  O3  1  0.174974  0.750000  0.971013  1
  O  O4  1  0.808367  0.437352  0.829838  1
  O  O5  1  0.308367  0.562648  0.670162  1
  O  O6  1  0.191633  0.937352  0.170162  1
  O  O7  1  0.691633  0.062648  0.329838  1
  O  O8  1  0.191633  0.562648  0.170162  1
  O  O9  1  0.691633  0.437352  0.329838  1
  O  O10  1  0.808367  0.062648  0.829838  1
  O  O11  1  0.308367  0.937352  0.670162  1
  O  O12  1  0.733707  0.750000  0.606219  1
  O  O13  1  0.233707  0.250000  0.893781  1
  O  O14  1  0.266293  0.250000  0.393781  1
  O  O15  1  0.766293  0.750000  0.106219  1
  Na  Na16  1  0.500000  0.000000  0.000000  1
  Na  Na17  1  0.000000  0.000000  0.500000  1
  Na  Na18  1  0.000000  0.500000  0.500000  1
  Na  Na19  1  0.500000  0.500000  0.000000  1
  P  P20  1  0.068100  0.750000  0.103260  1
  P  P21  1  0.931900  0.250000  0.896741  1
  P  P22  1  0.568100  0.250000  0.396740  1
  P  P23  1  0.431900  0.750000  0.603259  1
  Cd  Cd24  1  0.515102  0.750000  0.285666  1
  Cd  Cd25  1  0.015102  0.250000  0.214334  1
  Cd  Cd26  1  0.484898  0.250000  0.714334  1
  Cd  Cd27  1  0.984898  0.750000  0.785666  1
