# generated using pymatgen
data_Tb15(Ni4P3)7
_symmetry_space_group_name_H-M   'P 1'
_cell_length_a   24.04470686
_cell_length_b   24.04470686
_cell_length_c   3.82990891
_cell_angle_alpha   90.00000000
_cell_angle_beta   90.00000000
_cell_angle_gamma   120.00000000
_symmetry_Int_Tables_number   1
_chemical_formula_structural   Tb15(Ni4P3)7
_chemical_formula_sum   'Tb30 Ni56 P42'
_cell_volume   1917.60012821
_cell_formula_units_Z   2
loop_
 _symmetry_equiv_pos_site_id
 _symmetry_equiv_pos_as_xyz
  1  'x, y, z'
loop_
 _atom_site_type_symbol
 _atom_site_label
 _atom_site_symmetry_multiplicity
 _atom_site_fract_x
 _atom_site_fract_y
 _atom_site_fract_z
 _atom_site_occupancy
  Tb  Tb0  1  0.387166  0.144831  0.750000  1
  Tb  Tb1  1  0.117717  0.584785  0.250000  1
  Tb  Tb2  1  0.293264  0.732500  0.250000  1
  Tb  Tb3  1  0.757995  0.828041  0.250000  1
  Tb  Tb4  1  0.070046  0.242005  0.250000  1
  Tb  Tb5  1  0.929954  0.757995  0.750000  1
  Tb  Tb6  1  0.586748  0.680090  0.250000  1
  Tb  Tb7  1  0.093342  0.413252  0.250000  1
  Tb  Tb8  1  0.171959  0.929954  0.250000  1
  Tb  Tb9  1  0.144831  0.757665  0.250000  1
  Tb  Tb10  1  0.680090  0.093342  0.750000  1
  Tb  Tb11  1  0.413252  0.319910  0.750000  1
  Tb  Tb12  1  0.242335  0.387166  0.250000  1
  Tb  Tb13  1  0.560764  0.293264  0.750000  1
  Tb  Tb14  1  0.706736  0.267500  0.750000  1
  Tb  Tb15  1  0.267500  0.560764  0.250000  1
  Tb  Tb16  1  0.855169  0.242335  0.750000  1
  Tb  Tb17  1  0.439236  0.706736  0.250000  1
  Tb  Tb18  1  0.584785  0.467067  0.750000  1
  Tb  Tb19  1  0.882283  0.415215  0.750000  1
  Tb  Tb20  1  0.732500  0.439236  0.750000  1
  Tb  Tb21  1  0.319910  0.906658  0.250000  1
  Tb  Tb22  1  0.415215  0.532933  0.250000  1
  Tb  Tb23  1  0.532933  0.117717  0.750000  1
  Tb  Tb24  1  0.612834  0.855169  0.250000  1
  Tb  Tb25  1  0.828041  0.070046  0.750000  1
  Tb  Tb26  1  0.906658  0.586748  0.750000  1
  Tb  Tb27  1  0.242005  0.171959  0.750000  1
  Tb  Tb28  1  0.467067  0.882283  0.250000  1
  Tb  Tb29  1  0.757665  0.612834  0.750000  1
  Ni  Ni30  1  0.652659  0.788358  0.750000  1
  Ni  Ni31  1  0.800683  0.757702  0.750000  1
  Ni  Ni32  1  0.370128  0.389500  0.250000  1
  Ni  Ni33  1  0.307949  0.493466  0.750000  1
  Ni  Ni34  1  0.359864  0.840381  0.750000  1
  Ni  Ni35  1  0.543616  0.536671  0.250000  1
  Ni  Ni36  1  0.199317  0.242298  0.250000  1
  Ni  Ni37  1  0.006946  0.543616  0.750000  1
  Ni  Ni38  1  0.114204  0.174565  0.750000  1
  Ni  Ni39  1  0.957019  0.199317  0.750000  1
  Ni  Ni40  1  0.934221  0.035404  0.750000  1
  Ni  Ni41  1  0.135698  0.347341  0.750000  1
  Ni  Ni42  1  0.333333  0.666667  0.750000  1
  Ni  Ni43  1  0.042981  0.800683  0.250000  1
  Ni  Ni44  1  0.456384  0.463329  0.750000  1
  Ni  Ni45  1  0.035404  0.101183  0.250000  1
  Ni  Ni46  1  0.536671  0.993054  0.750000  1
  Ni  Ni47  1  0.101183  0.065779  0.750000  1
  Ni  Ni48  1  0.964596  0.898817  0.750000  1
  Ni  Ni49  1  0.640136  0.159619  0.250000  1
  Ni  Ni50  1  0.814483  0.307949  0.250000  1
  Ni  Ni51  1  0.316276  0.031046  0.250000  1
  Ni  Ni52  1  0.242298  0.042981  0.750000  1
  Ni  Ni53  1  0.347341  0.211642  0.250000  1
  Ni  Ni54  1  0.031046  0.714770  0.750000  1
  Ni  Ni55  1  0.493466  0.185517  0.250000  1
  Ni  Ni56  1  0.519483  0.359864  0.250000  1
  Ni  Ni57  1  0.993054  0.456384  0.250000  1
  Ni  Ni58  1  0.389500  0.019372  0.750000  1
  Ni  Ni59  1  0.463329  0.006946  0.250000  1
  Ni  Ni60  1  0.714770  0.683724  0.250000  1
  Ni  Ni61  1  0.980628  0.370128  0.750000  1
  Ni  Ni62  1  0.060361  0.885796  0.750000  1
  Ni  Ni63  1  0.159619  0.519483  0.750000  1
  Ni  Ni64  1  0.019372  0.629872  0.250000  1
  Ni  Ni65  1  0.864302  0.652659  0.250000  1
  Ni  Ni66  1  0.692051  0.506534  0.250000  1
  Ni  Ni67  1  0.825435  0.939639  0.750000  1
  Ni  Ni68  1  0.666667  0.333333  0.250000  1
  Ni  Ni69  1  0.968954  0.285230  0.250000  1
  Ni  Ni70  1  0.788358  0.135698  0.250000  1
  Ni  Ni71  1  0.939639  0.114204  0.250000  1
  Ni  Ni72  1  0.211642  0.864302  0.750000  1
  Ni  Ni73  1  0.185517  0.692051  0.750000  1
  Ni  Ni74  1  0.885796  0.825435  0.250000  1
  Ni  Ni75  1  0.610500  0.980628  0.250000  1
  Ni  Ni76  1  0.174565  0.060361  0.250000  1
  Ni  Ni77  1  0.065779  0.964596  0.250000  1
  Ni  Ni78  1  0.757702  0.957019  0.250000  1
  Ni  Ni79  1  0.285230  0.316276  0.750000  1
  Ni  Ni80  1  0.898817  0.934221  0.250000  1
  Ni  Ni81  1  0.683724  0.968954  0.750000  1
  Ni  Ni82  1  0.629872  0.610500  0.750000  1
  Ni  Ni83  1  0.840381  0.480517  0.250000  1
  Ni  Ni84  1  0.506534  0.814483  0.750000  1
  Ni  Ni85  1  0.480517  0.640136  0.750000  1
  P  P86  1  0.572751  0.920231  0.750000  1
  P  P87  1  0.920231  0.347480  0.250000  1
  P  P88  1  0.053384  0.479021  0.750000  1
  P  P89  1  0.822910  0.716842  0.250000  1
  P  P90  1  0.861902  0.868629  0.750000  1
  P  P91  1  0.479021  0.425637  0.250000  1
  P  P92  1  0.131371  0.993273  0.750000  1
  P  P93  1  0.625318  0.399586  0.250000  1
  P  P94  1  0.893933  0.177090  0.250000  1
  P  P95  1  0.716842  0.893933  0.750000  1
  P  P96  1  0.520979  0.574363  0.750000  1
  P  P97  1  0.797910  0.545283  0.250000  1
  P  P98  1  0.868629  0.006727  0.250000  1
  P  P99  1  0.399586  0.774268  0.750000  1
  P  P100  1  0.721703  0.030224  0.250000  1
  P  P101  1  0.374682  0.600414  0.750000  1
  P  P102  1  0.252627  0.797910  0.750000  1
  P  P103  1  0.747373  0.202090  0.250000  1
  P  P104  1  0.225732  0.625318  0.750000  1
  P  P105  1  0.946616  0.520979  0.250000  1
  P  P106  1  0.574363  0.053384  0.250000  1
  P  P107  1  0.454717  0.252627  0.250000  1
  P  P108  1  0.006727  0.138098  0.750000  1
  P  P109  1  0.278297  0.969776  0.750000  1
  P  P110  1  0.427249  0.079769  0.250000  1
  P  P111  1  0.177090  0.283158  0.750000  1
  P  P112  1  0.283158  0.106067  0.250000  1
  P  P113  1  0.425637  0.946616  0.750000  1
  P  P114  1  0.600414  0.225732  0.250000  1
  P  P115  1  0.347480  0.427249  0.750000  1
  P  P116  1  0.106067  0.822910  0.750000  1
  P  P117  1  0.030224  0.308521  0.750000  1
  P  P118  1  0.079769  0.652520  0.750000  1
  P  P119  1  0.774268  0.374682  0.250000  1
  P  P120  1  0.308521  0.278297  0.250000  1
  P  P121  1  0.202090  0.454717  0.750000  1
  P  P122  1  0.545283  0.747373  0.750000  1
  P  P123  1  0.993273  0.861902  0.250000  1
  P  P124  1  0.969776  0.691479  0.250000  1
  P  P125  1  0.691479  0.721703  0.750000  1
  P  P126  1  0.652520  0.572751  0.250000  1
  P  P127  1  0.138098  0.131371  0.250000  1
