# generated using pymatgen
data_Cu29Se19
_symmetry_space_group_name_H-M   'P 1'
_cell_length_a   4.03782502
_cell_length_b   4.03782532
_cell_length_c   76.70165792
_cell_angle_alpha   60.00478518
_cell_angle_beta   60.00478278
_cell_angle_gamma   59.97669312
_symmetry_Int_Tables_number   1
_chemical_formula_structural   Cu29Se19
_chemical_formula_sum   'Cu29 Se19'
_cell_volume   884.17780406
_cell_formula_units_Z   1
loop_
 _symmetry_equiv_pos_site_id
 _symmetry_equiv_pos_as_xyz
  1  'x, y, z'
loop_
 _atom_site_type_symbol
 _atom_site_label
 _atom_site_symmetry_multiplicity
 _atom_site_fract_x
 _atom_site_fract_y
 _atom_site_fract_z
 _atom_site_occupancy
  Cu  Cu0  1  0.243569  0.243569  0.066811  1
  Cu  Cu1  1  0.757069  0.757069  0.038358  1
  Cu  Cu2  1  0.741871  0.741871  0.093385  1
  Cu  Cu3  1  0.739202  0.739202  0.146441  1
  Cu  Cu4  1  0.749817  0.749817  0.197412  1
  Cu  Cu5  1  0.749368  0.749368  0.250101  1
  Cu  Cu6  1  0.749476  0.749476  0.302705  1
  Cu  Cu7  1  0.749439  0.749439  0.355355  1
  Cu  Cu8  1  0.749432  0.749432  0.407990  1
  Cu  Cu9  1  0.244154  0.244154  0.487767  1
  Cu  Cu10  1  0.767387  0.767387  0.457773  1
  Cu  Cu11  1  0.256123  0.256123  0.591134  1
  Cu  Cu12  1  0.740767  0.740767  0.514627  1
  Cu  Cu13  1  0.253401  0.253401  0.644179  1
  Cu  Cu14  1  0.756187  0.756187  0.564817  1
  Cu  Cu15  1  0.252141  0.252141  0.697019  1
  Cu  Cu16  1  0.760965  0.760965  0.616687  1
  Cu  Cu17  1  0.251627  0.251627  0.749747  1
  Cu  Cu18  1  0.750011  0.750011  0.671054  1
  Cu  Cu19  1  0.749381  0.749381  0.723794  1
  Cu  Cu20  1  0.251270  0.251270  0.802415  1
  Cu  Cu21  1  0.748923  0.748923  0.776475  1
  Cu  Cu22  1  0.250655  0.250655  0.855152  1
  Cu  Cu23  1  0.748574  0.748574  0.829181  1
  Cu  Cu24  1  0.248471  0.248471  0.908149  1
  Cu  Cu25  1  0.748009  0.748009  0.881902  1
  Cu  Cu26  1  0.241350  0.241350  0.961889  1
  Cu  Cu27  1  0.747098  0.747098  0.934656  1
  Cu  Cu28  1  0.728680  0.728680  0.990211  1
  Se  Se29  1  0.998663  0.998663  0.000219  1
  Se  Se30  1  0.009163  0.009163  0.051230  1
  Se  Se31  1  0.993564  0.993564  0.106242  1
  Se  Se32  1  -0.000010  -0.000010  0.157889  1
  Se  Se33  1  0.999384  0.999384  0.210663  1
  Se  Se34  1  0.000354  0.000354  0.263079  1
  Se  Se35  1  0.000936  0.000936  0.315622  1
  Se  Se36  1  0.005487  0.005487  0.420182  1
  Se  Se37  1  0.001390  0.001390  0.368229  1
  Se  Se38  1  0.997584  0.997584  0.526715  1
  Se  Se39  1  0.009418  0.009418  0.472181  1
  Se  Se40  1  0.010669  0.010669  0.577273  1
  Se  Se41  1  0.997062  0.997062  0.631999  1
  Se  Se42  1  0.997810  0.997810  0.684563  1
  Se  Se43  1  0.999702  0.999702  0.789484  1
  Se  Se44  1  0.998919  0.998919  0.737037  1
  Se  Se45  1  0.001425  0.001425  0.841901  1
  Se  Se46  1  0.002886  0.002886  0.894320  1
  Se  Se47  1  0.001178  0.001178  0.947145  1
