# generated using pymatgen
data_InCuSe2
_symmetry_space_group_name_H-M   'P 1'
_cell_length_a   7.85658004
_cell_length_b   10.33829582
_cell_length_c   6.71285682
_cell_angle_alpha   29.33448359
_cell_angle_beta   54.24901221
_cell_angle_gamma   40.53517244
_symmetry_Int_Tables_number   1
_chemical_formula_structural   InCuSe2
_chemical_formula_sum   'In2 Cu2 Se4'
_cell_volume   168.27405255
_cell_formula_units_Z   2
loop_
 _symmetry_equiv_pos_site_id
 _symmetry_equiv_pos_as_xyz
  1  'x, y, z'
loop_
 _atom_site_type_symbol
 _atom_site_label
 _atom_site_symmetry_multiplicity
 _atom_site_fract_x
 _atom_site_fract_y
 _atom_site_fract_z
 _atom_site_occupancy
  In  In0  1  0.000954  0.005073  0.993627  1
  In  In1  1  0.751109  0.503689  0.995392  1
  Cu  Cu2  1  0.498656  0.007002  0.989884  1
  Cu  Cu3  1  0.256221  0.493179  0.007614  1
  Se  Se4  1  0.488844  0.505881  0.517867  1
  Se  Se5  1  0.263775  0.006544  0.467900  1
  Se  Se6  1  0.015687  0.502377  0.472821  1
  Se  Se7  1  0.738694  0.004634  0.518596  1
