# generated using pymatgen
data_Cr(Bi7O12)2
_symmetry_space_group_name_H-M   'P 1'
_cell_length_a   8.89740953
_cell_length_b   8.89417731
_cell_length_c   10.46863531
_cell_angle_alpha   114.44590803
_cell_angle_beta   114.14513955
_cell_angle_gamma   90.63093484
_symmetry_Int_Tables_number   1
_chemical_formula_structural   Cr(Bi7O12)2
_chemical_formula_sum   'Cr1 Bi14 O24'
_cell_volume   671.78551071
_cell_formula_units_Z   1
loop_
 _symmetry_equiv_pos_site_id
 _symmetry_equiv_pos_as_xyz
  1  'x, y, z'
loop_
 _atom_site_type_symbol
 _atom_site_label
 _atom_site_symmetry_multiplicity
 _atom_site_fract_x
 _atom_site_fract_y
 _atom_site_fract_z
 _atom_site_occupancy
  Cr  Cr0  1  0.958940  0.991738  0.954662  1
  Bi  Bi1  1  0.129173  0.943823  0.664217  1
  Bi  Bi2  1  0.054764  0.467983  0.333205  1
  Bi  Bi3  1  0.339032  0.337193  0.676137  1
  Bi  Bi4  1  0.273003  0.869381  0.328230  1
  Bi  Bi5  1  0.215303  0.435894  0.999141  1
  Bi  Bi6  1  0.525494  0.721614  0.657994  1
  Bi  Bi7  1  0.465499  0.276762  0.332457  1
  Bi  Bi8  1  0.440924  0.781698  0.997917  1
  Bi  Bi9  1  0.716351  0.129538  0.663681  1
  Bi  Bi10  1  0.657876  0.660326  0.324295  1
  Bi  Bi11  1  0.561360  0.215920  0.999799  1
  Bi  Bi12  1  0.939495  0.527860  0.660899  1
  Bi  Bi13  1  0.866978  0.056149  0.331972  1
  Bi  Bi14  1  0.785545  0.562866  0.001124  1
  O  O15  1  0.146761  0.104994  0.016200  1
  O  O16  1  0.998462  0.330374  0.494461  1
  O  O17  1  0.234247  0.541072  0.839274  1
  O  O18  1  0.296414  0.237655  0.835398  1
  O  O19  1  0.167664  0.002339  0.497045  1
  O  O20  1  0.110329  0.620709  0.227999  1
  O  O21  1  0.380939  0.884356  0.768095  1
  O  O22  1  0.327884  0.498759  0.495318  1
  O  O23  1  0.537989  0.603894  0.840039  1
  O  O24  1  0.596386  0.306585  0.838709  1
  O  O25  1  0.491104  0.828563  0.490172  1
  O  O26  1  0.496931  0.172489  0.503405  1
  O  O27  1  0.398021  0.695186  0.158660  1
  O  O28  1  0.462583  0.403197  0.163630  1
  O  O29  1  0.826357  0.121567  0.980992  1
  O  O30  1  0.666006  0.496074  0.496068  1
  O  O31  1  0.617122  0.117068  0.231200  1
  O  O32  1  0.885477  0.378523  0.771197  1
  O  O33  1  0.882014  0.866697  0.759976  1
  O  O34  1  0.833343  0.002881  0.500600  1
  O  O35  1  0.698408  0.764501  0.160675  1
  O  O36  1  0.762466  0.463667  0.163413  1
  O  O37  1  0.003142  0.666879  0.500617  1
  O  O38  1  0.971513  0.875527  0.047728  1
