# generated using pymatgen
data_CaTi4(CuO4)3
_symmetry_space_group_name_H-M   'P 1'
_cell_length_a   6.69411458
_cell_length_b   6.69408938
_cell_length_c   6.69428064
_cell_angle_alpha   109.47196107
_cell_angle_beta   109.46523378
_cell_angle_gamma   109.47714185
_symmetry_Int_Tables_number   1
_chemical_formula_structural   CaTi4(CuO4)3
_chemical_formula_sum   'Ca1 Ti4 Cu3 O12'
_cell_volume   230.92079976
_cell_formula_units_Z   1
loop_
 _symmetry_equiv_pos_site_id
 _symmetry_equiv_pos_as_xyz
  1  'x, y, z'
loop_
 _atom_site_type_symbol
 _atom_site_label
 _atom_site_symmetry_multiplicity
 _atom_site_fract_x
 _atom_site_fract_y
 _atom_site_fract_z
 _atom_site_occupancy
  Ca  Ca0  1  0.000012  0.999999  0.000017  1
  Ti  Ti1  1  -0.000010  0.499964  0.999966  1
  Ti  Ti2  1  0.000031  0.000045  0.500042  1
  Ti  Ti3  1  0.499982  0.499937  0.499968  1
  Ti  Ti4  1  0.499988  0.000035  0.000024  1
  Cu  Cu5  1  0.499971  0.499983  -0.000005  1
  Cu  Cu6  1  0.499992  0.999981  0.500007  1
  Cu  Cu7  1  0.000025  0.500021  0.500003  1
  O  O8  1  0.753207  0.246780  0.999987  1
  O  O9  1  0.506476  0.753243  0.753231  1
  O  O10  1  0.753227  0.506455  0.753221  1
  O  O11  1  0.246775  0.000004  0.753224  1
  O  O12  1  0.000001  0.753245  0.246760  1
  O  O13  1  0.493554  0.246768  0.246787  1
  O  O14  1  0.999970  0.246754  0.753211  1
  O  O15  1  0.246781  0.493558  0.246778  1
  O  O16  1  0.246786  0.246768  0.493553  1
  O  O17  1  0.753231  0.000006  0.246774  1
  O  O18  1  0.753214  0.753223  0.506436  1
  O  O19  1  0.246788  0.753230  0.000015  1
