# generated using pymatgen
data_Rb3Ce(PSe4)2
_symmetry_space_group_name_H-M   'P 1'
_cell_length_a   9.68822661
_cell_length_b   10.24438477
_cell_length_c   18.39758532
_cell_angle_alpha   90.00000000
_cell_angle_beta   90.00000000
_cell_angle_gamma   90.85464735
_symmetry_Int_Tables_number   1
_chemical_formula_structural   Rb3Ce(PSe4)2
_chemical_formula_sum   'Rb12 Ce4 P8 Se32'
_cell_volume   1825.75575913
_cell_formula_units_Z   4
loop_
 _symmetry_equiv_pos_site_id
 _symmetry_equiv_pos_as_xyz
  1  'x, y, z'
loop_
 _atom_site_type_symbol
 _atom_site_label
 _atom_site_symmetry_multiplicity
 _atom_site_fract_x
 _atom_site_fract_y
 _atom_site_fract_z
 _atom_site_occupancy
  Rb  Rb0  1  0.390074  0.367191  0.294114  1
  Rb  Rb1  1  0.237104  0.016916  0.964732  1
  Rb  Rb2  1  0.762896  0.983084  0.035268  1
  Rb  Rb3  1  0.902211  0.359241  0.210599  1
  Rb  Rb4  1  0.902211  0.859241  0.289401  1
  Rb  Rb5  1  0.609926  0.132809  0.794114  1
  Rb  Rb6  1  0.762896  0.483084  0.464732  1
  Rb  Rb7  1  0.609926  0.632809  0.705886  1
  Rb  Rb8  1  0.390074  0.867191  0.205886  1
  Rb  Rb9  1  0.237104  0.516916  0.535268  1
  Rb  Rb10  1  0.097789  0.640759  0.789401  1
  Rb  Rb11  1  0.097789  0.140759  0.710599  1
  Ce  Ce12  1  0.273403  0.973884  0.486836  1
  Ce  Ce13  1  0.726597  0.526116  0.986836  1
  Ce  Ce14  1  0.273403  0.473884  0.013164  1
  Ce  Ce15  1  0.726597  0.026116  0.513164  1
  P  P16  1  0.501898  0.760732  0.397150  1
  P  P17  1  0.501898  0.260732  0.102850  1
  P  P18  1  0.027211  0.221658  0.402475  1
  P  P19  1  0.972789  0.278342  0.902475  1
  P  P20  1  0.498102  0.739268  0.897150  1
  P  P21  1  0.972789  0.778342  0.597525  1
  P  P22  1  0.498102  0.239268  0.602850  1
  P  P23  1  0.027211  0.721658  0.097525  1
  Se  Se24  1  0.959990  0.325009  0.021849  1
  Se  Se25  1  0.826128  0.410118  0.846078  1
  Se  Se26  1  0.826128  0.910118  0.653922  1
  Se  Se27  1  0.556019  0.749760  0.515438  1
  Se  Se28  1  0.073338  0.426181  0.375310  1
  Se  Se29  1  0.383638  0.355185  0.682410  1
  Se  Se30  1  0.531911  0.477217  0.119114  1
  Se  Se31  1  0.616362  0.144815  0.182410  1
  Se  Se32  1  0.616362  0.644815  0.317590  1
  Se  Se33  1  0.275402  0.231162  0.112263  1
  Se  Se34  1  0.810317  0.664262  0.127553  1
  Se  Se35  1  0.073338  0.926181  0.124690  1
  Se  Se36  1  0.926662  0.073819  0.875310  1
  Se  Se37  1  0.810317  0.164262  0.372447  1
  Se  Se38  1  0.040010  0.174991  0.521849  1
  Se  Se39  1  0.959990  0.825009  0.478151  1
  Se  Se40  1  0.173872  0.589882  0.153922  1
  Se  Se41  1  0.189683  0.835738  0.627553  1
  Se  Se42  1  0.926662  0.573819  0.624690  1
  Se  Se43  1  0.040010  0.674991  0.978151  1
  Se  Se44  1  0.724598  0.268838  0.612263  1
  Se  Se45  1  0.468089  0.522783  0.880886  1
  Se  Se46  1  0.531911  0.977217  0.380886  1
  Se  Se47  1  0.443981  0.250240  0.484562  1
  Se  Se48  1  0.275402  0.731162  0.387737  1
  Se  Se49  1  0.724598  0.768838  0.887737  1
  Se  Se50  1  0.443981  0.750240  0.015438  1
  Se  Se51  1  0.383638  0.855185  0.817590  1
  Se  Se52  1  0.556019  0.249760  0.984562  1
  Se  Se53  1  0.468089  0.022783  0.619114  1
  Se  Se54  1  0.173872  0.089882  0.346078  1
  Se  Se55  1  0.189683  0.335738  0.872447  1
