# generated using pymatgen
data_Ba3Bi2F12
_symmetry_space_group_name_H-M   'P 1'
_cell_length_a   4.48855369
_cell_length_b   4.45307864
_cell_length_c   22.00862411
_cell_angle_alpha   58.02529890
_cell_angle_beta   59.90032151
_cell_angle_gamma   59.01603978
_symmetry_Int_Tables_number   1
_chemical_formula_structural   Ba3Bi2F12
_chemical_formula_sum   'Ba3 Bi2 F12'
_cell_volume   303.65826983
_cell_formula_units_Z   1
loop_
 _symmetry_equiv_pos_site_id
 _symmetry_equiv_pos_as_xyz
  1  'x, y, z'
loop_
 _atom_site_type_symbol
 _atom_site_label
 _atom_site_symmetry_multiplicity
 _atom_site_fract_x
 _atom_site_fract_y
 _atom_site_fract_z
 _atom_site_occupancy
  Ba  Ba0  1  0.906087  0.091178  0.005782  1
  Ba  Ba1  1  0.890958  0.069806  0.211714  1
  Ba  Ba2  1  0.919994  0.013946  0.416680  1
  Bi  Bi3  1  0.933608  0.893726  0.620806  1
  Bi  Bi4  1  0.795449  0.016853  0.821214  1
  F  F5  1  0.148238  0.324208  0.062663  1
  F  F6  1  0.641733  0.826313  0.161539  1
  F  F7  1  0.140392  0.303403  0.264689  1
  F  F8  1  0.355527  0.291914  0.626364  1
  F  F9  1  0.660967  0.772935  0.367920  1
  F  F10  1  0.171386  0.227078  0.478045  1
  F  F11  1  0.772736  0.746329  0.562863  1
  F  F12  1  0.207329  0.383654  0.852445  1
  F  F13  1  0.637347  0.499830  0.706541  1
  F  F14  1  0.854558  0.770255  0.747186  1
  F  F15  1  0.471065  0.657416  0.891660  1
  F  F16  1  0.672623  0.861157  0.951890  1
