# generated using pymatgen
data_Ti3(BiO3)4
_symmetry_space_group_name_H-M   'P 1'
_cell_length_a   3.86938750
_cell_length_b   3.86938663
_cell_length_c   33.50798927
_cell_angle_alpha   90.00000000
_cell_angle_beta   90.00000000
_cell_angle_gamma   89.08522894
_symmetry_Int_Tables_number   1
_chemical_formula_structural   Ti3(BiO3)4
_chemical_formula_sum   'Ti6 Bi8 O24'
_cell_volume   501.62291153
_cell_formula_units_Z   2
loop_
 _symmetry_equiv_pos_site_id
 _symmetry_equiv_pos_as_xyz
  1  'x, y, z'
loop_
 _atom_site_type_symbol
 _atom_site_label
 _atom_site_symmetry_multiplicity
 _atom_site_fract_x
 _atom_site_fract_y
 _atom_site_fract_z
 _atom_site_occupancy
  Ti  Ti0  1  0.989616  0.010384  0.500000  1
  Ti  Ti1  1  0.514931  0.510972  0.128997  1
  Ti  Ti2  1  0.489616  0.510384  0.000000  1
  Ti  Ti3  1  0.014931  0.010972  0.371003  1
  Ti  Ti4  1  0.489028  0.485069  0.871003  1
  Ti  Ti5  1  0.989028  0.985069  0.628997  1
  Bi  Bi6  1  0.020126  0.013856  0.788200  1
  Bi  Bi7  1  0.520126  0.513856  0.711800  1
  Bi  Bi8  1  0.917210  0.929616  0.933575  1
  Bi  Bi9  1  0.417210  0.429616  0.566425  1
  Bi  Bi10  1  0.070384  0.082790  0.066425  1
  Bi  Bi11  1  0.486144  0.479874  0.288200  1
  Bi  Bi12  1  0.570384  0.582790  0.433575  1
  Bi  Bi13  1  0.986144  0.979874  0.211800  1
  O  O14  1  0.507598  0.982161  0.500450  1
  O  O15  1  0.991015  0.975220  0.682486  1
  O  O16  1  0.524780  0.508985  0.182486  1
  O  O17  1  0.011380  0.501056  0.749997  1
  O  O18  1  0.481293  0.994565  0.117055  1
  O  O19  1  0.486535  0.472279  0.059543  1
  O  O20  1  0.523152  0.999131  0.883099  1
  O  O21  1  0.527721  0.513465  0.940457  1
  O  O22  1  0.491015  0.475220  0.817514  1
  O  O23  1  0.027721  0.013465  0.559543  1
  O  O24  1  0.000869  0.476848  0.116901  1
  O  O25  1  0.517839  0.992402  0.000450  1
  O  O26  1  0.007598  0.482161  0.999550  1
  O  O27  1  0.017839  0.492402  0.499550  1
  O  O28  1  0.023152  0.499131  0.616901  1
  O  O29  1  0.998944  0.488620  0.249997  1
  O  O30  1  0.505435  0.018707  0.617055  1
  O  O31  1  0.500869  0.976848  0.383099  1
  O  O32  1  0.986535  0.972279  0.440457  1
  O  O33  1  0.005435  0.518707  0.882945  1
  O  O34  1  0.498944  0.988620  0.250003  1
  O  O35  1  0.024780  0.008985  0.317514  1
  O  O36  1  0.511380  0.001056  0.750003  1
  O  O37  1  0.981293  0.494565  0.382945  1
