# generated using pymatgen
data_Y4SiS3
_symmetry_space_group_name_H-M   'P 1'
_cell_length_a   7.94671178
_cell_length_b   10.51084701
_cell_length_c   6.89306068
_cell_angle_alpha   29.17733391
_cell_angle_beta   54.83183472
_cell_angle_gamma   41.01474983
_symmetry_Int_Tables_number   1
_chemical_formula_structural   Y4SiS3
_chemical_formula_sum   'Y4 Si1 S3'
_cell_volume   177.92344700
_cell_formula_units_Z   1
loop_
 _symmetry_equiv_pos_site_id
 _symmetry_equiv_pos_as_xyz
  1  'x, y, z'
loop_
 _atom_site_type_symbol
 _atom_site_label
 _atom_site_symmetry_multiplicity
 _atom_site_fract_x
 _atom_site_fract_y
 _atom_site_fract_z
 _atom_site_occupancy
  Y  Y0  1  0.248807  0.999190  0.503176  1
  Y  Y1  1  0.756884  0.995012  0.497631  1
  Y  Y2  1  0.502579  0.497030  0.500024  1
  Y  Y3  1  0.001685  0.499160  0.497760  1
  Si  Si4  1  0.002344  0.998164  0.999400  1
  S  S5  1  0.501453  0.997822  -0.000267  1
  S  S6  1  0.254490  0.496138  0.000974  1
  S  S7  1  0.751672  0.498208  0.998694  1
