# generated using pymatgen
data_Ba3Bi6PbSe13
_symmetry_space_group_name_H-M   'P 1'
_cell_length_a   4.33408182
_cell_length_b   17.59451432
_cell_length_c   18.94102326
_cell_angle_alpha   90.63777161
_cell_angle_beta   90.00000000
_cell_angle_gamma   90.00000000
_symmetry_Int_Tables_number   1
_chemical_formula_structural   Ba3Bi6PbSe13
_chemical_formula_sum   'Ba6 Bi12 Pb2 Se26'
_cell_volume   1444.27841410
_cell_formula_units_Z   2
loop_
 _symmetry_equiv_pos_site_id
 _symmetry_equiv_pos_as_xyz
  1  'x, y, z'
loop_
 _atom_site_type_symbol
 _atom_site_label
 _atom_site_symmetry_multiplicity
 _atom_site_fract_x
 _atom_site_fract_y
 _atom_site_fract_z
 _atom_site_occupancy
  Ba  Ba0  1  0.250000  0.747769  0.733812  1
  Ba  Ba1  1  0.750000  0.733289  0.175922  1
  Ba  Ba2  1  0.750000  0.252231  0.266188  1
  Ba  Ba3  1  0.250000  0.482443  0.655819  1
  Ba  Ba4  1  0.750000  0.517557  0.344181  1
  Ba  Ba5  1  0.250000  0.266711  0.824078  1
  Bi  Bi6  1  0.750000  0.918794  0.577298  1
  Bi  Bi7  1  0.250000  0.081206  0.422702  1
  Bi  Bi8  1  0.250000  0.326836  0.475033  1
  Bi  Bi9  1  0.250000  0.103063  0.022888  1
  Bi  Bi10  1  0.250000  0.509946  0.118068  1
  Bi  Bi11  1  0.750000  0.896937  0.977112  1
  Bi  Bi12  1  0.250000  0.828286  0.381688  1
  Bi  Bi13  1  0.750000  0.490054  0.881932  1
  Bi  Bi14  1  0.750000  0.312024  0.042579  1
  Bi  Bi15  1  0.750000  0.171714  0.618312  1
  Bi  Bi16  1  0.750000  0.673164  0.524967  1
  Bi  Bi17  1  0.250000  0.687976  0.957421  1
  Pb  Pb18  1  0.750000  0.986755  0.248574  1
  Pb  Pb19  1  0.250000  0.013245  0.751426  1
  Se  Se20  1  0.250000  0.573674  0.487774  1
  Se  Se21  1  0.250000  0.804532  0.554684  1
  Se  Se22  1  0.750000  0.195468  0.445316  1
  Se  Se23  1  0.750000  0.724104  0.363270  1
  Se  Se24  1  0.750000  0.625467  0.664248  1
  Se  Se25  1  0.250000  0.108046  0.278883  1
  Se  Se26  1  0.250000  0.810868  0.055679  1
  Se  Se27  1  0.250000  0.862316  0.239778  1
  Se  Se28  1  0.250000  0.395814  0.965472  1
  Se  Se29  1  0.250000  0.039146  0.587798  1
  Se  Se30  1  0.750000  0.426326  0.512226  1
  Se  Se31  1  0.250000  0.605167  0.233865  1
  Se  Se32  1  0.750000  0.891954  0.721117  1
  Se  Se33  1  0.250000  0.578467  0.826886  1
  Se  Se34  1  0.250000  0.275896  0.636730  1
  Se  Se35  1  0.750000  0.189132  0.944321  1
  Se  Se36  1  0.750000  0.421533  0.173114  1
  Se  Se37  1  0.750000  0.764646  0.877305  1
  Se  Se38  1  0.750000  0.137684  0.760222  1
  Se  Se39  1  0.750000  0.394833  0.766135  1
  Se  Se40  1  0.250000  0.374532  0.335752  1
  Se  Se41  1  0.750000  0.018252  0.089253  1
  Se  Se42  1  0.750000  0.604186  0.034528  1
  Se  Se43  1  0.250000  0.981748  0.910747  1
  Se  Se44  1  0.250000  0.235354  0.122695  1
  Se  Se45  1  0.750000  0.960854  0.412202  1
