# generated using pymatgen
data_K(V5S8)3
_symmetry_space_group_name_H-M   'P 1'
_cell_length_a   21.04608228
_cell_length_b   14.96179758
_cell_length_c   14.06628476
_cell_angle_alpha   37.97614375
_cell_angle_beta   22.96405663
_cell_angle_gamma   24.97086868
_symmetry_Int_Tables_number   1
_chemical_formula_structural   K(V5S8)3
_chemical_formula_sum   'K1 V15 S24'
_cell_volume   699.96761355
_cell_formula_units_Z   1
loop_
 _symmetry_equiv_pos_site_id
 _symmetry_equiv_pos_as_xyz
  1  'x, y, z'
loop_
 _atom_site_type_symbol
 _atom_site_label
 _atom_site_symmetry_multiplicity
 _atom_site_fract_x
 _atom_site_fract_y
 _atom_site_fract_z
 _atom_site_occupancy
  K  K0  1  0.666667  0.000000  0.000000  1
  V  V1  1  0.166667  0.500000  0.000000  1
  V  V2  1  0.140735  0.955396  0.303794  1
  V  V3  1  0.567497  0.633307  0.618671  1
  V  V4  1  0.570948  0.443158  0.064654  1
  V  V5  1  0.134486  0.585448  0.296421  1
  V  V6  1  0.765836  0.366693  0.381329  1
  V  V7  1  0.921078  0.451240  0.526047  1
  V  V8  1  0.192598  0.044604  0.696206  1
  V  V9  1  0.762385  0.556842  -0.064654  1
  V  V10  1  0.358420  0.058943  0.002130  1
  V  V11  1  0.421419  0.408531  0.877245  1
  V  V12  1  0.911914  0.591469  0.122755  1
  V  V13  1  -0.025087  0.941057  -0.002130  1
  V  V14  1  0.412256  0.548760  0.473953  1
  V  V15  1  0.198848  0.414552  0.703579  1
  S  S16  1  0.843569  0.068987  0.506204  1
  S  S17  1  0.363721  0.314255  0.729896  1
  S  S18  1  0.595480  0.713932  0.354112  1
  S  S19  1  0.959897  0.534448  0.815540  1
  S  S20  1  0.525242  0.664137  0.825199  1
  S  S21  1  0.360192  0.206321  0.083719  1
  S  S22  1  0.183205  0.790763  -0.015935  1
  S  S23  1  0.808091  0.335863  0.174800  1
  S  S24  1  0.373437  0.465552  0.184460  1
  S  S25  1  0.015603  0.136290  0.690558  1
  S  S26  1  0.756898  0.829824  0.683501  1
  S  S27  1  -0.030388  0.685745  0.270104  1
  S  S28  1  0.111527  0.344604  0.517386  1
  S  S29  1  0.978962  0.388397  0.324875  1
  S  S30  1  0.593076  0.682683  0.903191  1
  S  S31  1  0.740257  0.317317  0.096809  1
  S  S32  1  0.354372  0.611603  0.675125  1
  S  S33  1  0.489764  0.931013  0.493796  1
  S  S34  1  0.221807  0.655396  0.482614  1
  S  S35  1  0.576435  0.170177  0.316499  1
  S  S36  1  0.317730  0.863710  0.309442  1
  S  S37  1  0.150128  0.209237  0.015935  1
  S  S38  1  0.973141  0.793679  0.916281  1
  S  S39  1  0.737854  0.286068  0.645888  1
