# generated using pymatgen
data_Yb(BiTe2)2
_symmetry_space_group_name_H-M   'P 1'
_cell_length_a   8.61326071
_cell_length_b   8.61326077
_cell_length_c   8.61326077
_cell_angle_alpha   109.36459330
_cell_angle_beta   109.68468075
_cell_angle_gamma   109.36459692
_symmetry_Int_Tables_number   1
_chemical_formula_structural   Yb(BiTe2)2
_chemical_formula_sum   'Yb2 Bi4 Te8'
_cell_volume   491.89950128
_cell_formula_units_Z   2
loop_
 _symmetry_equiv_pos_site_id
 _symmetry_equiv_pos_as_xyz
  1  'x, y, z'
loop_
 _atom_site_type_symbol
 _atom_site_label
 _atom_site_symmetry_multiplicity
 _atom_site_fract_x
 _atom_site_fract_y
 _atom_site_fract_z
 _atom_site_occupancy
  Yb  Yb0  1  0.125000  0.750000  0.875000  1
  Yb  Yb1  1  0.375000  0.250000  0.625000  1
  Bi  Bi2  1  0.250000  0.515567  0.265567  1
  Bi  Bi3  1  0.734433  0.484433  0.250000  1
  Bi  Bi4  1  0.750000  0.984433  0.234433  1
  Bi  Bi5  1  0.765567  0.015567  0.750000  1
  Te  Te6  1  0.039485  0.418217  0.503309  1
  Te  Te7  1  0.460515  0.963823  0.378732  1
  Te  Te8  1  0.085091  0.081783  0.121268  1
  Te  Te9  1  0.414909  0.536177  0.996691  1
  Te  Te10  1  0.496691  0.036177  0.914909  1
  Te  Te11  1  0.621268  0.581783  0.585091  1
  Te  Te12  1  0.003309  0.918217  0.539485  1
  Te  Te13  1  0.878732  0.463823  0.960515  1
