# generated using pymatgen
data_Tb2S3
_symmetry_space_group_name_H-M   'P 1'
_cell_length_a   21.66928635
_cell_length_b   8.34780323
_cell_length_c   8.34780310
_cell_angle_alpha   90.00000000
_cell_angle_beta   54.70018688
_cell_angle_gamma   54.70018626
_symmetry_Int_Tables_number   1
_chemical_formula_structural   Tb2S3
_chemical_formula_sum   'Tb16 S24'
_cell_volume   870.29688783
_cell_formula_units_Z   8
loop_
 _symmetry_equiv_pos_site_id
 _symmetry_equiv_pos_as_xyz
  1  'x, y, z'
loop_
 _atom_site_type_symbol
 _atom_site_label
 _atom_site_symmetry_multiplicity
 _atom_site_fract_x
 _atom_site_fract_y
 _atom_site_fract_z
 _atom_site_occupancy
  Tb  Tb0  1  0.995292  0.393554  0.248255  1
  Tb  Tb1  1  0.995292  0.120570  0.765868  1
  Tb  Tb2  1  0.084006  0.623991  0.373991  1
  Tb  Tb3  1  0.166667  0.250000  0.631069  1
  Tb  Tb4  1  0.338041  0.379430  0.251745  1
  Tb  Tb5  1  0.249327  0.876009  0.126009  1
  Tb  Tb6  1  0.338041  0.106446  0.734132  1
  Tb  Tb7  1  0.166667  0.750000  0.868931  1
  Tb  Tb8  1  0.495292  0.265868  0.620570  1
  Tb  Tb9  1  0.666667  0.368931  0.250000  1
  Tb  Tb10  1  0.584006  0.873991  0.123991  1
  Tb  Tb11  1  0.666667  0.131069  0.750000  1
  Tb  Tb12  1  0.495292  0.748255  0.893554  1
  Tb  Tb13  1  0.749327  0.626009  0.376009  1
  Tb  Tb14  1  0.838041  0.234132  0.606446  1
  Tb  Tb15  1  0.838041  0.751745  0.879430  1
  S  S16  1  0.048827  0.998460  0.358471  1
  S  S17  1  0.127022  0.488245  0.992485  1
  S  S18  1  0.048827  0.355059  0.495047  1
  S  S19  1  0.284507  0.144941  0.141529  1
  S  S20  1  0.284507  0.501540  0.004953  1
  S  S21  1  0.206311  0.011755  0.873551  1
  S  S22  1  0.127022  0.630690  0.626449  1
  S  S23  1  0.382688  0.003077  0.346717  1
  S  S24  1  0.206311  0.869310  0.507515  1
  S  S25  1  0.450645  0.494780  0.996923  1
  S  S26  1  0.382688  0.348860  0.505220  1
  S  S27  1  0.627022  0.126449  0.130690  1
  S  S28  1  0.627022  0.492485  0.988245  1
  S  S29  1  0.548827  0.995047  0.855059  1
  S  S30  1  0.450645  0.653283  0.651140  1
  S  S31  1  0.706311  0.007515  0.369310  1
  S  S32  1  0.548827  0.858471  0.498460  1
  S  S33  1  0.784507  0.504953  0.001540  1
  S  S34  1  0.706311  0.373551  0.511755  1
  S  S35  1  0.950645  0.151140  0.153283  1
  S  S36  1  0.950645  0.496923  0.994780  1
  S  S37  1  0.784507  0.641529  0.644941  1
  S  S38  1  0.882688  0.005220  0.848860  1
  S  S39  1  0.882688  0.846717  0.503077  1
