# generated using pymatgen
data_Ce(Mo3S4)2
_symmetry_space_group_name_H-M   'P 1'
_cell_length_a   6.55223921
_cell_length_b   6.55223926
_cell_length_c   6.55223926
_cell_angle_alpha   89.17675083
_cell_angle_beta   89.17674793
_cell_angle_gamma   89.17674787
_symmetry_Int_Tables_number   1
_chemical_formula_structural   Ce(Mo3S4)2
_chemical_formula_sum   'Ce1 Mo6 S8'
_cell_volume   281.21339544
_cell_formula_units_Z   1
loop_
 _symmetry_equiv_pos_site_id
 _symmetry_equiv_pos_as_xyz
  1  'x, y, z'
loop_
 _atom_site_type_symbol
 _atom_site_label
 _atom_site_symmetry_multiplicity
 _atom_site_fract_x
 _atom_site_fract_y
 _atom_site_fract_z
 _atom_site_occupancy
  Ce  Ce0  1  0.000000  0.000000  0.000000  1
  Mo  Mo1  1  0.438770  0.773202  0.578903  1
  Mo  Mo2  1  0.578903  0.438770  0.773202  1
  Mo  Mo3  1  0.773202  0.578903  0.438770  1
  Mo  Mo4  1  0.226798  0.421097  0.561230  1
  Mo  Mo5  1  0.421097  0.561230  0.226798  1
  Mo  Mo6  1  0.561230  0.226798  0.421097  1
  S  S7  1  0.245274  0.630068  0.876057  1
  S  S8  1  0.630068  0.876057  0.245274  1
  S  S9  1  0.761714  0.761714  0.761714  1
  S  S10  1  0.876057  0.245274  0.630068  1
  S  S11  1  0.123943  0.754726  0.369932  1
  S  S12  1  0.238286  0.238286  0.238286  1
  S  S13  1  0.369932  0.123943  0.754726  1
  S  S14  1  0.754726  0.369932  0.123943  1
