# generated using pymatgen
data_Eu2GeO5
_symmetry_space_group_name_H-M   'P 1'
_cell_length_a   7.00208028
_cell_length_b   7.27437493
_cell_length_c   9.47768682
_cell_angle_alpha   90.00000000
_cell_angle_beta   105.65522316
_cell_angle_gamma   90.00000000
_symmetry_Int_Tables_number   1
_chemical_formula_structural   Eu2GeO5
_chemical_formula_sum   'Eu8 Ge4 O20'
_cell_volume   464.84442606
_cell_formula_units_Z   4
loop_
 _symmetry_equiv_pos_site_id
 _symmetry_equiv_pos_as_xyz
  1  'x, y, z'
loop_
 _atom_site_type_symbol
 _atom_site_label
 _atom_site_symmetry_multiplicity
 _atom_site_fract_x
 _atom_site_fract_y
 _atom_site_fract_z
 _atom_site_occupancy
  Eu  Eu0  1  0.735219  0.628882  0.518870  1
  Eu  Eu1  1  0.051820  0.864800  0.870441  1
  Eu  Eu2  1  0.235219  0.871118  0.518870  1
  Eu  Eu3  1  0.764781  0.128882  0.481130  1
  Eu  Eu4  1  0.948180  0.135200  0.129559  1
  Eu  Eu5  1  0.551820  0.635200  0.870441  1
  Eu  Eu6  1  0.264781  0.371118  0.481130  1
  Eu  Eu7  1  0.448180  0.364800  0.129559  1
  Ge  Ge8  1  0.976891  0.589223  0.198714  1
  Ge  Ge9  1  0.523109  0.089223  0.801286  1
  Ge  Ge10  1  0.023109  0.410777  0.801286  1
  Ge  Ge11  1  0.476891  0.910777  0.198714  1
  O  O12  1  0.005721  0.634644  0.390345  1
  O  O13  1  0.276478  0.054657  0.108701  1
  O  O14  1  0.995542  0.207104  0.890259  1
  O  O15  1  0.168660  0.417186  0.216015  1
  O  O16  1  0.831340  0.582814  0.783985  1
  O  O17  1  0.504458  0.707104  0.109741  1
  O  O18  1  0.495542  0.292896  0.890259  1
  O  O19  1  0.776478  0.445343  0.108701  1
  O  O20  1  0.004458  0.792896  0.109741  1
  O  O21  1  0.569087  0.383351  0.392187  1
  O  O22  1  0.505721  0.865356  0.390345  1
  O  O23  1  0.668660  0.082814  0.216015  1
  O  O24  1  0.223522  0.554657  0.891299  1
  O  O25  1  0.331340  0.917186  0.783985  1
  O  O26  1  0.930913  0.883351  0.607813  1
  O  O27  1  0.494279  0.134644  0.609655  1
  O  O28  1  0.723522  0.945343  0.891299  1
  O  O29  1  0.069087  0.116649  0.392187  1
  O  O30  1  0.430913  0.616649  0.607813  1
  O  O31  1  0.994279  0.365356  0.609655  1
