# generated using pymatgen
data_Sb2H20(Cl4O3)3
_symmetry_space_group_name_H-M   'P 1'
_cell_length_a   12.30229739
_cell_length_b   12.30229739
_cell_length_c   11.95252741
_cell_angle_alpha   117.19568281
_cell_angle_beta   92.54350885
_cell_angle_gamma   120.85363780
_symmetry_Int_Tables_number   1
_chemical_formula_structural   Sb2H20(Cl4O3)3
_chemical_formula_sum   'Sb4 H40 Cl24 O18'
_cell_volume   1285.94766517
_cell_formula_units_Z   2
loop_
 _symmetry_equiv_pos_site_id
 _symmetry_equiv_pos_as_xyz
  1  'x, y, z'
loop_
 _atom_site_type_symbol
 _atom_site_label
 _atom_site_symmetry_multiplicity
 _atom_site_fract_x
 _atom_site_fract_y
 _atom_site_fract_z
 _atom_site_occupancy
  Sb  Sb0  1  0.350761  0.787376  0.142707  1
  Sb  Sb1  1  0.649239  0.212624  0.857293  1
  Sb  Sb2  1  0.855331  0.791945  0.642707  1
  Sb  Sb3  1  0.144669  0.208055  0.357293  1
  H  H4  1  0.154140  0.984943  0.978192  1
  H  H5  1  0.845860  0.015057  0.021808  1
  H  H6  1  0.493248  0.824051  0.478192  1
  H  H7  1  0.506752  0.175949  0.521808  1
  H  H8  1  0.294668  0.016926  0.019239  1
  H  H9  1  0.705332  0.983074  0.980761  1
  H  H10  1  0.502313  0.724571  0.519239  1
  H  H11  1  0.497687  0.275429  0.480761  1
  H  H12  1  0.291150  0.182894  0.981181  1
  H  H13  1  0.708850  0.817106  0.018819  1
  H  H14  1  0.298287  0.690031  0.481181  1
  H  H15  1  0.701713  0.309969  0.518819  1
  H  H16  1  0.291522  0.291142  0.915696  1
  H  H17  1  0.708478  0.708858  0.084304  1
  H  H18  1  0.124554  0.624173  0.415696  1
  H  H19  1  0.875446  0.375827  0.584304  1
  H  H20  1  0.383513  0.372463  0.090315  1
  H  H21  1  0.616487  0.627537  0.909685  1
  H  H22  1  0.217852  0.706802  0.590315  1
  H  H23  1  0.782148  0.293198  0.409685  1
  H  H24  1  0.342348  0.343993  0.785315  1
  H  H25  1  0.657652  0.656007  0.214685  1
  H  H26  1  0.941322  0.442967  0.285315  1
  H  H27  1  0.058678  0.557033  0.714685  1
  H  H28  1  0.199726  0.314196  0.802401  1
  H  H29  1  0.800274  0.685804  0.197599  1
  H  H30  1  0.988205  0.602675  0.302401  1
  H  H31  1  0.011795  0.397325  0.697599  1
  H  H32  1  0.527338  0.407042  0.710843  1
  H  H33  1  0.472662  0.592958  0.289157  1
  H  H34  1  0.803801  0.183505  0.210843  1
  H  H35  1  0.196199  0.816495  0.789157  1
  H  H36  1  0.464431  0.489819  0.711038  1
  H  H37  1  0.535569  0.510181  0.288962  1
  H  H38  1  0.721219  0.246606  0.211038  1
  H  H39  1  0.278781  0.753394  0.788962  1
  H  H40  1  0.009417  0.306347  0.823151  1
  H  H41  1  0.990583  0.693653  0.176849  1
  H  H42  1  0.016805  0.813734  0.323151  1
  H  H43  1  0.983195  0.186266  0.676849  1
  Cl  Cl44  1  0.382016  0.691079  0.927352  1
  Cl  Cl45  1  0.617984  0.308921  0.072648  1
  Cl  Cl46  1  0.736273  0.545336  0.427352  1
  Cl  Cl47  1  0.263727  0.454664  0.572648  1
  Cl  Cl48  1  0.572134  0.875612  0.257294  1
  Cl  Cl49  1  0.427866  0.124388  0.742706  1
  Cl  Cl50  1  0.881682  0.685160  0.757294  1
  Cl  Cl51  1  0.118318  0.314840  0.242706  1
  Cl  Cl52  1  0.452313  0.031116  0.167566  1
  Cl  Cl53  1  0.547687  0.968884  0.832434  1
  Cl  Cl54  1  0.636450  0.715253  0.667566  1
  Cl  Cl55  1  0.363550  0.284747  0.332434  1
  Cl  Cl56  1  0.321270  0.888238  0.356031  1
  Cl  Cl57  1  0.678730  0.111762  0.643969  1
  Cl  Cl58  1  0.967793  0.034761  0.856031  1
  Cl  Cl59  1  0.032207  0.965239  0.143969  1
  Cl  Cl60  1  0.130572  0.703112  0.026739  1
  Cl  Cl61  1  0.869428  0.296888  0.973261  1
  Cl  Cl62  1  0.823627  0.896167  0.526739  1
  Cl  Cl63  1  0.176373  0.103833  0.473261  1
  Cl  Cl64  1  0.247740  0.544656  0.112539  1
  Cl  Cl65  1  0.752260  0.455344  0.887461  1
  Cl  Cl66  1  0.067883  0.864799  0.612539  1
  Cl  Cl67  1  0.932117  0.135201  0.387461  1
  O  O68  1  0.235020  0.008291  0.953338  1
  O  O69  1  0.764980  0.991709  0.046662  1
  O  O70  1  0.445047  0.718318  0.453338  1
  O  O71  1  0.554953  0.281682  0.546662  1
  O  O72  1  0.304068  0.279261  0.004495  1
  O  O73  1  0.695932  0.720739  0.995505  1
  O  O74  1  0.225235  0.700427  0.504495  1
  O  O75  1  0.774765  0.299573  0.495505  1
  O  O76  1  0.265912  0.292637  0.812217  1
  O  O77  1  0.734088  0.707363  0.187783  1
  O  O78  1  0.019580  0.546306  0.312217  1
  O  O79  1  0.980420  0.453694  0.687783  1
  O  O80  1  0.491601  0.460916  0.764664  1
  O  O81  1  0.508399  0.539084  0.235336  1
  O  O82  1  0.803749  0.273064  0.264664  1
  O  O83  1  0.196251  0.726936  0.735336  1
  O  O84  1  0.045354  0.295354  0.750000  1
  O  O85  1  0.954646  0.704646  0.250000  1
