# generated using pymatgen
data_Sr(H8O5)2
_symmetry_space_group_name_H-M   'P 1'
_cell_length_a   6.49501182
_cell_length_b   6.24594871
_cell_length_c   11.21356124
_cell_angle_alpha   90.42956042
_cell_angle_beta   90.25009895
_cell_angle_gamma   87.95945906
_symmetry_Int_Tables_number   1
_chemical_formula_structural   Sr(H8O5)2
_chemical_formula_sum   'Sr2 H32 O20'
_cell_volume   454.60120241
_cell_formula_units_Z   2
loop_
 _symmetry_equiv_pos_site_id
 _symmetry_equiv_pos_as_xyz
  1  'x, y, z'
loop_
 _atom_site_type_symbol
 _atom_site_label
 _atom_site_symmetry_multiplicity
 _atom_site_fract_x
 _atom_site_fract_y
 _atom_site_fract_z
 _atom_site_occupancy
  Sr  Sr0  1  0.996075  0.006773  0.250721  1
  Sr  Sr1  1  -0.000082  0.995451  0.748857  1
  H  H2  1  0.088276  0.441176  0.366271  1
  H  H3  1  0.131365  0.292957  0.476052  1
  H  H4  1  0.750668  0.636602  0.352868  1
  H  H5  1  0.886908  0.687253  0.467253  1
  H  H6  1  0.592382  0.284411  0.357260  1
  H  H7  1  0.684931  0.128654  0.455065  1
  H  H8  1  0.424270  0.972686  0.365867  1
  H  H9  1  0.425154  0.664333  0.338510  1
  H  H10  1  0.317760  0.868481  0.477530  1
  H  H11  1  0.726269  0.399775  0.851123  1
  H  H12  1  0.960761  0.457496  0.870013  1
  H  H13  1  0.270182  0.609795  0.852527  1
  H  H14  1  0.138166  0.678728  0.968615  1
  H  H15  1  0.454270  0.039418  0.871518  1
  H  H16  1  0.378922  0.278933  0.850843  1
  H  H17  1  0.606598  0.737768  0.852998  1
  H  H18  1  0.686704  0.868922  0.964904  1
  H  H19  1  0.749693  0.617744  0.641433  1
  H  H20  1  0.977402  0.507556  0.623323  1
  H  H21  1  0.245381  0.376037  0.639945  1
  H  H22  1  0.427161  0.689198  0.663011  1
  H  H23  1  0.275095  0.059894  0.602787  1
  H  H24  1  0.556988  0.028358  0.616828  1
  H  H25  1  0.629685  0.267955  0.632183  1
  H  H26  1  0.034696  0.547372  0.130232  1
  H  H27  1  0.271151  0.610271  0.147965  1
  H  H28  1  0.722119  0.399599  0.145515  1
  H  H29  1  0.857121  0.324837  0.033566  1
  H  H30  1  0.553089  0.968411  0.129115  1
  H  H31  1  0.614073  0.723335  0.138548  1
  H  H32  1  0.386416  0.271770  0.155352  1
  H  H33  1  0.317355  0.145350  0.038897  1
  O  O34  1  0.524234  0.534988  0.312321  1
  O  O35  1  0.494203  0.520101  0.809586  1
  O  O36  1  0.497411  0.542524  0.678089  1
  O  O37  1  0.498823  0.511538  0.181808  1
  O  O38  1  0.136877  0.295362  0.384612  1
  O  O39  1  0.884686  0.697756  0.378365  1
  O  O40  1  0.653640  0.136950  0.368128  1
  O  O41  1  0.319985  0.863982  0.381969  1
  O  O42  1  0.862860  0.337376  0.878526  1
  O  O43  1  0.129305  0.666583  0.879483  1
  O  O44  1  0.329518  0.139108  0.880186  1
  O  O45  1  0.670299  0.878122  0.876087  1
  O  O46  1  0.893404  0.652947  0.620659  1
  O  O47  1  0.119300  0.301626  0.618000  1
  O  O48  1  0.341863  0.913015  0.606295  1
  O  O49  1  0.684844  0.122587  0.615782  1
  O  O50  1  0.130532  0.668912  0.121877  1
  O  O51  1  0.863066  0.337959  0.122515  1
  O  O52  1  0.674135  0.866212  0.117580  1
  O  O53  1  0.327978  0.132709  0.127498  1
