# generated using pymatgen
data_U4Ga12Fe
_symmetry_space_group_name_H-M   'P 1'
_cell_length_a   7.41387850
_cell_length_b   7.41144053
_cell_length_c   7.41416611
_cell_angle_alpha   109.46985132
_cell_angle_beta   109.48108749
_cell_angle_gamma   109.46964523
_symmetry_Int_Tables_number   1
_chemical_formula_structural   U4Ga12Fe
_chemical_formula_sum   'U4 Ga12 Fe1'
_cell_volume   313.58219989
_cell_formula_units_Z   1
loop_
 _symmetry_equiv_pos_site_id
 _symmetry_equiv_pos_as_xyz
  1  'x, y, z'
loop_
 _atom_site_type_symbol
 _atom_site_label
 _atom_site_symmetry_multiplicity
 _atom_site_fract_x
 _atom_site_fract_y
 _atom_site_fract_z
 _atom_site_occupancy
  U  U0  1  0.999991  0.000002  0.500013  1
  U  U1  1  0.999963  0.500031  0.999939  1
  U  U2  1  0.500012  0.499994  0.499969  1
  U  U3  1  0.499992  0.000021  0.000031  1
  Ga  Ga4  1  0.749977  0.249825  0.499872  1
  Ga  Ga5  1  -0.000090  0.284015  0.284058  1
  Ga  Ga6  1  0.000115  0.715966  0.715884  1
  Ga  Ga7  1  0.715991  0.000103  0.715962  1
  Ga  Ga8  1  0.250073  0.500071  0.749992  1
  Ga  Ga9  1  0.284076  0.999920  0.284116  1
  Ga  Ga10  1  0.500082  0.750149  0.250044  1
  Ga  Ga11  1  0.249998  0.750158  0.500060  1
  Ga  Ga12  1  0.499884  0.249873  0.749991  1
  Ga  Ga13  1  0.284043  0.284004  -0.000084  1
  Ga  Ga14  1  0.750032  0.499959  0.250009  1
  Ga  Ga15  1  0.715871  0.715972  0.000119  1
  Fe  Fe16  1  0.999989  0.999939  0.000025  1
