# generated using pymatgen
data_Co21(B3W)2
_symmetry_space_group_name_H-M   'P 1'
_cell_length_a   7.39871914
_cell_length_b   7.39871882
_cell_length_c   7.39871925
_cell_angle_alpha   60.00000249
_cell_angle_beta   60.00000395
_cell_angle_gamma   60.00000372
_symmetry_Int_Tables_number   1
_chemical_formula_structural   Co21(B3W)2
_chemical_formula_sum   'Co21 B6 W2'
_cell_volume   286.38788877
_cell_formula_units_Z   1
loop_
 _symmetry_equiv_pos_site_id
 _symmetry_equiv_pos_as_xyz
  1  'x, y, z'
loop_
 _atom_site_type_symbol
 _atom_site_label
 _atom_site_symmetry_multiplicity
 _atom_site_fract_x
 _atom_site_fract_y
 _atom_site_fract_z
 _atom_site_occupancy
  Co  Co0  1  0.000000  0.337958  0.662042  1
  Co  Co1  1  0.337958  0.662042  1.000000  1
  Co  Co2  1  0.337958  1.000000  1.000000  1
  Co  Co3  1  0.662042  0.337958  0.000000  1
  Co  Co4  1  0.337958  1.000000  0.662042  1
  Co  Co5  1  0.381886  0.381886  0.854343  1
  Co  Co6  1  0.618114  0.618114  0.618114  1
  Co  Co7  1  0.000000  0.000000  0.662042  1
  Co  Co8  1  0.145657  0.618114  0.618114  1
  Co  Co9  1  1.000000  0.337958  0.000000  1
  Co  Co10  1  1.000000  0.662042  0.337958  1
  Co  Co11  1  0.662042  0.000000  0.337958  1
  Co  Co12  1  0.618114  0.145657  0.618114  1
  Co  Co13  1  0.000000  0.000000  0.000000  1
  Co  Co14  1  1.000000  1.000000  0.337958  1
  Co  Co15  1  0.000000  0.662042  1.000000  1
  Co  Co16  1  0.662042  0.000000  0.000000  1
  Co  Co17  1  0.381886  0.854343  0.381886  1
  Co  Co18  1  0.381886  0.381886  0.381886  1
  Co  Co19  1  0.854343  0.381886  0.381886  1
  Co  Co20  1  0.618114  0.618114  0.145657  1
  B  B21  1  0.724858  0.275142  0.275142  1
  B  B22  1  0.724858  0.724858  0.275142  1
  B  B23  1  0.275142  0.724858  0.724858  1
  B  B24  1  0.724858  0.275142  0.724858  1
  B  B25  1  0.275142  0.275142  0.724858  1
  B  B26  1  0.275142  0.724858  0.275142  1
  W  W27  1  0.250000  0.250000  0.250000  1
  W  W28  1  0.750000  0.750000  0.750000  1
