# generated using pymatgen
data_Li2CoCl4
_symmetry_space_group_name_H-M   'P 1'
_cell_length_a   5.74841198
_cell_length_b   11.35477835
_cell_length_c   9.79217805
_cell_angle_alpha   30.41468986
_cell_angle_beta   54.05267682
_cell_angle_gamma   59.58531004
_symmetry_Int_Tables_number   1
_chemical_formula_structural   Li2CoCl4
_chemical_formula_sum   'Li8 Co4 Cl16'
_cell_volume   261.95249235
_cell_formula_units_Z   4
loop_
 _symmetry_equiv_pos_site_id
 _symmetry_equiv_pos_as_xyz
  1  'x, y, z'
loop_
 _atom_site_type_symbol
 _atom_site_label
 _atom_site_symmetry_multiplicity
 _atom_site_fract_x
 _atom_site_fract_y
 _atom_site_fract_z
 _atom_site_occupancy
  Li  Li0  1  0.000000  0.998018  0.001982  1
  Li  Li1  1  0.001982  0.250000  1.000000  1
  Li  Li2  1  0.998018  0.250000  0.500000  1
  Li  Li3  1  0.500845  0.250000  1.000000  1
  Li  Li4  1  0.000000  0.499155  0.500845  1
  Li  Li5  1  0.500000  0.000845  0.499155  1
  Li  Li6  1  0.500000  0.501982  0.998018  1
  Li  Li7  1  0.499155  0.250000  0.500000  1
  Co  Co8  1  0.000000  0.001886  0.498114  1
  Co  Co9  1  0.498114  0.750000  1.000000  1
  Co  Co10  1  0.500000  0.498114  0.501886  1
  Co  Co11  1  0.501886  0.750000  0.500000  1
  Cl  Cl12  1  0.250404  0.265062  0.232622  1
  Cl  Cl13  1  0.237253  0.998089  0.749596  1
  Cl  Cl14  1  0.232622  0.501911  0.250404  1
  Cl  Cl15  1  0.254227  0.234938  0.762747  1
  Cl  Cl16  1  0.749596  0.265062  0.237253  1
  Cl  Cl17  1  0.234871  0.761030  0.257302  1
  Cl  Cl18  1  0.742698  0.996798  0.771533  1
  Cl  Cl19  1  0.779361  0.503202  0.228467  1
  Cl  Cl20  1  0.220639  0.503202  0.765129  1
  Cl  Cl21  1  0.257302  0.996798  0.234871  1
  Cl  Cl22  1  0.228467  0.738970  0.779361  1
  Cl  Cl23  1  0.745773  0.234938  0.767378  1
  Cl  Cl24  1  0.765129  0.761030  0.220639  1
  Cl  Cl25  1  0.762747  0.998089  0.254227  1
  Cl  Cl26  1  0.767378  0.501911  0.745773  1
  Cl  Cl27  1  0.771533  0.738970  0.742698  1
