# generated using pymatgen
data_Re2Pt(CO)12
_symmetry_space_group_name_H-M   'P 1'
_cell_length_a   6.53972373
_cell_length_b   7.27168215
_cell_length_c   10.17256811
_cell_angle_alpha   71.53938379
_cell_angle_beta   85.40636079
_cell_angle_gamma   88.06005264
_symmetry_Int_Tables_number   1
_chemical_formula_structural   Re2Pt(CO)12
_chemical_formula_sum   'Re2 Pt1 C12 O12'
_cell_volume   457.36869569
_cell_formula_units_Z   1
loop_
 _symmetry_equiv_pos_site_id
 _symmetry_equiv_pos_as_xyz
  1  'x, y, z'
loop_
 _atom_site_type_symbol
 _atom_site_label
 _atom_site_symmetry_multiplicity
 _atom_site_fract_x
 _atom_site_fract_y
 _atom_site_fract_z
 _atom_site_occupancy
  Re  Re0  1  0.787117  0.885688  0.269393  1
  Re  Re1  1  0.212883  0.114312  0.730607  1
  Pt  Pt2  1  0.000000  0.000000  0.000000  1
  C  C3  1  0.317846  0.332357  0.788777  1
  C  C4  1  0.910331  0.113706  0.301057  1
  C  C5  1  0.089669  0.886294  0.698943  1
  C  C6  1  0.682154  0.667643  0.211223  1
  C  C7  1  0.892529  0.256258  0.963908  1
  C  C8  1  0.445031  0.944962  0.818570  1
  C  C9  1  0.960662  0.267502  0.663124  1
  C  C10  1  0.039338  0.732498  0.336876  1
  C  C11  1  0.554969  0.055038  0.181430  1
  C  C12  1  0.361072  0.199145  0.549220  1
  C  C13  1  0.107471  0.743742  0.036092  1
  C  C14  1  0.638928  0.800855  0.450780  1
  O  O15  1  0.018543  0.755372  0.677676  1
  O  O16  1  0.454080  0.251877  0.441505  1
  O  O17  1  0.171475  0.586741  0.059966  1
  O  O18  1  0.378895  0.458355  0.820825  1
  O  O19  1  0.185760  0.645151  0.378016  1
  O  O20  1  0.981457  0.244628  0.322324  1
  O  O21  1  0.828525  0.413259  0.940034  1
  O  O22  1  0.621105  0.541645  0.179175  1
  O  O23  1  0.581330  0.848615  0.868347  1
  O  O24  1  0.418670  0.151385  0.131653  1
  O  O25  1  0.545920  0.748123  0.558495  1
  O  O26  1  0.814240  0.354849  0.621984  1
