# generated using pymatgen
data_LiCa9Mg(PO4)7
_symmetry_space_group_name_H-M   'P 1'
_cell_length_a   13.84241802
_cell_length_b   13.84250042
_cell_length_c   27.68485637
_cell_angle_alpha   44.21281073
_cell_angle_beta   44.21285522
_cell_angle_gamma   44.21330787
_symmetry_Int_Tables_number   1
_chemical_formula_structural   LiCa9Mg(PO4)7
_chemical_formula_sum   'Li4 Ca36 Mg4 P28 O112'
_cell_volume   2343.96416842
_cell_formula_units_Z   4
loop_
 _symmetry_equiv_pos_site_id
 _symmetry_equiv_pos_as_xyz
  1  'x, y, z'
loop_
 _atom_site_type_symbol
 _atom_site_label
 _atom_site_symmetry_multiplicity
 _atom_site_fract_x
 _atom_site_fract_y
 _atom_site_fract_z
 _atom_site_occupancy
  Li  Li0  1  0.154652  0.154654  0.077384  1
  Li  Li1  1  0.186327  0.186327  0.593108  1
  Li  Li2  1  0.686208  0.686076  0.343002  1
  Li  Li3  1  0.685992  0.686130  0.843095  1
  Ca  Ca4  1  0.062238  0.656893  0.037786  1
  Ca  Ca5  1  0.075345  0.062536  0.328387  1
  Ca  Ca6  1  0.056132  0.447547  0.232723  1
  Ca  Ca7  1  0.656872  0.075076  0.031347  1
  Ca  Ca8  1  0.447415  0.465151  0.028197  1
  Ca  Ca9  1  0.465292  0.056132  0.223793  1
  Ca  Ca10  1  0.158074  0.560713  0.287719  1
  Ca  Ca11  1  0.562446  0.573444  0.078873  1
  Ca  Ca12  1  0.572251  0.158196  0.281780  1
  Ca  Ca13  1  0.061843  0.659108  0.537020  1
  Ca  Ca14  1  0.074254  0.061542  0.829617  1
  Ca  Ca15  1  0.403934  0.851571  0.216354  1
  Ca  Ca16  1  0.435603  0.405904  0.423774  1
  Ca  Ca17  1  0.054153  0.448712  0.733919  1
  Ca  Ca18  1  0.851552  0.432901  0.201902  1
  Ca  Ca19  1  0.659129  0.074538  0.530692  1
  Ca  Ca20  1  0.448848  0.468124  0.526945  1
  Ca  Ca21  1  0.467983  0.054157  0.724336  1
  Ca  Ca22  1  0.347637  0.905666  0.467580  1
  Ca  Ca23  1  0.158416  0.563504  0.786181  1
  Ca  Ca24  1  0.561773  0.574351  0.579363  1
  Ca  Ca25  1  0.575548  0.158295  0.780328  1
  Ca  Ca26  1  0.904085  0.933358  0.174544  1
  Ca  Ca27  1  0.935206  0.347626  0.452780  1
  Ca  Ca28  1  0.554225  0.968188  0.474346  1
  Ca  Ca29  1  0.948655  0.554162  0.484096  1
  Ca  Ca30  1  0.405707  0.847669  0.717770  1
  Ca  Ca31  1  0.968794  0.947887  0.278003  1
  Ca  Ca32  1  0.432648  0.403747  0.925840  1
  Ca  Ca33  1  0.847682  0.435344  0.702925  1
  Ca  Ca34  1  0.348825  0.904194  0.966792  1
  Ca  Ca35  1  0.905778  0.935382  0.673688  1
  Ca  Ca36  1  0.933529  0.348844  0.952148  1
  Ca  Ca37  1  0.555859  0.968964  0.973978  1
  Ca  Ca38  1  0.947989  0.555918  0.984481  1
  Ca  Ca39  1  0.968363  0.948760  0.777038  1
  Mg  Mg40  1  0.999752  0.999706  0.000153  1
  Mg  Mg41  1  0.000124  0.000173  0.499793  1
  Mg  Mg42  1  0.500004  0.499795  0.250579  1
  Mg  Mg43  1  0.500506  0.500719  0.749661  1
  P  P44  1  0.264807  0.264811  0.132378  1
  P  P45  1  0.181716  0.685714  0.111172  1
  P  P46  1  0.222342  0.181659  0.342762  1
  P  P47  1  0.685717  0.222318  0.090877  1
  P  P48  1  0.269009  0.823011  0.154035  1
  P  P49  1  0.305927  0.270073  0.412745  1
  P  P50  1  0.185358  0.681664  0.361150  1
  P  P51  1  0.823131  0.307919  0.134528  1
  P  P52  1  0.681632  0.721923  0.092800  1
  P  P53  1  0.722189  0.185278  0.340896  1
  P  P54  1  0.264900  0.264896  0.632466  1
  P  P55  1  0.325391  0.769934  0.403017  1
  P  P56  1  0.181705  0.685240  0.611191  1
  P  P57  1  0.222356  0.181759  0.842722  1
  P  P58  1  0.770021  0.805967  0.162679  1
  P  P59  1  0.805984  0.325364  0.385050  1
  P  P60  1  0.685240  0.222391  0.590842  1
  P  P61  1  0.270041  0.825497  0.652941  1
  P  P62  1  0.308027  0.268985  0.911500  1
  P  P63  1  0.764954  0.765046  0.382414  1
  P  P64  1  0.185419  0.681730  0.861046  1
  P  P65  1  0.825373  0.306029  0.635004  1
  P  P66  1  0.681767  0.722489  0.592573  1
  P  P67  1  0.722218  0.185501  0.840799  1
  P  P68  1  0.325329  0.770085  0.902982  1
  P  P69  1  0.770018  0.806020  0.662674  1
  P  P70  1  0.806002  0.325367  0.884962  1
  P  P71  1  0.764939  0.764842  0.882538  1
  O  O72  1  0.107715  0.391914  0.128558  1
  O  O73  1  0.257188  0.107676  0.195953  1
  O  O74  1  0.391994  0.257166  0.053820  1
  O  O75  1  0.170751  0.611630  0.093223  1
  O  O76  1  0.306525  0.306500  0.153219  1
  O  O77  1  0.186662  0.170380  0.305777  1
  O  O78  1  0.084762  0.645786  0.197782  1
  O  O79  1  0.115779  0.862824  0.066157  1
  O  O80  1  0.132382  0.115691  0.431367  1
  O  O81  1  0.611634  0.186651  0.085270  1
  O  O82  1  0.170725  0.351901  0.313043  1
  O  O83  1  0.395500  0.084793  0.322958  1
  O  O84  1  0.352002  0.626631  0.085274  1
  O  O85  1  0.108545  0.832090  0.194882  1
  O  O86  1  0.645823  0.395601  0.042336  1
  O  O87  1  0.626560  0.170722  0.175993  1
  O  O88  1  0.132677  0.348119  0.437522  1
  O  O89  1  0.862820  0.132430  0.057828  1
  O  O90  1  0.388816  0.109294  0.417017  1
  O  O91  1  0.342617  0.881105  0.066391  1
  O  O92  1  0.111134  0.670300  0.343318  1
  O  O93  1  0.370782  0.648773  0.188920  1
  O  O94  1  0.379288  0.369661  0.325158  1
  O  O95  1  0.245514  0.925903  0.170846  1
  O  O96  1  0.339699  0.248071  0.463846  1
  O  O97  1  0.648878  0.377808  0.185334  1
  O  O98  1  0.832138  0.389721  0.054269  1
  O  O99  1  0.145927  0.584629  0.447703  1
  O  O100  1  0.125399  0.851903  0.335395  1
  O  O101  1  0.881307  0.132734  0.171235  1
  O  O102  1  0.669845  0.686786  0.055593  1
  O  O103  1  0.687041  0.110992  0.334966  1
  O  O104  1  0.362369  0.616035  0.316030  1
  O  O105  1  0.108002  0.389987  0.627711  1
  O  O106  1  0.585271  0.894885  0.072949  1
  O  O107  1  0.615771  0.631785  0.181309  1
  O  O108  1  0.255374  0.108035  0.695002  1
  O  O109  1  0.632304  0.362392  0.307852  1
  O  O110  1  0.925967  0.341726  0.122696  1
  O  O111  1  0.669965  0.125772  0.426133  1
  O  O112  1  0.389934  0.255389  0.554029  1
  O  O113  1  0.150300  0.869467  0.439769  1
  O  O114  1  0.333848  0.609089  0.444600  1
  O  O115  1  0.895025  0.145794  0.292689  1
  O  O116  1  0.852087  0.670136  0.062744  1
  O  O117  1  0.375286  0.847559  0.316505  1
  O  O118  1  0.170381  0.610812  0.593582  1
  O  O119  1  0.306269  0.306302  0.653161  1
  O  O120  1  0.186921  0.170738  0.805454  1
  O  O121  1  0.609243  0.888948  0.166963  1
  O  O122  1  0.632616  0.375012  0.424137  1
  O  O123  1  0.084756  0.645923  0.697769  1
  O  O124  1  0.115667  0.862394  0.566206  1
  O  O125  1  0.132334  0.115773  0.931254  1
  O  O126  1  0.427613  0.747791  0.420074  1
  O  O127  1  0.888632  0.333905  0.304765  1
  O  O128  1  0.847845  0.632805  0.187625  1
  O  O129  1  0.610816  0.186959  0.585292  1
  O  O130  1  0.170560  0.352079  0.813165  1
  O  O131  1  0.869682  0.879318  0.075192  1
  O  O132  1  0.879147  0.150279  0.434949  1
  O  O133  1  0.395564  0.084719  0.822905  1
  O  O134  1  0.351974  0.625778  0.585380  1
  O  O135  1  0.748123  0.839791  0.213824  1
  O  O136  1  0.839487  0.427632  0.374235  1
  O  O137  1  0.109240  0.834018  0.694406  1
  O  O138  1  0.645890  0.395471  0.542443  1
  O  O139  1  0.625838  0.170545  0.676013  1
  O  O140  1  0.132779  0.342469  0.940611  1
  O  O141  1  0.862405  0.132290  0.557894  1
  O  O142  1  0.389785  0.108495  0.916036  1
  O  O143  1  0.348009  0.875161  0.566330  1
  O  O144  1  0.608092  0.755556  0.444898  1
  O  O145  1  0.110928  0.669981  0.843538  1
  O  O146  1  0.369569  0.650338  0.689650  1
  O  O147  1  0.377849  0.370703  0.824399  1
  O  O148  1  0.755362  0.890286  0.304006  1
  O  O149  1  0.889962  0.608143  0.377676  1
  O  O150  1  0.247960  0.927701  0.669870  1
  O  O151  1  0.341722  0.245422  0.962959  1
  O  O152  1  0.650216  0.379318  0.684853  1
  O  O153  1  0.833962  0.388860  0.554634  1
  O  O154  1  0.145901  0.585363  0.947478  1
  O  O155  1  0.125839  0.852237  0.834956  1
  O  O156  1  0.874982  0.132722  0.674063  1
  O  O157  1  0.670425  0.686958  0.555432  1
  O  O158  1  0.806355  0.806286  0.403183  1
  O  O159  1  0.686690  0.111059  0.835173  1
  O  O160  1  0.362528  0.615592  0.816078  1
  O  O161  1  0.584740  0.895469  0.572968  1
  O  O162  1  0.615854  0.632413  0.681133  1
  O  O163  1  0.631923  0.362504  0.807957  1
  O  O164  1  0.927632  0.339701  0.624050  1
  O  O165  1  0.670761  0.125478  0.925935  1
  O  O166  1  0.150397  0.869903  0.939553  1
  O  O167  1  0.334012  0.609454  0.944319  1
  O  O168  1  0.895340  0.146035  0.792305  1
  O  O169  1  0.852068  0.670583  0.562863  1
  O  O170  1  0.375178  0.848201  0.816280  1
  O  O171  1  0.609305  0.888867  0.666966  1
  O  O172  1  0.632943  0.375447  0.923750  1
  O  O173  1  0.427772  0.748393  0.919682  1
  O  O174  1  0.889194  0.333963  0.804509  1
  O  O175  1  0.847950  0.632766  0.687602  1
  O  O176  1  0.869678  0.879334  0.575143  1
  O  O177  1  0.879504  0.150423  0.934731  1
  O  O178  1  0.748050  0.839727  0.713863  1
  O  O179  1  0.840010  0.427770  0.873853  1
  O  O180  1  0.608091  0.755206  0.945125  1
  O  O181  1  0.755388  0.889752  0.804097  1
  O  O182  1  0.890084  0.608052  0.877715  1
  O  O183  1  0.806317  0.806394  0.903155  1
