# generated using pymatgen
data_Cs2MnBr4
_symmetry_space_group_name_H-M   'P 1'
_cell_length_a   7.99538969
_cell_length_b   10.42081754
_cell_length_c   14.08776315
_cell_angle_alpha   90.00470188
_cell_angle_beta   90.00115854
_cell_angle_gamma   89.99976097
_symmetry_Int_Tables_number   1
_chemical_formula_structural   Cs2MnBr4
_chemical_formula_sum   'Cs8 Mn4 Br16'
_cell_volume   1173.77124939
_cell_formula_units_Z   4
loop_
 _symmetry_equiv_pos_site_id
 _symmetry_equiv_pos_as_xyz
  1  'x, y, z'
loop_
 _atom_site_type_symbol
 _atom_site_label
 _atom_site_symmetry_multiplicity
 _atom_site_fract_x
 _atom_site_fract_y
 _atom_site_fract_z
 _atom_site_occupancy
  Cs  Cs0  1  0.250002  0.630956  0.403808  1
  Cs  Cs1  1  0.249997  0.480242  0.826735  1
  Cs  Cs2  1  0.750000  0.019747  0.326738  1
  Cs  Cs3  1  0.749998  0.369041  0.596191  1
  Cs  Cs4  1  0.749997  0.519751  0.173269  1
  Cs  Cs5  1  0.249997  0.980245  0.673261  1
  Cs  Cs6  1  0.250000  0.130939  0.096192  1
  Cs  Cs7  1  0.750000  0.869055  0.903812  1
  Mn  Mn8  1  0.249998  0.728627  0.076695  1
  Mn  Mn9  1  0.750003  0.771338  0.576685  1
  Mn  Mn10  1  0.250004  0.228677  0.423305  1
  Mn  Mn11  1  0.749995  0.271367  0.923307  1
  Br  Br12  1  0.501516  0.321978  0.345451  1
  Br  Br13  1  0.250001  0.314655  0.589074  1
  Br  Br14  1  0.249997  0.814648  0.910946  1
  Br  Br15  1  0.998550  0.821932  0.154534  1
  Br  Br16  1  0.001454  0.178053  0.845465  1
  Br  Br17  1  0.498550  0.178058  0.845466  1
  Br  Br18  1  0.498506  0.678024  0.654546  1
  Br  Br19  1  0.750001  0.008569  0.593302  1
  Br  Br20  1  0.001493  0.678024  0.654545  1
  Br  Br21  1  0.750001  0.508662  0.906695  1
  Br  Br22  1  0.501441  0.821928  0.154534  1
  Br  Br23  1  0.998501  0.321974  0.345455  1
  Br  Br24  1  0.250000  0.491343  0.093307  1
  Br  Br25  1  0.250000  0.991464  0.406704  1
  Br  Br26  1  0.750001  0.685347  0.410935  1
  Br  Br27  1  0.749997  0.185351  0.089044  1
