# generated using pymatgen
data_Th10N9F13
_symmetry_space_group_name_H-M   'P 1'
_cell_length_a   4.06279547
_cell_length_b   4.06280356
_cell_length_c   29.44533482
_cell_angle_alpha   89.99983925
_cell_angle_beta   89.99987744
_cell_angle_gamma   90.00001918
_symmetry_Int_Tables_number   1
_chemical_formula_structural   Th10N9F13
_chemical_formula_sum   'Th10 N9 F13'
_cell_volume   486.03470498
_cell_formula_units_Z   1
loop_
 _symmetry_equiv_pos_site_id
 _symmetry_equiv_pos_as_xyz
  1  'x, y, z'
loop_
 _atom_site_type_symbol
 _atom_site_label
 _atom_site_symmetry_multiplicity
 _atom_site_fract_x
 _atom_site_fract_y
 _atom_site_fract_z
 _atom_site_occupancy
  Th  Th0  1  0.500001  -0.000002  0.141029  1
  Th  Th1  1  0.500001  0.000001  0.340687  1
  Th  Th2  1  0.499997  0.999998  0.944284  1
  Th  Th3  1  0.500001  0.000002  0.739636  1
  Th  Th4  1  0.499999  0.000001  0.539632  1
  Th  Th5  1  0.000001  0.500001  0.060367  1
  Th  Th6  1  -0.000000  0.500001  0.260373  1
  Th  Th7  1  -0.000001  0.500002  0.459315  1
  Th  Th8  1  -0.000001  0.500006  0.658980  1
  Th  Th9  1  0.000000  0.500005  0.855706  1
  N  N10  1  0.500000  0.500001  0.099980  1
  N  N11  1  0.500000  0.500000  0.499515  1
  N  N12  1  0.499999  0.500000  0.300486  1
  N  N13  1  0.500001  0.500001  0.700025  1
  N  N14  1  0.999999  0.000001  0.101469  1
  N  N15  1  1.000000  0.000000  0.300632  1
  N  N16  1  0.000001  -0.000000  0.499369  1
  N  N17  1  0.000000  0.000001  0.698535  1
  N  N18  1  0.000001  0.000001  0.899997  1
  F  F19  1  0.999999  0.000000  0.003845  1
  F  F20  1  0.500000  0.499999  0.999316  1
  F  F21  1  0.500000  0.499997  0.899995  1
  F  F22  1  0.500000  0.500001  0.400000  1
  F  F23  1  0.500000  0.499992  0.200520  1
  F  F24  1  0.500000  0.499995  0.800681  1
  F  F25  1  0.500000  0.500001  0.599481  1
  F  F26  1  0.500002  0.999987  0.848685  1
  F  F27  1  0.000000  0.000002  0.201169  1
  F  F28  1  0.000000  0.500002  0.951301  1
  F  F29  1  0.000000  0.000001  0.400000  1
  F  F30  1  1.000000  0.000002  0.598834  1
  F  F31  1  0.000001  0.000001  0.796154  1
