# generated using pymatgen
data_YbCeS3
_symmetry_space_group_name_H-M   'P 1'
_cell_length_a   3.94090656
_cell_length_b   16.36866729
_cell_length_c   20.96376586
_cell_angle_alpha   90.00000000
_cell_angle_beta   90.00000000
_cell_angle_gamma   90.00000000
_symmetry_Int_Tables_number   1
_chemical_formula_structural   YbCeS3
_chemical_formula_sum   'Yb12 Ce12 S36'
_cell_volume   1352.31778460
_cell_formula_units_Z   12
loop_
 _symmetry_equiv_pos_site_id
 _symmetry_equiv_pos_as_xyz
  1  'x, y, z'
loop_
 _atom_site_type_symbol
 _atom_site_label
 _atom_site_symmetry_multiplicity
 _atom_site_fract_x
 _atom_site_fract_y
 _atom_site_fract_z
 _atom_site_occupancy
  Yb  Yb0  1  0.750000  0.905239  0.245644  1
  Yb  Yb1  1  0.750000  0.055822  0.069464  1
  Yb  Yb2  1  0.250000  0.444178  0.569464  1
  Yb  Yb3  1  0.250000  0.944178  0.930536  1
  Yb  Yb4  1  0.250000  0.094761  0.754356  1
  Yb  Yb5  1  0.750000  0.405239  0.254356  1
  Yb  Yb6  1  0.250000  0.565233  0.080264  1
  Yb  Yb7  1  0.250000  0.065233  0.419736  1
  Yb  Yb8  1  0.250000  0.594761  0.745644  1
  Yb  Yb9  1  0.750000  0.934767  0.580264  1
  Yb  Yb10  1  0.750000  0.555822  0.430536  1
  Yb  Yb11  1  0.750000  0.434767  0.919736  1
  Ce  Ce12  1  0.250000  0.162561  0.248489  1
  Ce  Ce13  1  0.750000  0.837439  0.751511  1
  Ce  Ce14  1  0.750000  0.337439  0.748489  1
  Ce  Ce15  1  0.250000  0.331671  0.090618  1
  Ce  Ce16  1  0.250000  0.195162  0.923730  1
  Ce  Ce17  1  0.250000  0.831671  0.409382  1
  Ce  Ce18  1  0.750000  0.668329  0.909382  1
  Ce  Ce19  1  0.750000  0.804838  0.076270  1
  Ce  Ce20  1  0.250000  0.695162  0.576270  1
  Ce  Ce21  1  0.750000  0.304838  0.423730  1
  Ce  Ce22  1  0.750000  0.168329  0.590618  1
  Ce  Ce23  1  0.250000  0.662561  0.251511  1
  S  S24  1  0.250000  0.935729  0.800269  1
  S  S25  1  0.750000  0.445590  0.054194  1
  S  S26  1  0.750000  0.151764  0.346124  1
  S  S27  1  0.750000  0.688073  0.678949  1
  S  S28  1  0.750000  0.285473  0.982997  1
  S  S29  1  0.250000  0.348236  0.846124  1
  S  S30  1  0.250000  0.714527  0.017003  1
  S  S31  1  0.750000  0.068675  0.937689  1
  S  S32  1  0.750000  0.945590  0.445806  1
  S  S33  1  0.750000  0.542091  0.820757  1
  S  S34  1  0.250000  0.668094  0.439009  1
  S  S35  1  0.250000  0.732288  0.822963  1
  S  S36  1  0.750000  0.064271  0.199731  1
  S  S37  1  0.250000  0.232288  0.677037  1
  S  S38  1  0.750000  0.568675  0.562311  1
  S  S39  1  0.750000  0.331906  0.560991  1
  S  S40  1  0.250000  0.848236  0.653876  1
  S  S41  1  0.250000  0.957909  0.320757  1
  S  S42  1  0.250000  0.311927  0.321051  1
  S  S43  1  0.750000  0.267712  0.177037  1
  S  S44  1  0.750000  0.767712  0.322963  1
  S  S45  1  0.250000  0.054410  0.554194  1
  S  S46  1  0.750000  0.785473  0.517003  1
  S  S47  1  0.250000  0.811927  0.178949  1
  S  S48  1  0.750000  0.042091  0.679243  1
  S  S49  1  0.250000  0.931325  0.062311  1
  S  S50  1  0.250000  0.168094  0.060991  1
  S  S51  1  0.750000  0.651764  0.153876  1
  S  S52  1  0.750000  0.188073  0.821051  1
  S  S53  1  0.250000  0.214527  0.482997  1
  S  S54  1  0.250000  0.457909  0.179243  1
  S  S55  1  0.250000  0.431325  0.437689  1
  S  S56  1  0.250000  0.435729  0.699731  1
  S  S57  1  0.750000  0.564271  0.300269  1
  S  S58  1  0.250000  0.554410  0.945806  1
  S  S59  1  0.750000  0.831906  0.939009  1
