# generated using pymatgen
data_BaNb8O14
_symmetry_space_group_name_H-M   'P 1'
_cell_length_a   10.02276584
_cell_length_b   10.24369630
_cell_length_c   24.33463417
_cell_angle_alpha   90.00000000
_cell_angle_beta   90.00000000
_cell_angle_gamma   90.00000000
_symmetry_Int_Tables_number   1
_chemical_formula_structural   BaNb8O14
_chemical_formula_sum   'Ba8 Nb64 O112'
_cell_volume   2498.44101133
_cell_formula_units_Z   8
loop_
 _symmetry_equiv_pos_site_id
 _symmetry_equiv_pos_as_xyz
  1  'x, y, z'
loop_
 _atom_site_type_symbol
 _atom_site_label
 _atom_site_symmetry_multiplicity
 _atom_site_fract_x
 _atom_site_fract_y
 _atom_site_fract_z
 _atom_site_occupancy
  Ba  Ba0  1  0.029105  0.978562  0.137662  1
  Ba  Ba1  1  0.529105  0.978562  0.362338  1
  Ba  Ba2  1  0.470895  0.478562  0.137662  1
  Ba  Ba3  1  0.970895  0.021438  0.862338  1
  Ba  Ba4  1  0.029105  0.521438  0.637662  1
  Ba  Ba5  1  0.970895  0.478562  0.362338  1
  Ba  Ba6  1  0.529105  0.521438  0.862338  1
  Ba  Ba7  1  0.470895  0.021438  0.637662  1
  Nb  Nb8  1  0.391555  0.588654  0.320418  1
  Nb  Nb9  1  0.616066  0.345987  0.003284  1
  Nb  Nb10  1  0.374636  0.171634  0.885664  1
  Nb  Nb11  1  0.891555  0.588654  0.179582  1
  Nb  Nb12  1  0.382084  0.912066  0.065214  1
  Nb  Nb13  1  0.595678  0.392276  0.319633  1
  Nb  Nb14  1  0.884753  0.919731  0.565874  1
  Nb  Nb15  1  0.383934  0.845987  0.496716  1
  Nb  Nb16  1  0.869906  0.146330  0.381169  1
  Nb  Nb17  1  0.404322  0.892276  0.180367  1
  Nb  Nb18  1  0.615247  0.080269  0.065874  1
  Nb  Nb19  1  0.130094  0.853670  0.618831  1
  Nb  Nb20  1  0.382084  0.587934  0.565214  1
  Nb  Nb21  1  0.904322  0.892276  0.319633  1
  Nb  Nb22  1  0.649155  0.644473  0.246039  1
  Nb  Nb23  1  0.350845  0.144473  0.253961  1
  Nb  Nb24  1  0.117916  0.412066  0.065214  1
  Nb  Nb25  1  0.625364  0.671634  0.614336  1
  Nb  Nb26  1  0.608445  0.411346  0.679582  1
  Nb  Nb27  1  0.108445  0.411346  0.820418  1
  Nb  Nb28  1  0.369906  0.353670  0.618831  1
  Nb  Nb29  1  0.883934  0.654013  0.503284  1
  Nb  Nb30  1  0.384753  0.919731  0.934126  1
  Nb  Nb31  1  0.630094  0.853670  0.881169  1
  Nb  Nb32  1  0.369906  0.146330  0.118831  1
  Nb  Nb33  1  0.617916  0.087934  0.934786  1
  Nb  Nb34  1  0.615247  0.419731  0.565874  1
  Nb  Nb35  1  0.108445  0.088654  0.320418  1
  Nb  Nb36  1  0.149155  0.855527  0.753961  1
  Nb  Nb37  1  0.891555  0.911346  0.679582  1
  Nb  Nb38  1  0.617916  0.412066  0.434786  1
  Nb  Nb39  1  0.850845  0.355527  0.746039  1
  Nb  Nb40  1  0.874636  0.328366  0.114336  1
  Nb  Nb41  1  0.630094  0.646330  0.381169  1
  Nb  Nb42  1  0.350845  0.355527  0.753961  1
  Nb  Nb43  1  0.125364  0.828366  0.385664  1
  Nb  Nb44  1  0.374636  0.328366  0.385664  1
  Nb  Nb45  1  0.883934  0.845987  0.003284  1
  Nb  Nb46  1  0.391555  0.911346  0.820418  1
  Nb  Nb47  1  0.117916  0.087934  0.565214  1
  Nb  Nb48  1  0.115247  0.080269  0.434126  1
  Nb  Nb49  1  0.616066  0.154013  0.503284  1
  Nb  Nb50  1  0.869906  0.353670  0.881169  1
  Nb  Nb51  1  0.608445  0.088654  0.179582  1
  Nb  Nb52  1  0.149155  0.644473  0.253961  1
  Nb  Nb53  1  0.125364  0.671634  0.885664  1
  Nb  Nb54  1  0.595678  0.107724  0.819633  1
  Nb  Nb55  1  0.874636  0.171634  0.614336  1
  Nb  Nb56  1  0.095678  0.107724  0.680367  1
  Nb  Nb57  1  0.904322  0.607724  0.819633  1
  Nb  Nb58  1  0.625364  0.828366  0.114336  1
  Nb  Nb59  1  0.115247  0.419731  0.934126  1
  Nb  Nb60  1  0.882084  0.587934  0.934786  1
  Nb  Nb61  1  0.649155  0.855527  0.746039  1
  Nb  Nb62  1  0.404322  0.607724  0.680367  1
  Nb  Nb63  1  0.130094  0.646330  0.118831  1
  Nb  Nb64  1  0.383934  0.654013  0.996716  1
  Nb  Nb65  1  0.850845  0.144473  0.246039  1
  Nb  Nb66  1  0.116066  0.345987  0.496716  1
  Nb  Nb67  1  0.095678  0.392276  0.180367  1
  Nb  Nb68  1  0.384753  0.580269  0.434126  1
  Nb  Nb69  1  0.884753  0.580269  0.065874  1
  Nb  Nb70  1  0.882084  0.912066  0.434786  1
  Nb  Nb71  1  0.116066  0.154013  0.996716  1
  O  O72  1  0.460671  0.230231  0.187924  1
  O  O73  1  0.504348  0.997542  0.241901  1
  O  O74  1  0.230630  0.548524  0.185166  1
  O  O75  1  0.261087  0.569444  0.060277  1
  O  O76  1  0.238913  0.069444  0.060277  1
  O  O77  1  0.290326  0.003821  0.302464  1
  O  O78  1  0.720727  0.310710  0.621513  1
  O  O79  1  0.503020  0.758895  0.560406  1
  O  O80  1  0.738913  0.069444  0.439723  1
  O  O81  1  0.496980  0.241105  0.439594  1
  O  O82  1  0.000000  0.500000  0.500000  1
  O  O83  1  0.279273  0.689290  0.378487  1
  O  O84  1  0.209674  -0.003821  0.802464  1
  O  O85  1  0.696407  0.257292  0.745081  1
  O  O86  1  0.460671  0.269769  0.687924  1
  O  O87  1  0.759663  0.574430  0.560921  1
  O  O88  1  0.303593  0.742708  0.254919  1
  O  O89  1  0.269370  0.451476  0.685166  1
  O  O90  1  0.220727  0.189290  0.378487  1
  O  O91  1  0.279273  0.810710  0.878487  1
  O  O92  1  0.003020  0.758895  0.939594  1
  O  O93  1  0.259663  0.574430  0.939079  1
  O  O94  1  0.996121  0.243282  0.938070  1
  O  O95  1  0.261087  0.930556  0.560277  1
  O  O96  1  0.240337  0.425570  0.439079  1
  O  O97  1  0.003879  0.743282  0.561930  1
  O  O98  1  0.542202  0.733986  0.184202  1
  O  O99  1  0.000000  0.000000  0.000000  1
  O  O100  1  0.039329  0.730231  0.187924  1
  O  O101  1  0.277514  0.685380  0.498711  1
  O  O102  1  0.222486  0.185380  0.498711  1
  O  O103  1  0.457798  0.233986  0.315798  1
  O  O104  1  0.500000  0.000000  0.500000  1
  O  O105  1  0.238913  0.430556  0.560277  1
  O  O106  1  0.003879  0.756718  0.061930  1
  O  O107  1  0.779273  0.810710  0.621513  1
  O  O108  1  0.042202  0.733986  0.315798  1
  O  O109  1  0.277514  0.814620  -0.001289  1
  O  O110  1  0.777514  0.814620  0.501289  1
  O  O111  1  0.209674  0.503821  0.302464  1
  O  O112  1  0.761087  0.930556  0.939723  1
  O  O113  1  0.779273  0.689290  0.121513  1
  O  O114  1  0.042202  0.766014  0.815798  1
  O  O115  1  0.730630  0.951476  0.814834  1
  O  O116  1  0.542202  0.766014  0.684202  1
  O  O117  1  0.500000  0.000000  0.000000  1
  O  O118  1  0.196407  0.257292  0.754919  1
  O  O119  1  0.503879  0.756718  0.438070  1
  O  O120  1  0.803593  0.757292  0.745081  1
  O  O121  1  0.500000  0.500000  0.000000  1
  O  O122  1  0.731632  0.316184  0.376136  1
  O  O123  1  0.004348  0.997542  0.258099  1
  O  O124  1  0.496980  0.258895  0.939594  1
  O  O125  1  0.196407  0.242708  0.254919  1
  O  O126  1  0.957798  0.233986  0.184202  1
  O  O127  1  0.539329  0.730231  0.312076  1
  O  O128  1  0.790326  0.003821  0.197536  1
  O  O129  1  -0.004348  0.497542  0.241901  1
  O  O130  1  0.769370  0.048524  0.314834  1
  O  O131  1  0.759663  0.925570  0.060921  1
  O  O132  1  0.504348  0.502458  0.741901  1
  O  O133  1  0.240337  0.074430  0.939079  1
  O  O134  1  0.496121  0.256718  0.061930  1
  O  O135  1  0.709674  -0.003821  0.697536  1
  O  O136  1  0.720727  0.189290  0.121513  1
  O  O137  1  0.290326  0.496179  0.802464  1
  O  O138  1  0.761087  0.569444  0.439723  1
  O  O139  1  0.709674  0.503821  0.197536  1
  O  O140  1  0.740337  0.425570  0.060921  1
  O  O141  1  0.231632  0.316184  0.123864  1
  O  O142  1  0.722486  0.185380  0.001289  1
  O  O143  1  0.696407  0.242708  0.245081  1
  O  O144  1  0.495652  0.497542  0.258099  1
  O  O145  1  0.957798  0.266014  0.684202  1
  O  O146  1  0.231632  0.183816  0.623864  1
  O  O147  1  0.259663  0.925570  0.439079  1
  O  O148  1  0.230630  0.951476  0.685166  1
  O  O149  1  0.220727  0.310710  0.878487  1
  O  O150  1  0.996121  0.256718  0.438070  1
  O  O151  1  0.740337  0.074430  0.560921  1
  O  O152  1  0.500000  0.500000  0.500000  1
  O  O153  1  0.000000  0.000000  0.500000  1
  O  O154  1  0.960671  0.269769  0.812076  1
  O  O155  1  0.768368  0.816184  0.376136  1
  O  O156  1  0.960671  0.230231  0.312076  1
  O  O157  1  0.769370  0.451476  0.814834  1
  O  O158  1  0.268368  0.816184  0.123864  1
  O  O159  1  0.004348  0.502458  0.758099  1
  O  O160  1  0.777514  0.685380  0.001289  1
  O  O161  1  0.503020  0.741105  0.060406  1
  O  O162  1  0.996980  0.241105  0.060406  1
  O  O163  1  0.503879  0.743282  0.938070  1
  O  O164  1  0.268368  0.683816  0.623864  1
  O  O165  1  0.730630  0.548524  0.314834  1
  O  O166  1  0.996980  0.258895  0.560406  1
  O  O167  1  0.222486  0.314620  -0.001289  1
  O  O168  1  0.457798  0.266014  0.815798  1
  O  O169  1  0.731632  0.183816  0.876136  1
  O  O170  1  0.768368  0.683816  0.876136  1
  O  O171  1  0.803593  0.742708  0.245081  1
  O  O172  1  0.039329  0.769769  0.687924  1
  O  O173  1  0.790326  0.496179  0.697536  1
  O  O174  1  0.303593  0.757292  0.754919  1
  O  O175  1  0.000000  0.500000  0.000000  1
  O  O176  1  0.738913  0.430556  0.939723  1
  O  O177  1  0.003020  0.741105  0.439594  1
  O  O178  1  0.496121  0.243282  0.561930  1
  O  O179  1  0.269370  0.048524  0.185166  1
  O  O180  1  0.722486  0.314620  0.501289  1
  O  O181  1  0.539329  0.769769  0.812076  1
  O  O182  1  0.495652  0.002458  0.758099  1
  O  O183  1  -0.004348  0.002458  0.741901  1
