# generated using pymatgen
data_KSn2F5
_symmetry_space_group_name_H-M   'P 1'
_cell_length_a   7.39214918
_cell_length_b   7.39214899
_cell_length_c   56.58494959
_cell_angle_alpha   90.00000000
_cell_angle_beta   90.00000000
_cell_angle_gamma   120.00000090
_symmetry_Int_Tables_number   1
_chemical_formula_structural   KSn2F5
_chemical_formula_sum   'K18 Sn36 F90'
_cell_volume   2677.76829605
_cell_formula_units_Z   18
loop_
 _symmetry_equiv_pos_site_id
 _symmetry_equiv_pos_as_xyz
  1  'x, y, z'
loop_
 _atom_site_type_symbol
 _atom_site_label
 _atom_site_symmetry_multiplicity
 _atom_site_fract_x
 _atom_site_fract_y
 _atom_site_fract_z
 _atom_site_occupancy
  K  K0  1  0.333333  0.666667  0.056986  1
  K  K1  1  0.333333  0.666667  0.224915  1
  K  K2  1  0.333333  0.666667  0.392333  1
  K  K3  1  0.333333  0.666667  0.556414  1
  K  K4  1  0.333333  0.666667  0.722617  1
  K  K5  1  0.333333  0.666667  0.889413  1
  K  K6  1  0.666667  0.333333  0.061787  1
  K  K7  1  0.666667  0.333333  0.229744  1
  K  K8  1  0.000000  0.000000  0.223183  1
  K  K9  1  0.666667  0.333333  0.396971  1
  K  K10  1  0.666667  0.333333  0.559795  1
  K  K11  1  0.000000  0.000000  0.390473  1
  K  K12  1  0.000000  0.000000  0.553670  1
  K  K13  1  0.666667  0.333333  0.893079  1
  K  K14  1  0.666667  0.333333  0.725289  1
  K  K15  1  0.000000  0.000000  0.054985  1
  K  K16  1  0.000000  0.000000  0.719084  1
  K  K17  1  0.000000  0.000000  0.886090  1
  Sn  Sn18  1  0.992219  0.668365  0.999248  1
  Sn  Sn19  1  0.992162  0.663384  0.166296  1
  Sn  Sn20  1  0.019280  0.678456  0.333868  1
  Sn  Sn21  1  0.000076  0.661609  0.501051  1
  Sn  Sn22  1  0.001034  0.661742  0.667542  1
  Sn  Sn23  1  0.022291  0.682769  0.832650  1
  Sn  Sn24  1  0.328356  0.992861  0.112310  1
  Sn  Sn25  1  0.327137  0.993355  0.278748  1
  Sn  Sn26  1  0.328277  0.993949  0.446086  1
  Sn  Sn27  1  0.328574  0.993726  0.612451  1
  Sn  Sn28  1  0.326510  0.993555  0.779003  1
  Sn  Sn29  1  0.327445  0.993528  0.945868  1
  Sn  Sn30  1  0.007139  0.335494  0.112310  1
  Sn  Sn31  1  0.006645  0.333782  0.278748  1
  Sn  Sn32  1  0.006051  0.334328  0.446086  1
  Sn  Sn33  1  0.006274  0.334848  0.612451  1
  Sn  Sn34  1  0.006445  0.332955  0.779003  1
  Sn  Sn35  1  0.006472  0.333917  0.945868  1
  Sn  Sn36  1  0.676146  0.007781  0.999248  1
  Sn  Sn37  1  0.671222  0.007838  0.166296  1
  Sn  Sn38  1  0.659177  0.980720  0.333868  1
  Sn  Sn39  1  0.661533  0.999924  0.501051  1
  Sn  Sn40  1  0.660708  0.998966  0.667542  1
  Sn  Sn41  1  0.660478  0.977709  0.832650  1
  Sn  Sn42  1  0.331635  0.323854  0.999248  1
  Sn  Sn43  1  0.336616  0.328778  0.166296  1
  Sn  Sn44  1  0.338391  0.338467  0.501051  1
  Sn  Sn45  1  0.321544  0.340823  0.333868  1
  Sn  Sn46  1  0.338258  0.339292  0.667542  1
  Sn  Sn47  1  0.317231  0.339522  0.832650  1
  Sn  Sn48  1  0.664506  0.671644  0.112310  1
  Sn  Sn49  1  0.666218  0.672863  0.278748  1
  Sn  Sn50  1  0.665672  0.671723  0.446086  1
  Sn  Sn51  1  0.665152  0.671426  0.612451  1
  Sn  Sn52  1  0.667045  0.673490  0.779003  1
  Sn  Sn53  1  0.666083  0.672555  0.945868  1
  F  F54  1  0.216558  0.995873  0.008493  1
  F  F55  1  0.217140  0.995759  0.174530  1
  F  F56  1  0.225965  0.996757  0.341247  1
  F  F57  1  0.223523  0.000628  0.674181  1
  F  F58  1  0.223304  0.000093  0.507475  1
  F  F59  1  0.225461  0.998432  0.842769  1
  F  F60  1  0.308499  0.978678  0.075804  1
  F  F61  1  0.309230  0.979457  0.409653  1
  F  F62  1  0.309814  0.979673  0.242174  1
  F  F63  1  0.308357  0.981500  0.742950  1
  F  F64  1  0.308372  0.980350  0.576451  1
  F  F65  1  0.306946  0.979459  0.910033  1
  F  F66  1  0.021322  0.329821  0.075804  1
  F  F67  1  0.020327  0.330140  0.242174  1
  F  F68  1  0.020543  0.329773  0.409653  1
  F  F69  1  0.019650  0.328022  0.576451  1
  F  F70  1  0.018500  0.326856  0.742950  1
  F  F71  1  0.020541  0.327488  0.910033  1
  F  F72  1  0.004127  0.220684  0.008493  1
  F  F73  1  0.004241  0.221381  0.174530  1
  F  F74  1  0.003243  0.229208  0.341247  1
  F  F75  1  0.999907  0.223211  0.507475  1
  F  F76  1  0.999372  0.222895  0.674181  1
  F  F77  1  0.001568  0.227029  0.842769  1
  F  F78  1  0.333333  0.666667  0.106709  1
  F  F79  1  0.333333  0.666667  0.338164  1
  F  F80  1  0.333333  0.666667  0.272980  1
  F  F81  1  0.333333  0.666667  0.505750  1
  F  F82  1  0.333333  0.666667  0.440303  1
  F  F83  1  0.333333  0.666667  0.607209  1
  F  F84  1  0.333333  0.666667  0.672680  1
  F  F85  1  0.333333  0.666667  0.774483  1
  F  F86  1  0.333333  0.666667  0.941592  1
  F  F87  1  0.333333  0.666667  0.838648  1
  F  F88  1  0.372733  0.362002  0.035442  1
  F  F89  1  0.371501  0.360447  0.202237  1
  F  F90  1  0.359273  0.352852  0.536963  1
  F  F91  1  0.369027  0.358377  0.369269  1
  F  F92  1  0.369014  0.360133  0.869031  1
  F  F93  1  0.358036  0.352906  0.703406  1
  F  F94  1  0.441279  0.332641  0.104921  1
  F  F95  1  0.443320  0.332743  0.270958  1
  F  F96  1  0.442979  0.332379  0.606222  1
  F  F97  1  0.443099  0.332744  0.438327  1
  F  F98  1  0.443064  0.333193  0.773004  1
  F  F99  1  0.441358  0.333342  0.939496  1
  F  F100  1  0.670179  0.691501  0.075804  1
  F  F101  1  0.669860  0.690186  0.242174  1
  F  F102  1  0.670227  0.690770  0.409653  1
  F  F103  1  0.671978  0.691628  0.576451  1
  F  F104  1  0.673144  0.691643  0.742950  1
  F  F105  1  0.672512  0.693054  0.910033  1
  F  F106  1  0.779316  0.783442  0.008493  1
  F  F107  1  0.778619  0.782860  0.174530  1
  F  F108  1  0.770792  0.774035  0.341247  1
  F  F109  1  0.777105  0.776477  0.674181  1
  F  F110  1  0.776789  0.776696  0.507475  1
  F  F111  1  0.772971  0.774539  0.842769  1
  F  F112  1  0.000000  0.000000  0.109371  1
  F  F113  1  0.000000  0.000000  0.274463  1
  F  F114  1  0.666667  0.333333  0.503462  1
  F  F115  1  0.000000  0.000000  0.441918  1
  F  F116  1  0.666667  0.333333  0.670449  1
  F  F117  1  0.000000  0.000000  0.609969  1
  F  F118  1  0.000000  0.000000  0.776461  1
  F  F119  1  0.000000  0.000000  0.944254  1
  F  F120  1  0.667359  0.108638  0.104921  1
  F  F121  1  0.667257  0.110577  0.270958  1
  F  F122  1  0.667256  0.110355  0.438327  1
  F  F123  1  0.667621  0.110600  0.606222  1
  F  F124  1  0.666807  0.109871  0.773004  1
  F  F125  1  0.666658  0.108016  0.939496  1
  F  F126  1  0.891362  0.558721  0.104921  1
  F  F127  1  0.889423  0.556680  0.270958  1
  F  F128  1  0.889645  0.556901  0.438327  1
  F  F129  1  0.889400  0.557021  0.606222  1
  F  F130  1  0.890129  0.556936  0.773004  1
  F  F131  1  0.891984  0.558642  0.939496  1
  F  F132  1  0.637998  0.010732  0.035442  1
  F  F133  1  0.641623  0.010650  0.369269  1
  F  F134  1  0.639553  0.011054  0.202237  1
  F  F135  1  0.647148  0.006421  0.536963  1
  F  F136  1  0.647094  0.005131  0.703406  1
  F  F137  1  0.639867  0.008881  0.869031  1
  F  F138  1  0.989268  0.627267  0.035442  1
  F  F139  1  0.988946  0.628499  0.202237  1
  F  F140  1  0.989350  0.630973  0.369269  1
  F  F141  1  0.993579  0.640727  0.536963  1
  F  F142  1  0.994869  0.641964  0.703406  1
  F  F143  1  0.991119  0.630986  0.869031  1
