# generated using pymatgen
data_SiO2
_symmetry_space_group_name_H-M   'P 1'
_cell_length_a   12.22764729
_cell_length_b   12.22764729
_cell_length_c   28.84616518
_cell_angle_alpha   90.00000000
_cell_angle_beta   90.00000000
_cell_angle_gamma   90.00000000
_symmetry_Int_Tables_number   1
_chemical_formula_structural   SiO2
_chemical_formula_sum   'Si64 O128'
_cell_volume   4312.94472099
_cell_formula_units_Z   64
loop_
 _symmetry_equiv_pos_site_id
 _symmetry_equiv_pos_as_xyz
  1  'x, y, z'
loop_
 _atom_site_type_symbol
 _atom_site_label
 _atom_site_symmetry_multiplicity
 _atom_site_fract_x
 _atom_site_fract_y
 _atom_site_fract_z
 _atom_site_occupancy
  Si  Si0  1  0.179198  0.000000  0.055123  1
  Si  Si1  1  0.000000  0.179198  0.055123  1
  Si  Si2  1  0.000000  0.820802  0.055123  1
  Si  Si3  1  0.179198  0.000000  0.944877  1
  Si  Si4  1  0.820802  0.000000  0.944877  1
  Si  Si5  1  0.820802  0.000000  0.055123  1
  Si  Si6  1  0.000000  0.179198  0.944877  1
  Si  Si7  1  0.000000  0.820802  0.944877  1
  Si  Si8  1  0.679198  0.500000  0.555123  1
  Si  Si9  1  0.500000  0.679198  0.555123  1
  Si  Si10  1  0.500000  0.320802  0.555123  1
  Si  Si11  1  0.679198  0.500000  0.444877  1
  Si  Si12  1  0.320802  0.500000  0.444877  1
  Si  Si13  1  0.320802  0.500000  0.555123  1
  Si  Si14  1  0.500000  0.679198  0.444877  1
  Si  Si15  1  0.500000  0.320802  0.444877  1
  Si  Si16  1  0.376192  0.191030  0.200307  1
  Si  Si17  1  0.808970  0.376192  0.200307  1
  Si  Si18  1  0.191030  0.623808  0.200307  1
  Si  Si19  1  0.376192  0.808970  0.799693  1
  Si  Si20  1  0.623808  0.191030  0.799693  1
  Si  Si21  1  0.623808  0.808970  0.200307  1
  Si  Si22  1  0.191030  0.376192  0.799693  1
  Si  Si23  1  0.808970  0.623808  0.799693  1
  Si  Si24  1  0.623808  0.808970  0.799693  1
  Si  Si25  1  0.191030  0.623808  0.799693  1
  Si  Si26  1  0.808970  0.376192  0.799693  1
  Si  Si27  1  0.623808  0.191030  0.200307  1
  Si  Si28  1  0.376192  0.808970  0.200307  1
  Si  Si29  1  0.376192  0.191030  0.799693  1
  Si  Si30  1  0.808970  0.623808  0.200307  1
  Si  Si31  1  0.191030  0.376192  0.200307  1
  Si  Si32  1  0.876192  0.691030  0.700307  1
  Si  Si33  1  0.308970  0.876192  0.700307  1
  Si  Si34  1  0.691030  0.123808  0.700307  1
  Si  Si35  1  0.876192  0.308970  0.299693  1
  Si  Si36  1  0.123808  0.691030  0.299693  1
  Si  Si37  1  0.123808  0.308970  0.700307  1
  Si  Si38  1  0.691030  0.876192  0.299693  1
  Si  Si39  1  0.308970  0.123808  0.299693  1
  Si  Si40  1  0.123808  0.308970  0.299693  1
  Si  Si41  1  0.691030  0.123808  0.299693  1
  Si  Si42  1  0.308970  0.876192  0.299693  1
  Si  Si43  1  0.123808  0.691030  0.700307  1
  Si  Si44  1  0.876192  0.308970  0.700307  1
  Si  Si45  1  0.876192  0.691030  0.299693  1
  Si  Si46  1  0.308970  0.123808  0.700307  1
  Si  Si47  1  0.691030  0.876192  0.700307  1
  Si  Si48  1  0.370994  0.000000  0.128272  1
  Si  Si49  1  0.000000  0.370994  0.128272  1
  Si  Si50  1  0.000000  0.629006  0.128272  1
  Si  Si51  1  0.370994  0.000000  0.871728  1
  Si  Si52  1  0.629006  0.000000  0.871728  1
  Si  Si53  1  0.629006  0.000000  0.128272  1
  Si  Si54  1  0.000000  0.370994  0.871728  1
  Si  Si55  1  0.000000  0.629006  0.871728  1
  Si  Si56  1  0.870994  0.500000  0.628272  1
  Si  Si57  1  0.500000  0.870994  0.628272  1
  Si  Si58  1  0.500000  0.129006  0.628272  1
  Si  Si59  1  0.870994  0.500000  0.371728  1
  Si  Si60  1  0.129006  0.500000  0.371728  1
  Si  Si61  1  0.129006  0.500000  0.628272  1
  Si  Si62  1  0.500000  0.870994  0.371728  1
  Si  Si63  1  0.500000  0.129006  0.371728  1
  O  O64  1  0.295115  0.000000  0.082438  1
  O  O65  1  0.000000  0.295115  0.082438  1
  O  O66  1  0.000000  0.704885  0.082438  1
  O  O67  1  0.295115  0.000000  0.917562  1
  O  O68  1  0.704885  0.000000  0.917562  1
  O  O69  1  0.704885  0.000000  0.082438  1
  O  O70  1  0.000000  0.295115  0.917562  1
  O  O71  1  0.000000  0.704885  0.917562  1
  O  O72  1  0.795115  0.500000  0.582438  1
  O  O73  1  0.500000  0.795115  0.582438  1
  O  O74  1  0.500000  0.204885  0.582438  1
  O  O75  1  0.795115  0.500000  0.417562  1
  O  O76  1  0.204885  0.500000  0.417562  1
  O  O77  1  0.204885  0.500000  0.582438  1
  O  O78  1  0.500000  0.795115  0.417562  1
  O  O79  1  0.500000  0.204885  0.417562  1
  O  O80  1  0.204987  0.000000  0.000000  1
  O  O81  1  0.000000  0.204987  0.000000  1
  O  O82  1  0.000000  0.795013  0.000000  1
  O  O83  1  0.795013  0.000000  0.000000  1
  O  O84  1  0.704987  0.500000  0.500000  1
  O  O85  1  0.500000  0.704987  0.500000  1
  O  O86  1  0.500000  0.295013  0.500000  1
  O  O87  1  0.295013  0.500000  0.500000  1
  O  O88  1  0.109098  0.109098  0.068661  1
  O  O89  1  0.890902  0.109098  0.068661  1
  O  O90  1  0.109098  0.890902  0.068661  1
  O  O91  1  0.109098  0.890902  0.931339  1
  O  O92  1  0.890902  0.109098  0.931339  1
  O  O93  1  0.890902  0.890902  0.068661  1
  O  O94  1  0.109098  0.109098  0.931339  1
  O  O95  1  0.890902  0.890902  0.931339  1
  O  O96  1  0.609098  0.609098  0.568661  1
  O  O97  1  0.390902  0.609098  0.568661  1
  O  O98  1  0.609098  0.390902  0.568661  1
  O  O99  1  0.609098  0.390902  0.431339  1
  O  O100  1  0.390902  0.609098  0.431339  1
  O  O101  1  0.390902  0.390902  0.568661  1
  O  O102  1  0.609098  0.609098  0.431339  1
  O  O103  1  0.390902  0.390902  0.431339  1
  O  O104  1  0.372080  0.127920  0.250000  1
  O  O105  1  0.872080  0.372080  0.250000  1
  O  O106  1  0.127920  0.627920  0.250000  1
  O  O107  1  0.372080  0.872080  0.750000  1
  O  O108  1  0.627920  0.127920  0.750000  1
  O  O109  1  0.627920  0.872080  0.250000  1
  O  O110  1  0.127920  0.372080  0.750000  1
  O  O111  1  0.872080  0.627920  0.750000  1
  O  O112  1  0.627920  0.872080  0.750000  1
  O  O113  1  0.127920  0.627920  0.750000  1
  O  O114  1  0.872080  0.372080  0.750000  1
  O  O115  1  0.627920  0.127920  0.250000  1
  O  O116  1  0.372080  0.872080  0.250000  1
  O  O117  1  0.372080  0.127920  0.750000  1
  O  O118  1  0.872080  0.627920  0.250000  1
  O  O119  1  0.127920  0.372080  0.250000  1
  O  O120  1  0.342163  0.108503  0.158743  1
  O  O121  1  0.891498  0.342163  0.158743  1
  O  O122  1  0.108503  0.657837  0.158743  1
  O  O123  1  0.342163  0.891498  0.841257  1
  O  O124  1  0.657837  0.108503  0.841257  1
  O  O125  1  0.657837  0.891498  0.158743  1
  O  O126  1  0.108503  0.342163  0.841257  1
  O  O127  1  0.891498  0.657837  0.841257  1
  O  O128  1  0.657837  0.891498  0.841257  1
  O  O129  1  0.108503  0.657837  0.841257  1
  O  O130  1  0.891498  0.342163  0.841257  1
  O  O131  1  0.657837  0.108503  0.158743  1
  O  O132  1  0.342163  0.891498  0.158743  1
  O  O133  1  0.342163  0.108503  0.841257  1
  O  O134  1  0.891498  0.657837  0.158743  1
  O  O135  1  0.108503  0.342163  0.158743  1
  O  O136  1  0.842163  0.608502  0.658743  1
  O  O137  1  0.391497  0.842163  0.658743  1
  O  O138  1  0.608502  0.157837  0.658743  1
  O  O139  1  0.842163  0.391497  0.341257  1
  O  O140  1  0.157837  0.608502  0.341257  1
  O  O141  1  0.157837  0.391497  0.658743  1
  O  O142  1  0.608502  0.842163  0.341257  1
  O  O143  1  0.391497  0.157837  0.341257  1
  O  O144  1  0.157837  0.391497  0.341257  1
  O  O145  1  0.608502  0.157837  0.341257  1
  O  O146  1  0.391497  0.842163  0.341257  1
  O  O147  1  0.157837  0.608502  0.658743  1
  O  O148  1  0.842163  0.391497  0.658743  1
  O  O149  1  0.842163  0.608502  0.341257  1
  O  O150  1  0.391497  0.157837  0.658743  1
  O  O151  1  0.608502  0.842163  0.658743  1
  O  O152  1  0.500000  0.234969  0.191592  1
  O  O153  1  0.765031  0.500000  0.191592  1
  O  O154  1  0.234969  0.500000  0.191592  1
  O  O155  1  0.500000  0.765031  0.808408  1
  O  O156  1  0.500000  0.234969  0.808408  1
  O  O157  1  0.500000  0.765031  0.191592  1
  O  O158  1  0.234969  0.500000  0.808408  1
  O  O159  1  0.765031  0.500000  0.808408  1
  O  O160  1  0.000000  0.734969  0.691592  1
  O  O161  1  0.265031  0.000000  0.691592  1
  O  O162  1  0.734969  0.000000  0.691592  1
  O  O163  1  0.000000  0.265031  0.308408  1
  O  O164  1  0.000000  0.734969  0.308408  1
  O  O165  1  0.000000  0.265031  0.691592  1
  O  O166  1  0.734969  0.000000  0.308408  1
  O  O167  1  0.265031  0.000000  0.308408  1
  O  O168  1  0.294691  0.294691  0.201065  1
  O  O169  1  0.705309  0.294691  0.201065  1
  O  O170  1  0.294691  0.705309  0.201065  1
  O  O171  1  0.294691  0.705309  0.798935  1
  O  O172  1  0.705309  0.294691  0.798935  1
  O  O173  1  0.705309  0.705309  0.201065  1
  O  O174  1  0.294691  0.294691  0.798935  1
  O  O175  1  0.705309  0.705309  0.798935  1
  O  O176  1  0.794691  0.794691  0.701065  1
  O  O177  1  0.205309  0.794691  0.701065  1
  O  O178  1  0.794691  0.205309  0.701065  1
  O  O179  1  0.794691  0.205309  0.298935  1
  O  O180  1  0.205309  0.794691  0.298935  1
  O  O181  1  0.205309  0.205309  0.701065  1
  O  O182  1  0.794691  0.794691  0.298935  1
  O  O183  1  0.205309  0.205309  0.298935  1
  O  O184  1  0.500000  0.000000  0.113407  1
  O  O185  1  0.000000  0.500000  0.113407  1
  O  O186  1  0.500000  0.000000  0.886593  1
  O  O187  1  0.000000  0.500000  0.886593  1
  O  O188  1  0.000000  0.500000  0.613407  1
  O  O189  1  0.500000  0.000000  0.613407  1
  O  O190  1  0.000000  0.500000  0.386593  1
  O  O191  1  0.500000  0.000000  0.386593  1
