# generated using pymatgen
data_BiOs2(CO)6
_symmetry_space_group_name_H-M   'P 1'
_cell_length_a   9.33283738
_cell_length_b   9.33283769
_cell_length_c   12.51701445
_cell_angle_alpha   86.40526967
_cell_angle_beta   86.40526957
_cell_angle_gamma   86.62828032
_symmetry_Int_Tables_number   1
_chemical_formula_structural   BiOs2(CO)6
_chemical_formula_sum   'Bi4 Os8 C24 O24'
_cell_volume   1084.31955284
_cell_formula_units_Z   4
loop_
 _symmetry_equiv_pos_site_id
 _symmetry_equiv_pos_as_xyz
  1  'x, y, z'
loop_
 _atom_site_type_symbol
 _atom_site_label
 _atom_site_symmetry_multiplicity
 _atom_site_fract_x
 _atom_site_fract_y
 _atom_site_fract_z
 _atom_site_occupancy
  Bi  Bi0  1  0.202672  0.017477  0.710481  1
  Bi  Bi1  1  0.017477  0.202672  0.210481  1
  Bi  Bi2  1  0.797328  0.982523  0.289519  1
  Bi  Bi3  1  0.982523  0.797328  0.789519  1
  Os  Os4  1  0.236191  0.829535  0.910187  1
  Os  Os5  1  0.423147  0.789225  0.717562  1
  Os  Os6  1  0.210775  0.576853  0.782438  1
  Os  Os7  1  0.763809  0.170465  0.089813  1
  Os  Os8  1  0.829535  0.236191  0.410187  1
  Os  Os9  1  0.789225  0.423147  0.217562  1
  Os  Os10  1  0.576853  0.210775  0.282438  1
  Os  Os11  1  0.170465  0.763809  0.589813  1
  C  C12  1  0.437150  0.357260  0.239319  1
  C  C13  1  0.010602  0.281642  0.453875  1
  C  C14  1  0.390472  0.722079  0.977018  1
  C  C15  1  0.188470  0.494501  0.924584  1
  C  C16  1  0.494501  0.188470  0.424584  1
  C  C17  1  0.357260  0.437150  0.739319  1
  C  C18  1  0.525732  0.937151  0.770214  1
  C  C19  1  0.474268  0.062849  0.229786  1
  C  C20  1  0.277921  0.609528  0.522982  1
  C  C21  1  0.562850  0.642740  0.760681  1
  C  C22  1  0.811530  0.505499  0.075416  1
  C  C23  1  0.722079  0.390472  0.477018  1
  C  C24  1  0.609528  0.277921  0.022982  1
  C  C25  1  0.718358  0.989398  0.046125  1
  C  C26  1  0.937151  0.525732  0.270214  1
  C  C27  1  0.281642  0.010602  0.953875  1
  C  C28  1  0.801935  0.102731  0.529012  1
  C  C29  1  0.102731  0.801935  0.029012  1
  C  C30  1  0.505499  0.811530  0.575416  1
  C  C31  1  0.198065  0.897269  0.470988  1
  C  C32  1  0.897269  0.198065  0.970988  1
  C  C33  1  0.062849  0.474268  0.729786  1
  C  C34  1  0.989398  0.718358  0.546125  1
  C  C35  1  0.642740  0.562850  0.260681  1
  O  O36  1  0.590067  0.026443  0.803021  1
  O  O37  1  0.973557  0.409933  0.696979  1
  O  O38  1  0.167624  0.439638  0.010031  1
  O  O39  1  0.409933  0.973557  0.196980  1
  O  O40  1  0.658191  0.480075  0.523235  1
  O  O41  1  0.560362  0.832376  0.489969  1
  O  O42  1  0.439638  0.167624  0.510031  1
  O  O43  1  0.309706  0.121709  0.981915  1
  O  O44  1  0.026443  0.590067  0.303021  1
  O  O45  1  0.690294  0.878291  0.018085  1
  O  O46  1  0.832376  0.560362  0.989969  1
  O  O47  1  0.657969  0.562513  0.783316  1
  O  O48  1  0.974657  0.215214  0.894737  1
  O  O49  1  0.025343  0.784786  0.105263  1
  O  O50  1  0.784786  0.025343  0.605263  1
  O  O51  1  0.121709  0.309706  0.481915  1
  O  O52  1  0.342031  0.437487  0.216684  1
  O  O53  1  0.215214  0.974657  0.394737  1
  O  O54  1  0.341809  0.519925  0.476765  1
  O  O55  1  0.437487  0.342031  0.716684  1
  O  O56  1  0.878291  0.690294  0.518085  1
  O  O57  1  0.519925  0.341809  0.976765  1
  O  O58  1  0.480075  0.658191  0.023235  1
  O  O59  1  0.562513  0.657969  0.283316  1
