# generated using pymatgen
data_USb2F15
_symmetry_space_group_name_H-M   'P 1'
_cell_length_a   8.64818586
_cell_length_b   10.50589232
_cell_length_c   14.70453990
_cell_angle_alpha   90.00000000
_cell_angle_beta   90.00000000
_cell_angle_gamma   91.15470800
_symmetry_Int_Tables_number   1
_chemical_formula_structural   USb2F15
_chemical_formula_sum   'U4 Sb8 F60'
_cell_volume   1335.73774056
_cell_formula_units_Z   4
loop_
 _symmetry_equiv_pos_site_id
 _symmetry_equiv_pos_as_xyz
  1  'x, y, z'
loop_
 _atom_site_type_symbol
 _atom_site_label
 _atom_site_symmetry_multiplicity
 _atom_site_fract_x
 _atom_site_fract_y
 _atom_site_fract_z
 _atom_site_occupancy
  U  U0  1  0.196253  0.673433  0.356955  1
  U  U1  1  0.803747  0.826567  0.856955  1
  U  U2  1  0.196253  0.173433  0.143045  1
  U  U3  1  0.803747  0.326567  0.643045  1
  Sb  Sb4  1  0.383439  0.974902  0.719883  1
  Sb  Sb5  1  0.147694  0.785838  0.059510  1
  Sb  Sb6  1  0.616561  0.025098  0.280117  1
  Sb  Sb7  1  0.852306  0.714162  0.559510  1
  Sb  Sb8  1  0.616561  0.525098  0.219883  1
  Sb  Sb9  1  0.147694  0.285838  0.440490  1
  Sb  Sb10  1  0.383439  0.474902  0.780117  1
  Sb  Sb11  1  0.852306  0.214162  0.940490  1
  F  F12  1  0.777453  0.449450  0.151648  1
  F  F13  1  0.827256  0.023779  0.929371  1
  F  F14  1  0.507925  0.070620  0.389495  1
  F  F15  1  0.222547  0.550550  0.848352  1
  F  F16  1  0.138694  0.853775  0.326529  1
  F  F17  1  0.024477  0.326647  0.553165  1
  F  F18  1  0.596851  0.902930  0.784304  1
  F  F19  1  0.961098  0.311144  0.376135  1
  F  F20  1  0.945395  0.401613  0.737494  1
  F  F21  1  0.507925  0.570620  0.110505  1
  F  F22  1  0.265496  0.773805  0.169325  1
  F  F23  1  0.861306  0.646225  0.826529  1
  F  F24  1  0.679267  0.714146  0.483382  1
  F  F25  1  0.674588  0.243819  0.546753  1
  F  F26  1  0.721470  0.675054  0.259233  1
  F  F27  1  0.734504  0.726195  0.669325  1
  F  F28  1  0.721470  0.175054  0.240767  1
  F  F29  1  0.522772  0.487555  0.553183  1
  F  F30  1  0.522772  0.987555  0.946817  1
  F  F31  1  0.172744  0.476221  0.429371  1
  F  F32  1  0.100032  0.612143  0.043858  1
  F  F33  1  0.024477  0.826647  0.946835  1
  F  F34  1  0.354413  0.088810  0.820530  1
  F  F35  1  0.679267  0.214146  0.016618  1
  F  F36  1  0.138694  0.353775  0.173471  1
  F  F37  1  0.054605  0.098387  0.237494  1
  F  F38  1  0.320733  0.285854  0.516618  1
  F  F39  1  0.477228  0.512445  0.446817  1
  F  F40  1  0.403149  0.597070  0.284304  1
  F  F41  1  0.054605  0.598387  0.262506  1
  F  F42  1  0.265496  0.273805  0.330675  1
  F  F43  1  0.038902  0.188856  0.876135  1
  F  F44  1  0.222547  0.050550  0.651648  1
  F  F45  1  0.278530  0.824946  0.759233  1
  F  F46  1  0.734504  0.226195  0.830675  1
  F  F47  1  0.278530  0.324946  0.740767  1
  F  F48  1  0.645587  0.411190  0.320530  1
  F  F49  1  0.975523  0.673353  0.446835  1
  F  F50  1  0.172744  0.976221  0.070629  1
  F  F51  1  0.827256  0.523779  0.570629  1
  F  F52  1  0.354413  0.588810  0.679470  1
  F  F53  1  0.945395  0.901613  0.762506  1
  F  F54  1  0.899968  0.887857  0.543858  1
  F  F55  1  0.403149  0.097070  0.215696  1
  F  F56  1  0.899968  0.387857  0.956142  1
  F  F57  1  0.492075  0.429380  0.889495  1
  F  F58  1  0.320733  0.785854  0.983382  1
  F  F59  1  0.674588  0.743819  0.953247  1
  F  F60  1  0.477228  0.012445  0.053183  1
  F  F61  1  0.975523  0.173353  0.053165  1
  F  F62  1  0.861306  0.146225  0.673471  1
  F  F63  1  0.596851  0.402930  0.715696  1
  F  F64  1  0.961098  0.811144  0.123865  1
  F  F65  1  0.100032  0.112143  0.456142  1
  F  F66  1  0.777453  0.949450  0.348352  1
  F  F67  1  0.645587  0.911190  0.179470  1
  F  F68  1  0.492075  0.929380  0.610505  1
  F  F69  1  0.325412  0.756181  0.453247  1
  F  F70  1  0.325412  0.256181  0.046753  1
  F  F71  1  0.038902  0.688856  0.623865  1
