# generated using pymatgen
data_Ba6Ca6Tl5Cu9O29
_symmetry_space_group_name_H-M   'P 1'
_cell_length_a   3.88043154
_cell_length_b   3.88043058
_cell_length_c   52.81968997
_cell_angle_alpha   90.00001986
_cell_angle_beta   90.00003789
_cell_angle_gamma   90.00001816
_symmetry_Int_Tables_number   1
_chemical_formula_structural   Ba6Ca6Tl5Cu9O29
_chemical_formula_sum   'Ba6 Ca6 Tl5 Cu9 O29'
_cell_volume   795.34543371
_cell_formula_units_Z   1
loop_
 _symmetry_equiv_pos_site_id
 _symmetry_equiv_pos_as_xyz
  1  'x, y, z'
loop_
 _atom_site_type_symbol
 _atom_site_label
 _atom_site_symmetry_multiplicity
 _atom_site_fract_x
 _atom_site_fract_y
 _atom_site_fract_z
 _atom_site_occupancy
  Ba  Ba0  1  0.499999  0.500000  0.748886  1
  Ba  Ba1  1  0.500000  0.500000  0.051075  1
  Ba  Ba2  1  0.500000  0.500000  0.251212  1
  Ba  Ba3  1  0.500000  0.500001  0.948829  1
  Ba  Ba4  1  0.000000  0.000000  0.598759  1
  Ba  Ba5  1  0.000000  1.000000  0.401255  1
  Ca  Ca6  1  0.000000  1.000000  0.468720  1
  Ca  Ca7  1  -0.000000  1.000000  0.531239  1
  Ca  Ca8  1  0.500000  0.500000  0.816079  1
  Ca  Ca9  1  0.500000  0.499999  0.878594  1
  Ca  Ca10  1  0.500000  0.500000  0.184000  1
  Ca  Ca11  1  0.500000  0.500000  0.121432  1
  Tl  Tl12  1  0.500000  0.500000  0.347713  1
  Tl  Tl13  1  0.500000  0.500000  0.652272  1
  Tl  Tl14  1  0.000000  1.000000  0.304357  1
  Tl  Tl15  1  0.000000  0.000000  0.999963  1
  Tl  Tl16  1  0.000000  0.000000  0.695652  1
  Cu  Cu17  1  0.000000  0.000000  0.214285  1
  Cu  Cu18  1  0.000000  0.000000  0.846383  1
  Cu  Cu19  1  0.500000  0.500000  0.438062  1
  Cu  Cu20  1  0.000000  0.000000  0.153658  1
  Cu  Cu21  1  0.500000  0.500000  0.561931  1
  Cu  Cu22  1  0.000000  1.000000  0.090853  1
  Cu  Cu23  1  0.000000  -0.000000  0.909068  1
  Cu  Cu24  1  1.000000  1.000000  0.785784  1
  Cu  Cu25  1  0.500000  0.500000  0.500005  1
  O  O26  1  1.000000  0.500000  0.785930  1
  O  O27  1  0.500000  1.000000  0.153880  1
  O  O28  1  0.000000  0.500000  0.214129  1
  O  O29  1  0.500001  0.500000  0.613693  1
  O  O30  1  1.000000  0.500000  0.561325  1
  O  O31  1  1.000000  0.500000  0.906299  1
  O  O32  1  0.499999  -0.000000  0.785930  1
  O  O33  1  0.500000  0.500000  0.691753  1
  O  O34  1  0.000000  0.000000  0.265852  1
  O  O35  1  0.000000  0.000000  0.960168  1
  O  O36  1  0.500000  -0.000000  0.438667  1
  O  O37  1  0.500000  0.000000  0.906299  1
  O  O38  1  0.500000  0.500000  0.308236  1
  O  O39  1  0.000000  0.500000  0.153880  1
  O  O40  1  0.500000  0.000000  0.561325  1
  O  O41  1  0.000000  0.000000  0.343829  1
  O  O42  1  0.500000  0.500000  0.386265  1
  O  O43  1  0.500000  0.000000  0.093677  1
  O  O44  1  0.500000  0.000000  0.214129  1
  O  O45  1  0.500000  1.000000  0.500005  1
  O  O46  1  1.000000  0.000000  0.734160  1
  O  O47  1  1.000000  0.500000  0.846137  1
  O  O48  1  0.000000  1.000000  0.039765  1
  O  O49  1  0.000000  0.000000  0.656170  1
  O  O50  1  1.000000  0.500000  0.438667  1
  O  O51  1  0.500000  -0.000000  0.846137  1
  O  O52  1  0.000000  0.500000  0.093677  1
  O  O53  1  -0.000000  0.499999  0.500005  1
  O  O54  1  0.499999  0.500000  0.999945  1
