# generated using pymatgen
data_V2PbO6
_symmetry_space_group_name_H-M   'P 1'
_cell_length_a   8.07672835
_cell_length_b   8.07672734
_cell_length_c   8.84279421
_cell_angle_alpha   90.00000000
_cell_angle_beta   90.00000000
_cell_angle_gamma   117.47162758
_symmetry_Int_Tables_number   1
_chemical_formula_structural   V2PbO6
_chemical_formula_sum   'V6 Pb3 O18'
_cell_volume   511.80111267
_cell_formula_units_Z   3
loop_
 _symmetry_equiv_pos_site_id
 _symmetry_equiv_pos_as_xyz
  1  'x, y, z'
loop_
 _atom_site_type_symbol
 _atom_site_label
 _atom_site_symmetry_multiplicity
 _atom_site_fract_x
 _atom_site_fract_y
 _atom_site_fract_z
 _atom_site_occupancy
  V  V0  1  0.667810  0.742660  0.744476  1
  V  V1  1  0.742660  0.667810  0.255524  1
  V  V2  1  0.332190  0.257340  0.744476  1
  V  V3  1  0.000000  0.500000  0.174819  1
  V  V4  1  0.500000  0.000000  0.825181  1
  V  V5  1  0.257340  0.332190  0.255524  1
  Pb  Pb6  1  0.841054  0.158946  0.500000  1
  Pb  Pb7  1  0.158946  0.841054  0.500000  1
  Pb  Pb8  1  0.000000  0.000000  0.000000  1
  O  O9  1  0.363190  0.117517  0.900345  1
  O  O10  1  0.892038  0.780991  0.764933  1
  O  O11  1  0.500000  0.500000  0.758797  1
  O  O12  1  0.164303  0.346375  0.421989  1
  O  O13  1  0.346375  0.164303  0.578011  1
  O  O14  1  0.653625  0.835697  0.578011  1
  O  O15  1  0.780991  0.892038  0.235067  1
  O  O16  1  0.107962  0.219009  0.764933  1
  O  O17  1  0.835697  0.653625  0.421989  1
  O  O18  1  0.117517  0.363190  0.099655  1
  O  O19  1  0.662131  0.173435  0.721606  1
  O  O20  1  0.219009  0.107962  0.235067  1
  O  O21  1  0.173435  0.662131  0.278394  1
  O  O22  1  0.500000  0.500000  0.241203  1
  O  O23  1  0.636810  0.882483  0.900345  1
  O  O24  1  0.826565  0.337869  0.278394  1
  O  O25  1  0.337869  0.826565  0.721606  1
  O  O26  1  0.882483  0.636810  0.099655  1
