# generated using pymatgen
data_Ca3(HO3)2
_symmetry_space_group_name_H-M   'P 1'
_cell_length_a   4.33628045
_cell_length_b   11.75956896
_cell_length_c   7.48872082
_cell_angle_alpha   26.62397488
_cell_angle_beta   125.38316520
_cell_angle_gamma   123.58114053
_symmetry_Int_Tables_number   1
_chemical_formula_structural   Ca3(HO3)2
_chemical_formula_sum   'Ca3 H2 O6'
_cell_volume   138.86193221
_cell_formula_units_Z   1
loop_
 _symmetry_equiv_pos_site_id
 _symmetry_equiv_pos_as_xyz
  1  'x, y, z'
loop_
 _atom_site_type_symbol
 _atom_site_label
 _atom_site_symmetry_multiplicity
 _atom_site_fract_x
 _atom_site_fract_y
 _atom_site_fract_z
 _atom_site_occupancy
  Ca  Ca0  1  0.000000  0.666667  0.000000  1
  Ca  Ca1  1  0.027283  0.290768  0.091130  1
  Ca  Ca2  1  0.972717  0.042565  0.908870  1
  H  H3  1  0.383700  0.309075  0.920089  1
  H  H4  1  0.616300  0.024258  0.079911  1
  O  O5  1  0.401960  0.434527  0.250171  1
  O  O6  1  0.263325  0.414680  0.641305  1
  O  O7  1  0.736675  0.918653  0.358695  1
  O  O8  1  0.383456  0.147400  0.662357  1
  O  O9  1  0.598040  0.898807  0.749829  1
  O  O10  1  0.616544  0.185933  0.337643  1
