# generated using pymatgen
data_Al4Zn4P8H13N3O32
_symmetry_space_group_name_H-M   'P 1'
_cell_length_a   9.00290906
_cell_length_b   9.49222511
_cell_length_c   9.50089490
_cell_angle_alpha   89.70142001
_cell_angle_beta   82.48669993
_cell_angle_gamma   81.69830128
_symmetry_Int_Tables_number   1
_chemical_formula_structural   Al4Zn4P8H13N3O32
_chemical_formula_sum   'Al4 Zn4 P8 H13 N3 O32'
_cell_volume   796.44129795
_cell_formula_units_Z   1
loop_
 _symmetry_equiv_pos_site_id
 _symmetry_equiv_pos_as_xyz
  1  'x, y, z'
loop_
 _atom_site_type_symbol
 _atom_site_label
 _atom_site_symmetry_multiplicity
 _atom_site_fract_x
 _atom_site_fract_y
 _atom_site_fract_z
 _atom_site_occupancy
  Al  Al0  1  0.064849  0.794280  0.049648  1
  Al  Al1  1  0.387079  0.430568  0.314328  1
  Al  Al2  1  0.611669  0.567625  0.689540  1
  Al  Al3  1  0.889236  0.309694  0.420706  1
  Zn  Zn4  1  0.126501  0.682948  0.554178  1
  Zn  Zn5  1  0.448183  0.957423  0.204810  1
  Zn  Zn6  1  0.559051  0.042985  0.792226  1
  Zn  Zn7  1  0.935962  0.220650  0.972359  1
  P  P8  1  0.094142  0.082486  0.210763  1
  P  P9  1  0.036446  0.567766  0.288624  1
  P  P10  1  0.472546  0.706886  0.437370  1
  P  P11  1  0.584414  0.217305  0.085426  1
  P  P12  1  0.411582  0.790564  0.915756  1
  P  P13  1  0.547049  0.293105  0.554994  1
  P  P14  1  0.956177  0.441957  0.704320  1
  P  P15  1  0.918014  0.925029  0.800323  1
  H  H16  1  0.255470  0.363553  0.016385  1
  H  H17  1  0.175939  0.408384  0.868747  1
  H  H18  1  0.147855  0.906568  0.679917  1
  H  H19  1  0.270851  0.524632  0.942576  1
  H  H20  1  0.369151  0.375049  0.864102  1
  H  H21  1  0.623210  0.622775  0.126494  1
  H  H22  1  0.719556  0.461984  0.062269  1
  H  H23  1  0.778067  0.024128  0.374121  1
  H  H24  1  0.675893  0.888639  0.408252  1
  H  H25  1  0.813662  0.588499  0.120417  1
  H  H26  1  0.736228  0.616647  0.971029  1
  H  H27  1  0.769525  0.948219  0.535806  1
  H  H28  1  0.869227  0.857925  0.394342  1
  N  N29  1  0.268131  0.418066  0.922686  1
  N  N30  1  0.722477  0.572928  0.070071  1
  N  N31  1  0.773607  0.930509  0.427991  1
  O  O32  1  0.102179  0.186730  0.086445  1
  O  O33  1  0.016414  0.636386  0.140743  1
  O  O34  1  0.036661  0.942684  0.164125  1
  O  O35  1  0.006143  0.689544  0.398557  1
  O  O36  1  0.052306  0.872312  0.667056  1
  O  O37  1  0.089279  0.524627  0.666044  1
  O  O38  1  0.196312  0.483419  0.286531  1
  O  O39  1  0.244429  0.045543  0.268455  1
  O  O40  1  0.250327  0.745175  0.961961  1
  O  O41  1  0.322013  0.737560  0.534673  1
  O  O42  1  0.410107  0.336735  0.471791  1
  O  O43  1  0.461962  0.340030  0.156412  1
  O  O44  1  0.467616  0.589272  0.323842  1
  O  O45  1  0.485640  0.816830  0.047707  1
  O  O46  1  0.600249  0.087133  0.182158  1
  O  O47  1  0.541810  0.145382  0.614175  1
  O  O48  1  0.520455  0.838206  0.359896  1
  O  O49  1  0.399382  0.918150  0.815896  1
  O  O50  1  0.532642  0.184583  0.942833  1
  O  O51  1  0.538702  0.404663  0.677429  1
  O  O52  1  0.505202  0.654662  0.839688  1
  O  O53  1  0.601311  0.655951  0.528348  1
  O  O54  1  0.693910  0.300347  0.449557  1
  O  O55  1  0.733456  0.284211  0.065682  1
  O  O56  1  0.769475  0.924485  0.741088  1
  O  O57  1  0.801369  0.543056  0.722289  1
  O  O58  1  0.920306  0.461712  0.314900  1
  O  O59  1  0.971230  0.148911  0.334034  1
  O  O60  1  0.951834  0.329348  0.586611  1
  O  O61  1  0.958278  0.066483  0.839619  1
  O  O62  1  0.982824  0.375045  0.847288  1
  O  O63  1  0.937729  0.813748  0.919689  1
