# generated using pymatgen
data_Sm25Ni49P33
_symmetry_space_group_name_H-M   'P 1'
_cell_length_a   22.05336001
_cell_length_b   22.06502777
_cell_length_c   3.89262559
_cell_angle_alpha   89.99985601
_cell_angle_beta   90.00003554
_cell_angle_gamma   119.99928704
_symmetry_Int_Tables_number   1
_chemical_formula_structural   Sm25Ni49P33
_chemical_formula_sum   'Sm25 Ni49 P33'
_cell_volume   1640.42217183
_cell_formula_units_Z   1
loop_
 _symmetry_equiv_pos_site_id
 _symmetry_equiv_pos_as_xyz
  1  'x, y, z'
loop_
 _atom_site_type_symbol
 _atom_site_label
 _atom_site_symmetry_multiplicity
 _atom_site_fract_x
 _atom_site_fract_y
 _atom_site_fract_z
 _atom_site_occupancy
  Sm  Sm0  1  0.907195  0.092749  0.499999  1
  Sm  Sm1  1  0.369900  0.094906  0.500000  1
  Sm  Sm2  1  0.156193  0.312427  0.999998  1
  Sm  Sm3  1  0.153798  0.488046  0.000000  1
  Sm  Sm4  1  0.334197  0.846134  0.000001  1
  Sm  Sm5  1  0.185575  0.092789  0.499998  1
  Sm  Sm6  1  0.333320  0.666664  0.000003  1
  Sm  Sm7  1  0.905097  0.275031  0.499998  1
  Sm  Sm8  1  0.547277  0.452754  0.500004  1
  Sm  Sm9  1  0.905528  0.452772  0.500000  1
  Sm  Sm10  1  0.153760  0.665748  0.000002  1
  Sm  Sm11  1  0.512004  0.665803  0.000000  1
  Sm  Sm12  1  0.687675  0.843834  0.000002  1
  Sm  Sm13  1  0.905084  0.630081  0.500002  1
  Sm  Sm14  1  0.547246  0.094497  0.500001  1
  Sm  Sm15  1  0.907147  0.814336  0.500002  1
  Sm  Sm16  1  0.726111  0.274007  0.500003  1
  Sm  Sm17  1  0.156178  0.843769  0.999997  1
  Sm  Sm18  1  0.725010  0.630086  0.500000  1
  Sm  Sm19  1  0.511983  0.846143  0.000005  1
  Sm  Sm20  1  0.334213  0.488104  0.000001  1
  Sm  Sm21  1  0.726117  0.452178  0.500000  1
  Sm  Sm22  1  0.547931  0.273993  0.499999  1
  Sm  Sm23  1  0.725002  0.094921  0.500003  1
  Sm  Sm24  1  0.369916  0.274968  0.500001  1
  Ni  Ni25  1  0.484913  0.515120  0.000000  1
  Ni  Ni26  1  0.917286  0.958613  0.499992  1
  Ni  Ni27  1  0.488193  0.154289  0.000002  1
  Ni  Ni28  1  0.662591  0.692675  0.000002  1
  Ni  Ni29  1  0.028841  0.861746  0.999996  1
  Ni  Ni30  1  0.484910  0.969785  0.999993  1
  Ni  Ni31  1  0.030110  0.249451  0.500002  1
  Ni  Ni32  1  0.028826  0.167091  1.000000  1
  Ni  Ni33  1  0.307273  0.969841  0.999993  1
  Ni  Ni34  1  0.072174  0.036067  -0.000002  1
  Ni  Ni35  1  0.666126  0.154288  0.000006  1
  Ni  Ni36  1  0.750525  0.969830  0.499996  1
  Ni  Ni37  1  0.213424  0.606727  0.500000  1
  Ni  Ni38  1  0.030093  0.337432  0.999999  1
  Ni  Ni39  1  0.028942  0.426311  0.499997  1
  Ni  Ni40  1  0.750586  0.780706  0.500000  1
  Ni  Ni41  1  0.393279  0.606718  0.499997  1
  Ni  Ni42  1  0.963887  0.927772  0.999991  1
  Ni  Ni43  1  0.832911  0.971154  0.000004  1
  Ni  Ni44  1  0.219320  0.969836  0.499996  1
  Ni  Ni45  1  0.138254  0.971076  0.000006  1
  Ni  Ni46  1  0.662546  0.969846  0.000002  1
  Ni  Ni47  1  0.832977  0.861804  0.000000  1
  Ni  Ni48  1  0.573664  0.602618  0.499999  1
  Ni  Ni49  1  0.030171  0.515098  0.000006  1
  Ni  Ni50  1  0.030092  0.780673  0.500005  1
  Ni  Ni51  1  0.573659  0.971013  0.499995  1
  Ni  Ni52  1  0.397338  0.426303  0.499999  1
  Ni  Ni53  1  0.030054  0.692688  0.999993  1
  Ni  Ni54  1  0.041331  0.958579  0.500012  1
  Ni  Ni55  1  0.309806  0.154901  0.000005  1
  Ni  Ni56  1  0.138256  0.167150  0.000003  1
  Ni  Ni57  1  0.963871  0.036086  -0.000002  1
  Ni  Ni58  1  0.397345  0.971011  0.500002  1
  Ni  Ni59  1  0.571236  0.785584  0.500003  1
  Ni  Ni60  1  0.214381  0.428781  0.500004  1
  Ni  Ni61  1  0.666721  0.333391  0.999995  1
  Ni  Ni62  1  0.666174  0.511904  0.999992  1
  Ni  Ni63  1  0.307343  0.337479  0.999999  1
  Ni  Ni64  1  0.214355  0.785559  0.500003  1
  Ni  Ni65  1  0.845064  0.690159  0.999991  1
  Ni  Ni66  1  0.393250  0.786491  0.500005  1
  Ni  Ni67  1  0.845747  0.333953  0.999995  1
  Ni  Ni68  1  0.488222  0.333964  0.000003  1
  Ni  Ni69  1  0.219349  0.249477  0.499998  1
  Ni  Ni70  1  0.041322  0.082698  0.499991  1
  Ni  Ni71  1  0.028945  0.602641  0.500006  1
  Ni  Ni72  1  0.845731  0.511886  0.999994  1
  Ni  Ni73  1  0.845073  0.154937  -0.000006  1
  P  P74  1  0.628861  0.724860  0.500004  1
  P  P75  1  0.096051  0.371204  0.499998  1
  P  P76  1  0.607163  0.392902  0.000000  1
  P  P77  1  0.785803  0.392909  0.000003  1
  P  P78  1  0.452170  0.904325  0.500000  1
  P  P79  1  0.961809  0.746064  0.999999  1
  P  P80  1  0.253954  0.038164  0.000002  1
  P  P81  1  0.273953  0.547987  0.499998  1
  P  P82  1  0.429449  0.393122  -0.000000  1
  P  P83  1  0.253948  0.215792  0.000000  1
  P  P84  1  0.607157  0.214273  0.000001  1
  P  P85  1  0.606898  0.570572  0.999999  1
  P  P86  1  0.452173  0.547826  0.500002  1
  P  P87  1  0.628850  0.903931  0.500000  1
  P  P88  1  0.803801  0.901908  0.500002  1
  P  P89  1  0.784237  0.746076  0.000001  1
  P  P90  1  0.784200  0.038136  0.000002  1
  P  P91  1  0.098118  0.196211  0.500000  1
  P  P92  1  0.429420  0.036285  0.000000  1
  P  P93  1  0.785346  0.214715  0.999999  1
  P  P94  1  0.275125  0.371211  0.500002  1
  P  P95  1  0.452022  0.725981  0.499998  1
  P  P96  1  0.785350  0.570681  0.000001  1
  P  P97  1  0.606871  0.036296  1.000000  1
  P  P98  1  0.963698  0.393138  0.000002  1
  P  P99  1  0.429389  0.214685  -0.000001  1
  P  P100  1  0.961824  0.215757  0.000001  1
  P  P101  1  0.273920  0.725964  0.500001  1
  P  P102  1  0.095612  0.547816  0.500000  1
  P  P103  1  0.963719  0.570599  0.000001  1
  P  P104  1  0.098094  0.901897  0.500000  1
  P  P105  1  0.275103  0.903936  0.500003  1
  P  P106  1  0.095969  0.724835  0.500002  1
