# generated using pymatgen
data_NaLa2RuO6
_symmetry_space_group_name_H-M   'P 1'
_cell_length_a   5.63976931
_cell_length_b   6.01683209
_cell_length_c   8.09877429
_cell_angle_alpha   90.00000000
_cell_angle_beta   90.63336451
_cell_angle_gamma   90.00000000
_symmetry_Int_Tables_number   1
_chemical_formula_structural   NaLa2RuO6
_chemical_formula_sum   'Na2 La4 Ru2 O12'
_cell_volume   274.80333045
_cell_formula_units_Z   2
loop_
 _symmetry_equiv_pos_site_id
 _symmetry_equiv_pos_as_xyz
  1  'x, y, z'
loop_
 _atom_site_type_symbol
 _atom_site_label
 _atom_site_symmetry_multiplicity
 _atom_site_fract_x
 _atom_site_fract_y
 _atom_site_fract_z
 _atom_site_occupancy
  O  O0  1  0.834095  0.721655  0.567407  1
  O  O1  1  0.665905  0.221655  0.932593  1
  O  O2  1  0.165905  0.278345  0.432593  1
  O  O3  1  0.334095  0.778345  0.067407  1
  O  O4  1  0.115204  0.048989  0.729617  1
  O  O5  1  0.384796  0.548989  0.770383  1
  O  O6  1  0.884796  0.951011  0.270383  1
  O  O7  1  0.615204  0.451011  0.229617  1
  O  O8  1  0.211091  0.326592  0.050860  1
  O  O9  1  0.288909  0.826592  0.449140  1
  O  O10  1  0.788909  0.673408  0.949140  1
  O  O11  1  0.711091  0.173408  0.550860  1
  Na  Na12  1  0.000000  0.000000  0.000000  1
  Na  Na13  1  0.500000  0.500000  0.500000  1
  Ru  Ru14  1  0.500000  0.500000  0.000000  1
  Ru  Ru15  1  0.000000  0.000000  0.500000  1
  La  La16  1  0.981925  0.432392  0.753408  1
  La  La17  1  0.518075  0.932392  0.746592  1
  La  La18  1  0.018075  0.567608  0.246592  1
  La  La19  1  0.481925  0.067608  0.253408  1
