# generated using pymatgen
data_ZnH6C2(NCl2)2
_symmetry_space_group_name_H-M   'P 1'
_cell_length_a   13.64862959
_cell_length_b   13.14477850
_cell_length_c   7.53606806
_cell_angle_alpha   90.00000000
_cell_angle_beta   83.76693836
_cell_angle_gamma   90.00000000
_symmetry_Int_Tables_number   1
_chemical_formula_structural   ZnH6C2(NCl2)2
_chemical_formula_sum   'Zn4 H24 C8 N8 Cl16'
_cell_volume   1344.03993293
_cell_formula_units_Z   4
loop_
 _symmetry_equiv_pos_site_id
 _symmetry_equiv_pos_as_xyz
  1  'x, y, z'
loop_
 _atom_site_type_symbol
 _atom_site_label
 _atom_site_symmetry_multiplicity
 _atom_site_fract_x
 _atom_site_fract_y
 _atom_site_fract_z
 _atom_site_occupancy
  Zn  Zn0  1  0.706398  0.413569  0.262206  1
  Zn  Zn1  1  0.793602  0.913569  0.737794  1
  Zn  Zn2  1  0.293602  0.586431  0.737794  1
  Zn  Zn3  1  0.206398  0.086431  0.262206  1
  H  H4  1  0.457632  0.879328  0.474746  1
  H  H5  1  0.042368  0.379328  0.525254  1
  H  H6  1  0.542368  0.120672  0.525254  1
  H  H7  1  0.957632  0.620672  0.474746  1
  H  H8  1  0.625807  0.642955  0.209074  1
  H  H9  1  0.874193  0.142955  0.790926  1
  H  H10  1  0.374193  0.357045  0.790926  1
  H  H11  1  0.125807  0.857045  0.209074  1
  H  H12  1  0.878404  0.038476  0.150653  1
  H  H13  1  0.621596  0.538476  0.849347  1
  H  H14  1  0.121596  0.961524  0.849347  1
  H  H15  1  0.378404  0.461524  0.150653  1
  H  H16  1  0.459675  0.406340  0.294380  1
  H  H17  1  0.040325  0.906340  0.705620  1
  H  H18  1  0.540325  0.593660  0.705620  1
  H  H19  1  0.959675  0.093660  0.294380  1
  H  H20  1  0.906761  0.173581  0.142473  1
  H  H21  1  0.593239  0.673581  0.857527  1
  H  H22  1  0.093239  0.826419  0.857527  1
  H  H23  1  0.406761  0.326419  0.142473  1
  H  H24  1  0.830135  0.123481  0.324731  1
  H  H25  1  0.669865  0.623481  0.675269  1
  H  H26  1  0.169865  0.876519  0.675269  1
  H  H27  1  0.330135  0.376519  0.324731  1
  C  C28  1  0.591006  0.134458  0.405917  1
  C  C29  1  0.908994  0.634458  0.594083  1
  C  C30  1  0.408994  0.865542  0.594083  1
  C  C31  1  0.091006  0.365542  0.405917  1
  C  C32  1  0.893631  0.106813  0.227200  1
  C  C33  1  0.606369  0.606813  0.772800  1
  C  C34  1  0.106369  0.893187  0.772800  1
  C  C35  1  0.393631  0.393187  0.227200  1
  N  N36  1  0.625746  0.938173  0.053607  1
  N  N37  1  0.874254  0.438173  0.946393  1
  N  N38  1  0.374254  0.061827  0.946393  1
  N  N39  1  0.125746  0.561827  0.053607  1
  N  N40  1  0.642679  0.148955  0.275357  1
  N  N41  1  0.857321  0.648955  0.724643  1
  N  N42  1  0.357322  0.851045  0.724643  1
  N  N43  1  0.142679  0.351045  0.275357  1
  Cl  Cl44  1  0.855101  0.388304  0.348661  1
  Cl  Cl45  1  0.644899  0.888304  0.651339  1
  Cl  Cl46  1  0.144899  0.611696  0.651339  1
  Cl  Cl47  1  0.355101  0.111696  0.348661  1
  Cl  Cl48  1  0.718496  0.627030  0.214336  1
  Cl  Cl49  1  0.781504  0.127030  0.785664  1
  Cl  Cl50  1  0.281504  0.372970  0.785664  1
  Cl  Cl51  1  0.218496  0.872970  0.214336  1
  Cl  Cl52  1  0.596349  0.403434  0.504424  1
  Cl  Cl53  1  0.903651  0.903434  0.495576  1
  Cl  Cl54  1  0.403651  0.596566  0.495576  1
  Cl  Cl55  1  0.096349  0.096566  0.504424  1
  Cl  Cl56  1  0.651408  0.373044  0.007415  1
  Cl  Cl57  1  0.848592  0.873044  0.992585  1
  Cl  Cl58  1  0.348592  0.626956  0.992585  1
  Cl  Cl59  1  0.151408  0.126956  0.007415  1
