# generated using pymatgen
data_Rb3As7
_symmetry_space_group_name_H-M   'P 1'
_cell_length_a   13.53775491
_cell_length_b   16.28424995
_cell_length_c   26.59433562
_cell_angle_alpha   90.00000000
_cell_angle_beta   90.00000000
_cell_angle_gamma   90.00000000
_symmetry_Int_Tables_number   1
_chemical_formula_structural   Rb3As7
_chemical_formula_sum   'Rb48 As112'
_cell_volume   5862.77938851
_cell_formula_units_Z   16
loop_
 _symmetry_equiv_pos_site_id
 _symmetry_equiv_pos_as_xyz
  1  'x, y, z'
loop_
 _atom_site_type_symbol
 _atom_site_label
 _atom_site_symmetry_multiplicity
 _atom_site_fract_x
 _atom_site_fract_y
 _atom_site_fract_z
 _atom_site_occupancy
  Rb  Rb0  1  0.872042  0.752857  0.082897  1
  Rb  Rb1  1  0.623232  0.393971  0.629462  1
  Rb  Rb2  1  0.770393  0.164292  0.718549  1
  Rb  Rb3  1  0.383258  0.587457  0.575628  1
  Rb  Rb4  1  0.623232  0.893971  0.870538  1
  Rb  Rb5  1  0.123232  0.106029  0.629462  1
  Rb  Rb6  1  0.876768  0.393971  0.129462  1
  Rb  Rb7  1  0.627958  0.252857  0.917103  1
  Rb  Rb8  1  0.049893  0.644699  0.441320  1
  Rb  Rb9  1  0.372042  0.747143  0.082897  1
  Rb  Rb10  1  0.950107  0.855301  0.941320  1
  Rb  Rb11  1  0.123232  0.606029  0.870538  1
  Rb  Rb12  1  0.616742  0.412543  0.424372  1
  Rb  Rb13  1  0.965073  0.456642  0.324158  1
  Rb  Rb14  1  0.229607  0.835708  0.281451  1
  Rb  Rb15  1  0.965073  0.956642  0.175842  1
  Rb  Rb16  1  0.229607  0.335708  0.218549  1
  Rb  Rb17  1  0.376768  0.106029  0.129462  1
  Rb  Rb18  1  0.376768  0.606029  0.370538  1
  Rb  Rb19  1  0.383258  0.087457  0.924372  1
  Rb  Rb20  1  0.372042  0.247143  0.417103  1
  Rb  Rb21  1  0.549893  0.855301  0.441320  1
  Rb  Rb22  1  0.883258  0.412543  0.924372  1
  Rb  Rb23  1  0.770393  0.664292  0.781451  1
  Rb  Rb24  1  0.883258  0.912543  0.575628  1
  Rb  Rb25  1  0.616742  0.912543  0.075628  1
  Rb  Rb26  1  0.270393  0.835708  0.781451  1
  Rb  Rb27  1  0.450107  0.144699  0.558680  1
  Rb  Rb28  1  0.034927  0.043358  0.824158  1
  Rb  Rb29  1  0.627958  0.752857  0.582897  1
  Rb  Rb30  1  0.872042  0.252857  0.417103  1
  Rb  Rb31  1  0.729607  0.164292  0.218549  1
  Rb  Rb32  1  0.534927  0.456642  0.824158  1
  Rb  Rb33  1  0.534927  0.956642  0.675842  1
  Rb  Rb34  1  0.270393  0.335708  0.718549  1
  Rb  Rb35  1  0.127958  0.247143  0.917103  1
  Rb  Rb36  1  0.950107  0.355301  0.558680  1
  Rb  Rb37  1  0.034927  0.543358  0.675842  1
  Rb  Rb38  1  0.450107  0.644699  0.941320  1
  Rb  Rb39  1  0.127958  0.747143  0.582897  1
  Rb  Rb40  1  0.465073  0.043358  0.324158  1
  Rb  Rb41  1  0.049893  0.144699  0.058680  1
  Rb  Rb42  1  0.876768  0.893971  0.370538  1
  Rb  Rb43  1  0.549893  0.355301  0.058680  1
  Rb  Rb44  1  0.116742  0.087457  0.424372  1
  Rb  Rb45  1  0.729607  0.664292  0.281451  1
  Rb  Rb46  1  0.116742  0.587457  0.075628  1
  Rb  Rb47  1  0.465073  0.543358  0.175842  1
  As  As48  1  0.785520  0.225358  0.042656  1
  As  As49  1  0.050804  0.882588  0.700087  1
  As  As50  1  0.127858  0.364400  0.044931  1
  As  As51  1  0.282865  0.907501  0.406091  1
  As  As52  1  0.627858  0.135600  0.044931  1
  As  As53  1  0.872142  0.135600  0.544931  1
  As  As54  1  0.630586  0.369739  0.185596  1
  As  As55  1  0.782865  0.092499  0.093909  1
  As  As56  1  0.214480  0.274642  0.542656  1
  As  As57  1  0.704892  0.935011  0.240312  1
  As  As58  1  0.363197  0.506409  0.042383  1
  As  As59  1  0.217135  0.407501  0.593909  1
  As  As60  1  0.865530  0.692141  0.534781  1
  As  As61  1  0.137876  0.445386  0.970134  1
  As  As62  1  0.228188  0.684351  0.186249  1
  As  As63  1  0.295108  0.064989  0.759688  1
  As  As64  1  0.934737  0.259628  0.812781  1
  As  As65  1  0.999618  0.293600  0.724343  1
  As  As66  1  0.565263  0.759628  0.187219  1
  As  As67  1  0.816823  0.547252  0.541447  1
  As  As68  1  0.728188  0.315649  0.313751  1
  As  As69  1  0.634470  0.192141  0.465219  1
  As  As70  1  0.499618  0.206400  0.724343  1
  As  As71  1  0.130586  0.130261  0.185596  1
  As  As72  1  0.449196  0.382588  0.299913  1
  As  As73  1  0.714480  0.225358  0.542656  1
  As  As74  1  0.183177  0.952748  0.041447  1
  As  As75  1  0.204892  0.564989  0.240312  1
  As  As76  1  0.999618  0.793600  0.775657  1
  As  As77  1  0.795108  0.935011  0.740312  1
  As  As78  1  0.127858  0.864400  0.455069  1
  As  As79  1  0.782865  0.592499  0.406091  1
  As  As80  1  0.714480  0.725358  0.957344  1
  As  As81  1  0.636803  0.493591  0.957617  1
  As  As82  1  0.949196  0.117412  0.299913  1
  As  As83  1  0.863197  0.493591  0.457617  1
  As  As84  1  0.499618  0.706400  0.775657  1
  As  As85  1  0.934737  0.759628  0.687219  1
  As  As86  1  0.434737  0.240372  0.812781  1
  As  As87  1  0.869414  0.369739  0.685596  1
  As  As88  1  0.271812  0.184351  0.813751  1
  As  As89  1  0.862124  0.554614  0.029866  1
  As  As90  1  0.065263  0.740372  0.187219  1
  As  As91  1  0.000382  0.206400  0.224343  1
  As  As92  1  0.863197  0.993591  0.042383  1
  As  As93  1  0.683177  0.547252  0.041447  1
  As  As94  1  0.500382  0.293600  0.224343  1
  As  As95  1  0.217135  0.907501  0.906091  1
  As  As96  1  0.228188  0.184351  0.313751  1
  As  As97  1  0.785520  0.725358  0.457344  1
  As  As98  1  0.565263  0.259628  0.312781  1
  As  As99  1  0.634470  0.692141  0.034781  1
  As  As100  1  0.369414  0.130261  0.685596  1
  As  As101  1  0.057548  0.002451  0.298024  1
  As  As102  1  0.363197  0.006409  0.457617  1
  As  As103  1  0.050804  0.382588  0.799913  1
  As  As104  1  0.683177  0.047252  0.458553  1
  As  As105  1  0.057548  0.502451  0.201976  1
  As  As106  1  0.771812  0.815649  0.686249  1
  As  As107  1  0.442452  0.502451  0.701976  1
  As  As108  1  0.183177  0.452748  0.458553  1
  As  As109  1  0.214480  0.774642  0.957344  1
  As  As110  1  0.372142  0.364400  0.544931  1
  As  As111  1  0.000382  0.706400  0.275657  1
  As  As112  1  0.362124  0.445386  0.470134  1
  As  As113  1  0.550804  0.117412  0.799913  1
  As  As114  1  0.717135  0.092499  0.593909  1
  As  As115  1  0.271812  0.684351  0.686249  1
  As  As116  1  0.637876  0.054614  0.970134  1
  As  As117  1  0.630586  0.869739  0.314404  1
  As  As118  1  0.942452  0.997549  0.701976  1
  As  As119  1  0.285520  0.774642  0.457344  1
  As  As120  1  0.365530  0.307859  0.965219  1
  As  As121  1  0.136803  0.006409  0.957617  1
  As  As122  1  0.065263  0.240372  0.312781  1
  As  As123  1  0.365530  0.807859  0.534781  1
  As  As124  1  0.295108  0.564989  0.740312  1
  As  As125  1  0.704892  0.435011  0.259688  1
  As  As126  1  0.862124  0.054614  0.470134  1
  As  As127  1  0.204892  0.064989  0.259688  1
  As  As128  1  0.134470  0.307859  0.465219  1
  As  As129  1  0.637876  0.554614  0.529866  1
  As  As130  1  0.136803  0.506409  0.542383  1
  As  As131  1  0.500382  0.793600  0.275657  1
  As  As132  1  0.557548  0.997549  0.201976  1
  As  As133  1  0.865530  0.192141  0.965219  1
  As  As134  1  0.869414  0.869739  0.814404  1
  As  As135  1  0.717135  0.592499  0.906091  1
  As  As136  1  0.442452  0.002451  0.798024  1
  As  As137  1  0.636803  0.993591  0.542383  1
  As  As138  1  0.949196  0.617412  0.200087  1
  As  As139  1  0.627858  0.635600  0.455069  1
  As  As140  1  0.550804  0.617412  0.700087  1
  As  As141  1  0.771812  0.315649  0.813751  1
  As  As142  1  0.316823  0.452748  0.958553  1
  As  As143  1  0.137876  0.945386  0.529866  1
  As  As144  1  0.449196  0.882588  0.200087  1
  As  As145  1  0.795108  0.435011  0.759688  1
  As  As146  1  0.942452  0.497549  0.798024  1
  As  As147  1  0.134470  0.807859  0.034781  1
  As  As148  1  0.130586  0.630261  0.314404  1
  As  As149  1  0.316823  0.952748  0.541447  1
  As  As150  1  0.372142  0.864400  0.955069  1
  As  As151  1  0.728188  0.815649  0.186249  1
  As  As152  1  0.434737  0.740372  0.687219  1
  As  As153  1  0.282865  0.407501  0.093909  1
  As  As154  1  0.816823  0.047252  0.958553  1
  As  As155  1  0.557548  0.497549  0.298024  1
  As  As156  1  0.872142  0.635600  0.955069  1
  As  As157  1  0.362124  0.945386  0.029866  1
  As  As158  1  0.285520  0.274642  0.042656  1
  As  As159  1  0.369414  0.630261  0.814404  1
