# generated using pymatgen
data_KAuC2(SN)2
_symmetry_space_group_name_H-M   'P 1'
_cell_length_a   6.10429869
_cell_length_b   7.34684360
_cell_length_c   17.20635292
_cell_angle_alpha   84.68194258
_cell_angle_beta   79.78252256
_cell_angle_gamma   65.45317218
_symmetry_Int_Tables_number   1
_chemical_formula_structural   KAuC2(SN)2
_chemical_formula_sum   'K4 Au4 C8 S8 N8'
_cell_volume   690.63117096
_cell_formula_units_Z   4
loop_
 _symmetry_equiv_pos_site_id
 _symmetry_equiv_pos_as_xyz
  1  'x, y, z'
loop_
 _atom_site_type_symbol
 _atom_site_label
 _atom_site_symmetry_multiplicity
 _atom_site_fract_x
 _atom_site_fract_y
 _atom_site_fract_z
 _atom_site_occupancy
  K  K0  1  0.190090  0.714683  0.948046  1
  K  K1  1  0.809910  0.285317  0.051954  1
  K  K2  1  0.147181  0.214683  0.448046  1
  K  K3  1  0.852819  0.785317  0.551954  1
  Au  Au4  1  0.823547  0.750000  0.250000  1
  Au  Au5  1  0.674293  0.250000  0.750000  1
  Au  Au6  1  0.325707  0.750000  0.250000  1
  Au  Au7  1  0.176453  0.250000  0.750000  1
  C  C8  1  0.716614  0.090242  0.365171  1
  C  C9  1  0.827974  0.590242  0.865171  1
  C  C10  1  0.283386  0.909758  0.634829  1
  C  C11  1  0.449243  0.389567  0.588441  1
  C  C12  1  0.572749  0.889567  0.088441  1
  C  C13  1  0.172026  0.409758  0.134829  1
  C  C14  1  0.550757  0.610433  0.411559  1
  C  C15  1  0.427251  0.110433  0.911559  1
  S  S16  1  0.702746  0.369829  0.617842  1
  S  S17  1  0.309583  0.869829  0.117842  1
  S  S18  1  0.994320  0.405378  0.219371  1
  S  S19  1  0.297254  0.630171  0.382158  1
  S  S20  1  0.690417  0.130171  0.882158  1
  S  S21  1  0.380932  0.905378  0.719371  1
  S  S22  1  0.619068  0.094622  0.280629  1
  S  S23  1  0.005680  0.594622  0.780629  1
  N  N24  1  0.727493  0.592858  0.435959  1
  N  N25  1  0.293575  0.407445  0.072803  1
  N  N26  1  0.706425  0.592555  0.927197  1
  N  N27  1  0.773823  0.092555  0.427197  1
  N  N28  1  0.756310  0.907142  0.064041  1
  N  N29  1  0.272507  0.407142  0.564041  1
  N  N30  1  0.226177  0.907445  0.572803  1
  N  N31  1  0.243690  0.092858  0.935959  1
