# generated using pymatgen
data_Yb2MnS4
_symmetry_space_group_name_H-M   'P 1'
_cell_length_a   7.19830608
_cell_length_b   7.19830595
_cell_length_c   7.19830570
_cell_angle_alpha   114.13038899
_cell_angle_beta   114.13038882
_cell_angle_gamma   100.50788105
_symmetry_Int_Tables_number   1
_chemical_formula_structural   Yb2MnS4
_chemical_formula_sum   'Yb4 Mn2 S8'
_cell_volume   281.97319823
_cell_formula_units_Z   2
loop_
 _symmetry_equiv_pos_site_id
 _symmetry_equiv_pos_as_xyz
  1  'x, y, z'
loop_
 _atom_site_type_symbol
 _atom_site_label
 _atom_site_symmetry_multiplicity
 _atom_site_fract_x
 _atom_site_fract_y
 _atom_site_fract_z
 _atom_site_occupancy
  Yb  Yb0  1  0.123305  0.750000  0.873305  1
  Yb  Yb1  1  0.250000  0.623305  0.373305  1
  Yb  Yb2  1  0.376695  0.250000  0.626695  1
  Yb  Yb3  1  0.750000  0.876695  0.126695  1
  Mn  Mn4  1  0.625000  0.375000  0.250000  1
  Mn  Mn5  1  0.875000  0.125000  0.750000  1
  S  S6  1  0.016136  0.912610  0.548712  1
  S  S7  1  0.967423  0.363898  0.451288  1
  S  S8  1  0.087390  0.136102  0.103526  1
  S  S9  1  0.532577  0.983864  0.396474  1
  S  S10  1  0.412610  0.516136  0.048712  1
  S  S11  1  0.636102  0.587390  0.603526  1
  S  S12  1  0.483864  0.032577  0.896474  1
  S  S13  1  0.863898  0.467423  0.951288  1
