# generated using pymatgen
data_K5Ag(NO)2
_symmetry_space_group_name_H-M   'P 1'
_cell_length_a   6.91904872
_cell_length_b   13.95477616
_cell_length_c   5.23977189
_cell_angle_alpha   90.06219100
_cell_angle_beta   89.84446817
_cell_angle_gamma   90.00330970
_symmetry_Int_Tables_number   1
_chemical_formula_structural   K5Ag(NO)2
_chemical_formula_sum   'K10 Ag2 N4 O4'
_cell_volume   505.91759893
_cell_formula_units_Z   2
loop_
 _symmetry_equiv_pos_site_id
 _symmetry_equiv_pos_as_xyz
  1  'x, y, z'
loop_
 _atom_site_type_symbol
 _atom_site_label
 _atom_site_symmetry_multiplicity
 _atom_site_fract_x
 _atom_site_fract_y
 _atom_site_fract_z
 _atom_site_occupancy
  K  K0  1  0.838675  0.287953  0.986984  1
  K  K1  1  0.152532  0.717999  0.988857  1
  K  K2  1  0.347002  0.217776  0.012056  1
  K  K3  1  0.661272  0.787903  0.012920  1
  K  K4  1  0.721821  0.122632  0.500105  1
  K  K5  1  0.267220  0.880883  0.503149  1
  K  K6  1  0.233377  0.380856  0.496619  1
  K  K7  1  0.777945  0.622333  0.499891  1
  K  K8  1  0.502840  0.497590  0.030072  1
  K  K9  1  0.997190  0.997673  0.966866  1
  Ag  Ag10  1  0.499476  0.001505  0.003227  1
  Ag  Ag11  1  -0.000208  0.502136  0.996683  1
  N  N12  1  0.155026  0.143622  0.512265  1
  N  N13  1  0.858467  0.846122  0.527332  1
  N  N14  1  0.641503  0.346276  0.473196  1
  N  N15  1  0.345446  0.643536  0.489899  1
  O  O16  1  0.684299  0.116404  0.000102  1
  O  O17  1  0.319293  0.885424  0.005722  1
  O  O18  1  0.180931  0.385173  0.994332  1
  O  O19  1  0.815892  0.616203  -0.000277  1
