# generated using pymatgen
data_TlNO3
_symmetry_space_group_name_H-M   'P 1'
_cell_length_a   7.08878426
_cell_length_b   9.18764775
_cell_length_c   11.44303711
_cell_angle_alpha   90.00000000
_cell_angle_beta   90.00000000
_cell_angle_gamma   90.00000000
_symmetry_Int_Tables_number   1
_chemical_formula_structural   TlNO3
_chemical_formula_sum   'Tl8 N8 O24'
_cell_volume   745.27645624
_cell_formula_units_Z   8
loop_
 _symmetry_equiv_pos_site_id
 _symmetry_equiv_pos_as_xyz
  1  'x, y, z'
loop_
 _atom_site_type_symbol
 _atom_site_label
 _atom_site_symmetry_multiplicity
 _atom_site_fract_x
 _atom_site_fract_y
 _atom_site_fract_z
 _atom_site_occupancy
  Tl  Tl0  1  0.205105  0.560953  0.628476  1
  Tl  Tl1  1  0.794895  0.060953  0.371524  1
  Tl  Tl2  1  0.294895  0.560953  0.128476  1
  Tl  Tl3  1  0.794895  0.439047  0.371524  1
  Tl  Tl4  1  0.705105  0.060953  0.871524  1
  Tl  Tl5  1  0.705105  0.439047  0.871524  1
  Tl  Tl6  1  0.294895  0.939047  0.128476  1
  Tl  Tl7  1  0.205105  0.939047  0.628476  1
  N  N8  1  0.269546  0.250000  0.621265  1
  N  N9  1  0.730454  0.750000  0.378735  1
  N  N10  1  0.769546  0.750000  0.878735  1
  N  N11  1  0.230454  0.250000  0.121265  1
  N  N12  1  0.726104  0.750000  0.641164  1
  N  N13  1  0.226104  0.250000  0.858836  1
  N  N14  1  0.273896  0.250000  0.358836  1
  N  N15  1  0.773896  0.750000  0.141164  1
  O  O16  1  0.076806  0.250000  0.080595  1
  O  O17  1  0.675844  0.250000  0.072736  1
  O  O18  1  0.814348  0.870739  0.633299  1
  O  O19  1  0.175844  0.750000  0.427264  1
  O  O20  1  0.782677  0.250000  0.166633  1
  O  O21  1  0.314348  0.129261  0.866701  1
  O  O22  1  0.814348  0.629261  0.633299  1
  O  O23  1  0.185652  0.370739  0.366701  1
  O  O24  1  0.549827  0.750000  0.656464  1
  O  O25  1  0.185652  0.129261  0.366701  1
  O  O26  1  0.314348  0.370739  0.866701  1
  O  O27  1  0.324156  0.750000  0.927264  1
  O  O28  1  0.217323  0.750000  0.833367  1
  O  O29  1  0.923194  0.750000  0.919405  1
  O  O30  1  0.685652  0.870739  0.133299  1
  O  O31  1  0.423194  0.250000  0.580595  1
  O  O32  1  0.450173  0.250000  0.343536  1
  O  O33  1  0.049827  0.250000  0.843536  1
  O  O34  1  0.950173  0.750000  0.156464  1
  O  O35  1  0.685652  0.629261  0.133299  1
  O  O36  1  0.824156  0.250000  0.572736  1
  O  O37  1  0.717323  0.250000  0.666633  1
  O  O38  1  0.576806  0.750000  0.419405  1
  O  O39  1  0.282677  0.750000  0.333367  1
