# generated using pymatgen
data_Ga2CoO4
_symmetry_space_group_name_H-M   'P 1'
_cell_length_a   5.96031599
_cell_length_b   5.96031599
_cell_length_c   23.72615269
_cell_angle_alpha   60.21171129
_cell_angle_beta   60.21171134
_cell_angle_gamma   60.25195914
_symmetry_Int_Tables_number   1
_chemical_formula_structural   Ga2CoO4
_chemical_formula_sum   'Ga16 Co8 O32'
_cell_volume   599.04394937
_cell_formula_units_Z   8
loop_
 _symmetry_equiv_pos_site_id
 _symmetry_equiv_pos_as_xyz
  1  'x, y, z'
loop_
 _atom_site_type_symbol
 _atom_site_label
 _atom_site_symmetry_multiplicity
 _atom_site_fract_x
 _atom_site_fract_y
 _atom_site_fract_z
 _atom_site_occupancy
  Ga  Ga0  1  0.120214  0.120214  0.030603  1
  Ga  Ga1  1  0.995301  0.500963  0.126255  1
  Ga  Ga2  1  0.116412  0.116412  0.283573  1
  Ga  Ga3  1  0.502617  0.502617  0.998044  1
  Ga  Ga4  1  0.500963  0.995301  0.126255  1
  Ga  Ga5  1  0.996574  0.500934  0.374910  1
  Ga  Ga6  1  0.500934  0.996574  0.374910  1
  Ga  Ga7  1  0.120295  0.120295  0.530287  1
  Ga  Ga8  1  0.992648  0.502990  0.625273  1
  Ga  Ga9  1  0.502990  0.992648  0.625273  1
  Ga  Ga10  1  0.881404  0.881404  0.217958  1
  Ga  Ga11  1  0.503321  0.503321  0.497380  1
  Ga  Ga12  1  0.120140  0.120140  0.780392  1
  Ga  Ga13  1  0.992510  0.502512  0.875557  1
  Ga  Ga14  1  0.502795  0.502795  0.747893  1
  Ga  Ga15  1  0.502512  0.992510  0.875557  1
  Co  Co16  1  0.498766  0.498766  0.127448  1
  Co  Co17  1  0.499169  0.499169  0.250405  1
  Co  Co18  1  0.501885  0.501885  0.373432  1
  Co  Co19  1  0.501891  0.501891  0.625059  1
  Co  Co20  1  0.880082  0.880082  0.467619  1
  Co  Co21  1  0.501573  0.501573  0.875330  1
  Co  Co22  1  0.878607  0.878607  0.718840  1
  Co  Co23  1  0.876955  0.876955  0.970187  1
  O  O24  1  0.257408  0.257408  0.063326  1
  O  O25  1  0.250062  0.250062  0.183227  1
  O  O26  1  0.253520  0.727780  0.063371  1
  O  O27  1  0.727780  0.253520  0.063371  1
  O  O28  1  0.265298  0.759759  0.184594  1
  O  O29  1  0.248895  0.248895  0.316556  1
  O  O30  1  0.743658  0.743658  0.073328  1
  O  O31  1  0.759759  0.265298  0.184594  1
  O  O32  1  0.240940  0.731605  0.315797  1
  O  O33  1  0.250004  0.250004  0.432780  1
  O  O34  1  0.751668  0.751668  0.184255  1
  O  O35  1  0.731605  0.240940  0.315797  1
  O  O36  1  0.255813  0.255813  0.563909  1
  O  O37  1  0.286549  0.745055  0.434898  1
  O  O38  1  0.752004  0.752004  0.314809  1
  O  O39  1  0.252492  0.252492  0.682160  1
  O  O40  1  0.251212  0.728025  0.562847  1
  O  O41  1  0.745055  0.286549  0.434898  1
  O  O42  1  0.739710  0.739710  0.434323  1
  O  O43  1  0.728025  0.251212  0.562847  1
  O  O44  1  0.283036  0.746546  0.686441  1
  O  O45  1  0.255581  0.255581  0.813971  1
  O  O46  1  0.746546  0.283036  0.686441  1
  O  O47  1  0.746121  0.746121  0.569821  1
  O  O48  1  0.252405  0.252405  0.932176  1
  O  O49  1  0.250972  0.728252  0.813077  1
  O  O50  1  0.728252  0.250972  0.813077  1
  O  O51  1  0.740603  0.740603  0.685190  1
  O  O52  1  0.281915  0.746720  0.936778  1
  O  O53  1  0.746720  0.281915  0.936778  1
  O  O54  1  0.745160  0.745160  0.820617  1
  O  O55  1  0.740678  0.740678  0.935501  1
