# generated using pymatgen
data_Ba7Na3Ti7Nb3O30
_symmetry_space_group_name_H-M   'P 1'
_cell_length_a   4.02851346
_cell_length_b   8.05673516
_cell_length_c   20.17327144
_cell_angle_alpha   90.02761251
_cell_angle_beta   90.00000000
_cell_angle_gamma   90.00000000
_symmetry_Int_Tables_number   1
_chemical_formula_structural   Ba7Na3Ti7Nb3O30
_chemical_formula_sum   'Ba7 Na3 Ti7 Nb3 O30'
_cell_volume   654.75705844
_cell_formula_units_Z   1
loop_
 _symmetry_equiv_pos_site_id
 _symmetry_equiv_pos_as_xyz
  1  'x, y, z'
loop_
 _atom_site_type_symbol
 _atom_site_label
 _atom_site_symmetry_multiplicity
 _atom_site_fract_x
 _atom_site_fract_y
 _atom_site_fract_z
 _atom_site_occupancy
  Ba  Ba0  1  0.000000  0.497395  0.004510  1
  Ba  Ba1  1  0.000000  0.498349  0.198489  1
  Ba  Ba2  1  0.000000  0.498566  0.399513  1
  Ba  Ba3  1  0.000000  0.001727  0.198795  1
  Ba  Ba4  1  0.000000  0.001444  0.399502  1
  Ba  Ba5  1  0.000000  0.494480  0.599651  1
  Ba  Ba6  1  0.000000  0.005513  0.599670  1
  Na  Na7  1  0.000000  0.001988  0.003656  1
  Na  Na8  1  0.000000  0.494799  0.798491  1
  Na  Na9  1  0.000000  0.005386  0.798299  1
  Ti  Ti10  1  0.500000  0.242258  0.097279  1
  Ti  Ti11  1  0.500000  0.750116  0.298606  1
  Ti  Ti12  1  0.500000  0.249915  0.298789  1
  Ti  Ti13  1  0.500000  0.756249  0.100249  1
  Ti  Ti14  1  0.500000  0.249975  0.500061  1
  Ti  Ti15  1  0.500000  0.249942  0.703246  1
  Ti  Ti16  1  0.500000  0.750020  0.497589  1
  Nb  Nb17  1  0.500000  0.750024  0.703314  1
  Nb  Nb18  1  0.500000  0.247291  0.896694  1
  Nb  Nb19  1  0.500000  0.754278  0.901225  1
  O  O20  1  0.000000  0.248294  0.099518  1
  O  O21  1  0.000000  0.249940  0.300067  1
  O  O22  1  0.000000  0.751731  0.099174  1
  O  O23  1  0.000000  0.750071  0.300093  1
  O  O24  1  0.000000  0.249256  0.899646  1
  O  O25  1  0.000000  0.750515  0.898990  1
  O  O26  1  0.500000  0.250058  0.999797  1
  O  O27  1  0.500000  0.248883  0.200462  1
  O  O28  1  0.500000  0.500959  0.098973  1
  O  O29  1  0.500000  0.750375  0.999162  1
  O  O30  1  0.500000  0.501114  0.300065  1
  O  O31  1  0.500000  0.500261  0.500109  1
  O  O32  1  0.500000  0.000877  0.701053  1
  O  O33  1  0.500000  0.751098  0.199799  1
  O  O34  1  0.500000  0.750023  0.400969  1
  O  O35  1  0.500000  0.999440  0.099840  1
  O  O36  1  0.500000  0.998883  0.300134  1
  O  O37  1  0.500000  0.249971  0.400184  1
  O  O38  1  0.500000  0.250025  0.599816  1
  O  O39  1  0.500000  0.499088  0.701146  1
  O  O40  1  0.500000  0.499716  0.899693  1
  O  O41  1  0.500000  0.749989  0.601327  1
  O  O42  1  0.500000  0.750675  0.800812  1
  O  O43  1  0.500000  -0.000251  0.500110  1
  O  O44  1  0.500000  0.249057  0.800182  1
  O  O45  1  0.500000  0.000220  0.898890  1
  O  O46  1  0.000000  0.249999  0.499915  1
  O  O47  1  0.000000  0.250022  0.701091  1
  O  O48  1  0.000000  0.750007  0.500261  1
  O  O49  1  0.000000  0.749987  0.701094  1
