# generated using pymatgen
data_V2Cu3Pb(ClO4)2
_symmetry_space_group_name_H-M   'P 1'
_cell_length_a   8.87243444
_cell_length_b   8.87243419
_cell_length_c   8.87243446
_cell_angle_alpha   104.98033156
_cell_angle_beta   113.70882510
_cell_angle_gamma   109.84177336
_symmetry_Int_Tables_number   1
_chemical_formula_structural   V2Cu3Pb(ClO4)2
_chemical_formula_sum   'V4 Cu6 Pb2 Cl4 O16'
_cell_volume   534.54274060
_cell_formula_units_Z   2
loop_
 _symmetry_equiv_pos_site_id
 _symmetry_equiv_pos_as_xyz
  1  'x, y, z'
loop_
 _atom_site_type_symbol
 _atom_site_label
 _atom_site_symmetry_multiplicity
 _atom_site_fract_x
 _atom_site_fract_y
 _atom_site_fract_z
 _atom_site_occupancy
  V  V0  1  0.250000  0.812888  0.062888  1
  V  V1  1  0.750000  0.812888  0.562888  1
  V  V2  1  0.750000  0.187112  0.937112  1
  V  V3  1  0.250000  0.187112  0.437112  1
  Cu  Cu4  1  0.000000  0.000000  0.000000  1
  Cu  Cu5  1  0.700818  0.439804  0.738986  1
  Cu  Cu6  1  0.299182  0.560196  0.261014  1
  Cu  Cu7  1  0.200818  0.961832  0.761014  1
  Cu  Cu8  1  0.500000  0.000000  0.500000  1
  Cu  Cu9  1  0.799182  0.038168  0.238986  1
  Pb  Pb10  1  0.250000  0.500000  0.750000  1
  Pb  Pb11  1  0.750000  0.500000  0.250000  1
  Cl  Cl12  1  0.663109  0.739090  0.075981  1
  Cl  Cl13  1  0.836891  0.412873  0.575981  1
  Cl  Cl14  1  0.336891  0.260910  0.924019  1
  Cl  Cl15  1  0.163109  0.587127  0.424019  1
  O  O16  1  0.446781  0.395867  0.622738  1
  O  O17  1  0.045516  0.818794  0.037389  1
  O  O18  1  0.781406  0.818794  0.773279  1
  O  O19  1  0.553219  0.604133  0.377262  1
  O  O20  1  0.053219  0.175957  0.449086  1
  O  O21  1  0.954484  0.181206  0.962611  1
  O  O22  1  0.226872  0.604133  0.050914  1
  O  O23  1  0.718594  0.991873  0.537389  1
  O  O24  1  0.726872  0.175957  0.122738  1
  O  O25  1  0.545516  0.008127  0.726721  1
  O  O26  1  0.946781  0.824043  0.550914  1
  O  O27  1  0.273128  0.824043  0.877262  1
  O  O28  1  0.454484  0.991873  0.273279  1
  O  O29  1  0.773128  0.395867  0.949086  1
  O  O30  1  0.218594  0.181206  0.226721  1
  O  O31  1  0.281406  0.008127  0.462611  1
