# generated using pymatgen
data_Na3NO2
_symmetry_space_group_name_H-M   'P 1'
_cell_length_a   9.36768233
_cell_length_b   6.46950701
_cell_length_c   6.46950701
_cell_angle_alpha   90.00000000
_cell_angle_beta   90.00000000
_cell_angle_gamma   90.00000000
_symmetry_Int_Tables_number   1
_chemical_formula_structural   Na3NO2
_chemical_formula_sum   'Na12 N4 O8'
_cell_volume   392.07985636
_cell_formula_units_Z   4
loop_
 _symmetry_equiv_pos_site_id
 _symmetry_equiv_pos_as_xyz
  1  'x, y, z'
loop_
 _atom_site_type_symbol
 _atom_site_label
 _atom_site_symmetry_multiplicity
 _atom_site_fract_x
 _atom_site_fract_y
 _atom_site_fract_z
 _atom_site_occupancy
  Na  Na0  1  0.000000  0.000000  0.000000  1
  Na  Na1  1  0.252311  0.238182  0.261818  1
  Na  Na2  1  0.247689  0.261818  0.761818  1
  Na  Na3  1  0.247689  0.738182  0.238182  1
  Na  Na4  1  0.252311  0.761818  0.738182  1
  Na  Na5  1  0.500000  0.000000  0.000000  1
  Na  Na6  1  0.500000  0.500000  0.500000  1
  Na  Na7  1  0.747689  0.238182  0.261818  1
  Na  Na8  1  0.752311  0.261818  0.761818  1
  Na  Na9  1  0.752311  0.738182  0.238182  1
  Na  Na10  1  0.747689  0.761818  0.738182  1
  Na  Na11  1  0.000000  0.500000  0.500000  1
  N  N12  1  0.385567  0.500000  0.000000  1
  N  N13  1  0.114433  0.000000  0.500000  1
  N  N14  1  0.885567  0.000000  0.500000  1
  N  N15  1  0.614433  0.500000  0.000000  1
  O  O16  1  0.000000  0.114570  0.614570  1
  O  O17  1  0.250000  0.500000  0.500000  1
  O  O18  1  0.250000  0.000000  0.000000  1
  O  O19  1  0.500000  0.385430  0.114570  1
  O  O20  1  0.500000  0.614570  0.885430  1
  O  O21  1  0.750000  0.000000  0.000000  1
  O  O22  1  0.750000  0.500000  0.500000  1
  O  O23  1  0.000000  0.885430  0.385430  1
