# generated using pymatgen
data_Ba(Hf2As3)6
_symmetry_space_group_name_H-M   'P 1'
_cell_length_a   10.09083003
_cell_length_b   10.26706486
_cell_length_c   17.66162389
_cell_angle_alpha   75.46589778
_cell_angle_beta   110.89404632
_cell_angle_gamma   118.71238141
_symmetry_Int_Tables_number   1
_chemical_formula_structural   Ba(Hf2As3)6
_chemical_formula_sum   'Ba2 Hf24 As36'
_cell_volume   1492.18739343
_cell_formula_units_Z   2
loop_
 _symmetry_equiv_pos_site_id
 _symmetry_equiv_pos_as_xyz
  1  'x, y, z'
loop_
 _atom_site_type_symbol
 _atom_site_label
 _atom_site_symmetry_multiplicity
 _atom_site_fract_x
 _atom_site_fract_y
 _atom_site_fract_z
 _atom_site_occupancy
  Ba  Ba0  1  0.093059  0.937212  0.521992  1
  Ba  Ba1  1  0.065308  0.918932  0.017268  1
  Hf  Hf2  1  0.237527  0.948670  0.284703  1
  Hf  Hf3  1  0.001737  0.741142  0.814571  1
  Hf  Hf4  1  0.169001  0.461027  0.451426  1
  Hf  Hf5  1  0.192581  0.462850  0.924477  1
  Hf  Hf6  1  0.402129  0.955647  0.898230  1
  Hf  Hf7  1  0.555038  0.746568  0.490855  1
  Hf  Hf8  1  0.096593  0.195327  0.310915  1
  Hf  Hf9  1  0.290317  0.257396  0.860037  1
  Hf  Hf10  1  0.455621  0.504747  0.319768  1
  Hf  Hf11  1  0.610435  0.624808  0.960173  1
  Hf  Hf12  1  0.722911  0.913285  0.316182  1
  Hf  Hf13  1  0.699621  -0.022967  0.850885  1
  Hf  Hf14  1  0.298128  0.288206  0.163681  1
  Hf  Hf15  1  0.384528  0.258408  0.693033  1
  Hf  Hf16  1  0.576391  0.331439  0.100650  1
  Hf  Hf17  1  0.628219  0.450086  0.542859  1
  Hf  Hf18  1  0.699498  0.717024  0.156773  1
  Hf  Hf19  1  0.589628  0.729470  0.685114  1
  Hf  Hf20  1  0.535514  -0.027745  0.099975  1
  Hf  Hf21  1  0.756725  0.270848  0.717965  1
  Hf  Hf22  1  0.929191  0.454053  0.233540  1
  Hf  Hf23  1  0.008965  0.508919  0.623276  1
  Hf  Hf24  1  0.907148  0.104743  0.129782  1
  Hf  Hf25  1  0.969718  0.131449  0.698324  1
  As  As26  1  0.366174  0.063495  0.165898  1
  As  As27  1  0.476892  0.162228  0.599787  1
  As  As28  1  0.312801  0.687559  0.332255  1
  As  As29  1  0.305896  0.714427  0.667152  1
  As  As30  1  0.057863  0.251285  0.022953  1
  As  As31  1  0.047821  0.305072  0.572226  1
  As  As32  1  0.147613  0.419290  0.195070  1
  As  As33  1  0.166410  0.419689  0.754201  1
  As  As34  1  0.197361  0.709250  0.959347  1
  As  As35  1  0.299493  0.752804  0.521086  1
  As  As36  1  0.321487  0.309416  0.442430  1
  As  As37  1  0.184857  0.019892  0.764829  1
  As  As38  1  0.511304  0.477713  0.792204  1
  As  As39  1  0.430983  0.519157  0.060207  1
  As  As40  1  0.427715  0.500512  0.584441  1
  As  As41  1  0.722383  0.672972  0.427199  1
  As  As42  1  0.663610  0.895682  0.009740  1
  As  As43  1  0.805725  0.918686  0.591608  1
  As  As44  1  0.394200  0.213770  0.336474  1
  As  As45  1  0.414849  0.130145  0.985562  1
  As  As46  1  0.631978  0.448171  0.245774  1
  As  As47  1  0.754802  0.510890  0.908070  1
  As  As48  1  0.944535  0.912987  0.267494  1
  As  As49  1  0.791143  0.785581  0.842703  1
  As  As50  1  0.522721  -0.048975  0.368304  1
  As  As51  1  0.593359  0.182309  0.822519  1
  As  As52  1  0.839991  0.609523  0.095239  1
  As  As53  1  0.836128  0.672086  0.646076  1
  As  As54  1  0.746386  0.170023  0.209089  1
  As  As55  1  0.765530  0.271813  0.055307  1
  As  As56  1  0.483924  0.739650  0.204698  1
  As  As57  1  0.648852  0.005210  0.684725  1
  As  As58  1  0.053234  0.650566  0.344638  1
  As  As59  1  0.984729  0.505151  0.783166  1
  As  As60  1  0.902676  0.218923  0.374544  1
  As  As61  1  -0.007556  0.164611  0.859533  1
