# generated using pymatgen
data_Sr5La5Cu(NiO5)4
_symmetry_space_group_name_H-M   'P 1'
_cell_length_a   19.32603120
_cell_length_b   8.65338858
_cell_length_c   6.85316326
_cell_angle_alpha   112.30009225
_cell_angle_beta   106.43825676
_cell_angle_gamma   26.52498249
_symmetry_Int_Tables_number   1
_chemical_formula_structural   Sr5La5Cu(NiO5)4
_chemical_formula_sum   'Sr5 La5 Cu1 Ni4 O20'
_cell_volume   469.09758297
_cell_formula_units_Z   1
loop_
 _symmetry_equiv_pos_site_id
 _symmetry_equiv_pos_as_xyz
  1  'x, y, z'
loop_
 _atom_site_type_symbol
 _atom_site_label
 _atom_site_symmetry_multiplicity
 _atom_site_fract_x
 _atom_site_fract_y
 _atom_site_fract_z
 _atom_site_occupancy
  Sr  Sr0  1  0.129342  0.357660  0.718184  1
  Sr  Sr1  1  0.328867  0.355984  0.717864  1
  Sr  Sr2  1  0.527028  0.363304  0.717543  1
  Sr  Sr3  1  0.727627  0.358786  0.718418  1
  Sr  Sr4  1  0.871640  0.641111  0.285751  1
  La  La5  1  0.072847  0.635764  0.274326  1
  La  La6  1  0.270315  0.647091  0.277394  1
  La  La7  1  0.472535  0.637769  0.279048  1
  La  La8  1  0.671501  0.644163  0.277654  1
  La  La9  1  0.927471  0.363923  0.728256  1
  Cu  Cu10  1  0.000212  0.996943  0.992674  1
  Ni  Ni11  1  0.201332  0.995984  0.993677  1
  Ni  Ni12  1  0.400948  0.996506  0.995687  1
  Ni  Ni13  1  0.599390  0.999202  0.992937  1
  Ni  Ni14  1  0.800374  0.999234  0.000071  1
  O  O15  1  0.099269  0.000920  0.999596  1
  O  O16  1  0.999383  0.503737  0.005201  1
  O  O17  1  0.178311  0.140486  0.326923  1
  O  O18  1  0.302698  0.001915  0.010097  1
  O  O19  1  0.032940  0.835026  0.650403  1
  O  O20  1  0.197905  0.508417  0.016317  1
  O  O21  1  0.372614  0.147324  0.324778  1
  O  O22  1  0.495991  0.006104  0.009626  1
  O  O23  1  0.224797  0.846226  0.654204  1
  O  O24  1  0.399369  0.503603  0.003343  1
  O  O25  1  0.557124  0.179537  0.325427  1
  O  O26  1  0.700802  0.003749  0.003364  1
  O  O27  1  0.434799  0.829345  0.659920  1
  O  O28  1  0.602756  0.496485  0.011292  1
  O  O29  1  0.764626  0.168416  0.320642  1
  O  O30  1  0.896106  0.009022  0.017320  1
  O  O31  1  0.642000  0.818010  0.654815  1
  O  O32  1  0.797656  0.505358  0.000635  1
  O  O33  1  0.965737  0.169339  0.351597  1
  O  O34  1  0.833689  0.833557  0.685014  1
