# generated using pymatgen
data_BaYAgSe3
_symmetry_space_group_name_H-M   'P 1'
_cell_length_a   4.29685098
_cell_length_b   7.48604287
_cell_length_c   10.81311942
_cell_angle_alpha   90.00000000
_cell_angle_beta   90.00000000
_cell_angle_gamma   106.67788555
_symmetry_Int_Tables_number   1
_chemical_formula_structural   BaYAgSe3
_chemical_formula_sum   'Ba2 Y2 Ag2 Se6'
_cell_volume   333.18764451
_cell_formula_units_Z   2
loop_
 _symmetry_equiv_pos_site_id
 _symmetry_equiv_pos_as_xyz
  1  'x, y, z'
loop_
 _atom_site_type_symbol
 _atom_site_label
 _atom_site_symmetry_multiplicity
 _atom_site_fract_x
 _atom_site_fract_y
 _atom_site_fract_z
 _atom_site_occupancy
  Se  Se0  1  0.635456  0.270912  0.550088  1
  Se  Se1  1  0.364544  0.729088  0.449912  1
  Se  Se2  1  0.364544  0.729088  0.050088  1
  Se  Se3  1  0.920411  0.840822  0.750000  1
  Se  Se4  1  0.079589  0.159178  0.250000  1
  Se  Se5  1  0.635456  0.270912  0.949912  1
  Y  Y6  1  0.000000  0.000000  0.000000  1
  Y  Y7  1  0.000000  0.000000  0.500000  1
  Ag  Ag8  1  0.469625  0.939251  0.250000  1
  Ag  Ag9  1  0.530375  0.060749  0.750000  1
  Ba  Ba10  1  0.751246  0.502491  0.250000  1
  Ba  Ba11  1  0.248754  0.497509  0.750000  1
