# generated using pymatgen
data_Sr10Mn5Zn9(AsO)10
_symmetry_space_group_name_H-M   'P 1'
_cell_length_a   26.11306623
_cell_length_b   12.23757196
_cell_length_c   12.19556166
_cell_angle_alpha   44.97477601
_cell_angle_beta   35.73927325
_cell_angle_gamma   25.17880162
_symmetry_Int_Tables_number   1
_chemical_formula_structural   Sr10Mn5Zn9(AsO)10
_chemical_formula_sum   'Sr10 Mn5 Zn9 As10 O10'
_cell_volume   962.66930001
_cell_formula_units_Z   1
loop_
 _symmetry_equiv_pos_site_id
 _symmetry_equiv_pos_as_xyz
  1  'x, y, z'
loop_
 _atom_site_type_symbol
 _atom_site_label
 _atom_site_symmetry_multiplicity
 _atom_site_fract_x
 _atom_site_fract_y
 _atom_site_fract_z
 _atom_site_occupancy
  Sr  Sr0  1  0.495875  0.380897  0.075612  1
  Sr  Sr1  1  0.674703  0.299336  0.171849  1
  Sr  Sr2  1  0.841386  0.436812  0.754683  1
  Sr  Sr3  1  0.684611  0.714695  0.164972  1
  Sr  Sr4  1  0.982948  0.527065  0.839403  1
  Sr  Sr5  1  0.185091  0.063679  0.210584  1
  Sr  Sr6  1  0.142589  0.694268  0.894100  1
  Sr  Sr7  1  0.455415  0.028624  0.080750  1
  Sr  Sr8  1  0.291588  0.642860  0.980399  1
  Sr  Sr9  1  0.359610  0.952471  0.772372  1
  Mn  Mn10  1  0.941068  0.092816  0.177985  1
  Mn  Mn11  1  0.030618  0.189039  0.179056  1
  Mn  Mn12  1  0.582107  0.671782  0.844291  1
  Mn  Mn13  1  0.676932  0.001374  0.819713  1
  Mn  Mn14  1  0.986240  0.673283  0.996848  1
  Zn  Zn15  1  0.076684  0.372558  0.462405  1
  Zn  Zn16  1  0.322149  0.294656  0.374274  1
  Zn  Zn17  1  0.041380  0.885821  0.646166  1
  Zn  Zn18  1  0.484506  0.241145  0.494163  1
  Zn  Zn19  1  0.334327  0.778452  0.575709  1
  Zn  Zn20  1  0.720976  0.053056  0.498936  1
  Zn  Zn21  1  0.830929  0.174907  0.534728  1
  Zn  Zn22  1  0.800886  0.687778  0.392935  1
  Zn  Zn23  1  0.048466  0.659696  0.395964  1
  As  As24  1  0.856964  0.326602  0.544821  1
  As  As25  1  0.051204  0.161832  0.793650  1
  As  As26  1  0.300455  0.409334  0.557816  1
  As  As27  1  0.206052  0.945867  0.499349  1
  As  As28  1  0.478476  0.324976  0.649554  1
  As  As29  1  0.399596  0.907113  0.486819  1
  As  As30  1  0.682847  0.309222  0.534523  1
  As  As31  1  0.716350  0.951987  0.195596  1
  As  As32  1  0.945449  0.642009  0.315380  1
  As  As33  1  0.068473  0.748726  0.489148  1
  O  O34  1  0.928726  0.317132  0.116444  1
  O  O35  1  0.253473  0.843079  0.067454  1
  O  O36  1  0.121829  0.709738  0.125449  1
  O  O37  1  0.603596  0.647269  0.983567  1
  O  O38  1  0.447162  0.258039  0.090432  1
  O  O39  1  0.734783  0.915203  0.934831  1
  O  O40  1  0.442967  0.744400  0.955521  1
  O  O41  1  0.939520  0.967403  0.905905  1
  O  O42  1  0.693987  0.757039  0.919631  1
  O  O43  1  0.087006  0.345960  0.996213  1
