# generated using pymatgen
data_Na3(CoO2)4
_symmetry_space_group_name_H-M   'P 1'
_cell_length_a   11.61722763
_cell_length_b   7.70946483
_cell_length_c   9.09938085
_cell_angle_alpha   43.55825723
_cell_angle_beta   36.92949414
_cell_angle_gamma   19.41983217
_symmetry_Int_Tables_number   1
_chemical_formula_structural   Na3(CoO2)4
_chemical_formula_sum   'Na3 Co4 O8'
_cell_volume   161.05334855
_cell_formula_units_Z   1
loop_
 _symmetry_equiv_pos_site_id
 _symmetry_equiv_pos_as_xyz
  1  'x, y, z'
loop_
 _atom_site_type_symbol
 _atom_site_label
 _atom_site_symmetry_multiplicity
 _atom_site_fract_x
 _atom_site_fract_y
 _atom_site_fract_z
 _atom_site_occupancy
  Na  Na0  1  0.984133  0.530032  0.501263  1
  Na  Na1  1  0.515867  0.469968  0.498737  1
  Na  Na2  1  0.750000  0.500000  0.500000  1
  Co  Co3  1  0.990832  0.005847  0.007095  1
  Co  Co4  1  0.250000  0.000000  0.000000  1
  Co  Co5  1  0.509168  0.994153  0.992905  1
  Co  Co6  1  0.750000  0.000000  0.000000  1
  O  O7  1  0.159404  0.744328  0.191012  1
  O  O8  1  0.084338  0.249711  0.811254  1
  O  O9  1  0.415662  0.750289  0.188746  1
  O  O10  1  0.340596  0.255672  0.808988  1
  O  O11  1  0.688820  0.718688  0.179783  1
  O  O12  1  0.576113  0.268172  0.810297  1
  O  O13  1  0.923887  0.731828  0.189703  1
  O  O14  1  0.811180  0.281312  0.820217  1
