# generated using pymatgen
data_In4(SnO4)3
_symmetry_space_group_name_H-M   'P 1'
_cell_length_a   6.33863223
_cell_length_b   6.30976151
_cell_length_c   12.62128088
_cell_angle_alpha   99.37345427
_cell_angle_beta   99.44980337
_cell_angle_gamma   99.26330257
_symmetry_Int_Tables_number   1
_chemical_formula_structural   In4(SnO4)3
_chemical_formula_sum   'In8 Sn6 O24'
_cell_volume   482.06830174
_cell_formula_units_Z   2
loop_
 _symmetry_equiv_pos_site_id
 _symmetry_equiv_pos_as_xyz
  1  'x, y, z'
loop_
 _atom_site_type_symbol
 _atom_site_label
 _atom_site_symmetry_multiplicity
 _atom_site_fract_x
 _atom_site_fract_y
 _atom_site_fract_z
 _atom_site_occupancy
  In  In0  1  0.136190  0.602957  0.153523  1
  In  In1  1  0.398444  0.690605  0.933464  1
  In  In2  1  0.312093  0.140176  0.802405  1
  In  In3  1  0.394952  0.686700  0.430701  1
  In  In4  1  0.603821  0.309382  0.566840  1
  In  In5  1  0.689295  0.862112  0.198257  1
  In  In6  1  0.865790  0.397624  0.846658  1
  In  In7  1  0.865170  0.396734  0.343425  1
  Sn  Sn8  1  0.135629  0.603788  0.655129  1
  Sn  Sn9  1  0.000564  0.998101  0.499309  1
  Sn  Sn10  1  0.999104  0.998990  0.001027  1
  Sn  Sn11  1  0.314795  0.138347  0.301165  1
  Sn  Sn12  1  0.683820  0.867035  0.699583  1
  Sn  Sn13  1  0.601598  0.314080  0.068196  1
  O  O14  1  0.062202  0.687955  0.957579  1
  O  O15  1  0.097775  0.932176  0.656510  1
  O  O16  1  0.057290  0.682745  0.457895  1
  O  O17  1  0.174156  0.424792  0.783845  1
  O  O18  1  0.096646  0.951691  0.161091  1
  O  O19  1  0.315267  0.099485  0.973787  1
  O  O20  1  0.183051  0.412057  0.290280  1
  O  O21  1  0.424347  0.820019  0.787775  1
  O  O22  1  0.417212  0.589495  0.593763  1
  O  O23  1  0.309376  0.093475  0.465942  1
  O  O24  1  0.417144  0.834105  0.292115  1
  O  O25  1  0.580094  0.414002  0.913578  1
  O  O26  1  0.421536  0.570083  0.090133  1
  O  O27  1  0.587589  0.174837  0.709032  1
  O  O28  1  0.689780  0.906001  0.535623  1
  O  O29  1  0.575657  0.406437  0.408311  1
  O  O30  1  0.567553  0.179807  0.204742  1
  O  O31  1  0.823927  0.594555  0.706553  1
  O  O32  1  0.685634  0.914469  0.030051  1
  O  O33  1  0.907930  0.049546  0.839171  1
  O  O34  1  0.819203  0.571208  0.203544  1
  O  O35  1  0.951763  0.317224  0.551991  1
  O  O36  1  0.904946  0.057703  0.344195  1
  O  O37  1  0.928658  0.309500  0.042813  1
