# generated using pymatgen
data_SiO2
_symmetry_space_group_name_H-M   'P 1'
_cell_length_a   13.04614535
_cell_length_b   13.04614535
_cell_length_c   25.71342475
_cell_angle_alpha   90.00000000
_cell_angle_beta   90.00000000
_cell_angle_gamma   90.00000000
_symmetry_Int_Tables_number   1
_chemical_formula_structural   SiO2
_chemical_formula_sum   'Si64 O128'
_cell_volume   4376.47396635
_cell_formula_units_Z   64
loop_
 _symmetry_equiv_pos_site_id
 _symmetry_equiv_pos_as_xyz
  1  'x, y, z'
loop_
 _atom_site_type_symbol
 _atom_site_label
 _atom_site_symmetry_multiplicity
 _atom_site_fract_x
 _atom_site_fract_y
 _atom_site_fract_z
 _atom_site_occupancy
  Si  Si0  1  0.307086  0.248869  0.903633  1
  Si  Si1  1  0.751131  0.307086  0.403633  1
  Si  Si2  1  0.248869  0.692914  0.403633  1
  Si  Si3  1  0.307086  0.751131  0.096367  1
  Si  Si4  1  0.692914  0.248869  0.096367  1
  Si  Si5  1  0.692914  0.751131  0.903633  1
  Si  Si6  1  0.248869  0.307086  0.596367  1
  Si  Si7  1  0.751131  0.692914  0.596367  1
  Si  Si8  1  0.692914  0.751131  0.096367  1
  Si  Si9  1  0.248869  0.692914  0.596367  1
  Si  Si10  1  0.751131  0.307086  0.596367  1
  Si  Si11  1  0.692914  0.248869  0.903633  1
  Si  Si12  1  0.307086  0.751131  0.903633  1
  Si  Si13  1  0.307086  0.248869  0.096367  1
  Si  Si14  1  0.751131  0.692914  0.403633  1
  Si  Si15  1  0.248869  0.307086  0.403633  1
  Si  Si16  1  0.118536  0.117702  0.061851  1
  Si  Si17  1  0.882298  0.118536  0.561851  1
  Si  Si18  1  0.117702  0.881464  0.561851  1
  Si  Si19  1  0.118536  0.882298  0.938149  1
  Si  Si20  1  0.881464  0.117702  0.938149  1
  Si  Si21  1  0.881464  0.882298  0.061851  1
  Si  Si22  1  0.117702  0.118536  0.438149  1
  Si  Si23  1  0.882298  0.881464  0.438149  1
  Si  Si24  1  0.881464  0.882298  0.938149  1
  Si  Si25  1  0.117702  0.881464  0.438149  1
  Si  Si26  1  0.882298  0.118536  0.438149  1
  Si  Si27  1  0.881464  0.117702  0.061851  1
  Si  Si28  1  0.118536  0.882298  0.061851  1
  Si  Si29  1  0.118536  0.117702  0.938149  1
  Si  Si30  1  0.882298  0.881464  0.561851  1
  Si  Si31  1  0.117702  0.118536  0.561851  1
  Si  Si32  1  0.377276  0.382003  0.189994  1
  Si  Si33  1  0.617997  0.377276  0.689994  1
  Si  Si34  1  0.382003  0.622724  0.689994  1
  Si  Si35  1  0.377276  0.617997  0.810006  1
  Si  Si36  1  0.622724  0.382003  0.810006  1
  Si  Si37  1  0.622724  0.617997  0.189994  1
  Si  Si38  1  0.382003  0.377276  0.310006  1
  Si  Si39  1  0.617997  0.622724  0.310006  1
  Si  Si40  1  0.622724  0.617997  0.810006  1
  Si  Si41  1  0.382003  0.622724  0.310006  1
  Si  Si42  1  0.617997  0.377276  0.310006  1
  Si  Si43  1  0.622724  0.382003  0.189994  1
  Si  Si44  1  0.377276  0.617997  0.189994  1
  Si  Si45  1  0.377276  0.382003  0.810006  1
  Si  Si46  1  0.617997  0.622724  0.689994  1
  Si  Si47  1  0.382003  0.377276  0.689994  1
  Si  Si48  1  0.500000  0.121630  0.061667  1
  Si  Si49  1  0.878370  0.500000  0.561667  1
  Si  Si50  1  0.121630  0.500000  0.561667  1
  Si  Si51  1  0.500000  0.878370  0.938333  1
  Si  Si52  1  0.500000  0.121630  0.938333  1
  Si  Si53  1  0.500000  0.878370  0.061667  1
  Si  Si54  1  0.121630  0.500000  0.438333  1
  Si  Si55  1  0.878370  0.500000  0.438333  1
  Si  Si56  1  0.377892  0.378526  0.000000  1
  Si  Si57  1  0.621474  0.377892  0.500000  1
  Si  Si58  1  0.378526  0.622108  0.500000  1
  Si  Si59  1  0.377892  0.621474  0.000000  1
  Si  Si60  1  0.622108  0.378526  0.000000  1
  Si  Si61  1  0.622108  0.621474  0.000000  1
  Si  Si62  1  0.378526  0.377892  0.500000  1
  Si  Si63  1  0.621474  0.622108  0.500000  1
  O  O64  1  0.145938  0.122638  0.000000  1
  O  O65  1  0.877362  0.145938  0.500000  1
  O  O66  1  0.122638  0.854062  0.500000  1
  O  O67  1  0.145938  0.877362  0.000000  1
  O  O68  1  0.854062  0.122638  0.000000  1
  O  O69  1  0.854062  0.877362  0.000000  1
  O  O70  1  0.122638  0.145938  0.500000  1
  O  O71  1  0.877362  0.854062  0.500000  1
  O  O72  1  0.134656  0.000000  0.082315  1
  O  O73  1  0.000000  0.134656  0.582315  1
  O  O74  1  0.000000  0.865344  0.582315  1
  O  O75  1  0.134656  0.000000  0.917685  1
  O  O76  1  0.865344  0.000000  0.917685  1
  O  O77  1  0.865344  0.000000  0.082315  1
  O  O78  1  0.000000  0.134656  0.417685  1
  O  O79  1  0.000000  0.865344  0.417685  1
  O  O80  1  0.000000  0.153648  0.071621  1
  O  O81  1  0.846352  0.000000  0.571621  1
  O  O82  1  0.153648  0.000000  0.571621  1
  O  O83  1  0.000000  0.846352  0.928379  1
  O  O84  1  0.000000  0.153648  0.928379  1
  O  O85  1  0.000000  0.846352  0.071621  1
  O  O86  1  0.153648  0.000000  0.428379  1
  O  O87  1  0.846352  0.000000  0.428379  1
  O  O88  1  0.195142  0.194538  0.092659  1
  O  O89  1  0.805462  0.195142  0.592659  1
  O  O90  1  0.194538  0.804858  0.592659  1
  O  O91  1  0.195142  0.805462  0.907341  1
  O  O92  1  0.804858  0.194538  0.907341  1
  O  O93  1  0.804858  0.805462  0.092659  1
  O  O94  1  0.194538  0.195142  0.407341  1
  O  O95  1  0.805462  0.804858  0.407341  1
  O  O96  1  0.804858  0.805462  0.907341  1
  O  O97  1  0.194538  0.804858  0.407341  1
  O  O98  1  0.805462  0.195142  0.407341  1
  O  O99  1  0.804858  0.194538  0.092659  1
  O  O100  1  0.195142  0.805462  0.092659  1
  O  O101  1  0.195142  0.194538  0.907341  1
  O  O102  1  0.805462  0.804858  0.592659  1
  O  O103  1  0.194538  0.195142  0.592659  1
  O  O104  1  0.397392  0.164200  0.909928  1
  O  O105  1  0.835800  0.397392  0.409928  1
  O  O106  1  0.164200  0.602608  0.409928  1
  O  O107  1  0.397392  0.835800  0.090072  1
  O  O108  1  0.602608  0.164200  0.090072  1
  O  O109  1  0.602608  0.835800  0.909928  1
  O  O110  1  0.164200  0.397392  0.590072  1
  O  O111  1  0.835800  0.602608  0.590072  1
  O  O112  1  0.602608  0.835800  0.090072  1
  O  O113  1  0.164200  0.602608  0.590072  1
  O  O114  1  0.835800  0.397392  0.590072  1
  O  O115  1  0.602608  0.164200  0.909928  1
  O  O116  1  0.397392  0.835800  0.909928  1
  O  O117  1  0.397392  0.164200  0.090072  1
  O  O118  1  0.835800  0.602608  0.409928  1
  O  O119  1  0.164200  0.397392  0.409928  1
  O  O120  1  0.320769  0.334861  0.948616  1
  O  O121  1  0.665139  0.320769  0.448616  1
  O  O122  1  0.334861  0.679231  0.448616  1
  O  O123  1  0.320769  0.665139  0.051384  1
  O  O124  1  0.679231  0.334861  0.051384  1
  O  O125  1  0.679231  0.665139  0.948616  1
  O  O126  1  0.334861  0.320769  0.551384  1
  O  O127  1  0.665139  0.679231  0.551384  1
  O  O128  1  0.679231  0.665139  0.051384  1
  O  O129  1  0.334861  0.679231  0.551384  1
  O  O130  1  0.665139  0.320769  0.551384  1
  O  O131  1  0.679231  0.334861  0.948616  1
  O  O132  1  0.320769  0.665139  0.948616  1
  O  O133  1  0.320769  0.334861  0.051384  1
  O  O134  1  0.665139  0.679231  0.448616  1
  O  O135  1  0.334861  0.320769  0.448616  1
  O  O136  1  0.314498  0.304055  0.847134  1
  O  O137  1  0.695945  0.314498  0.347134  1
  O  O138  1  0.304055  0.685502  0.347134  1
  O  O139  1  0.314498  0.695945  0.152866  1
  O  O140  1  0.685502  0.304055  0.152866  1
  O  O141  1  0.685502  0.695945  0.847134  1
  O  O142  1  0.304055  0.314498  0.652866  1
  O  O143  1  0.695945  0.685502  0.652866  1
  O  O144  1  0.685502  0.695945  0.152866  1
  O  O145  1  0.304055  0.685502  0.652866  1
  O  O146  1  0.695945  0.314498  0.652866  1
  O  O147  1  0.685502  0.304055  0.847134  1
  O  O148  1  0.314498  0.695945  0.847134  1
  O  O149  1  0.314498  0.304055  0.152866  1
  O  O150  1  0.695945  0.685502  0.347134  1
  O  O151  1  0.304055  0.314498  0.347134  1
  O  O152  1  0.500000  0.000000  0.067644  1
  O  O153  1  0.000000  0.500000  0.567644  1
  O  O154  1  0.500000  0.000000  0.932356  1
  O  O155  1  0.000000  0.500000  0.432356  1
  O  O156  1  0.500000  0.149392  0.000000  1
  O  O157  1  0.850608  0.500000  0.500000  1
  O  O158  1  0.149392  0.500000  0.500000  1
  O  O159  1  0.500000  0.850608  0.000000  1
  O  O160  1  0.500000  0.352788  0.000000  1
  O  O161  1  0.647212  0.500000  0.500000  1
  O  O162  1  0.352788  0.500000  0.500000  1
  O  O163  1  0.500000  0.647212  0.000000  1
  O  O164  1  0.364530  0.500000  0.000000  1
  O  O165  1  0.500000  0.364530  0.500000  1
  O  O166  1  0.500000  0.635470  0.500000  1
  O  O167  1  0.635470  0.500000  0.000000  1
  O  O168  1  0.351411  0.351411  0.250000  1
  O  O169  1  0.648589  0.351411  0.750000  1
  O  O170  1  0.351411  0.648589  0.750000  1
  O  O171  1  0.648589  0.648589  0.250000  1
  O  O172  1  0.648589  0.648589  0.750000  1
  O  O173  1  0.351411  0.648589  0.250000  1
  O  O174  1  0.648589  0.351411  0.250000  1
  O  O175  1  0.351411  0.351411  0.750000  1
  O  O176  1  0.500000  0.371593  0.178787  1
  O  O177  1  0.628407  0.500000  0.678787  1
  O  O178  1  0.371593  0.500000  0.678787  1
  O  O179  1  0.500000  0.628407  0.821213  1
  O  O180  1  0.500000  0.371593  0.821213  1
  O  O181  1  0.500000  0.628407  0.178787  1
  O  O182  1  0.371593  0.500000  0.321213  1
  O  O183  1  0.628407  0.500000  0.321213  1
  O  O184  1  0.341637  0.500000  0.178574  1
  O  O185  1  0.500000  0.341637  0.678574  1
  O  O186  1  0.500000  0.658363  0.678574  1
  O  O187  1  0.341637  0.500000  0.821426  1
  O  O188  1  0.658363  0.500000  0.821426  1
  O  O189  1  0.658363  0.500000  0.178574  1
  O  O190  1  0.500000  0.341637  0.321426  1
  O  O191  1  0.500000  0.658363  0.321426  1
