# generated using pymatgen
data_BaNa4Cu3F12
_symmetry_space_group_name_H-M   'P 1'
_cell_length_a   14.07799914
_cell_length_b   14.07799945
_cell_length_c   14.07799967
_cell_angle_alpha   109.47121950
_cell_angle_beta   109.47121995
_cell_angle_gamma   109.47122089
_symmetry_Int_Tables_number   1
_chemical_formula_structural   BaNa4Cu3F12
_chemical_formula_sum   'Ba8 Na32 Cu24 F96'
_cell_volume   2147.83515486
_cell_formula_units_Z   8
loop_
 _symmetry_equiv_pos_site_id
 _symmetry_equiv_pos_as_xyz
  1  'x, y, z'
loop_
 _atom_site_type_symbol
 _atom_site_label
 _atom_site_symmetry_multiplicity
 _atom_site_fract_x
 _atom_site_fract_y
 _atom_site_fract_z
 _atom_site_occupancy
  Ba  Ba0  1  0.500000  0.500000  0.000000  1
  Ba  Ba1  1  0.000000  0.000000  0.000000  1
  Ba  Ba2  1  0.500000  0.000000  0.500000  1
  Ba  Ba3  1  0.500000  0.000000  0.000000  1
  Ba  Ba4  1  0.000000  0.500000  0.000000  1
  Ba  Ba5  1  0.000000  0.500000  0.500000  1
  Ba  Ba6  1  0.500000  0.500000  0.500000  1
  Ba  Ba7  1  0.000000  0.000000  0.500000  1
  Na  Na8  1  0.251896  0.251896  0.251896  1
  Na  Na9  1  0.524462  0.250000  0.774462  1
  Na  Na10  1  1.000000  0.751896  0.500000  1
  Na  Na11  1  0.748104  0.748104  0.748104  1
  Na  Na12  1  0.475538  0.750000  0.225538  1
  Na  Na13  1  0.250000  0.504460  0.254460  1
  Na  Na14  1  0.000000  0.248104  0.500000  1
  Na  Na15  1  0.500000  1.000000  0.751896  1
  Na  Na16  1  0.250000  0.004460  0.754460  1
  Na  Na17  1  0.004460  0.754460  0.250000  1
  Na  Na18  1  0.024462  0.250000  0.274462  1
  Na  Na19  1  0.750000  0.995540  0.245540  1
  Na  Na20  1  0.225538  0.475538  0.750000  1
  Na  Na21  1  0.745540  0.750000  0.495540  1
  Na  Na22  1  0.725538  0.975538  0.750000  1
  Na  Na23  1  0.250000  0.274462  0.024462  1
  Na  Na24  1  0.274462  0.024462  0.250000  1
  Na  Na25  1  0.500000  0.000000  0.248104  1
  Na  Na26  1  0.245540  0.750000  0.995540  1
  Na  Na27  1  0.995540  0.245540  0.750000  1
  Na  Na28  1  0.504460  0.254460  0.250000  1
  Na  Na29  1  0.495540  0.745540  0.750000  1
  Na  Na30  1  0.750000  0.225538  0.475538  1
  Na  Na31  1  0.248104  0.500000  1.000000  1
  Na  Na32  1  0.751896  0.500000  0.000000  1
  Na  Na33  1  0.754460  0.250000  0.004460  1
  Na  Na34  1  0.774462  0.524462  0.250000  1
  Na  Na35  1  0.250000  0.774462  0.524462  1
  Na  Na36  1  0.254460  0.250000  0.504460  1
  Na  Na37  1  0.750000  0.725538  0.975538  1
  Na  Na38  1  0.975538  0.750000  0.725538  1
  Na  Na39  1  0.750000  0.495540  0.745540  1
  Cu  Cu40  1  0.249911  0.501145  0.501419  1
  Cu  Cu41  1  0.248493  0.748766  0.749911  1
  Cu  Cu42  1  0.501419  0.249911  0.501145  1
  Cu  Cu43  1  0.751507  0.251234  0.250089  1
  Cu  Cu44  1  0.000273  0.998855  0.248766  1
  Cu  Cu45  1  0.750089  0.498855  0.498581  1
  Cu  Cu46  1  0.001145  0.751234  0.999727  1
  Cu  Cu47  1  0.998855  0.248766  0.000273  1
  Cu  Cu48  1  0.499727  0.748493  0.998581  1
  Cu  Cu49  1  0.751234  0.999727  0.001145  1
  Cu  Cu50  1  0.748493  0.998581  0.499727  1
  Cu  Cu51  1  0.500273  0.251507  0.001419  1
  Cu  Cu52  1  0.001419  0.500273  0.251507  1
  Cu  Cu53  1  0.248766  0.000273  0.998855  1
  Cu  Cu54  1  0.749911  0.248493  0.748766  1
  Cu  Cu55  1  0.998581  0.499727  0.748493  1
  Cu  Cu56  1  0.501145  0.501419  0.249911  1
  Cu  Cu57  1  0.498855  0.498581  0.750089  1
  Cu  Cu58  1  0.498581  0.750089  0.498855  1
  Cu  Cu59  1  0.999727  0.001145  0.751234  1
  Cu  Cu60  1  0.250089  0.751507  0.251234  1
  Cu  Cu61  1  0.251507  0.001419  0.500273  1
  Cu  Cu62  1  0.748766  0.749911  0.248493  1
  Cu  Cu63  1  0.251234  0.250089  0.751507  1
  F  F64  1  0.051832  0.138767  0.392127  1
  F  F65  1  0.361233  0.413064  0.253360  1
  F  F66  1  0.138767  0.392127  0.051832  1
  F  F67  1  0.895657  0.262252  0.347759  1
  F  F68  1  0.548184  0.654385  0.416767  1
  F  F69  1  0.659705  0.107873  0.246640  1
  F  F70  1  0.395657  0.047898  0.633404  1
  F  F71  1  0.659182  0.916221  0.554764  1
  F  F72  1  0.445236  0.340818  0.083779  1
  F  F73  1  0.762382  0.845615  0.393799  1
  F  F74  1  0.757039  0.361457  0.416221  1
  F  F75  1  0.083233  0.737618  0.131417  1
  F  F76  1  0.583779  0.242961  0.638543  1
  F  F77  1  0.551832  0.159705  0.913064  1
  F  F78  1  0.737748  0.652241  0.104343  1
  F  F79  1  0.652241  0.104343  0.737748  1
  F  F80  1  0.554764  0.659182  0.916221  1
  F  F81  1  0.868583  0.916767  0.262382  1
  F  F82  1  0.737618  0.131417  0.083233  1
  F  F83  1  0.392127  0.051832  0.138767  1
  F  F84  1  0.138543  0.895582  0.054764  1
  F  F85  1  0.607873  0.948168  0.861233  1
  F  F86  1  0.340818  0.083779  0.445236  1
  F  F87  1  0.585506  0.452102  0.847759  1
  F  F88  1  0.604343  0.952102  0.366596  1
  F  F89  1  0.547898  0.152241  0.414494  1
  F  F90  1  0.847759  0.585506  0.452102  1
  F  F91  1  0.892127  0.753360  0.340295  1
  F  F92  1  0.866596  0.914494  0.762252  1
  F  F93  1  0.253360  0.361233  0.413064  1
  F  F94  1  0.054764  0.138543  0.895582  1
  F  F95  1  0.104418  0.945236  0.861457  1
  F  F96  1  0.654385  0.416767  0.548184  1
  F  F97  1  0.361457  0.416221  0.757039  1
  F  F98  1  0.159705  0.913064  0.551832  1
  F  F99  1  0.416767  0.548184  0.654385  1
  F  F100  1  0.131417  0.083233  0.737618  1
  F  F101  1  0.159182  0.604418  0.742961  1
  F  F102  1  0.762252  0.866596  0.914494  1
  F  F103  1  0.413064  0.253360  0.361233  1
  F  F104  1  0.861457  0.104418  0.945236  1
  F  F105  1  0.840295  0.086936  0.448168  1
  F  F106  1  0.840818  0.395582  0.257039  1
  F  F107  1  0.606201  0.237618  0.154385  1
  F  F108  1  0.085506  0.237748  0.133404  1
  F  F109  1  0.106201  0.951816  0.368583  1
  F  F110  1  0.104343  0.737748  0.652241  1
  F  F111  1  0.048184  0.631417  0.893799  1
  F  F112  1  0.242961  0.638543  0.583779  1
  F  F113  1  0.452102  0.847759  0.585506  1
  F  F114  1  0.083779  0.445236  0.340818  1
  F  F115  1  0.107873  0.246640  0.659705  1
  F  F116  1  0.047898  0.633404  0.395657  1
  F  F117  1  0.237618  0.154385  0.606201  1
  F  F118  1  0.262252  0.347759  0.895657  1
  F  F119  1  0.913064  0.551832  0.159705  1
  F  F120  1  0.257039  0.840818  0.395582  1
  F  F121  1  0.638767  0.586936  0.746640  1
  F  F122  1  0.154385  0.606201  0.237618  1
  F  F123  1  0.948168  0.861233  0.607873  1
  F  F124  1  0.753360  0.340295  0.892127  1
  F  F125  1  0.583233  0.451816  0.345615  1
  F  F126  1  0.638543  0.583779  0.242961  1
  F  F127  1  0.086936  0.448168  0.840295  1
  F  F128  1  0.345615  0.583233  0.451816  1
  F  F129  1  0.395582  0.257039  0.840818  1
  F  F130  1  0.914494  0.762252  0.866596  1
  F  F131  1  0.368583  0.106201  0.951816  1
  F  F132  1  0.945236  0.861457  0.104418  1
  F  F133  1  0.952102  0.366596  0.604343  1
  F  F134  1  0.895582  0.054764  0.138543  1
  F  F135  1  0.586936  0.746640  0.638767  1
  F  F136  1  0.347759  0.895657  0.262252  1
  F  F137  1  0.246640  0.659705  0.107873  1
  F  F138  1  0.451816  0.345615  0.583233  1
  F  F139  1  0.916767  0.262382  0.868583  1
  F  F140  1  0.340295  0.892127  0.753360  1
  F  F141  1  0.845615  0.393799  0.762382  1
  F  F142  1  0.133404  0.085506  0.237748  1
  F  F143  1  0.893799  0.048184  0.631417  1
  F  F144  1  0.152241  0.414494  0.547898  1
  F  F145  1  0.366596  0.604343  0.952102  1
  F  F146  1  0.742961  0.159182  0.604418  1
  F  F147  1  0.951816  0.368583  0.106201  1
  F  F148  1  0.746640  0.638767  0.586936  1
  F  F149  1  0.414494  0.547898  0.152241  1
  F  F150  1  0.631417  0.893799  0.048184  1
  F  F151  1  0.604418  0.742961  0.159182  1
  F  F152  1  0.861233  0.607873  0.948168  1
  F  F153  1  0.393799  0.762382  0.845615  1
  F  F154  1  0.633404  0.395657  0.047898  1
  F  F155  1  0.262382  0.868583  0.916767  1
  F  F156  1  0.916221  0.554764  0.659182  1
  F  F157  1  0.416221  0.757039  0.361457  1
  F  F158  1  0.448168  0.840295  0.086936  1
  F  F159  1  0.237748  0.133404  0.085506  1
