# generated using pymatgen
data_V23Se40
_symmetry_space_group_name_H-M   'P 1'
_cell_length_a   3.42067089
_cell_length_b   35.14268548
_cell_length_c   12.54052214
_cell_angle_alpha   74.27814726
_cell_angle_beta   97.83869098
_cell_angle_gamma   119.12280774
_symmetry_Int_Tables_number   1
_chemical_formula_structural   V23Se40
_chemical_formula_sum   'V23 Se40'
_cell_volume   1267.64670973
_cell_formula_units_Z   1
loop_
 _symmetry_equiv_pos_site_id
 _symmetry_equiv_pos_as_xyz
  1  'x, y, z'
loop_
 _atom_site_type_symbol
 _atom_site_label
 _atom_site_symmetry_multiplicity
 _atom_site_fract_x
 _atom_site_fract_y
 _atom_site_fract_z
 _atom_site_occupancy
  V  V0  1  0.054571  0.910589  0.003249  1
  V  V1  1  0.987281  0.947475  0.499809  1
  V  V2  1  0.952094  0.790041  0.003778  1
  V  V3  1  0.051812  0.860686  0.496767  1
  V  V4  1  0.003455  0.825575  0.751158  1
  V  V5  1  0.005673  0.700977  0.001575  1
  V  V6  1  0.955990  0.741409  0.497885  1
  V  V7  1  0.948188  0.489314  0.003233  1
  V  V8  1  -0.005673  0.649023  0.498425  1
  V  V9  1  0.047906  0.559959  0.496222  1
  V  V10  1  0.044011  0.608591  0.002115  1
  V  V11  1  0.012719  0.402525  0.000191  1
  V  V12  1  0.996545  0.524425  0.748842  1
  V  V13  1  0.945429  0.439411  0.496751  1
  V  V14  1  0.998470  0.349680  0.500137  1
  V  V15  1  0.047407  0.209967  0.995142  1
  V  V16  1  0.989484  0.297937  0.999600  1
  V  V17  1  0.049277  0.259525  0.503309  1
  V  V18  1  0.950723  0.090475  0.996691  1
  V  V19  1  0.010516  0.052063  0.500400  1
  V  V20  1  0.000000  0.175000  0.250000  1
  V  V21  1  0.952593  0.140033  0.504858  1
  V  V22  1  0.001530  0.000320  0.999863  1
  Se  Se23  1  0.665202  0.995245  0.377949  1
  Se  Se24  1  0.673581  0.947699  0.870168  1
  Se  Se25  1  0.351996  0.906665  0.637342  1
  Se  Se26  1  0.351023  0.956813  0.133915  1
  Se  Se27  1  0.335216  0.805551  0.614928  1
  Se  Se28  1  0.672592  0.898183  0.363347  1
  Se  Se29  1  0.335209  0.856229  0.108131  1
  Se  Se30  1  0.673342  0.846051  0.886171  1
  Se  Se31  1  0.326763  0.751859  0.134944  1
  Se  Se32  1  0.330482  0.703130  0.629669  1
  Se  Se33  1  0.652987  0.743921  0.866756  1
  Se  Se34  1  0.675494  0.795884  0.392140  1
  Se  Se35  1  0.669518  0.646870  0.870331  1
  Se  Se36  1  0.346096  0.656069  0.131503  1
  Se  Se37  1  0.347013  0.606079  0.633244  1
  Se  Se38  1  0.653904  0.693931  0.368497  1
  Se  Se39  1  0.326658  0.503949  0.613829  1
  Se  Se40  1  0.324506  0.554116  0.107860  1
  Se  Se41  1  0.664784  0.544449  0.885072  1
  Se  Se42  1  0.673237  0.598141  0.365056  1
  Se  Se43  1  0.648004  0.443335  0.862658  1
  Se  Se44  1  0.664791  0.493771  0.391869  1
  Se  Se45  1  0.327408  0.451817  0.136653  1
  Se  Se46  1  0.326419  0.402301  0.629832  1
  Se  Se47  1  0.648977  0.393187  0.366085  1
  Se  Se48  1  0.662089  0.344668  0.877492  1
  Se  Se49  1  0.334798  0.354755  0.122051  1
  Se  Se50  1  0.344133  0.305418  0.634089  1
  Se  Se51  1  0.668894  0.296692  0.370861  1
  Se  Se52  1  0.667352  0.247156  0.863139  1
  Se  Se53  1  0.346101  0.255623  0.135976  1
  Se  Se54  1  0.330361  0.205316  0.607570  1
  Se  Se55  1  0.671195  0.195712  0.385270  1
  Se  Se56  1  0.669639  0.144684  0.892430  1
  Se  Se57  1  0.332648  0.102844  0.636861  1
  Se  Se58  1  0.328805  0.154288  0.114730  1
  Se  Se59  1  0.653899  0.094377  0.364024  1
  Se  Se60  1  0.655867  0.044582  0.865911  1
  Se  Se61  1  0.331106  0.053308  0.129139  1
  Se  Se62  1  0.337911  0.005332  0.622508  1
