# generated using pymatgen
data_K2Re3C2Se5N2
_symmetry_space_group_name_H-M   'P 1'
_cell_length_a   9.80659284
_cell_length_b   10.82668563
_cell_length_c   13.25956662
_cell_angle_alpha   90.00000000
_cell_angle_beta   90.00000000
_cell_angle_gamma   106.30588597
_symmetry_Int_Tables_number   1
_chemical_formula_structural   K2Re3C2Se5N2
_chemical_formula_sum   'K8 Re12 C8 Se20 N8'
_cell_volume   1351.17963810
_cell_formula_units_Z   4
loop_
 _symmetry_equiv_pos_site_id
 _symmetry_equiv_pos_as_xyz
  1  'x, y, z'
loop_
 _atom_site_type_symbol
 _atom_site_label
 _atom_site_symmetry_multiplicity
 _atom_site_fract_x
 _atom_site_fract_y
 _atom_site_fract_z
 _atom_site_occupancy
  K  K0  1  0.943117  0.673299  0.559841  1
  K  K1  1  0.556883  0.826701  0.059841  1
  K  K2  1  0.056883  0.326701  0.440159  1
  K  K3  1  0.907408  0.001640  0.828278  1
  K  K4  1  0.092592  0.998360  0.171722  1
  K  K5  1  0.443117  0.173299  0.940159  1
  K  K6  1  0.407408  0.501640  0.671722  1
  K  K7  1  0.592592  0.498360  0.328278  1
  Re  Re8  1  0.812802  0.500870  0.970278  1
  Re  Re9  1  0.466397  0.019490  0.361846  1
  Re  Re10  1  0.966397  0.519490  0.138154  1
  Re  Re11  1  0.533603  0.980510  0.638154  1
  Re  Re12  1  0.312802  0.000870  0.529722  1
  Re  Re13  1  0.561104  0.180108  0.515868  1
  Re  Re14  1  0.438896  0.819892  0.484132  1
  Re  Re15  1  0.187198  0.499130  0.029722  1
  Re  Re16  1  0.687198  0.999130  0.470278  1
  Re  Re17  1  0.061104  0.680108  0.984132  1
  Re  Re18  1  0.938896  0.319892  0.015868  1
  Re  Re19  1  0.033603  0.480510  0.861846  1
  C  C20  1  0.130921  0.878549  0.958532  1
  C  C21  1  0.432339  0.039469  0.207879  1
  C  C22  1  0.869079  0.121451  0.041468  1
  C  C23  1  0.630921  0.378549  0.541468  1
  C  C24  1  0.567661  0.960531  0.792121  1
  C  C25  1  0.067661  0.460531  0.707879  1
  C  C26  1  0.369079  0.621451  0.458532  1
  C  C27  1  0.932339  0.539469  0.292121  1
  Se  Se28  1  0.795718  0.308752  0.853508  1
  Se  Se29  1  0.590485  0.846208  0.324276  1
  Se  Se30  1  0.295718  0.808752  0.646492  1
  Se  Se31  1  0.653061  0.807928  0.591049  1
  Se  Se32  1  0.228503  0.847666  0.382889  1
  Se  Se33  1  0.846939  0.692072  0.091049  1
  Se  Se34  1  0.271497  0.652334  0.882889  1
  Se  Se35  1  0.409515  0.153792  0.675724  1
  Se  Se36  1  0.346939  0.192072  0.408951  1
  Se  Se37  1  0.938539  0.989093  0.420545  1
  Se  Se38  1  0.728503  0.347666  0.117111  1
  Se  Se39  1  0.561461  0.510907  0.920545  1
  Se  Se40  1  0.153061  0.307928  0.908951  1
  Se  Se41  1  0.704282  0.191248  0.353508  1
  Se  Se42  1  0.909515  0.653792  0.824276  1
  Se  Se43  1  0.438539  0.489093  0.079455  1
  Se  Se44  1  0.204282  0.691248  0.146492  1
  Se  Se45  1  0.090485  0.346208  0.175724  1
  Se  Se46  1  0.061461  0.010907  0.579455  1
  Se  Se47  1  0.771497  0.152334  0.617111  1
  N  N48  1  0.412877  0.051614  0.121060  1
  N  N49  1  0.333494  0.510245  0.441069  1
  N  N50  1  0.833494  0.010245  0.058931  1
  N  N51  1  0.087123  0.448386  0.621060  1
  N  N52  1  0.166506  0.989755  0.941069  1
  N  N53  1  0.587123  0.948386  0.878940  1
  N  N54  1  0.666506  0.489755  0.558931  1
  N  N55  1  0.912877  0.551614  0.378940  1
