# generated using pymatgen
data_CdI2
_symmetry_space_group_name_H-M   'P 1'
_cell_length_a   4.34134782
_cell_length_b   4.34134809
_cell_length_c   103.05149516
_cell_angle_alpha   90.00000000
_cell_angle_beta   90.00000000
_cell_angle_gamma   119.99999795
_symmetry_Int_Tables_number   1
_chemical_formula_structural   CdI2
_chemical_formula_sum   'Cd14 I28'
_cell_volume   1682.03151648
_cell_formula_units_Z   14
loop_
 _symmetry_equiv_pos_site_id
 _symmetry_equiv_pos_as_xyz
  1  'x, y, z'
loop_
 _atom_site_type_symbol
 _atom_site_label
 _atom_site_symmetry_multiplicity
 _atom_site_fract_x
 _atom_site_fract_y
 _atom_site_fract_z
 _atom_site_occupancy
  Cd  Cd0  1  0.333333  0.666667  0.946447  1
  Cd  Cd1  1  0.333333  0.666667  0.732155  1
  Cd  Cd2  1  0.333333  0.666667  0.303562  1
  Cd  Cd3  1  0.666667  0.333333  0.160733  1
  Cd  Cd4  1  0.666667  0.333333  0.017861  1
  Cd  Cd5  1  0.333333  0.666667  0.517856  1
  Cd  Cd6  1  0.333333  0.666667  0.089270  1
  Cd  Cd7  1  0.666667  0.333333  0.589271  1
  Cd  Cd8  1  0.333333  0.666667  0.232156  1
  Cd  Cd9  1  0.333333  0.666667  0.803562  1
  Cd  Cd10  1  0.333333  0.666667  0.874976  1
  Cd  Cd11  1  0.333333  0.666667  0.660734  1
  Cd  Cd12  1  0.333333  0.666667  0.374976  1
  Cd  Cd13  1  0.333333  0.666667  0.446448  1
  I  I14  1  0.000000  0.000000  0.072525  1
  I  I15  1  0.000000  0.000000  0.643962  1
  I  I16  1  0.000000  0.000000  0.786776  1
  I  I17  1  0.666667  0.333333  0.106052  1
  I  I18  1  0.666667  0.333333  0.677489  1
  I  I19  1  0.000000  0.000000  0.858204  1
  I  I20  1  0.333333  0.666667  0.606053  1
  I  I21  1  0.000000  0.000000  0.929675  1
  I  I22  1  0.333333  0.666667  0.177489  1
  I  I23  1  0.666667  0.333333  0.534633  1
  I  I24  1  0.666667  0.333333  0.248934  1
  I  I25  1  0.000000  0.000000  0.358204  1
  I  I26  1  0.666667  0.333333  0.820335  1
  I  I27  1  0.000000  0.000000  0.215376  1
  I  I28  1  0.000000  0.000000  0.501121  1
  I  I29  1  0.666667  0.333333  0.391724  1
  I  I30  1  0.000000  0.000000  0.715374  1
  I  I31  1  0.666667  0.333333  0.320334  1
  I  I32  1  0.000000  0.000000  0.572525  1
  I  I33  1  0.000000  0.000000  0.143957  1
  I  I34  1  0.000000  0.000000  0.429677  1
  I  I35  1  0.333333  0.666667  0.034637  1
  I  I36  1  0.000000  0.000000  0.286776  1
  I  I37  1  0.666667  0.333333  0.963193  1
  I  I38  1  0.666667  0.333333  0.463192  1
  I  I39  1  0.666667  0.333333  0.891723  1
  I  I40  1  0.000000  0.000000  0.001123  1
  I  I41  1  0.666667  0.333333  0.748934  1
