# generated using pymatgen
data_EuSnPt
_symmetry_space_group_name_H-M   'P 1'
_cell_length_a   4.71956794
_cell_length_b   7.58864672
_cell_length_c   8.03509115
_cell_angle_alpha   89.99922043
_cell_angle_beta   90.00126665
_cell_angle_gamma   90.00050383
_symmetry_Int_Tables_number   1
_chemical_formula_structural   EuSnPt
_chemical_formula_sum   'Eu4 Sn4 Pt4'
_cell_volume   287.77786432
_cell_formula_units_Z   4
loop_
 _symmetry_equiv_pos_site_id
 _symmetry_equiv_pos_as_xyz
  1  'x, y, z'
loop_
 _atom_site_type_symbol
 _atom_site_label
 _atom_site_symmetry_multiplicity
 _atom_site_fract_x
 _atom_site_fract_y
 _atom_site_fract_z
 _atom_site_occupancy
  Eu  Eu0  1  0.750004  0.980579  0.316772  1
  Eu  Eu1  1  0.250000  0.519416  0.816768  1
  Eu  Eu2  1  0.249997  0.019421  0.683228  1
  Eu  Eu3  1  0.749998  0.480581  0.183231  1
  Sn  Sn4  1  0.749998  0.835554  0.924720  1
  Sn  Sn5  1  0.250000  0.164445  0.075280  1
  Sn  Sn6  1  0.250000  0.664447  0.424721  1
  Sn  Sn7  1  0.750003  0.335555  0.575278  1
  Pt  Pt8  1  0.749997  0.205205  0.895302  1
  Pt  Pt9  1  0.250002  0.794797  0.104700  1
  Pt  Pt10  1  0.249996  0.294795  0.395299  1
  Pt  Pt11  1  0.750004  0.705206  0.604699  1
