# generated using pymatgen
data_Bi2Te2W3O16
_symmetry_space_group_name_H-M   'P 1'
_cell_length_a   5.61718539
_cell_length_b   11.25093478
_cell_length_c   11.73446983
_cell_angle_alpha   69.37029458
_cell_angle_beta   76.14889078
_cell_angle_gamma   75.54155750
_symmetry_Int_Tables_number   1
_chemical_formula_structural   Bi2Te2W3O16
_chemical_formula_sum   'Bi4 Te4 W6 O32'
_cell_volume   662.61775373
_cell_formula_units_Z   2
loop_
 _symmetry_equiv_pos_site_id
 _symmetry_equiv_pos_as_xyz
  1  'x, y, z'
loop_
 _atom_site_type_symbol
 _atom_site_label
 _atom_site_symmetry_multiplicity
 _atom_site_fract_x
 _atom_site_fract_y
 _atom_site_fract_z
 _atom_site_occupancy
  Bi  Bi0  1  0.555020  0.397673  0.156704  1
  Bi  Bi1  1  0.890627  0.897621  0.656722  1
  Bi  Bi2  1  0.109373  0.102379  0.343278  1
  Bi  Bi3  1  0.444980  0.602327  0.843296  1
  Te  Te4  1  0.709134  0.034982  0.156103  1
  Te  Te5  1  0.290866  0.965018  0.843897  1
  Te  Te6  1  0.900153  0.465160  0.343809  1
  Te  Te7  1  0.099847  0.534840  0.656191  1
  W  W8  1  0.489888  0.210296  0.537634  1
  W  W9  1  0.510112  0.789704  0.462366  1
  W  W10  1  0.237871  0.289654  0.962383  1
  W  W11  1  0.129050  0.750026  0.250007  1
  W  W12  1  0.762129  0.710346  0.037617  1
  W  W13  1  0.870950  0.249974  0.749993  1
  O  O14  1  0.888934  0.793228  0.123502  1
  O  O15  1  0.430882  0.651751  0.599931  1
  O  O16  1  0.805612  0.706781  0.376402  1
  O  O17  1  0.092729  0.333303  0.278122  1
  O  O18  1  0.295721  0.833237  0.778153  1
  O  O19  1  0.299889  0.720352  0.375744  1
  O  O20  1  0.810617  0.099028  0.507732  1
  O  O21  1  0.582567  0.599047  0.007726  1
  O  O22  1  0.172398  0.567946  0.259810  1
  O  O23  1  0.569118  0.348249  0.400069  1
  O  O24  1  0.066043  0.641540  0.970337  1
  O  O25  1  0.396013  0.779675  0.124270  1
  O  O26  1  0.933957  0.358460  0.029663  1
  O  O27  1  0.189383  0.900972  0.492268  1
  O  O28  1  0.907271  0.666697  0.721878  1
  O  O29  1  0.682338  0.848255  0.900023  1
  O  O30  1  0.678073  0.858457  0.529621  1
  O  O31  1  0.266997  0.446615  0.795317  1
  O  O32  1  0.603987  0.220325  0.875730  1
  O  O33  1  0.704279  0.166763  0.221847  1
  O  O34  1  0.194388  0.293219  0.623598  1
  O  O35  1  0.317662  0.151745  0.099977  1
  O  O36  1  0.700111  0.279648  0.624256  1
  O  O37  1  0.508866  0.053310  0.704737  1
  O  O38  1  0.417433  0.400953  0.992274  1
  O  O39  1  0.491134  0.946690  0.295263  1
  O  O40  1  1.000117  0.932071  0.240167  1
  O  O41  1  0.111066  0.206772  0.876498  1
  O  O42  1  0.733003  0.553385  0.204683  1
  O  O43  1  0.321927  0.141543  0.470379  1
  O  O44  1  0.827602  0.432054  0.740190  1
  O  O45  1  -0.000117  0.067929  0.759833  1
