# generated using pymatgen
data_Sn(S4I)4
_symmetry_space_group_name_H-M   'P 1'
_cell_length_a   14.85214738
_cell_length_b   13.66010696
_cell_length_c   13.98752245
_cell_angle_alpha   73.22475646
_cell_angle_beta   57.93324742
_cell_angle_gamma   57.06876073
_symmetry_Int_Tables_number   1
_chemical_formula_structural   Sn(S4I)4
_chemical_formula_sum   'Sn2 S32 I8'
_cell_volume   2018.44759638
_cell_formula_units_Z   2
loop_
 _symmetry_equiv_pos_site_id
 _symmetry_equiv_pos_as_xyz
  1  'x, y, z'
loop_
 _atom_site_type_symbol
 _atom_site_label
 _atom_site_symmetry_multiplicity
 _atom_site_fract_x
 _atom_site_fract_y
 _atom_site_fract_z
 _atom_site_occupancy
  Sn  Sn0  1  0.997736  0.000000  0.000000  1
  Sn  Sn1  1  0.747736  0.500000  0.500000  1
  S  S2  1  0.466924  0.352074  0.008660  1
  S  S3  1  0.484518  0.126258  0.188853  1
  S  S4  1  0.558225  0.880182  0.822619  1
  S  S5  1  0.205942  0.475698  0.667113  1
  S  S6  1  0.480344  0.823609  0.982897  1
  S  S7  1  0.424435  0.119617  0.598495  1
  S  S8  1  0.582258  0.171349  0.032402  1
  S  S9  1  0.053953  0.676391  0.482897  1
  S  S10  1  0.799629  0.873742  0.811147  1
  S  S11  1  0.142547  0.880383  0.401505  1
  S  S12  1  0.188407  0.619818  0.322619  1
  S  S13  1  0.993014  0.856425  0.486126  1
  S  S14  1  0.348754  0.524302  0.332887  1
  S  S15  1  0.827659  0.647926  0.991340  1
  S  S16  1  0.623056  0.975698  0.832887  1
  S  S17  1  0.568998  0.147926  0.508660  1
  S  S18  1  0.130843  0.380182  0.677381  1
  S  S19  1  0.431640  0.024302  0.167113  1
  S  S20  1  0.261026  0.119818  0.177381  1
  S  S21  1  0.213241  0.323609  0.517103  1
  S  S22  1  0.599439  0.643575  0.986126  1
  S  S23  1  0.503607  0.328651  0.532402  1
  S  S24  1  0.364661  0.671349  0.467598  1
  S  S25  1  0.294052  0.380383  0.098495  1
  S  S26  1  0.772929  0.619617  0.901505  1
  S  S27  1  0.286850  0.176391  0.017103  1
  S  S28  1  0.225584  0.852074  0.491340  1
  S  S29  1  0.335565  0.143575  0.513874  1
  S  S30  1  0.360776  0.373742  0.688853  1
  S  S31  1  0.786009  0.828651  0.967598  1
  S  S32  1  0.423371  0.626258  0.311147  1
  S  S33  1  0.229140  0.356425  0.013874  1
  I  I34  1  0.995392  0.196297  0.009987  1
  I  I35  1  0.753443  0.487370  0.307242  1
  I  I36  1  0.201676  0.803703  0.990013  1
  I  I37  1  0.810684  0.987370  0.192758  1
  I  I38  1  0.755379  0.696297  0.490013  1
  I  I39  1  0.941689  0.303703  0.509987  1
  I  I40  1  0.548054  0.512630  0.692758  1
  I  I41  1  0.990813  0.012630  0.807242  1
