# generated using pymatgen
data_CuBi(PSe3)2
_symmetry_space_group_name_H-M   'P 1'
_cell_length_a   29.02606718
_cell_length_b   29.02606709
_cell_length_c   29.02606780
_cell_angle_alpha   13.11321869
_cell_angle_beta   13.11321937
_cell_angle_gamma   13.11321864
_symmetry_Int_Tables_number   1
_chemical_formula_structural   CuBi(PSe3)2
_chemical_formula_sum   'Cu4 Bi4 P8 Se24'
_cell_volume   1094.87336607
_cell_formula_units_Z   4
loop_
 _symmetry_equiv_pos_site_id
 _symmetry_equiv_pos_as_xyz
  1  'x, y, z'
loop_
 _atom_site_type_symbol
 _atom_site_label
 _atom_site_symmetry_multiplicity
 _atom_site_fract_x
 _atom_site_fract_y
 _atom_site_fract_z
 _atom_site_occupancy
  Cu  Cu0  1  0.860580  0.860580  0.860580  1
  Cu  Cu1  1  0.043668  0.043668  0.043668  1
  Cu  Cu2  1  0.139420  0.139420  0.139420  1
  Cu  Cu3  1  0.956332  0.956332  0.956332  1
  Bi  Bi4  1  0.544972  0.544972  0.544972  1
  Bi  Bi5  1  0.292100  0.292100  0.292100  1
  Bi  Bi6  1  0.455028  0.455028  0.455028  1
  Bi  Bi7  1  0.707900  0.707900  0.707900  1
  P  P8  1  0.387926  0.387926  0.387926  1
  P  P9  1  0.777294  0.777294  0.777294  1
  P  P10  1  0.638487  0.638487  0.638487  1
  P  P11  1  0.612074  0.612074  0.612074  1
  P  P12  1  0.222706  0.222706  0.222706  1
  P  P13  1  0.196172  0.196172  0.196172  1
  P  P14  1  0.361513  0.361513  0.361513  1
  P  P15  1  0.803828  0.803828  0.803828  1
  Se  Se16  1  0.697170  0.312335  0.055050  1
  Se  Se17  1  0.360619  0.733782  0.090953  1
  Se  Se18  1  0.570873  0.935619  0.181664  1
  Se  Se19  1  0.499079  0.800893  0.137748  1
  Se  Se20  1  0.429127  0.064381  0.818336  1
  Se  Se21  1  0.137748  0.499079  0.800893  1
  Se  Se22  1  0.302830  0.687665  0.944950  1
  Se  Se23  1  0.181664  0.570873  0.935619  1
  Se  Se24  1  0.862252  0.500921  0.199107  1
  Se  Se25  1  0.090953  0.360619  0.733782  1
  Se  Se26  1  0.733782  0.090953  0.360619  1
  Se  Se27  1  0.064381  0.818336  0.429127  1
  Se  Se28  1  0.266218  0.909047  0.639381  1
  Se  Se29  1  0.312335  0.055050  0.697170  1
  Se  Se30  1  0.055050  0.697170  0.312335  1
  Se  Se31  1  0.800893  0.137748  0.499079  1
  Se  Se32  1  0.500921  0.199107  0.862252  1
  Se  Se33  1  0.944950  0.302830  0.687665  1
  Se  Se34  1  0.818336  0.429127  0.064381  1
  Se  Se35  1  0.909047  0.639381  0.266218  1
  Se  Se36  1  0.199107  0.862252  0.500921  1
  Se  Se37  1  0.687665  0.944950  0.302830  1
  Se  Se38  1  0.639381  0.266218  0.909047  1
  Se  Se39  1  0.935619  0.181664  0.570873  1
