# generated using pymatgen
data_LiSnP2O7
_symmetry_space_group_name_H-M   'P 1'
_cell_length_a   13.22684567
_cell_length_b   5.18520104
_cell_length_c   8.92893645
_cell_angle_alpha   90.00000000
_cell_angle_beta   101.26931720
_cell_angle_gamma   90.00000000
_symmetry_Int_Tables_number   1
_chemical_formula_structural   LiSnP2O7
_chemical_formula_sum   'Li4 Sn4 P8 O28'
_cell_volume   600.57383364
_cell_formula_units_Z   4
loop_
 _symmetry_equiv_pos_site_id
 _symmetry_equiv_pos_as_xyz
  1  'x, y, z'
loop_
 _atom_site_type_symbol
 _atom_site_label
 _atom_site_symmetry_multiplicity
 _atom_site_fract_x
 _atom_site_fract_y
 _atom_site_fract_z
 _atom_site_occupancy
  Li  Li0  1  0.420121  0.782137  0.915223  1
  Li  Li1  1  0.298135  0.253670  0.375602  1
  Li  Li2  1  0.920121  0.717863  0.415223  1
  Li  Li3  1  0.798135  0.246330  0.875602  1
  Sn  Sn4  1  0.530482  0.247224  0.758937  1
  Sn  Sn5  1  0.030482  0.252776  0.258937  1
  Sn  Sn6  1  0.981612  0.760757  0.756176  1
  Sn  Sn7  1  0.481612  0.739243  0.256176  1
  P  P8  1  0.874936  0.739388  0.070977  1
  P  P9  1  0.374936  0.760612  0.570977  1
  P  P10  1  0.351177  0.271563  0.040177  1
  P  P11  1  0.651827  0.737533  0.963190  1
  P  P12  1  0.620768  0.239530  0.429815  1
  P  P13  1  0.851177  0.228437  0.540177  1
  P  P14  1  0.120768  0.260470  0.929815  1
  P  P15  1  0.151827  0.762467  0.463190  1
  O  O16  1  0.391131  0.049550  0.555268  1
  O  O17  1  0.422981  0.150508  0.946108  1
  O  O18  1  0.436635  0.646005  0.720245  1
  O  O19  1  0.562235  0.767342  0.047411  1
  O  O20  1  0.389930  0.606921  0.426456  1
  O  O21  1  0.591242  0.950876  0.416262  1
  O  O22  1  0.889930  0.893079  0.926456  1
  O  O23  1  0.740842  0.252688  0.424328  1
  O  O24  1  0.240842  0.247312  0.924328  1
  O  O25  1  0.160991  0.039230  0.403424  1
  O  O26  1  0.108405  0.140273  0.081256  1
  O  O27  1  0.891131  0.450450  0.055268  1
  O  O28  1  0.936635  0.853995  0.220245  1
  O  O29  1  0.150984  0.559631  0.337030  1
  O  O30  1  0.067627  0.104999  0.790058  1
  O  O31  1  0.851682  0.369901  0.691181  1
  O  O32  1  0.368188  0.567753  0.065290  1
  O  O33  1  0.922981  0.349492  0.446108  1
  O  O34  1  0.608405  0.359727  0.581256  1
  O  O35  1  0.756385  0.789995  0.088522  1
  O  O36  1  0.062235  0.732658  0.547411  1
  O  O37  1  0.660991  0.460770  0.903424  1
  O  O38  1  0.256385  0.710005  0.588522  1
  O  O39  1  0.650984  0.940369  0.837030  1
  O  O40  1  0.351682  0.130099  0.191181  1
  O  O41  1  0.567627  0.395001  0.290058  1
  O  O42  1  0.091242  0.549124  0.916262  1
  O  O43  1  0.868188  0.932247  0.565290  1
