# generated using pymatgen
data_Mn2SnC10(BrO5)2
_symmetry_space_group_name_H-M   'P 1'
_cell_length_a   7.76168034
_cell_length_b   15.46234935
_cell_length_c   17.11457408
_cell_angle_alpha   110.47148992
_cell_angle_beta   90.00000000
_cell_angle_gamma   90.00000000
_symmetry_Int_Tables_number   1
_chemical_formula_structural   Mn2SnC10(BrO5)2
_chemical_formula_sum   'Mn8 Sn4 C40 Br8 O40'
_cell_volume   1924.26859200
_cell_formula_units_Z   4
loop_
 _symmetry_equiv_pos_site_id
 _symmetry_equiv_pos_as_xyz
  1  'x, y, z'
loop_
 _atom_site_type_symbol
 _atom_site_label
 _atom_site_symmetry_multiplicity
 _atom_site_fract_x
 _atom_site_fract_y
 _atom_site_fract_z
 _atom_site_occupancy
  Mn  Mn0  1  0.852601  0.177423  0.361081  1
  Mn  Mn1  1  0.354507  0.362171  0.112320  1
  Mn  Mn2  1  0.647399  0.177423  0.861081  1
  Mn  Mn3  1  0.854507  0.637829  0.387680  1
  Mn  Mn4  1  0.352601  0.822577  0.138919  1
  Mn  Mn5  1  0.145493  0.362171  0.612320  1
  Mn  Mn6  1  0.147399  0.822577  0.638919  1
  Mn  Mn7  1  0.645493  0.637829  0.887680  1
  Sn  Sn8  1  0.639768  0.759263  0.047650  1
  Sn  Sn9  1  0.360232  0.240737  0.952350  1
  Sn  Sn10  1  0.139768  0.240737  0.452350  1
  Sn  Sn11  1  0.860232  0.759263  0.547650  1
  C  C12  1  0.685247  0.572188  0.421644  1
  C  C13  1  0.486529  0.122138  0.776530  1
  C  C14  1  0.142320  0.449105  0.717298  1
  C  C15  1  0.633979  0.077323  0.899084  1
  C  C16  1  0.357680  0.449105  0.217298  1
  C  C17  1  0.331314  0.870744  0.708285  1
  C  C18  1  0.019334  0.713460  0.364435  1
  C  C19  1  0.476159  0.578480  0.927240  1
  C  C20  1  0.681114  0.709434  0.364110  1
  C  C21  1  0.814753  0.572188  0.921644  1
  C  C22  1  0.857589  0.285407  0.336362  1
  C  C23  1  0.366021  0.922677  0.100916  1
  C  C24  1  0.866021  0.077323  0.399084  1
  C  C25  1  0.480666  0.713460  0.864435  1
  C  C26  1  0.642320  0.550895  0.782702  1
  C  C27  1  0.519334  0.286540  0.135565  1
  C  C28  1  0.318886  0.290566  0.635890  1
  C  C29  1  0.513471  0.877862  0.223470  1
  C  C30  1  0.720386  0.240186  0.454689  1
  C  C31  1  0.181114  0.290566  0.135890  1
  C  C32  1  0.279614  0.759814  0.545311  1
  C  C33  1  0.818886  0.709434  0.864110  1
  C  C34  1  0.023841  0.578480  0.427240  1
  C  C35  1  0.831314  0.129256  0.791715  1
  C  C36  1  0.779614  0.240186  0.954689  1
  C  C37  1  0.642411  0.285407  0.836362  1
  C  C38  1  0.168686  0.870744  0.208285  1
  C  C39  1  0.986529  0.877862  0.723470  1
  C  C40  1  0.976159  0.421520  0.572760  1
  C  C41  1  0.142411  0.714593  0.663638  1
  C  C42  1  0.314753  0.427812  0.578356  1
  C  C43  1  0.668686  0.129256  0.291715  1
  C  C44  1  0.357589  0.714593  0.163638  1
  C  C45  1  0.857680  0.550895  0.282702  1
  C  C46  1  0.185247  0.427812  0.078356  1
  C  C47  1  0.980666  0.286540  0.635565  1
  C  C48  1  0.523841  0.421520  0.072760  1
  C  C49  1  0.013471  0.122138  0.276530  1
  C  C50  1  0.133979  0.922677  0.600916  1
  C  C51  1  0.220386  0.759814  0.045311  1
  Br  Br52  1  0.824914  0.901710  0.060300  1
  Br  Br53  1  0.324914  0.098290  0.439700  1
  Br  Br54  1  0.176053  0.309366  0.861637  1
  Br  Br55  1  0.823947  0.690634  0.138363  1
  Br  Br56  1  0.323947  0.309366  0.361637  1
  Br  Br57  1  0.175086  0.098290  0.939700  1
  Br  Br58  1  0.676053  0.690634  0.638363  1
  Br  Br59  1  0.675086  0.901710  0.560300  1
  O  O60  1  0.129745  0.983091  0.576356  1
  O  O61  1  0.610983  0.911759  0.276199  1
  O  O62  1  0.357538  0.719012  0.486347  1
  O  O63  1  0.140536  0.506544  0.782491  1
  O  O64  1  0.121406  0.759670  0.349300  1
  O  O65  1  0.356177  0.646863  0.177959  1
  O  O66  1  0.556970  0.098293  0.245953  1
  O  O67  1  0.142462  0.719012  0.986347  1
  O  O68  1  0.943030  0.098293  0.745953  1
  O  O69  1  0.857538  0.280988  0.013653  1
  O  O70  1  0.918433  0.528260  0.938206  1
  O  O71  1  0.925560  0.751734  0.847317  1
  O  O72  1  0.870255  0.016909  0.423644  1
  O  O73  1  0.629745  0.016909  0.923644  1
  O  O74  1  0.418433  0.471740  0.561794  1
  O  O75  1  0.640536  0.493456  0.717509  1
  O  O76  1  0.143823  0.646863  0.677959  1
  O  O77  1  0.621406  0.240330  0.150700  1
  O  O78  1  0.574440  0.751734  0.347317  1
  O  O79  1  0.859464  0.493456  0.217509  1
  O  O80  1  0.871933  0.458575  0.547790  1
  O  O81  1  0.628067  0.458575  0.047790  1
  O  O82  1  0.889017  0.911759  0.776199  1
  O  O83  1  0.642462  0.280988  0.513653  1
  O  O84  1  0.856177  0.353137  0.322041  1
  O  O85  1  0.359464  0.506544  0.282491  1
  O  O86  1  0.378594  0.759670  0.849300  1
  O  O87  1  0.878594  0.240330  0.650700  1
  O  O88  1  0.425560  0.248266  0.652683  1
  O  O89  1  0.443030  0.901707  0.754047  1
  O  O90  1  0.581567  0.528260  0.438206  1
  O  O91  1  0.056970  0.901707  0.254047  1
  O  O92  1  0.074440  0.248266  0.152683  1
  O  O93  1  0.110983  0.088241  0.223801  1
  O  O94  1  0.389017  0.088241  0.723801  1
  O  O95  1  0.370255  0.983091  0.076356  1
  O  O96  1  0.128067  0.541425  0.452210  1
  O  O97  1  0.371933  0.541425  0.952210  1
  O  O98  1  0.643823  0.353137  0.822041  1
  O  O99  1  0.081567  0.471740  0.061794  1
