# generated using pymatgen
data_Be3Fe4Si3SO12
_symmetry_space_group_name_H-M   'P 1'
_cell_length_a   8.30194194
_cell_length_b   8.30606675
_cell_length_c   8.30840150
_cell_angle_alpha   89.62892496
_cell_angle_beta   90.37909280
_cell_angle_gamma   90.36491102
_symmetry_Int_Tables_number   1
_chemical_formula_structural   Be3Fe4Si3SO12
_chemical_formula_sum   'Be6 Fe8 Si6 S2 O24'
_cell_volume   572.88213403
_cell_formula_units_Z   2
loop_
 _symmetry_equiv_pos_site_id
 _symmetry_equiv_pos_as_xyz
  1  'x, y, z'
loop_
 _atom_site_type_symbol
 _atom_site_label
 _atom_site_symmetry_multiplicity
 _atom_site_fract_x
 _atom_site_fract_y
 _atom_site_fract_z
 _atom_site_occupancy
  Be  Be0  1  0.250293  0.500303  0.000237  1
  Be  Be1  1  0.500992  0.001529  0.750269  1
  Be  Be2  1  0.498407  0.999262  0.250048  1
  Be  Be3  1  0.000493  0.248871  0.500433  1
  Be  Be4  1  0.999394  0.749603  0.499461  1
  Be  Be5  1  0.749355  0.502518  0.000448  1
  O  O6  1  0.856517  0.414749  0.860400  1
  O  O7  1  0.859880  0.587497  0.141164  1
  O  O8  1  0.412744  0.864136  0.862472  1
  O  O9  1  0.587352  0.861816  0.141394  1
  O  O10  1  0.856152  0.856869  0.413903  1
  O  O11  1  0.141158  0.142538  0.413456  1
  O  O12  1  0.356886  0.359678  0.913555  1
  O  O13  1  0.141638  0.415070  0.143092  1
  O  O14  1  0.139635  0.587017  0.859308  1
  O  O15  1  0.586681  0.145306  0.857673  1
  O  O16  1  0.413431  0.138536  0.138133  1
  O  O17  1  0.862067  0.136657  0.586014  1
  O  O18  1  0.139095  0.859803  0.586780  1
  O  O19  1  0.914187  0.359482  0.359576  1
  O  O20  1  0.355408  0.912468  0.357369  1
  O  O21  1  0.636515  0.085409  0.363343  1
  O  O22  1  0.913377  0.637015  0.637003  1
  O  O23  1  0.641172  0.912135  0.644749  1
  O  O24  1  0.086882  0.643068  0.359449  1
  O  O25  1  0.085129  0.356648  0.644779  1
  O  O26  1  0.362730  0.085962  0.637129  1
  O  O27  1  0.362369  0.638788  0.086262  1
  O  O28  1  0.639601  0.361687  0.086784  1
  O  O29  1  0.641476  0.645077  0.913451  1
  Si  Si30  1  0.748973  0.997097  0.501430  1
  Si  Si31  1  0.501039  0.751986  0.000611  1
  Si  Si32  1  0.499536  0.251149  0.999105  1
  Si  Si33  1  0.249568  0.999665  0.498708  1
  Si  Si34  1  0.000968  0.501166  0.250654  1
  Si  Si35  1  0.998877  0.498646  0.750515  1
  S  S36  1  0.001504  0.000992  0.998782  1
  S  S37  1  0.501106  0.497044  0.498902  1
  Fe  Fe38  1  0.331855  0.667333  0.328612  1
  Fe  Fe39  1  0.669363  0.327760  0.330978  1
  Fe  Fe40  1  0.830969  0.831550  0.168392  1
  Fe  Fe41  1  0.170255  0.831556  0.831555  1
  Fe  Fe42  1  0.832022  0.170144  0.827578  1
  Fe  Fe43  1  0.671455  0.666810  0.668610  1
  Fe  Fe44  1  0.170890  0.170038  0.168528  1
  Fe  Fe45  1  0.330605  0.327566  0.668904  1
