# generated using pymatgen
data_H5ClO6
_symmetry_space_group_name_H-M   'P 1'
_cell_length_a   6.18221333
_cell_length_b   10.54567823
_cell_length_c   7.51443692
_cell_angle_alpha   90.00000000
_cell_angle_beta   90.00000000
_cell_angle_gamma   90.00000000
_symmetry_Int_Tables_number   1
_chemical_formula_structural   H5ClO6
_chemical_formula_sum   'H20 Cl4 O24'
_cell_volume   489.90846809
_cell_formula_units_Z   4
loop_
 _symmetry_equiv_pos_site_id
 _symmetry_equiv_pos_as_xyz
  1  'x, y, z'
loop_
 _atom_site_type_symbol
 _atom_site_label
 _atom_site_symmetry_multiplicity
 _atom_site_fract_x
 _atom_site_fract_y
 _atom_site_fract_z
 _atom_site_occupancy
  H  H0  1  0.503108  0.107687  0.202004  1
  H  H1  1  0.489556  0.954353  0.250276  1
  H  H2  1  0.003108  0.392313  0.297996  1
  H  H3  1  0.989556  0.545647  0.249724  1
  H  H4  1  0.496892  0.607687  0.797996  1
  H  H5  1  0.510444  0.454353  0.749724  1
  H  H6  1  0.996892  0.892313  0.702004  1
  H  H7  1  0.010444  0.045647  0.750276  1
  H  H8  1  0.498320  0.997121  -0.000082  1
  H  H9  1  0.657140  0.981166  0.782721  1
  H  H10  1  0.400729  0.973694  0.761095  1
  H  H11  1  0.900729  0.526306  0.738905  1
  H  H12  1  0.157140  0.518834  0.717279  1
  H  H13  1  0.998320  0.502879  0.500082  1
  H  H14  1  0.599271  0.473694  0.238905  1
  H  H15  1  0.501680  0.497121  0.000082  1
  H  H16  1  0.342860  0.481166  0.217279  1
  H  H17  1  0.842860  0.018834  0.282721  1
  H  H18  1  0.001680  0.002879  0.499918  1
  H  H19  1  0.099271  0.026306  0.261095  1
  Cl  Cl20  1  0.577373  0.248890  0.498851  1
  Cl  Cl21  1  0.077373  0.251110  0.001149  1
  Cl  Cl22  1  0.422627  0.748890  0.501149  1
  Cl  Cl23  1  0.922627  0.751110  0.998851  1
  O  O24  1  0.607755  0.245429  0.303725  1
  O  O25  1  0.107755  0.254571  0.196275  1
  O  O26  1  0.392245  0.745429  0.696275  1
  O  O27  1  0.892245  0.754571  0.803725  1
  O  O28  1  0.786279  0.248491  0.586241  1
  O  O29  1  0.286279  0.251509  0.913759  1
  O  O30  1  0.213721  0.748491  0.413759  1
  O  O31  1  0.713721  0.751509  0.086241  1
  O  O32  1  0.447805  0.139849  0.549291  1
  O  O33  1  0.947805  0.360151  0.950709  1
  O  O34  1  0.552195  0.639849  0.450709  1
  O  O35  1  0.052195  0.860151  0.049291  1
  O  O36  1  0.537472  0.868119  0.456333  1
  O  O37  1  0.037472  0.631881  0.043667  1
  O  O38  1  0.462528  0.368119  0.543667  1
  O  O39  1  0.962528  0.131881  0.956333  1
  O  O40  1  0.468987  0.020240  0.156730  1
  O  O41  1  0.968987  0.479760  0.343270  1
  O  O42  1  0.531013  0.520240  0.843270  1
  O  O43  1  0.031013  0.979760  0.656730  1
  O  O44  1  0.519717  0.976226  0.846175  1
  O  O45  1  0.019717  0.523774  0.653825  1
  O  O46  1  0.480283  0.476226  0.153825  1
  O  O47  1  0.980283  0.023774  0.346175  1
