# generated using pymatgen
data_SiO2
_symmetry_space_group_name_H-M   'P 1'
_cell_length_a   5.28350928
_cell_length_b   14.20733363
_cell_length_c   17.32742315
_cell_angle_alpha   90.00000000
_cell_angle_beta   90.00000000
_cell_angle_gamma   90.00000000
_symmetry_Int_Tables_number   1
_chemical_formula_structural   SiO2
_chemical_formula_sum   'Si24 O48'
_cell_volume   1300.67572526
_cell_formula_units_Z   24
loop_
 _symmetry_equiv_pos_site_id
 _symmetry_equiv_pos_as_xyz
  1  'x, y, z'
loop_
 _atom_site_type_symbol
 _atom_site_label
 _atom_site_symmetry_multiplicity
 _atom_site_fract_x
 _atom_site_fract_y
 _atom_site_fract_z
 _atom_site_occupancy
  Si  Si0  1  0.000000  0.257451  0.053435  1
  Si  Si1  1  0.000000  0.742549  0.946565  1
  Si  Si2  1  0.000000  0.257451  0.446565  1
  Si  Si3  1  0.000000  0.742549  0.553435  1
  Si  Si4  1  0.500000  0.757451  0.053435  1
  Si  Si5  1  0.500000  0.242549  0.946565  1
  Si  Si6  1  0.500000  0.757451  0.446565  1
  Si  Si7  1  0.500000  0.242549  0.553435  1
  Si  Si8  1  0.000000  0.070948  0.157366  1
  Si  Si9  1  0.000000  0.929052  0.842634  1
  Si  Si10  1  0.000000  0.070948  0.342634  1
  Si  Si11  1  0.000000  0.929052  0.657366  1
  Si  Si12  1  0.500000  0.570948  0.157366  1
  Si  Si13  1  0.500000  0.429052  0.842634  1
  Si  Si14  1  0.500000  0.570948  0.342634  1
  Si  Si15  1  0.500000  0.429052  0.657366  1
  Si  Si16  1  0.500000  0.971261  0.090432  1
  Si  Si17  1  0.500000  0.028739  0.909568  1
  Si  Si18  1  0.500000  0.971261  0.409568  1
  Si  Si19  1  0.500000  0.028739  0.590432  1
  Si  Si20  1  0.000000  0.471261  0.090432  1
  Si  Si21  1  0.000000  0.528739  0.909568  1
  Si  Si22  1  0.000000  0.471261  0.409568  1
  Si  Si23  1  0.000000  0.528739  0.590432  1
  O  O24  1  0.000000  0.173268  0.116239  1
  O  O25  1  0.000000  0.826732  0.883761  1
  O  O26  1  0.000000  0.173268  0.383761  1
  O  O27  1  0.000000  0.826732  0.616239  1
  O  O28  1  0.500000  0.673268  0.116239  1
  O  O29  1  0.500000  0.326732  0.883761  1
  O  O30  1  0.500000  0.673268  0.383761  1
  O  O31  1  0.500000  0.326732  0.616239  1
  O  O32  1  0.250000  0.250000  0.000000  1
  O  O33  1  0.250000  0.750000  0.000000  1
  O  O34  1  0.750000  0.250000  0.500000  1
  O  O35  1  0.750000  0.750000  0.500000  1
  O  O36  1  0.750000  0.750000  0.000000  1
  O  O37  1  0.750000  0.250000  0.000000  1
  O  O38  1  0.250000  0.750000  0.500000  1
  O  O39  1  0.250000  0.250000  0.500000  1
  O  O40  1  0.000000  0.357471  0.098688  1
  O  O41  1  0.000000  0.642529  0.901312  1
  O  O42  1  0.000000  0.357471  0.401312  1
  O  O43  1  0.000000  0.642529  0.598688  1
  O  O44  1  0.500000  0.857471  0.098688  1
  O  O45  1  0.500000  0.142529  0.901312  1
  O  O46  1  0.500000  0.857471  0.401312  1
  O  O47  1  0.500000  0.142529  0.598688  1
  O  O48  1  0.750077  0.012906  0.132005  1
  O  O49  1  0.750077  0.987094  0.867995  1
  O  O50  1  0.249923  0.012906  0.367995  1
  O  O51  1  0.249923  0.987094  0.632005  1
  O  O52  1  0.249923  0.987094  0.867995  1
  O  O53  1  0.249923  0.012906  0.132005  1
  O  O54  1  0.750077  0.987094  0.632005  1
  O  O55  1  0.750077  0.012906  0.367995  1
  O  O56  1  0.250077  0.512906  0.132005  1
  O  O57  1  0.250077  0.487094  0.867995  1
  O  O58  1  0.749923  0.512906  0.367995  1
  O  O59  1  0.749923  0.487094  0.632005  1
  O  O60  1  0.749923  0.487094  0.867995  1
  O  O61  1  0.749923  0.512906  0.132005  1
  O  O62  1  0.250077  0.487094  0.632005  1
  O  O63  1  0.250077  0.512906  0.367995  1
  O  O64  1  0.000000  0.085371  0.250000  1
  O  O65  1  0.000000  0.914629  0.750000  1
  O  O66  1  0.500000  0.585371  0.250000  1
  O  O67  1  0.500000  0.414629  0.750000  1
  O  O68  1  0.500000  0.000000  0.000000  1
  O  O69  1  0.500000  0.000000  0.500000  1
  O  O70  1  0.000000  0.500000  0.000000  1
  O  O71  1  0.000000  0.500000  0.500000  1
