# generated using pymatgen
data_Sm2Pd2Pb
_symmetry_space_group_name_H-M   'P 1'
_cell_length_a   3.78154243
_cell_length_b   7.96070139
_cell_length_c   7.96224045
_cell_angle_alpha   90.01610189
_cell_angle_beta   90.03506975
_cell_angle_gamma   89.98701691
_symmetry_Int_Tables_number   1
_chemical_formula_structural   Sm2Pd2Pb
_chemical_formula_sum   'Sm4 Pd4 Pb2'
_cell_volume   239.69307661
_cell_formula_units_Z   2
loop_
 _symmetry_equiv_pos_site_id
 _symmetry_equiv_pos_as_xyz
  1  'x, y, z'
loop_
 _atom_site_type_symbol
 _atom_site_label
 _atom_site_symmetry_multiplicity
 _atom_site_fract_x
 _atom_site_fract_y
 _atom_site_fract_z
 _atom_site_occupancy
  Sm  Sm0  1  0.500474  0.824567  0.324901  1
  Sm  Sm1  1  0.499629  0.175371  0.675207  1
  Sm  Sm2  1  0.500056  0.675255  0.824537  1
  Sm  Sm3  1  0.499817  0.324849  0.175430  1
  Pd  Pd4  1  0.000101  0.624468  0.124190  1
  Pd  Pd5  1  0.000010  0.124447  0.375600  1
  Pd  Pd6  1  0.000149  0.375558  0.875637  1
  Pd  Pd7  1  0.999960  0.875648  0.624435  1
  Pb  Pb8  1  0.000211  0.999985  0.999962  1
  Pb  Pb9  1  0.999592  0.499853  0.500102  1
