# generated using pymatgen
data_CuAs2Pb8Cl5O9
_symmetry_space_group_name_H-M   'P 1'
_cell_length_a   7.70858124
_cell_length_b   12.22513491
_cell_length_c   12.22513476
_cell_angle_alpha   112.21025042
_cell_angle_beta   98.94648939
_cell_angle_gamma   98.94648763
_symmetry_Int_Tables_number   1
_chemical_formula_structural   CuAs2Pb8Cl5O9
_chemical_formula_sum   'Cu2 As4 Pb16 Cl10 O18'
_cell_volume   1024.28702359
_cell_formula_units_Z   2
loop_
 _symmetry_equiv_pos_site_id
 _symmetry_equiv_pos_as_xyz
  1  'x, y, z'
loop_
 _atom_site_type_symbol
 _atom_site_label
 _atom_site_symmetry_multiplicity
 _atom_site_fract_x
 _atom_site_fract_y
 _atom_site_fract_z
 _atom_site_occupancy
  Cu  Cu0  1  0.500000  0.576164  0.423836  1
  Cu  Cu1  1  0.500000  0.423836  0.576164  1
  As  As2  1  0.415006  0.442531  0.212699  1
  As  As3  1  0.584994  0.787301  0.557469  1
  As  As4  1  0.584994  0.557469  0.787301  1
  As  As5  1  0.415006  0.212699  0.442531  1
  Pb  Pb6  1  0.078519  0.746494  0.553337  1
  Pb  Pb7  1  0.576322  0.143979  0.143979  1
  Pb  Pb8  1  0.422658  0.657422  0.054295  1
  Pb  Pb9  1  0.927720  0.644248  0.055673  1
  Pb  Pb10  1  0.921481  0.253506  0.446663  1
  Pb  Pb11  1  0.423678  0.856021  0.856021  1
  Pb  Pb12  1  0.929587  0.855231  0.855231  1
  Pb  Pb13  1  0.921481  0.446663  0.253506  1
  Pb  Pb14  1  0.078519  0.553337  0.746494  1
  Pb  Pb15  1  0.927720  0.055673  0.644248  1
  Pb  Pb16  1  0.070413  0.144769  0.144769  1
  Pb  Pb17  1  0.577342  0.342578  0.945705  1
  Pb  Pb18  1  0.577342  0.945705  0.342578  1
  Pb  Pb19  1  0.072280  0.944327  0.355752  1
  Pb  Pb20  1  0.072280  0.355752  0.944327  1
  Pb  Pb21  1  0.422658  0.054295  0.657422  1
  Cl  Cl22  1  0.234990  0.702802  0.284094  1
  Cl  Cl23  1  0.234990  0.284094  0.702802  1
  Cl  Cl24  1  0.247156  0.096190  0.898416  1
  Cl  Cl25  1  0.765010  0.297198  0.715906  1
  Cl  Cl26  1  0.765010  0.715906  0.297198  1
  Cl  Cl27  1  0.739185  0.497741  0.497741  1
  Cl  Cl28  1  0.260815  0.502259  0.502259  1
  Cl  Cl29  1  0.752844  0.903810  0.101584  1
  Cl  Cl30  1  0.752844  0.101584  0.903810  1
  Cl  Cl31  1  0.247156  0.898416  0.096190  1
  O  O32  1  0.870406  0.240772  0.240772  1
  O  O33  1  0.193593  0.172003  0.346682  1
  O  O34  1  0.392140  0.468822  0.075558  1
  O  O35  1  0.428098  0.827828  0.653186  1
  O  O36  1  0.871781  0.060153  0.444318  1
  O  O37  1  0.392140  0.075558  0.468822  1
  O  O38  1  0.871781  0.444318  0.060153  1
  O  O39  1  0.571902  0.172172  0.346814  1
  O  O40  1  0.607860  0.924442  0.531178  1
  O  O41  1  0.571902  0.346814  0.172172  1
  O  O42  1  0.193593  0.346682  0.172003  1
  O  O43  1  0.607860  0.531178  0.924442  1
  O  O44  1  0.128219  0.555682  0.939847  1
  O  O45  1  0.806407  0.827997  0.653318  1
  O  O46  1  0.129594  0.759228  0.759228  1
  O  O47  1  0.428098  0.653186  0.827828  1
  O  O48  1  0.128219  0.939847  0.555682  1
  O  O49  1  0.806407  0.653318  0.827997  1
