# generated using pymatgen
data_K2Ti(GeO3)3
_symmetry_space_group_name_H-M   'P 1'
_cell_length_a   12.04215673
_cell_length_b   12.04220717
_cell_length_c   10.61238172
_cell_angle_alpha   90.03798426
_cell_angle_beta   89.96343291
_cell_angle_gamma   119.99408185
_symmetry_Int_Tables_number   1
_chemical_formula_structural   K2Ti(GeO3)3
_chemical_formula_sum   'K12 Ti6 Ge18 O54'
_cell_volume   1332.84497095
_cell_formula_units_Z   6
loop_
 _symmetry_equiv_pos_site_id
 _symmetry_equiv_pos_as_xyz
  1  'x, y, z'
loop_
 _atom_site_type_symbol
 _atom_site_label
 _atom_site_symmetry_multiplicity
 _atom_site_fract_x
 _atom_site_fract_y
 _atom_site_fract_z
 _atom_site_occupancy
  K  K0  1  0.647089  0.995459  0.509067  1
  K  K1  1  0.346925  0.352231  0.508602  1
  K  K2  1  0.995343  0.647279  0.991051  1
  K  K3  1  0.004686  0.352700  0.008875  1
  K  K4  1  0.994973  0.348101  0.490755  1
  K  K5  1  0.005043  0.652171  0.509118  1
  K  K6  1  0.352475  0.004658  0.491181  1
  K  K7  1  0.352054  0.346787  0.991470  1
  K  K8  1  0.646843  0.652178  0.009034  1
  K  K9  1  0.348047  0.994964  0.009214  1
  K  K10  1  0.652210  0.646891  0.491034  1
  K  K11  1  0.651992  0.005000  0.990804  1
  Ti  Ti12  1  0.666541  0.333219  0.509179  1
  Ti  Ti13  1  0.000002  0.999980  0.000002  1
  Ti  Ti14  1  0.333474  0.666848  0.490811  1
  Ti  Ti15  1  0.333259  0.666487  0.990828  1
  Ti  Ti16  1  0.000020  0.000030  0.500011  1
  Ti  Ti17  1  0.666816  0.333475  0.009136  1
  Ge  Ge18  1  0.177057  -0.000043  0.250263  1
  Ge  Ge19  1  0.283413  0.453410  0.235695  1
  Ge  Ge20  1  0.546659  0.830173  0.236257  1
  Ge  Ge21  1  0.283422  0.829892  0.735737  1
  Ge  Ge22  1  0.453413  0.169774  0.764059  1
  Ge  Ge23  1  0.716661  0.170184  0.264005  1
  Ge  Ge24  1  0.830179  0.546668  0.263816  1
  Ge  Ge25  1  0.546660  0.716610  0.735566  1
  Ge  Ge26  1  0.823023  0.000108  0.749631  1
  Ge  Ge27  1  0.169793  0.453417  0.735968  1
  Ge  Ge28  1  0.176997  0.176954  0.749812  1
  Ge  Ge29  1  0.000012  0.822946  0.750073  1
  Ge  Ge30  1  0.000057  0.177092  0.249970  1
  Ge  Ge31  1  0.170226  0.716652  0.236013  1
  Ge  Ge32  1  0.453412  0.283417  0.264320  1
  Ge  Ge33  1  0.829920  0.283389  0.764173  1
  Ge  Ge34  1  0.823077  0.823123  0.250116  1
  Ge  Ge35  1  0.716643  0.546663  0.764356  1
  O  O36  1  0.847961  0.932796  0.886484  1
  O  O37  1  0.488653  0.764826  0.383824  1
  O  O38  1  0.356711  0.806990  0.604239  1
  O  O39  1  0.193165  0.643209  0.104179  1
  O  O40  1  0.643224  0.450459  0.896319  1
  O  O41  1  0.915124  0.847942  0.113560  1
  O  O42  1  0.356896  0.549513  0.103486  1
  O  O43  1  0.450442  0.643199  0.603724  1
  O  O44  1  0.847965  0.915095  0.386289  1
  O  O45  1  0.793566  0.124524  0.807665  1
  O  O46  1  0.192927  0.549575  0.603712  1
  O  O47  1  0.764305  0.275623  0.615541  1
  O  O48  1  0.875426  0.669013  0.807923  1
  O  O49  1  0.235300  0.511549  0.883854  1
  O  O50  1  0.619000  -0.000013  0.249708  1
  O  O51  1  -0.000062  0.618993  0.250355  1
  O  O52  1  0.549509  0.192928  0.896278  1
  O  O53  1  0.669004  0.793621  0.192346  1
  O  O54  1  0.875402  0.206369  0.307779  1
  O  O55  1  0.915157  0.067209  0.613734  1
  O  O56  1  0.152235  0.067323  0.113485  1
  O  O57  1  0.206383  0.331024  0.692320  1
  O  O58  1  0.380983  0.000061  0.750373  1
  O  O59  1  0.067284  0.152290  0.386428  1
  O  O60  1  0.488282  0.724122  0.883763  1
  O  O61  1  0.806986  0.450455  0.396322  1
  O  O62  1  0.793618  0.668985  0.307693  1
  O  O63  1  0.932878  0.847918  0.613657  1
  O  O64  1  0.206367  0.875412  0.192193  1
  O  O65  1  0.067246  0.915163  0.886455  1
  O  O66  1  0.643249  0.193204  0.395711  1
  O  O67  1  0.000070  0.380939  0.749596  1
  O  O68  1  0.669037  0.875427  0.692034  1
  O  O69  1  0.235714  0.724477  0.384175  1
  O  O70  1  0.511595  0.235318  0.616130  1
  O  O71  1  0.511835  0.275948  0.116417  1
  O  O72  1  0.549554  0.356930  0.396537  1
  O  O73  1  0.806937  0.356715  0.895717  1
  O  O74  1  0.764784  0.488570  0.116254  1
  O  O75  1  0.331020  0.206374  0.807651  1
  O  O76  1  0.380619  0.380571  0.250029  1
  O  O77  1  0.724118  0.488247  0.616244  1
  O  O78  1  0.124603  0.793609  0.692315  1
  O  O79  1  0.275667  0.764268  0.884418  1
  O  O80  1  0.124568  0.330966  0.192039  1
  O  O81  1  0.084992  0.932911  0.386204  1
  O  O82  1  0.331005  0.124586  0.307960  1
  O  O83  1  0.152226  0.085095  0.613594  1
  O  O84  1  0.450405  0.806932  0.103776  1
  O  O85  1  0.932885  0.084843  0.113714  1
  O  O86  1  0.275949  0.511842  0.383611  1
  O  O87  1  0.084937  0.152092  0.886474  1
  O  O88  1  0.619420  0.619417  0.750024  1
  O  O89  1  0.724458  0.235659  0.115684  1
