# generated using pymatgen
data_NaEu2Cl6
_symmetry_space_group_name_H-M   'P 1'
_cell_length_a   22.54723053
_cell_length_b   13.01764944
_cell_length_c   4.44676421
_cell_angle_alpha   90.00000000
_cell_angle_beta   90.00000000
_cell_angle_gamma   29.99999869
_symmetry_Int_Tables_number   1
_chemical_formula_structural   NaEu2Cl6
_chemical_formula_sum   'Na3 Eu6 Cl18'
_cell_volume   652.58917584
_cell_formula_units_Z   3
loop_
 _symmetry_equiv_pos_site_id
 _symmetry_equiv_pos_as_xyz
  1  'x, y, z'
loop_
 _atom_site_type_symbol
 _atom_site_label
 _atom_site_symmetry_multiplicity
 _atom_site_fract_x
 _atom_site_fract_y
 _atom_site_fract_z
 _atom_site_occupancy
  Eu  Eu0  1  0.000128  0.333335  0.750211  1
  Eu  Eu1  1  0.333463  0.332945  0.750211  1
  Eu  Eu2  1  0.331146  0.669101  0.250220  1
  Eu  Eu3  1  0.666409  0.333719  0.750211  1
  Eu  Eu4  1  0.668607  0.662540  0.250220  1
  Eu  Eu5  1  0.000247  0.668361  0.250220  1
  Na  Na6  1  0.333333  0.000000  0.000180  1
  Na  Na7  1  0.666667  0.000000  0.498682  1
  Na  Na8  1  0.000000  0.000000  0.752151  1
  Cl  Cl9  1  0.175427  0.087947  0.254296  1
  Cl  Cl10  1  0.103294  0.387045  0.748935  1
  Cl  Cl11  1  0.263375  0.297824  0.254296  1
  Cl  Cl12  1  0.073778  0.690282  0.747672  1
  Cl  Cl13  1  0.222297  0.624699  0.246134  1
  Cl  Cl14  1  0.506516  0.086869  0.249019  1
  Cl  Cl15  1  0.162163  0.911615  0.747672  1
  Cl  Cl16  1  0.435424  0.388200  0.753175  1
  Cl  Cl17  1  0.593385  0.306714  0.249019  1
  Cl  Cl18  1  0.406367  0.696927  0.748935  1
  Cl  Cl19  1  0.561199  0.614228  0.254296  1
  Cl  Cl20  1  0.846996  0.083710  0.246134  1
  Cl  Cl21  1  0.490339  0.916028  0.748935  1
  Cl  Cl22  1  0.764060  0.398102  0.747672  1
  Cl  Cl23  1  0.930706  0.291591  0.246134  1
  Cl  Cl24  1  0.740951  0.694473  0.753175  1
  Cl  Cl25  1  0.900099  0.606417  0.249019  1
  Cl  Cl26  1  0.823624  0.917327  0.753175  1
