# generated using pymatgen
data_Mo(HO2)2
_symmetry_space_group_name_H-M   'P 1'
_cell_length_a   7.93595420
_cell_length_b   3.76432708
_cell_length_c   6.57764800
_cell_angle_alpha   109.02700045
_cell_angle_beta   114.10531052
_cell_angle_gamma   92.13965930
_symmetry_Int_Tables_number   1
_chemical_formula_structural   Mo(HO2)2
_chemical_formula_sum   'Mo2 H4 O8'
_cell_volume   166.22065778
_cell_formula_units_Z   2
loop_
 _symmetry_equiv_pos_site_id
 _symmetry_equiv_pos_as_xyz
  1  'x, y, z'
loop_
 _atom_site_type_symbol
 _atom_site_label
 _atom_site_symmetry_multiplicity
 _atom_site_fract_x
 _atom_site_fract_y
 _atom_site_fract_z
 _atom_site_occupancy
  Mo  Mo0  1  0.790679  0.208645  0.944054  1
  Mo  Mo1  1  0.201630  0.814609  0.070785  1
  H  H2  1  0.658085  0.972415  0.436004  1
  H  H3  1  0.112790  0.510845  0.575850  1
  H  H4  1  0.829954  0.767658  0.498402  1
  H  H5  1  0.315992  0.037658  0.527112  1
  O  O6  1  0.547720  0.123287  0.796965  1
  O  O7  1  0.443140  0.893919  0.196701  1
  O  O8  1  0.116754  0.288092  0.037206  1
  O  O9  1  0.863384  0.704615  0.929274  1
  O  O10  1  0.838114  0.382559  0.246036  1
  O  O11  1  0.161700  0.636416  0.749635  1
  O  O12  1  0.779487  0.985096  0.568670  1
  O  O13  1  0.198138  0.993074  0.380840  1
