# generated using pymatgen
data_K2FePH5(CO5)2
_symmetry_space_group_name_H-M   'P 1'
_cell_length_a   10.48541345
_cell_length_b   11.91550797
_cell_length_c   15.76827158
_cell_angle_alpha   90.00008435
_cell_angle_beta   90.00000000
_cell_angle_gamma   90.00000000
_symmetry_Int_Tables_number   1
_chemical_formula_structural   K2FePH5(CO5)2
_chemical_formula_sum   'K16 Fe8 P8 H40 C16 O80'
_cell_volume   1970.07251707
_cell_formula_units_Z   8
loop_
 _symmetry_equiv_pos_site_id
 _symmetry_equiv_pos_as_xyz
  1  'x, y, z'
loop_
 _atom_site_type_symbol
 _atom_site_label
 _atom_site_symmetry_multiplicity
 _atom_site_fract_x
 _atom_site_fract_y
 _atom_site_fract_z
 _atom_site_occupancy
  K  K0  1  0.300388  0.167535  0.368841  1
  K  K1  1  0.672009  0.332687  0.615447  1
  K  K2  1  0.800388  0.832465  0.131159  1
  K  K3  1  0.327991  0.667313  0.384553  1
  K  K4  1  0.172008  0.167314  0.615448  1
  K  K5  1  0.827992  0.832686  0.384552  1
  K  K6  1  0.827991  0.332687  0.115447  1
  K  K7  1  0.300386  0.667535  0.131161  1
  K  K8  1  0.199614  0.667535  0.631161  1
  K  K9  1  0.800386  0.332465  0.368839  1
  K  K10  1  0.327992  0.167314  0.115448  1
  K  K11  1  0.672008  0.832686  0.884552  1
  K  K12  1  0.172009  0.667313  0.884553  1
  K  K13  1  0.199612  0.167535  0.868841  1
  K  K14  1  0.699612  0.832465  0.631159  1
  K  K15  1  0.699614  0.332465  0.868839  1
  Fe  Fe16  1  0.895829  0.082818  0.761325  1
  Fe  Fe17  1  0.104171  0.917182  0.238675  1
  Fe  Fe18  1  0.895834  0.582809  0.738675  1
  Fe  Fe19  1  0.604171  0.082818  0.261325  1
  Fe  Fe20  1  0.604166  0.582809  0.238675  1
  Fe  Fe21  1  0.104166  0.417191  0.261325  1
  Fe  Fe22  1  0.395834  0.417191  0.761325  1
  Fe  Fe23  1  0.395829  0.917182  0.738675  1
  P  P24  1  0.655462  0.094104  0.476802  1
  P  P25  1  0.344538  0.905896  0.523198  1
  P  P26  1  0.155462  0.405897  0.476802  1
  P  P27  1  0.344538  0.405897  0.976802  1
  P  P28  1  0.844538  0.594103  0.523198  1
  P  P29  1  0.844538  0.094104  0.976802  1
  P  P30  1  0.655462  0.594103  0.023198  1
  P  P31  1  0.155462  0.905896  0.023198  1
  H  H32  1  0.933584  0.646171  0.042033  1
  H  H33  1  0.032765  0.598319  0.459701  1
  H  H34  1  0.467235  0.098319  0.540299  1
  H  H35  1  0.955785  0.277075  0.917573  1
  H  H36  1  0.066416  0.853829  0.542033  1
  H  H37  1  0.532765  0.401681  0.040299  1
  H  H38  1  0.967235  0.401681  0.540299  1
  H  H39  1  0.433174  0.018091  0.896197  1
  H  H40  1  0.143852  0.903998  0.417959  1
  H  H41  1  0.643852  0.096002  0.082041  1
  H  H42  1  0.467235  0.598319  0.959701  1
  H  H43  1  0.933174  0.481909  0.896197  1
  H  H44  1  0.933584  0.146171  0.457967  1
  H  H45  1  0.044215  0.222925  0.417573  1
  H  H46  1  0.643852  0.596002  0.417959  1
  H  H47  1  0.544215  0.777075  0.082427  1
  H  H48  1  0.532765  0.901681  0.459701  1
  H  H49  1  0.933174  0.981909  0.603803  1
  H  H50  1  0.566416  0.146171  0.957967  1
  H  H51  1  0.455785  0.722925  0.582427  1
  H  H52  1  0.433174  0.518091  0.603803  1
  H  H53  1  0.066826  0.518091  0.103803  1
  H  H54  1  0.455785  0.222925  0.917573  1
  H  H55  1  0.066826  0.018091  0.396197  1
  H  H56  1  0.544215  0.277075  0.417573  1
  H  H57  1  0.044215  0.722925  0.082427  1
  H  H58  1  0.856148  0.596002  0.917959  1
  H  H59  1  0.356148  0.403998  0.582041  1
  H  H60  1  0.856148  0.096002  0.582041  1
  H  H61  1  0.955785  0.777075  0.582427  1
  H  H62  1  0.356148  0.903998  0.917959  1
  H  H63  1  0.566826  0.981909  0.103803  1
  H  H64  1  0.433584  0.853829  0.042033  1
  H  H65  1  0.066416  0.353829  0.957967  1
  H  H66  1  0.433584  0.353829  0.457967  1
  H  H67  1  0.143852  0.403998  0.082041  1
  H  H68  1  0.566826  0.481909  0.396197  1
  H  H69  1  0.566416  0.646171  0.542033  1
  H  H70  1  0.032765  0.098319  0.040299  1
  H  H71  1  0.967235  0.901681  0.959701  1
  C  C72  1  0.602724  0.086481  0.740518  1
  C  C73  1  0.397276  0.413519  0.240517  1
  C  C74  1  0.477396  0.155797  0.734737  1
  C  C75  1  0.602724  0.586481  0.759483  1
  C  C76  1  0.102724  0.413519  0.740517  1
  C  C77  1  0.102724  0.913520  0.759482  1
  C  C78  1  0.522603  0.344203  0.234737  1
  C  C79  1  0.897276  0.086481  0.240518  1
  C  C80  1  0.022604  0.155797  0.234737  1
  C  C81  1  0.022603  0.655797  0.265263  1
  C  C82  1  0.977396  0.844203  0.765263  1
  C  C83  1  0.477397  0.655797  0.765263  1
  C  C84  1  0.522604  0.844203  0.265263  1
  C  C85  1  0.977397  0.344203  0.734737  1
  C  C86  1  0.397276  0.913520  0.259482  1
  C  C87  1  0.897276  0.586481  0.259483  1
  O  O88  1  0.489116  0.261175  0.737055  1
  O  O89  1  0.445296  0.365751  0.048639  1
  O  O90  1  0.510884  0.738825  0.262945  1
  O  O91  1  0.373489  0.100768  0.729699  1
  O  O92  1  0.089423  0.942229  0.374099  1
  O  O93  1  0.279482  0.342830  0.500151  1
  O  O94  1  0.478543  0.644562  0.566343  1
  O  O95  1  0.668140  0.965793  0.479619  1
  O  O96  1  0.054704  0.865751  0.951361  1
  O  O97  1  0.489116  0.761175  0.762946  1
  O  O98  1  0.293792  0.359107  0.248565  1
  O  O99  1  0.554704  0.634249  0.951361  1
  O  O100  1  0.706208  0.640893  0.751435  1
  O  O101  1  0.010884  0.761175  0.262946  1
  O  O102  1  0.410576  0.442229  0.625901  1
  O  O103  1  0.478543  0.144562  0.933657  1
  O  O104  1  0.945296  0.134249  0.048639  1
  O  O105  1  0.510884  0.238825  0.237054  1
  O  O106  1  0.831860  0.465793  0.520381  1
  O  O107  1  0.089424  0.442229  0.125901  1
  O  O108  1  0.373488  0.600769  0.770301  1
  O  O109  1  0.331860  0.034207  0.520381  1
  O  O110  1  0.989116  0.738825  0.762945  1
  O  O111  1  0.600709  0.138488  0.391142  1
  O  O112  1  0.126511  0.100768  0.229699  1
  O  O113  1  0.873489  0.899232  0.770301  1
  O  O114  1  0.978543  0.355438  0.933657  1
  O  O115  1  0.279481  0.842830  0.999849  1
  O  O116  1  0.168140  0.534207  0.479619  1
  O  O117  1  0.978543  0.855438  0.566343  1
  O  O118  1  0.410577  0.942229  0.874099  1
  O  O119  1  0.399291  0.361512  0.891143  1
  O  O120  1  0.331860  0.534207  0.979619  1
  O  O121  1  0.220518  0.342830  0.000151  1
  O  O122  1  0.206208  0.359107  0.748565  1
  O  O123  1  0.793792  0.640893  0.251435  1
  O  O124  1  0.720519  0.157170  0.000151  1
  O  O125  1  0.100709  0.861512  0.108858  1
  O  O126  1  0.589423  0.057771  0.125901  1
  O  O127  1  0.021457  0.144562  0.433657  1
  O  O128  1  0.092114  0.519618  0.738815  1
  O  O129  1  0.399291  0.861512  0.608858  1
  O  O130  1  0.793792  0.140893  0.248565  1
  O  O131  1  0.989116  0.238825  0.737054  1
  O  O132  1  0.407886  0.019619  0.261185  1
  O  O133  1  0.910576  0.557771  0.874099  1
  O  O134  1  0.521457  0.355438  0.433657  1
  O  O135  1  0.779482  0.657170  0.999849  1
  O  O136  1  0.720518  0.657170  0.499849  1
  O  O137  1  0.126512  0.600769  0.270301  1
  O  O138  1  0.220519  0.842830  0.499849  1
  O  O139  1  0.407886  0.519618  0.238815  1
  O  O140  1  0.592114  0.480382  0.761185  1
  O  O141  1  0.054704  0.365751  0.548639  1
  O  O142  1  0.600709  0.638488  0.108857  1
  O  O143  1  0.092114  0.019619  0.761185  1
  O  O144  1  0.521457  0.855438  0.066343  1
  O  O145  1  0.168140  0.034207  0.020381  1
  O  O146  1  0.592114  0.980381  0.738815  1
  O  O147  1  0.907886  0.980381  0.238815  1
  O  O148  1  0.668140  0.465793  0.020381  1
  O  O149  1  0.554704  0.134249  0.548639  1
  O  O150  1  0.706208  0.140893  0.748565  1
  O  O151  1  0.021457  0.644562  0.066343  1
  O  O152  1  0.010884  0.261175  0.237055  1
  O  O153  1  0.589424  0.557771  0.374099  1
  O  O154  1  0.445296  0.865751  0.451361  1
  O  O155  1  0.831860  0.965793  0.979619  1
  O  O156  1  0.626512  0.399231  0.229699  1
  O  O157  1  0.899291  0.138488  0.891142  1
  O  O158  1  0.626511  0.899232  0.270301  1
  O  O159  1  0.899291  0.638488  0.608857  1
  O  O160  1  0.910577  0.057771  0.625901  1
  O  O161  1  0.206208  0.859107  0.751435  1
  O  O162  1  0.779481  0.157170  0.500151  1
  O  O163  1  0.907886  0.480382  0.261185  1
  O  O164  1  0.100709  0.361512  0.391143  1
  O  O165  1  0.873488  0.399231  0.729699  1
  O  O166  1  0.293792  0.859107  0.251435  1
  O  O167  1  0.945296  0.634249  0.451361  1
