# generated using pymatgen
data_TiO
_symmetry_space_group_name_H-M   'P 1'
_cell_length_a   2.82078991
_cell_length_b   22.40891628
_cell_length_c   21.31668153
_cell_angle_alpha   6.82495298
_cell_angle_beta   62.41604695
_cell_angle_gamma   63.86705324
_symmetry_Int_Tables_number   1
_chemical_formula_structural   TiO
_chemical_formula_sum   'Ti6 O6'
_cell_volume   139.51890788
_cell_formula_units_Z   6
loop_
 _symmetry_equiv_pos_site_id
 _symmetry_equiv_pos_as_xyz
  1  'x, y, z'
loop_
 _atom_site_type_symbol
 _atom_site_label
 _atom_site_symmetry_multiplicity
 _atom_site_fract_x
 _atom_site_fract_y
 _atom_site_fract_z
 _atom_site_occupancy
  Ti  Ti0  1  0.006008  0.147114  0.994008  1
  Ti  Ti1  1  0.043892  0.317078  0.956098  1
  Ti  Ti2  1  0.027132  0.590806  0.972880  1
  Ti  Ti3  1  0.972802  0.409150  0.027183  1
  Ti  Ti4  1  0.955649  0.682595  0.044362  1
  Ti  Ti5  1  0.994413  0.853182  0.005573  1
  O  O6  1  0.420392  0.014533  0.579644  1
  O  O7  1  0.578703  0.270488  0.421309  1
  O  O8  1  0.386411  0.276030  0.613573  1
  O  O9  1  0.613721  0.724060  0.386298  1
  O  O10  1  0.421421  0.729598  0.578570  1
  O  O11  1  0.579455  0.985365  0.420502  1
