# generated using pymatgen
data_Ce2Nd2O7
_symmetry_space_group_name_H-M   'P 1'
_cell_length_a   3.80789909
_cell_length_b   15.73249767
_cell_length_c   13.56694850
_cell_angle_alpha   30.41831684
_cell_angle_beta   55.85083806
_cell_angle_gamma   61.04774637
_symmetry_Int_Tables_number   1
_chemical_formula_structural   Ce2Nd2O7
_chemical_formula_sum   'Ce4 Nd4 O14'
_cell_volume   340.55776657
_cell_formula_units_Z   2
loop_
 _symmetry_equiv_pos_site_id
 _symmetry_equiv_pos_as_xyz
  1  'x, y, z'
loop_
 _atom_site_type_symbol
 _atom_site_label
 _atom_site_symmetry_multiplicity
 _atom_site_fract_x
 _atom_site_fract_y
 _atom_site_fract_z
 _atom_site_occupancy
  Ce  Ce0  1  0.001510  0.000000  0.999245  1
  Ce  Ce1  1  0.998490  0.500000  0.000755  1
  Ce  Ce2  1  0.000000  0.250000  0.500000  1
  Ce  Ce3  1  0.000000  0.750000  0.000000  1
  Nd  Nd4  1  0.000000  0.250000  0.000000  1
  Nd  Nd5  1  0.044404  0.500000  0.477798  1
  Nd  Nd6  1  0.000000  0.750000  0.500000  1
  Nd  Nd7  1  0.955596  0.000000  0.522202  1
  O  O8  1  0.237190  0.000000  0.131405  1
  O  O9  1  0.243233  0.208850  0.169534  1
  O  O10  1  0.267771  0.500000  0.116115  1
  O  O11  1  0.737637  0.265582  0.365599  1
  O  O12  1  0.262363  0.234418  0.634401  1
  O  O13  1  0.262363  0.765582  0.103237  1
  O  O14  1  0.732229  0.000000  0.883885  1
  O  O15  1  0.768687  0.500000  0.365656  1
  O  O16  1  0.756767  0.291150  0.830466  1
  O  O17  1  0.756767  0.708850  0.412766  1
  O  O18  1  0.243233  0.791150  0.587234  1
  O  O19  1  0.762810  0.500000  0.868595  1
  O  O20  1  0.231313  0.000000  0.634344  1
  O  O21  1  0.737637  0.734418  0.896763  1
