# generated using pymatgen
data_CsAg2(B5O8)3
_symmetry_space_group_name_H-M   'P 1'
_cell_length_a   5.19239814
_cell_length_b   17.99185975
_cell_length_c   22.42853733
_cell_angle_alpha   90.00000000
_cell_angle_beta   90.00000000
_cell_angle_gamma   90.00000000
_symmetry_Int_Tables_number   1
_chemical_formula_structural   CsAg2(B5O8)3
_chemical_formula_sum   'Cs4 Ag8 B60 O96'
_cell_volume   2095.29412289
_cell_formula_units_Z   4
loop_
 _symmetry_equiv_pos_site_id
 _symmetry_equiv_pos_as_xyz
  1  'x, y, z'
loop_
 _atom_site_type_symbol
 _atom_site_label
 _atom_site_symmetry_multiplicity
 _atom_site_fract_x
 _atom_site_fract_y
 _atom_site_fract_z
 _atom_site_occupancy
  Cs  Cs0  1  0.531960  0.673943  0.919501  1
  Cs  Cs1  1  0.468040  0.173943  0.580499  1
  Cs  Cs2  1  0.468040  0.826057  0.419501  1
  Cs  Cs3  1  0.531960  0.326057  0.080499  1
  Ag  Ag4  1  0.952452  0.668415  0.183297  1
  Ag  Ag5  1  0.555280  0.951954  0.119547  1
  Ag  Ag6  1  0.047548  0.168415  0.316703  1
  Ag  Ag7  1  0.444720  0.451954  0.380453  1
  Ag  Ag8  1  0.444720  0.548046  0.619547  1
  Ag  Ag9  1  0.952452  0.331585  0.816703  1
  Ag  Ag10  1  0.047548  0.831585  0.683297  1
  Ag  Ag11  1  0.555280  0.048046  0.880453  1
  B  B12  1  0.266546  0.711182  0.579492  1
  B  B13  1  0.421422  0.474116  0.804232  1
  B  B14  1  0.807949  0.500000  0.000000  1
  B  B15  1  0.135414  0.433065  0.233872  1
  B  B16  1  0.864586  0.066935  0.733872  1
  B  B17  1  0.734286  0.460596  0.897064  1
  B  B18  1  0.135414  0.566935  0.766128  1
  B  B19  1  0.143407  0.556107  0.282929  1
  B  B20  1  0.826563  0.673942  0.750694  1
  B  B21  1  0.515948  0.738689  0.271036  1
  B  B22  1  0.733454  0.788818  0.079492  1
  B  B23  1  0.790468  0.882364  0.882842  1
  B  B24  1  0.438127  0.102978  0.038347  1
  B  B25  1  0.393729  0.698030  0.080033  1
  B  B26  1  0.790468  0.117636  0.117158  1
  B  B27  1  0.421422  0.525884  0.195768  1
  B  B28  1  0.173437  0.826058  0.250694  1
  B  B29  1  0.854797  0.657545  0.322563  1
  B  B30  1  0.856593  0.056107  0.217071  1
  B  B31  1  0.266546  0.288818  0.420508  1
  B  B32  1  0.145203  0.842455  0.822563  1
  B  B33  1  0.192051  0.000000  0.500000  1
  B  B34  1  0.826563  0.326058  0.249306  1
  B  B35  1  0.856593  0.943893  0.782929  1
  B  B36  1  0.484052  0.238689  0.228964  1
  B  B37  1  0.085843  0.128887  0.971988  1
  B  B38  1  0.558021  0.716620  0.667257  1
  B  B39  1  0.561873  0.397022  0.538347  1
  B  B40  1  0.143407  0.443893  0.717071  1
  B  B41  1  0.085843  0.871113  0.028012  1
  B  B42  1  0.209532  0.617636  0.382842  1
  B  B43  1  0.914157  0.371113  0.471988  1
  B  B44  1  0.561873  0.602978  0.461653  1
  B  B45  1  0.927977  0.902611  0.545764  1
  B  B46  1  0.927977  0.097389  0.454236  1
  B  B47  1  0.606271  0.801970  0.580033  1
  B  B48  1  0.393729  0.301970  0.919967  1
  B  B49  1  0.914157  0.628887  0.528012  1
  B  B50  1  0.145203  0.157545  0.177437  1
  B  B51  1  0.438127  0.897022  0.961653  1
  B  B52  1  0.864586  0.933065  0.266128  1
  B  B53  1  0.265714  0.960596  0.602936  1
  B  B54  1  0.072023  0.402611  0.954236  1
  B  B55  1  0.578578  0.974116  0.695768  1
  B  B56  1  0.441978  0.216620  0.832743  1
  B  B57  1  0.169250  0.000000  0.000000  1
  B  B58  1  0.734286  0.539404  0.102936  1
  B  B59  1  0.173437  0.173942  0.749306  1
  B  B60  1  0.484052  0.761311  0.771036  1
  B  B61  1  0.578578  0.025884  0.304232  1
  B  B62  1  0.606271  0.198030  0.419967  1
  B  B63  1  0.733454  0.211182  0.920508  1
  B  B64  1  0.830750  0.500000  0.500000  1
  B  B65  1  0.265714  0.039404  0.397064  1
  B  B66  1  0.441978  0.783380  0.167257  1
  B  B67  1  0.854797  0.342455  0.677437  1
  B  B68  1  0.072023  0.597389  0.045764  1
  B  B69  1  0.209532  0.382364  0.617158  1
  B  B70  1  0.515948  0.261311  0.728964  1
  B  B71  1  0.558021  0.283380  0.332743  1
  O  O72  1  0.365648  0.221087  0.440179  1
  O  O73  1  0.675173  0.076201  0.264952  1
  O  O74  1  0.337919  0.452159  0.195259  1
  O  O75  1  0.921956  0.608528  0.279157  1
  O  O76  1  0.600132  0.255865  0.786406  1
  O  O77  1  0.620678  0.824792  0.127191  1
  O  O78  1  0.662081  0.047841  0.695259  1
  O  O79  1  0.298192  0.725678  0.132084  1
  O  O80  1  0.653934  0.467374  0.546970  1
  O  O81  1  0.724327  0.064538  0.157844  1
  O  O82  1  0.349946  0.793907  0.816986  1
  O  O83  1  0.650054  0.706093  0.316986  1
  O  O84  1  0.269749  0.351230  0.957232  1
  O  O85  1  0.078044  0.891472  0.779157  1
  O  O86  1  0.644255  0.866111  0.932152  1
  O  O87  1  0.662081  0.952159  0.304741  1
  O  O88  1  0.324827  0.576201  0.235048  1
  O  O89  1  0.346066  0.967374  0.953030  1
  O  O90  1  0.701808  0.774322  0.632084  1
  O  O91  1  0.023950  0.635027  0.777352  1
  O  O92  1  0.976050  0.864973  0.277352  1
  O  O93  1  0.730251  0.148770  0.457232  1
  O  O94  1  0.675173  0.923799  0.735048  1
  O  O95  1  0.354637  0.002579  0.445425  1
  O  O96  1  0.677864  0.649632  0.503029  1
  O  O97  1  0.055597  0.686518  0.549853  1
  O  O98  1  0.701808  0.225678  0.367916  1
  O  O99  1  0.025024  0.932653  0.495337  1
  O  O100  1  0.989552  0.338846  0.624000  1
  O  O101  1  0.051131  0.520372  0.722897  1
  O  O102  1  0.644255  0.133889  0.067848  1
  O  O103  1  0.287857  0.773367  0.288317  1
  O  O104  1  0.023950  0.364973  0.222648  1
  O  O105  1  0.730251  0.851230  0.542768  1
  O  O106  1  0.650054  0.293907  0.683014  1
  O  O107  1  0.976050  0.135027  0.722648  1
  O  O108  1  0.944403  0.813482  0.049853  1
  O  O109  1  0.275673  0.435462  0.657844  1
  O  O110  1  0.275673  0.564538  0.342156  1
  O  O111  1  0.677864  0.350368  0.496971  1
  O  O112  1  0.974976  0.432653  0.004663  1
  O  O113  1  0.379322  0.675208  0.627191  1
  O  O114  1  0.007211  0.056908  0.972219  1
  O  O115  1  0.992789  0.443092  0.472219  1
  O  O116  1  0.365648  0.778913  0.559821  1
  O  O117  1  0.607289  0.548772  0.156027  1
  O  O118  1  0.354637  0.997421  0.554575  1
  O  O119  1  0.269749  0.648770  0.042768  1
  O  O120  1  0.948869  0.979628  0.222897  1
  O  O121  1  0.712143  0.273367  0.211683  1
  O  O122  1  0.379322  0.324792  0.372809  1
  O  O123  1  0.028105  0.922407  0.601347  1
  O  O124  1  0.974976  0.567347  0.995337  1
  O  O125  1  0.010448  0.161154  0.124000  1
  O  O126  1  0.322136  0.850368  0.003029  1
  O  O127  1  0.944403  0.186518  0.950147  1
  O  O128  1  0.634352  0.721087  0.059821  1
  O  O129  1  0.600132  0.744135  0.213594  1
  O  O130  1  0.349946  0.206093  0.183014  1
  O  O131  1  0.355745  0.366111  0.567848  1
  O  O132  1  0.653934  0.532626  0.453030  1
  O  O133  1  0.740341  0.664808  0.693853  1
  O  O134  1  0.028105  0.077593  0.398653  1
  O  O135  1  0.971896  0.577593  0.101347  1
  O  O136  1  0.007211  0.943092  0.027781  1
  O  O137  1  0.259659  0.164808  0.806147  1
  O  O138  1  0.921956  0.391472  0.720843  1
  O  O139  1  0.992789  0.556908  0.527781  1
  O  O140  1  0.724327  0.935462  0.842156  1
  O  O141  1  0.399868  0.244135  0.286406  1
  O  O142  1  0.355745  0.633889  0.432152  1
  O  O143  1  0.645363  0.502579  0.054575  1
  O  O144  1  0.010448  0.838846  0.876000  1
  O  O145  1  0.298192  0.274322  0.867916  1
  O  O146  1  0.324827  0.423799  0.764952  1
  O  O147  1  0.055597  0.313482  0.450147  1
  O  O148  1  0.287857  0.226633  0.711683  1
  O  O149  1  0.607289  0.451228  0.843973  1
  O  O150  1  0.948869  0.020372  0.777103  1
  O  O151  1  0.989552  0.661154  0.376000  1
  O  O152  1  0.051131  0.479628  0.277103  1
  O  O153  1  0.620678  0.175208  0.872809  1
  O  O154  1  0.259659  0.835192  0.193853  1
  O  O155  1  0.645363  0.497421  0.945425  1
  O  O156  1  0.337919  0.547841  0.804741  1
  O  O157  1  0.399868  0.755865  0.713594  1
  O  O158  1  0.634352  0.278913  0.940179  1
  O  O159  1  0.078044  0.108528  0.220843  1
  O  O160  1  0.322136  0.149632  0.996971  1
  O  O161  1  0.712143  0.726633  0.788317  1
  O  O162  1  0.971896  0.422407  0.898653  1
  O  O163  1  0.740341  0.335192  0.306147  1
  O  O164  1  0.392711  0.951228  0.656027  1
  O  O165  1  0.346066  0.032626  0.046970  1
  O  O166  1  0.025024  0.067347  0.504663  1
  O  O167  1  0.392711  0.048772  0.343973  1
