# generated using pymatgen
data_Rb2YbTi(PO4)3
_symmetry_space_group_name_H-M   'P 1'
_cell_length_a   10.38589074
_cell_length_b   10.42533817
_cell_length_c   20.73047064
_cell_angle_alpha   90.01053819
_cell_angle_beta   90.00000000
_cell_angle_gamma   90.00000000
_symmetry_Int_Tables_number   1
_chemical_formula_structural   Rb2YbTi(PO4)3
_chemical_formula_sum   'Rb16 Yb8 Ti8 P24 O96'
_cell_volume   2244.62117470
_cell_formula_units_Z   8
loop_
 _symmetry_equiv_pos_site_id
 _symmetry_equiv_pos_as_xyz
  1  'x, y, z'
loop_
 _atom_site_type_symbol
 _atom_site_label
 _atom_site_symmetry_multiplicity
 _atom_site_fract_x
 _atom_site_fract_y
 _atom_site_fract_z
 _atom_site_occupancy
  Yb  Yb0  1  0.086297  0.584266  0.957109  1
  Yb  Yb1  1  0.147306  0.140263  0.578583  1
  Yb  Yb2  1  0.413228  0.416816  0.211031  1
  Yb  Yb3  1  0.412939  0.418464  0.703899  1
  Yb  Yb4  1  0.586297  0.915734  0.042891  1
  Yb  Yb5  1  0.647306  0.359737  0.421417  1
  Yb  Yb6  1  0.912939  0.081536  0.296101  1
  Yb  Yb7  1  0.913228  0.083184  0.788969  1
  Rb  Rb8  1  0.067370  0.420384  0.284802  1
  Rb  Rb9  1  0.074219  0.424758  0.784955  1
  Rb  Rb10  1  0.209646  0.789514  0.146046  1
  Rb  Rb11  1  0.204046  0.791997  0.645992  1
  Rb  Rb12  1  0.291855  0.205449  0.397982  1
  Rb  Rb13  1  0.290991  0.209425  0.896890  1
  Rb  Rb14  1  0.425542  0.575033  0.037849  1
  Rb  Rb15  1  0.430603  0.559004  0.535813  1
  Rb  Rb16  1  0.574219  0.075242  0.215045  1
  Rb  Rb17  1  0.567370  0.079616  0.715198  1
  Rb  Rb18  1  0.704046  0.708003  0.354008  1
  Rb  Rb19  1  0.709646  0.710486  0.853954  1
  Rb  Rb20  1  0.791855  0.294551  0.602018  1
  Rb  Rb21  1  0.790991  0.290575  0.103110  1
  Rb  Rb22  1  0.930603  0.940996  0.464187  1
  Rb  Rb23  1  0.925542  0.924967  0.962151  1
  Ti  Ti24  1  0.080203  0.589586  0.457892  1
  Ti  Ti25  1  0.143346  0.144271  0.071891  1
  Ti  Ti26  1  0.355518  0.849669  0.320570  1
  Ti  Ti27  1  0.357425  0.857009  0.824992  1
  Ti  Ti28  1  0.580203  0.910414  0.542108  1
  Ti  Ti29  1  0.643346  0.355729  0.928109  1
  Ti  Ti30  1  0.857425  0.642991  0.175008  1
  Ti  Ti31  1  0.855518  0.650331  0.679430  1
  P  P32  1  0.043648  0.756295  0.312462  1
  P  P33  1  0.047389  0.763497  0.808152  1
  P  P34  1  0.108587  0.471334  0.612954  1
  P  P35  1  0.117531  0.454140  0.118430  1
  P  P36  1  0.237988  0.111388  0.227313  1
  P  P37  1  0.244700  0.111662  0.733901  1
  P  P38  1  0.272598  0.866777  0.476334  1
  P  P39  1  0.260369  0.885144  0.979095  1
  P  P40  1  0.359011  0.547656  0.370252  1
  P  P41  1  0.387830  0.545495  0.867855  1
  P  P42  1  0.453097  0.240063  0.057819  1
  P  P43  1  0.467571  0.217309  0.559935  1
  P  P44  1  0.547389  0.736503  0.191848  1
  P  P45  1  0.543648  0.743705  0.687538  1
  P  P46  1  0.608587  0.028666  0.387046  1
  P  P47  1  0.617531  0.045860  0.881570  1
  P  P48  1  0.744700  0.388338  0.266099  1
  P  P49  1  0.737988  0.388612  0.772687  1
  P  P50  1  0.760369  0.614856  0.020905  1
  P  P51  1  0.772598  0.633223  0.523666  1
  P  P52  1  0.859011  0.952344  0.629748  1
  P  P53  1  0.887830  0.954505  0.132145  1
  P  P54  1  0.967571  0.282691  0.440065  1
  P  P55  1  0.953097  0.259937  0.942181  1
  O  O56  1  0.004571  0.429255  0.434162  1
  O  O57  1  0.007570  0.391789  0.926285  1
  O  O58  1  0.003309  0.555676  0.647069  1
  O  O59  1  0.997472  0.530419  0.144550  1
  O  O60  1  0.029913  0.668233  0.373808  1
  O  O61  1  0.020860  0.667184  0.861886  1
  O  O62  1  0.058214  0.216930  0.488033  1
  O  O63  1  0.021476  0.204720  0.004280  1
  O  O64  1  0.065525  0.331375  0.615302  1
  O  O65  1  0.084615  0.306493  0.116608  1
  O  O66  1  0.104311  0.137568  0.253245  1
  O  O67  1  0.106505  0.145790  0.752477  1
  O  O68  1  0.122019  0.520027  0.541694  1
  O  O69  1  0.151400  0.503852  0.051634  1
  O  O70  1  0.190807  0.741463  0.484410  1
  O  O71  1  0.163676  0.777667  0.992685  1
  O  O72  1  0.189018  0.764119  0.292809  1
  O  O73  1  0.195889  0.767515  0.792795  1
  O  O74  1  0.205228  0.010767  0.011455  1
  O  O75  1  0.205629  0.971995  0.514183  1
  O  O76  1  0.233454  0.085457  0.152210  1
  O  O77  1  0.257480  0.058652  0.665405  1
  O  O78  1  0.225622  0.479207  0.166815  1
  O  O79  1  0.236585  0.495330  0.647274  1
  O  O80  1  0.238440  0.532067  0.415484  1
  O  O81  1  0.279735  0.520564  0.915958  1
  O  O82  1  0.275396  0.904833  0.403106  1
  O  O83  1  0.267315  0.910910  0.904437  1
  O  O84  1  0.296843  0.988412  0.260916  1
  O  O85  1  0.294220  0.003085  0.781004  1
  O  O86  1  0.304226  0.233169  0.042979  1
  O  O87  1  0.327966  0.228500  0.538327  1
  O  O88  1  0.330479  0.222241  0.240700  1
  O  O89  1  0.331709  0.228640  0.746091  1
  O  O90  1  0.326800  0.493824  0.304059  1
  O  O91  1  0.355241  0.492167  0.801473  1
  O  O92  1  0.393007  0.854396  0.005781  1
  O  O93  1  0.411570  0.842583  0.503189  1
  O  O94  1  0.397173  0.692979  0.366120  1
  O  O95  1  0.419391  0.693639  0.863638  1
  O  O96  1  0.474769  0.787910  0.253343  1
  O  O97  1  0.467507  0.808255  0.743978  1
  O  O98  1  0.477383  0.335066  0.112980  1
  O  O99  1  0.492892  0.281787  0.625567  1
  O  O100  1  0.510865  0.476709  0.896285  1
  O  O101  1  0.469929  0.476974  0.402651  1
  O  O102  1  0.495265  0.603749  0.175695  1
  O  O103  1  0.489882  0.612410  0.670973  1
  O  O104  1  0.507570  0.108211  0.073715  1
  O  O105  1  0.504571  0.070745  0.565838  1
  O  O106  1  0.503309  0.944324  0.352931  1
  O  O107  1  0.497472  0.969581  0.855450  1
  O  O108  1  0.520860  0.832816  0.138114  1
  O  O109  1  0.529913  0.831767  0.626192  1
  O  O110  1  0.521476  0.295280  0.995720  1
  O  O111  1  0.558214  0.283070  0.511967  1
  O  O112  1  0.565525  0.168625  0.384698  1
  O  O113  1  0.584615  0.193507  0.883392  1
  O  O114  1  0.606505  0.354210  0.247523  1
  O  O115  1  0.604311  0.362432  0.746755  1
  O  O116  1  0.622019  0.979973  0.458306  1
  O  O117  1  0.651400  0.996148  0.948366  1
  O  O118  1  0.663676  0.722333  0.007315  1
  O  O119  1  0.690807  0.758537  0.515590  1
  O  O120  1  0.695889  0.732485  0.207205  1
  O  O121  1  0.689018  0.735881  0.707191  1
  O  O122  1  0.705629  0.528005  0.485817  1
  O  O123  1  0.705228  0.489233  0.988545  1
  O  O124  1  0.757480  0.441348  0.334595  1
  O  O125  1  0.733454  0.414543  0.847790  1
  O  O126  1  0.736585  0.004670  0.352726  1
  O  O127  1  0.725622  0.020793  0.833186  1
  O  O128  1  0.779735  0.979436  0.084042  1
  O  O129  1  0.738440  0.967933  0.584516  1
  O  O130  1  0.767315  0.589090  0.095563  1
  O  O131  1  0.775396  0.595167  0.596894  1
  O  O132  1  0.794220  0.496915  0.218996  1
  O  O133  1  0.796843  0.511588  0.739084  1
  O  O134  1  0.827966  0.271500  0.461673  1
  O  O135  1  0.804226  0.266831  0.957021  1
  O  O136  1  0.831709  0.271359  0.253909  1
  O  O137  1  0.830479  0.277759  0.759300  1
  O  O138  1  0.826800  0.006176  0.695941  1
  O  O139  1  0.855241  0.007833  0.198527  1
  O  O140  1  0.911570  0.657417  0.496811  1
  O  O141  1  0.893007  0.645604  0.994219  1
  O  O142  1  0.897173  0.807021  0.633880  1
  O  O143  1  0.919391  0.806361  0.136362  1
  O  O144  1  0.967507  0.691745  0.256022  1
  O  O145  1  0.974769  0.712090  0.746657  1
  O  O146  1  0.992892  0.218213  0.374433  1
  O  O147  1  0.977383  0.164934  0.887020  1
  O  O148  1  0.969928  0.023026  0.597349  1
  O  O149  1  0.010865  0.023291  0.103715  1
  O  O150  1  0.989882  0.887590  0.329027  1
  O  O151  1  0.995265  0.896251  0.824305  1
