# generated using pymatgen
data_Rb2Sn(H2N)6
_symmetry_space_group_name_H-M   'P 1'
_cell_length_a   6.79297229
_cell_length_b   6.79302002
_cell_length_c   5.71732482
_cell_angle_alpha   89.99981363
_cell_angle_beta   90.00003652
_cell_angle_gamma   119.99886623
_symmetry_Int_Tables_number   1
_chemical_formula_structural   Rb2Sn(H2N)6
_chemical_formula_sum   'Rb2 Sn1 H12 N6'
_cell_volume   228.48158211
_cell_formula_units_Z   1
loop_
 _symmetry_equiv_pos_site_id
 _symmetry_equiv_pos_as_xyz
  1  'x, y, z'
loop_
 _atom_site_type_symbol
 _atom_site_label
 _atom_site_symmetry_multiplicity
 _atom_site_fract_x
 _atom_site_fract_y
 _atom_site_fract_z
 _atom_site_occupancy
  Rb  Rb0  1  0.666632  0.333316  0.794953  1
  Rb  Rb1  1  0.333368  0.666684  0.205047  1
  Sn  Sn2  1  0.000000  0.000000  0.000000  1
  H  H3  1  0.265369  0.415137  0.783089  1
  H  H4  1  0.149756  0.734621  0.783089  1
  H  H5  1  0.584863  0.850239  0.783085  1
  H  H6  1  0.734631  0.584863  0.216911  1
  H  H7  1  0.850244  0.265379  0.216911  1
  H  H8  1  0.415137  0.149761  0.216915  1
  H  H9  1  0.054635  0.254996  0.611076  1
  H  H10  1  0.200356  0.945361  0.611078  1
  H  H11  1  0.745007  0.799641  0.611077  1
  H  H12  1  0.945365  0.745004  0.388924  1
  H  H13  1  0.799644  0.054639  0.388922  1
  H  H14  1  0.254993  0.200359  0.388923  1
  N  N15  1  0.092323  0.305523  0.782315  1
  N  N16  1  0.213197  0.907668  0.782315  1
  N  N17  1  0.694471  0.786801  0.782317  1
  N  N18  1  0.907677  0.694477  0.217685  1
  N  N19  1  0.786803  0.092332  0.217685  1
  N  N20  1  0.305529  0.213199  0.217683  1
