# generated using pymatgen
data_Ba2Li(BO2)5
_symmetry_space_group_name_H-M   'P 1'
_cell_length_a   4.46781365
_cell_length_b   6.77672028
_cell_length_c   14.87434295
_cell_angle_alpha   90.00000000
_cell_angle_beta   90.00000000
_cell_angle_gamma   104.22459686
_symmetry_Int_Tables_number   1
_chemical_formula_structural   Ba2Li(BO2)5
_chemical_formula_sum   'Ba4 Li2 B10 O20'
_cell_volume   436.54449265
_cell_formula_units_Z   2
loop_
 _symmetry_equiv_pos_site_id
 _symmetry_equiv_pos_as_xyz
  1  'x, y, z'
loop_
 _atom_site_type_symbol
 _atom_site_label
 _atom_site_symmetry_multiplicity
 _atom_site_fract_x
 _atom_site_fract_y
 _atom_site_fract_z
 _atom_site_occupancy
  Li  Li0  1  0.009039  0.521006  0.750000  1
  Li  Li1  1  0.990961  0.478994  0.250000  1
  B  B2  1  0.562073  0.680223  0.164618  1
  B  B3  1  0.437927  0.319777  0.664618  1
  B  B4  1  0.437927  0.319777  0.835382  1
  B  B5  1  0.562073  0.680223  0.335382  1
  B  B6  1  0.228406  0.994889  0.750000  1
  B  B7  1  0.771594  0.005111  0.250000  1
  B  B8  1  0.949583  0.319682  0.919151  1
  B  B9  1  0.050417  0.680318  0.419151  1
  B  B10  1  0.050417  0.680318  0.080849  1
  B  B11  1  0.949583  0.319682  0.580849  1
  O  O12  1  0.274688  0.393693  0.910936  1
  O  O13  1  0.725312  0.606307  0.410936  1
  O  O14  1  0.725312  0.606307  0.089064  1
  O  O15  1  0.274688  0.393693  0.589064  1
  O  O16  1  0.377425  0.412483  0.750000  1
  O  O17  1  0.622575  0.587517  0.250000  1
  O  O18  1  0.039173  0.806095  0.750000  1
  O  O19  1  0.960827  0.193905  0.250000  1
  O  O20  1  0.829993  0.191033  0.513844  1
  O  O21  1  0.170007  0.808967  0.013844  1
  O  O22  1  0.170007  0.808967  0.486156  1
  O  O23  1  0.829993  0.191033  0.986156  1
  O  O24  1  0.776326  0.391178  0.645552  1
  O  O25  1  0.223674  0.608822  0.145552  1
  O  O26  1  0.223674  0.608822  0.354448  1
  O  O27  1  0.776326  0.391178  0.854448  1
  O  O28  1  0.331764  0.093477  0.668763  1
  O  O29  1  0.668236  0.906523  0.168763  1
  O  O30  1  0.668236  0.906523  0.331237  1
  O  O31  1  0.331764  0.093477  0.831237  1
  Ba  Ba32  1  0.666122  0.801849  0.913023  1
  Ba  Ba33  1  0.333878  0.198151  0.413023  1
  Ba  Ba34  1  0.333878  0.198151  0.086977  1
  Ba  Ba35  1  0.666122  0.801849  0.586977  1
