# generated using pymatgen
data_P3CN4Cl7
_symmetry_space_group_name_H-M   'P 1'
_cell_length_a   10.60821514
_cell_length_b   10.77282730
_cell_length_c   13.00942355
_cell_angle_alpha   90.00000000
_cell_angle_beta   90.00000000
_cell_angle_gamma   111.25773742
_symmetry_Int_Tables_number   1
_chemical_formula_structural   P3CN4Cl7
_chemical_formula_sum   'P12 C4 N16 Cl28'
_cell_volume   1385.56478660
_cell_formula_units_Z   4
loop_
 _symmetry_equiv_pos_site_id
 _symmetry_equiv_pos_as_xyz
  1  'x, y, z'
loop_
 _atom_site_type_symbol
 _atom_site_label
 _atom_site_symmetry_multiplicity
 _atom_site_fract_x
 _atom_site_fract_y
 _atom_site_fract_z
 _atom_site_occupancy
  P  P0  1  0.274038  0.261269  0.649045  1
  P  P1  1  0.427063  0.759448  0.604563  1
  P  P2  1  0.452680  0.525338  0.706784  1
  P  P3  1  0.047320  0.474662  0.206784  1
  P  P4  1  0.225962  0.738731  0.149045  1
  P  P5  1  0.725962  0.738731  0.350955  1
  P  P6  1  0.547320  0.474662  0.293216  1
  P  P7  1  0.927063  0.759448  0.895437  1
  P  P8  1  0.774038  0.261269  0.850955  1
  P  P9  1  0.072937  0.240552  0.104563  1
  P  P10  1  0.952680  0.525338  0.793216  1
  P  P11  1  0.572937  0.240552  0.395437  1
  C  C12  1  0.333067  0.151177  0.479001  1
  C  C13  1  0.666933  0.848823  0.520999  1
  C  C14  1  0.833067  0.151177  0.020999  1
  C  C15  1  0.166933  0.848823  0.979001  1
  N  N16  1  0.891023  0.609335  0.862609  1
  N  N17  1  0.916422  0.142609  0.092906  1
  N  N18  1  0.859288  0.374642  0.774807  1
  N  N19  1  0.640712  0.625358  0.274807  1
  N  N20  1  0.108977  0.390665  0.137391  1
  N  N21  1  0.139164  0.763513  0.055793  1
  N  N22  1  0.359288  0.374642  0.725193  1
  N  N23  1  0.083578  0.857391  0.907094  1
  N  N24  1  0.639164  0.763513  0.444207  1
  N  N25  1  0.360836  0.236487  0.555793  1
  N  N26  1  0.608977  0.390665  0.362609  1
  N  N27  1  0.391023  0.609335  0.637391  1
  N  N28  1  0.583578  0.857391  0.592906  1
  N  N29  1  0.860836  0.236487  0.944207  1
  N  N30  1  0.416422  0.142609  0.407094  1
  N  N31  1  0.140712  0.625358  0.225193  1
  Cl  Cl32  1  0.388285  0.700450  0.095397  1
  Cl  Cl33  1  0.634262  0.535832  0.650428  1
  Cl  Cl34  1  0.810507  0.903116  0.264947  1
  Cl  Cl35  1  0.189493  0.096884  0.735053  1
  Cl  Cl36  1  0.320056  0.759609  0.476922  1
  Cl  Cl37  1  0.679944  0.240391  0.523078  1
  Cl  Cl38  1  0.134262  0.535832  0.849572  1
  Cl  Cl39  1  0.611715  0.299550  0.904603  1
  Cl  Cl40  1  0.111715  0.299550  0.595397  1
  Cl  Cl41  1  0.332262  0.969198  0.966171  1
  Cl  Cl42  1  0.667738  0.030802  0.033829  1
  Cl  Cl43  1  0.310507  0.903116  0.235053  1
  Cl  Cl44  1  0.147482  0.146045  0.207664  1
  Cl  Cl45  1  0.852518  0.853955  0.792336  1
  Cl  Cl46  1  0.888285  0.700450  0.404603  1
  Cl  Cl47  1  0.352518  0.853955  0.707664  1
  Cl  Cl48  1  0.832262  0.969198  0.533829  1
  Cl  Cl49  1  0.500864  0.606377  0.848555  1
  Cl  Cl50  1  0.647482  0.146045  0.292336  1
  Cl  Cl51  1  0.167738  0.030802  0.466171  1
  Cl  Cl52  1  0.179944  0.240391  0.976922  1
  Cl  Cl53  1  0.865738  0.464168  0.150428  1
  Cl  Cl54  1  0.365738  0.464168  0.349572  1
  Cl  Cl55  1  0.689493  0.096884  0.764947  1
  Cl  Cl56  1  0.499136  0.393623  0.151445  1
  Cl  Cl57  1  0.820056  0.759609  0.023078  1
  Cl  Cl58  1  0.999136  0.393623  0.348555  1
  Cl  Cl59  1  0.000864  0.606377  0.651445  1
