# generated using pymatgen
data_TlOF
_symmetry_space_group_name_H-M   'P 1'
_cell_length_a   9.70895259
_cell_length_b   9.43570228
_cell_length_c   9.43570229
_cell_angle_alpha   107.73905309
_cell_angle_beta   109.09514572
_cell_angle_gamma   109.09514712
_symmetry_Int_Tables_number   1
_chemical_formula_structural   TlOF
_chemical_formula_sum   'Tl16 O16 F16'
_cell_volume   684.97044419
_cell_formula_units_Z   16
loop_
 _symmetry_equiv_pos_site_id
 _symmetry_equiv_pos_as_xyz
  1  'x, y, z'
loop_
 _atom_site_type_symbol
 _atom_site_label
 _atom_site_symmetry_multiplicity
 _atom_site_fract_x
 _atom_site_fract_y
 _atom_site_fract_z
 _atom_site_occupancy
  Tl  Tl0  1  0.209640  0.965278  0.710115  1
  Tl  Tl1  1  0.019872  0.250638  0.742547  1
  Tl  Tl2  1  0.474438  0.732696  0.732696  1
  Tl  Tl3  1  0.209640  0.710115  0.965278  1
  Tl  Tl4  1  0.991083  0.970087  0.970087  1
  Tl  Tl5  1  0.271279  0.258118  0.525064  1
  Tl  Tl6  1  0.271279  0.525064  0.258118  1
  Tl  Tl7  1  0.772102  0.028274  0.268466  1
  Tl  Tl8  1  0.506755  0.273089  0.273089  1
  Tl  Tl9  1  0.471979  0.988978  0.479580  1
  Tl  Tl10  1  0.471979  0.479580  0.988978  1
  Tl  Tl11  1  0.740607  0.491778  0.757021  1
  Tl  Tl12  1  0.740607  0.757021  0.491778  1
  Tl  Tl13  1  0.772102  0.268466  0.028274  1
  Tl  Tl14  1  0.034896  0.508730  0.508730  1
  Tl  Tl15  1  0.019872  0.742547  0.250638  1
  O  O16  1  0.980640  0.476802  0.720355  1
  O  O17  1  0.262331  0.762205  0.762205  1
  O  O18  1  0.011449  0.231102  0.485506  1
  O  O19  1  0.011449  0.485506  0.231102  1
  O  O20  1  0.966885  0.724699  0.979779  1
  O  O21  1  0.260254  0.226490  0.765737  1
  O  O22  1  0.260254  0.765737  0.226490  1
  O  O23  1  0.266095  0.494949  0.494949  1
  O  O24  1  0.234689  0.991527  0.480048  1
  O  O25  1  0.234689  0.480048  0.991527  1
  O  O26  1  0.507797  0.500355  0.770948  1
  O  O27  1  0.507797  0.770948  0.500355  1
  O  O28  1  0.515959  0.247359  0.506911  1
  O  O29  1  0.515959  0.506911  0.247359  1
  O  O30  1  0.980640  0.720355  0.476802  1
  O  O31  1  0.966885  0.979779  0.724699  1
  F  F32  1  0.990211  0.998065  0.212912  1
  F  F33  1  0.990211  0.212912  0.998065  1
  F  F34  1  0.252930  0.243037  0.243037  1
  F  F35  1  0.738185  0.035809  0.501516  1
  F  F36  1  0.724792  0.764345  0.764345  1
  F  F37  1  0.242286  0.999596  0.999596  1
  F  F38  1  0.517646  0.022450  0.761976  1
  F  F39  1  0.517646  0.761976  0.022450  1
  F  F40  1  0.520964  0.025017  0.227678  1
  F  F41  1  0.520964  0.227678  0.025017  1
  F  F42  1  0.735012  0.525150  0.525150  1
  F  F43  1  0.774542  0.268743  0.792123  1
  F  F44  1  0.774542  0.792123  0.268743  1
  F  F45  1  0.738185  0.501516  0.035809  1
  F  F46  1  0.769688  0.292133  0.292133  1
  F  F47  1  0.730298  0.014220  0.014220  1
