# generated using pymatgen
data_Sr24Ta8O43
_symmetry_space_group_name_H-M   'P 1'
_cell_length_a   6.05689049
_cell_length_b   6.10516463
_cell_length_c   48.33993733
_cell_angle_alpha   58.28903171
_cell_angle_beta   59.85089757
_cell_angle_gamma   59.53455743
_symmetry_Int_Tables_number   1
_chemical_formula_structural   Sr24Ta8O43
_chemical_formula_sum   'Sr24 Ta8 O43'
_cell_volume   1241.13025201
_cell_formula_units_Z   1
loop_
 _symmetry_equiv_pos_site_id
 _symmetry_equiv_pos_as_xyz
  1  'x, y, z'
loop_
 _atom_site_type_symbol
 _atom_site_label
 _atom_site_symmetry_multiplicity
 _atom_site_fract_x
 _atom_site_fract_y
 _atom_site_fract_z
 _atom_site_occupancy
  Sr  Sr0  1  0.184503  0.291144  0.026045  1
  Sr  Sr1  1  0.444302  0.523719  0.062882  1
  Sr  Sr2  1  0.193400  0.289800  0.150982  1
  Sr  Sr3  1  0.669511  0.721728  0.098483  1
  Sr  Sr4  1  0.482928  0.467781  0.188690  1
  Sr  Sr5  1  0.238473  0.244694  0.282214  1
  Sr  Sr6  1  0.738957  0.700356  0.215932  1
  Sr  Sr7  1  0.153268  0.272594  0.414349  1
  Sr  Sr8  1  0.527904  0.498472  0.312440  1
  Sr  Sr9  1  0.179433  0.270212  0.524977  1
  Sr  Sr10  1  0.446769  0.533085  0.435730  1
  Sr  Sr11  1  0.733345  0.723653  0.346758  1
  Sr  Sr12  1  0.456805  0.433622  0.572125  1
  Sr  Sr13  1  0.645883  0.684956  0.481403  1
  Sr  Sr14  1  0.147189  0.277242  0.665264  1
  Sr  Sr15  1  0.248876  0.209157  0.771573  1
  Sr  Sr16  1  0.740251  0.703862  0.587030  1
  Sr  Sr17  1  0.468401  0.551244  0.680251  1
  Sr  Sr18  1  0.673297  0.669034  0.730449  1
  Sr  Sr19  1  0.473175  0.439178  0.820216  1
  Sr  Sr20  1  0.240991  0.235905  0.910885  1
  Sr  Sr21  1  0.757660  0.719486  0.833908  1
  Sr  Sr22  1  0.526304  0.533770  0.928263  1
  Sr  Sr23  1  0.686668  0.737212  0.972687  1
  Ta  Ta24  1  0.995102  0.008941  0.996684  1
  Ta  Ta25  1  0.946563  0.008490  0.124704  1
  Ta  Ta26  1  0.027111  0.986660  0.251716  1
  Ta  Ta27  1  0.023848  0.987045  0.377725  1
  Ta  Ta28  1  0.937663  0.990074  0.502561  1
  Ta  Ta29  1  0.029405  0.991978  0.626934  1
  Ta  Ta30  1  0.954342  0.992347  0.750013  1
  Ta  Ta31  1  0.049867  0.004296  0.873341  1
  O  O32  1  0.111690  0.301154  0.103829  1
  O  O33  1  0.802465  0.250307  0.023191  1
  O  O34  1  0.199477  0.907670  0.082689  1
  O  O35  1  0.218001  0.709776  0.150593  1
  O  O36  1  0.647602  0.290704  0.105309  1
  O  O37  1  0.813777  0.743151  0.030191  1
  O  O38  1  0.260012  0.690538  0.232006  1
  O  O39  1  0.722805  0.115226  0.166718  1
  O  O40  1  0.335940  0.952280  0.384754  1
  O  O41  1  0.358111  0.920541  0.257775  1
  O  O42  1  0.902124  0.238093  0.213046  1
  O  O43  1  0.773353  0.724729  0.144106  1
  O  O44  1  0.286452  0.684409  0.358999  1
  O  O45  1  0.869533  0.298337  0.267424  1
  O  O46  1  0.131901  0.276824  0.475506  1
  O  O47  1  0.766414  0.819048  0.288302  1
  O  O48  1  0.876845  0.180599  0.340194  1
  O  O49  1  0.821052  0.299394  0.394571  1
  O  O50  1  0.198619  0.833197  0.466509  1
  O  O51  1  0.193700  0.716592  0.531958  1
  O  O52  1  0.664341  0.259491  0.478794  1
  O  O53  1  0.833082  0.754118  0.416610  1
  O  O54  1  0.278047  0.668181  0.612542  1
  O  O55  1  0.728200  0.154869  0.538990  1
  O  O56  1  0.155119  0.276658  0.721534  1
  O  O57  1  0.357686  0.987813  0.626953  1
  O  O58  1  0.916869  0.209967  0.587543  1
  O  O59  1  0.743640  0.719137  0.527655  1
  O  O60  1  0.201608  0.811688  0.716767  1
  O  O61  1  0.844552  0.317285  0.640924  1
  O  O62  1  0.196667  0.759058  0.780352  1
  O  O63  1  0.699640  0.260314  0.722652  1
  O  O64  1  0.821136  0.776530  0.667139  1
  O  O65  1  0.719836  0.195021  0.783493  1
  O  O66  1  0.291404  0.665240  0.862240  1
  O  O67  1  0.389763  0.976164  0.874515  1
  O  O68  1  0.296897  0.187072  0.968038  1
  O  O69  1  0.950053  0.219025  0.832756  1
  O  O70  1  0.717391  0.762265  0.777827  1
  O  O71  1  0.900094  0.335343  0.884539  1
  O  O72  1  0.259667  0.740777  0.971803  1
  O  O73  1  0.821977  0.241903  0.962278  1
  O  O74  1  0.790265  0.845774  0.911924  1
