# generated using pymatgen
data_CsK5Ru2O9
_symmetry_space_group_name_H-M   'P 1'
_cell_length_a   8.36327782
_cell_length_b   9.17014681
_cell_length_c   17.21324864
_cell_angle_alpha   90.00000000
_cell_angle_beta   90.00000000
_cell_angle_gamma   90.00000000
_symmetry_Int_Tables_number   1
_chemical_formula_structural   CsK5Ru2O9
_chemical_formula_sum   'Cs4 K20 Ru8 O36'
_cell_volume   1320.12682039
_cell_formula_units_Z   4
loop_
 _symmetry_equiv_pos_site_id
 _symmetry_equiv_pos_as_xyz
  1  'x, y, z'
loop_
 _atom_site_type_symbol
 _atom_site_label
 _atom_site_symmetry_multiplicity
 _atom_site_fract_x
 _atom_site_fract_y
 _atom_site_fract_z
 _atom_site_occupancy
  Cs  Cs0  1  0.250000  0.753168  0.272264  1
  Cs  Cs1  1  0.250000  0.746832  0.772264  1
  Cs  Cs2  1  0.750000  0.246832  0.727736  1
  Cs  Cs3  1  0.750000  0.253168  0.227736  1
  K  K4  1  0.989487  0.022390  0.396479  1
  K  K5  1  0.989487  0.477610  0.896479  1
  K  K6  1  0.510513  0.477610  0.896479  1
  K  K7  1  0.996144  0.965242  0.102318  1
  K  K8  1  0.489487  0.977610  0.603521  1
  K  K9  1  0.750000  0.747528  0.977026  1
  K  K10  1  0.250000  0.247528  0.522974  1
  K  K11  1  0.489487  0.522390  0.103521  1
  K  K12  1  0.003856  0.465242  0.397682  1
  K  K13  1  0.503856  0.534758  0.602318  1
  K  K14  1  0.510513  0.022390  0.396479  1
  K  K15  1  0.996144  0.534758  0.602318  1
  K  K16  1  0.010513  0.977610  0.603521  1
  K  K17  1  0.250000  0.252472  0.022974  1
  K  K18  1  0.496144  0.034758  0.897682  1
  K  K19  1  0.003856  0.034758  0.897682  1
  K  K20  1  0.496144  0.465242  0.397682  1
  K  K21  1  0.750000  0.752472  0.477026  1
  K  K22  1  0.010513  0.522390  0.103521  1
  K  K23  1  0.503856  0.965242  0.102318  1
  Ru  Ru24  1  0.750000  0.248802  0.005697  1
  Ru  Ru25  1  0.750000  0.251198  0.505697  1
  Ru  Ru26  1  0.250000  0.295145  0.755214  1
  Ru  Ru27  1  0.750000  0.795145  0.744786  1
  Ru  Ru28  1  0.250000  0.204855  0.255214  1
  Ru  Ru29  1  0.250000  0.751198  0.994303  1
  Ru  Ru30  1  0.750000  0.704855  0.244786  1
  Ru  Ru31  1  0.250000  0.748802  0.494303  1
  O  O32  1  0.439853  0.753821  0.942042  1
  O  O33  1  0.250000  0.538114  0.991371  1
  O  O34  1  0.939853  0.253821  0.557958  1
  O  O35  1  0.250000  0.234750  0.856231  1
  O  O36  1  0.422227  0.085463  0.243750  1
  O  O37  1  0.560147  0.246179  0.057958  1
  O  O38  1  0.750000  0.035293  0.002196  1
  O  O39  1  0.250000  0.265250  0.356231  1
  O  O40  1  0.060147  0.753821  0.942042  1
  O  O41  1  0.750000  0.253760  0.899135  1
  O  O42  1  0.250000  0.535293  0.497804  1
  O  O43  1  0.250000  0.964707  0.997804  1
  O  O44  1  0.939853  0.246179  0.057958  1
  O  O45  1  0.077773  0.414537  0.743750  1
  O  O46  1  0.922227  0.585463  0.256250  1
  O  O47  1  0.750000  0.646240  0.812325  1
  O  O48  1  0.750000  0.464707  0.502196  1
  O  O49  1  0.250000  0.961886  0.491371  1
  O  O50  1  0.750000  0.038114  0.508629  1
  O  O51  1  0.439853  0.746179  0.442042  1
  O  O52  1  0.750000  0.734750  0.643769  1
  O  O53  1  0.577773  0.585463  0.256250  1
  O  O54  1  0.750000  0.246240  0.399135  1
  O  O55  1  0.750000  0.765250  0.143769  1
  O  O56  1  0.577773  0.914537  0.756250  1
  O  O57  1  0.750000  0.461886  0.008629  1
  O  O58  1  0.250000  0.353760  0.187675  1
  O  O59  1  0.077773  0.085463  0.243750  1
  O  O60  1  0.922227  0.914537  0.756250  1
  O  O61  1  0.250000  0.753760  0.600865  1
  O  O62  1  0.250000  0.746240  0.100865  1
  O  O63  1  0.250000  0.146240  0.687675  1
  O  O64  1  0.560147  0.253821  0.557958  1
  O  O65  1  0.060147  0.746179  0.442042  1
  O  O66  1  0.750000  0.853760  0.312325  1
  O  O67  1  0.422227  0.414537  0.743750  1
