# generated using pymatgen
data_BaW6O19
_symmetry_space_group_name_H-M   'P 1'
_cell_length_a   7.51251229
_cell_length_b   7.54065856
_cell_length_c   7.83301376
_cell_angle_alpha   89.97645591
_cell_angle_beta   90.04726453
_cell_angle_gamma   119.87660326
_symmetry_Int_Tables_number   1
_chemical_formula_structural   BaW6O19
_chemical_formula_sum   'Ba1 W6 O19'
_cell_volume   384.76230452
_cell_formula_units_Z   1
loop_
 _symmetry_equiv_pos_site_id
 _symmetry_equiv_pos_as_xyz
  1  'x, y, z'
loop_
 _atom_site_type_symbol
 _atom_site_label
 _atom_site_symmetry_multiplicity
 _atom_site_fract_x
 _atom_site_fract_y
 _atom_site_fract_z
 _atom_site_occupancy
  Ba  Ba0  1  0.992346  0.000000  0.590833  1
  W  W1  1  0.001725  0.498942  0.251988  1
  W  W2  1  0.501220  0.000000  0.750829  1
  W  W3  1  0.500937  0.499296  0.756159  1
  W  W4  1  0.502783  0.501058  0.251988  1
  W  W5  1  0.500957  0.000000  0.235586  1
  W  W6  1  0.001642  0.500704  0.756159  1
  O  O7  1  0.003164  0.502132  0.999379  1
  O  O8  1  0.999854  0.496595  0.500355  1
  O  O9  1  0.213735  0.782459  0.242055  1
  O  O10  1  0.202773  0.787709  0.752710  1
  O  O11  1  0.210628  0.418828  0.745734  1
  O  O12  1  0.212873  0.420903  0.254589  1
  O  O13  1  0.574436  0.783711  0.237446  1
  O  O14  1  0.586976  0.787794  0.756177  1
  O  O15  1  0.501032  0.497868  0.999379  1
  O  O16  1  0.503258  0.503405  0.500355  1
  O  O17  1  0.431275  0.217541  0.242055  1
  O  O18  1  0.415064  0.212291  0.752710  1
  O  O19  1  0.405403  0.000000  0.494900  1
  O  O20  1  0.791799  0.581172  0.745734  1
  O  O21  1  0.791970  0.579097  0.254589  1
  O  O22  1  0.605915  0.000000  0.493328  1
  O  O23  1  0.498327  0.000000  0.001344  1
  O  O24  1  0.790725  0.216289  0.237446  1
  O  O25  1  0.799182  0.212206  0.756177  1
