# generated using pymatgen
data_K2SiAs2
_symmetry_space_group_name_H-M   'P 1'
_cell_length_a   6.43864478
_cell_length_b   7.07408753
_cell_length_c   8.24891665
_cell_angle_alpha   115.39072425
_cell_angle_beta   112.97143408
_cell_angle_gamma   89.99999997
_symmetry_Int_Tables_number   1
_chemical_formula_structural   K2SiAs2
_chemical_formula_sum   'K4 Si2 As4'
_cell_volume   306.11845340
_cell_formula_units_Z   2
loop_
 _symmetry_equiv_pos_site_id
 _symmetry_equiv_pos_as_xyz
  1  'x, y, z'
loop_
 _atom_site_type_symbol
 _atom_site_label
 _atom_site_symmetry_multiplicity
 _atom_site_fract_x
 _atom_site_fract_y
 _atom_site_fract_z
 _atom_site_occupancy
  Si  Si0  1  0.250000  0.500000  0.000000  1
  Si  Si1  1  0.750000  0.500000  0.000000  1
  K  K2  1  0.856883  0.021772  0.713766  1
  K  K3  1  0.356883  0.691994  0.713766  1
  K  K4  1  0.643117  0.308006  0.286234  1
  K  K5  1  0.143117  0.978228  0.286234  1
  As  As6  1  0.600905  0.766068  0.201811  1
  As  As7  1  0.100905  0.435743  0.201811  1
  As  As8  1  0.899095  0.564257  0.798189  1
  As  As9  1  0.399095  0.233932  0.798189  1
