# generated using pymatgen
data_Sm2Th3O9
_symmetry_space_group_name_H-M   'P 1'
_cell_length_a   3.95941689
_cell_length_b   19.80207604
_cell_length_c   18.14910785
_cell_angle_alpha   10.89554373
_cell_angle_beta   56.96895052
_cell_angle_gamma   60.02695469
_symmetry_Int_Tables_number   1
_chemical_formula_structural   Sm2Th3O9
_chemical_formula_sum   'Sm2 Th3 O9'
_cell_volume   219.70893791
_cell_formula_units_Z   1
loop_
 _symmetry_equiv_pos_site_id
 _symmetry_equiv_pos_as_xyz
  1  'x, y, z'
loop_
 _atom_site_type_symbol
 _atom_site_label
 _atom_site_symmetry_multiplicity
 _atom_site_fract_x
 _atom_site_fract_y
 _atom_site_fract_z
 _atom_site_occupancy
  Sm  Sm0  1  0.974964  0.785500  0.025315  1
  Sm  Sm1  1  0.034277  0.620228  0.967696  1
  Th  Th2  1  0.006783  0.004060  0.994700  1
  Th  Th3  1  0.004062  0.202165  0.997635  1
  Th  Th4  1  0.002005  0.401179  0.999422  1
  O  O5  1  0.238764  0.043096  0.262773  1
  O  O6  1  0.277108  0.266050  0.224495  1
  O  O7  1  0.232081  0.639582  0.268984  1
  O  O8  1  0.787515  0.172497  0.713915  1
  O  O9  1  0.270377  0.861888  0.231334  1
  O  O10  1  0.739765  0.343736  0.761658  1
  O  O11  1  0.768531  0.561170  0.732696  1
  O  O12  1  0.722278  0.733164  0.779363  1
  O  O13  1  0.758903  0.950884  0.748539  1
