# generated using pymatgen
data_Tb6In23Pt12
_symmetry_space_group_name_H-M   'P 1'
_cell_length_a   4.46694683
_cell_length_b   14.52334699
_cell_length_c   14.98154419
_cell_angle_alpha   112.05876978
_cell_angle_beta   90.00000000
_cell_angle_gamma   98.84633901
_symmetry_Int_Tables_number   1
_chemical_formula_structural   Tb6In23Pt12
_chemical_formula_sum   'Tb6 In23 Pt12'
_cell_volume   888.29471677
_cell_formula_units_Z   1
loop_
 _symmetry_equiv_pos_site_id
 _symmetry_equiv_pos_as_xyz
  1  'x, y, z'
loop_
 _atom_site_type_symbol
 _atom_site_label
 _atom_site_symmetry_multiplicity
 _atom_site_fract_x
 _atom_site_fract_y
 _atom_site_fract_z
 _atom_site_occupancy
  Tb  Tb0  1  0.545898  0.091796  0.698597  1
  Tb  Tb1  1  0.834130  0.668260  0.469290  1
  Tb  Tb2  1  0.178092  0.356183  0.077954  1
  Tb  Tb3  1  0.821908  0.643817  0.922046  1
  Tb  Tb4  1  0.165870  0.331740  0.530710  1
  Tb  Tb5  1  0.454102  0.908204  0.301403  1
  In  In6  1  0.407897  0.815793  0.049760  1
  In  In7  1  0.943829  0.887659  0.938526  1
  In  In8  1  0.145731  0.291463  0.279414  1
  In  In9  1  0.727325  0.454649  0.244312  1
  In  In10  1  0.954595  0.909190  0.666636  1
  In  In11  1  0.045405  0.090810  0.333364  1
  In  In12  1  0.762159  0.524319  0.083577  1
  In  In13  1  0.876581  0.753161  0.170553  1
  In  In14  1  0.123419  0.246839  0.829447  1
  In  In15  1  0.471288  0.942576  0.825454  1
  In  In16  1  0.592103  0.184207  0.950240  1
  In  In17  1  0.056171  0.112341  0.061474  1
  In  In18  1  0.424608  0.849216  0.493988  1
  In  In19  1  0.326413  0.652827  0.281816  1
  In  In20  1  0.000000  0.000000  0.500000  1
  In  In21  1  0.528712  0.057424  0.174546  1
  In  In22  1  0.286655  0.573311  0.565394  1
  In  In23  1  0.673587  0.347173  0.718184  1
  In  In24  1  0.237841  0.475681  0.916423  1
  In  In25  1  0.272675  0.545351  0.755688  1
  In  In26  1  0.713345  0.426689  0.434606  1
  In  In27  1  0.854269  0.708537  0.720586  1
  In  In28  1  0.575392  0.150784  0.506012  1
  Pt  Pt29  1  0.900542  0.801083  0.365486  1
  Pt  Pt30  1  0.320619  0.641238  0.089164  1
  Pt  Pt31  1  0.381001  0.762001  0.850701  1
  Pt  Pt32  1  0.032627  0.065255  0.857579  1
  Pt  Pt33  1  0.099458  0.198917  0.634514  1
  Pt  Pt34  1  0.609367  0.218733  0.359031  1
  Pt  Pt35  1  0.253215  0.506431  0.364113  1
  Pt  Pt36  1  0.679381  0.358762  0.910836  1
  Pt  Pt37  1  0.967373  0.934745  0.142421  1
  Pt  Pt38  1  0.390633  0.781267  0.640969  1
  Pt  Pt39  1  0.618999  0.237999  0.149299  1
  Pt  Pt40  1  0.746785  0.493569  0.635887  1
