# generated using pymatgen
data_Al(HO)3
_symmetry_space_group_name_H-M   'P 1'
_cell_length_a   8.59500532
_cell_length_b   5.17288982
_cell_length_c   9.51370427
_cell_angle_alpha   89.94984957
_cell_angle_beta   88.85061553
_cell_angle_gamma   89.93138062
_symmetry_Int_Tables_number   1
_chemical_formula_structural   Al(HO)3
_chemical_formula_sum   'Al8 H24 O24'
_cell_volume   422.90338899
_cell_formula_units_Z   8
loop_
 _symmetry_equiv_pos_site_id
 _symmetry_equiv_pos_as_xyz
  1  'x, y, z'
loop_
 _atom_site_type_symbol
 _atom_site_label
 _atom_site_symmetry_multiplicity
 _atom_site_fract_x
 _atom_site_fract_y
 _atom_site_fract_z
 _atom_site_occupancy
  Al  Al0  1  0.338693  0.013788  0.505041  1
  Al  Al1  1  0.818094  0.489851  0.014995  1
  Al  Al2  1  0.685253  0.001817  0.483999  1
  Al  Al3  1  0.161055  0.514790  0.001643  1
  Al  Al4  1  0.165857  0.491518  0.506509  1
  Al  Al5  1  0.683237  0.999366  0.006700  1
  Al  Al6  1  0.834253  0.503491  0.486813  1
  Al  Al7  1  0.323268  0.024148  0.995903  1
  H  H8  1  0.416514  0.619538  0.614969  1
  H  H9  1  0.814726  0.805322  0.230282  1
  H  H10  1  0.688570  0.300171  0.270308  1
  H  H11  1  0.066385  0.148313  0.882615  1
  H  H12  1  0.923025  0.075431  0.597623  1
  H  H13  1  0.312830  0.327618  0.205654  1
  H  H14  1  0.057299  0.904916  0.403458  1
  H  H15  1  0.178263  0.832838  0.277747  1
  H  H16  1  0.681541  0.673018  0.801465  1
  H  H17  1  0.992204  0.610590  0.709360  1
  H  H18  1  0.485266  0.876550  0.226698  1
  H  H19  1  0.471299  0.656980  0.101060  1
  H  H20  1  0.013158  0.385014  0.288449  1
  H  H21  1  0.520539  0.317507  0.906649  1
  H  H22  1  0.514636  0.105877  0.705699  1
  H  H23  1  0.982167  0.185261  0.121717  1
  H  H24  1  0.522733  0.684625  0.384969  1
  H  H25  1  0.969193  0.816509  0.889077  1
  H  H26  1  0.193579  0.199296  0.712333  1
  H  H27  1  0.301803  0.718397  0.796073  1
  H  H28  1  0.604470  0.485337  0.612888  1
  H  H29  1  0.047167  0.862862  0.124418  1
  H  H30  1  0.443113  0.363432  0.384218  1
  H  H31  1  0.824376  0.172939  0.788876  1
  O  O32  1  0.313475  0.697012  0.604502  1
  O  O33  1  0.819789  0.804601  0.119319  1
  O  O34  1  0.679773  0.313334  0.381434  1
  O  O35  1  0.175578  0.207716  0.888026  1
  O  O36  1  0.824540  0.169877  0.603216  1
  O  O37  1  0.316791  0.333556  0.101230  1
  O  O38  1  0.167787  0.842814  0.388007  1
  O  O39  1  0.675971  0.678454  0.905781  1
  O  O40  1  0.999116  0.628481  0.605990  1
  O  O41  1  0.478428  0.846866  0.116398  1
  O  O42  1  0.014679  0.368604  0.392524  1
  O  O43  1  0.504253  0.131207  0.894102  1
  O  O44  1  0.513577  0.124162  0.601463  1
  O  O45  1  0.998377  0.371429  0.115706  1
  O  O46  1  0.494617  0.867195  0.377699  1
  O  O47  1  0.990903  0.631370  0.895744  1
  O  O48  1  0.189133  0.188252  0.608089  1
  O  O49  1  0.682830  0.288618  0.112491  1
  O  O50  1  0.824517  0.807865  0.388353  1
  O  O51  1  0.306591  0.712462  0.899040  1
  O  O52  1  0.671338  0.639734  0.610626  1
  O  O53  1  0.161139  0.829132  0.120071  1
  O  O54  1  0.331321  0.319039  0.388442  1
  O  O55  1  0.842141  0.159570  0.892150  1
