# generated using pymatgen
data_H2SO4
_symmetry_space_group_name_H-M   'P 1'
_cell_length_a   5.10455685
_cell_length_b   5.10455685
_cell_length_c   8.21903362
_cell_angle_alpha   70.05960541
_cell_angle_beta   109.94039459
_cell_angle_gamma   124.24883976
_symmetry_Int_Tables_number   1
_chemical_formula_structural   H2SO4
_chemical_formula_sum   'H4 S2 O8'
_cell_volume   163.31876877
_cell_formula_units_Z   2
loop_
 _symmetry_equiv_pos_site_id
 _symmetry_equiv_pos_as_xyz
  1  'x, y, z'
loop_
 _atom_site_type_symbol
 _atom_site_label
 _atom_site_symmetry_multiplicity
 _atom_site_fract_x
 _atom_site_fract_y
 _atom_site_fract_z
 _atom_site_occupancy
  H  H0  1  0.607896  0.516309  0.604822  1
  H  H1  1  0.483691  0.392104  0.104822  1
  H  H2  1  0.280962  0.836342  0.917105  1
  H  H3  1  0.163658  0.719038  0.417105  1
  S  S4  1  0.898131  0.914589  0.747090  1
  S  S5  1  0.085411  0.101869  0.247090  1
  O  O6  1  0.729141  0.696600  0.888413  1
  O  O7  1  0.734743  0.754346  0.578188  1
  O  O8  1  0.245654  0.265257  0.078188  1
  O  O9  1  0.303400  0.270859  0.388413  1
  O  O10  1  0.248643  0.957268  0.797341  1
  O  O11  1  0.943090  0.232995  0.680431  1
  O  O12  1  0.767005  0.056910  0.180431  1
  O  O13  1  0.042732  0.751357  0.297341  1
