# generated using pymatgen
data_Te3Pd13
_symmetry_space_group_name_H-M   'P 1'
_cell_length_a   9.11963718
_cell_length_b   9.11964234
_cell_length_c   9.11964914
_cell_angle_alpha   59.99995767
_cell_angle_beta   60.00001447
_cell_angle_gamma   60.00000255
_symmetry_Int_Tables_number   1
_chemical_formula_structural   Te3Pd13
_chemical_formula_sum   'Te6 Pd26'
_cell_volume   536.31311277
_cell_formula_units_Z   2
loop_
 _symmetry_equiv_pos_site_id
 _symmetry_equiv_pos_as_xyz
  1  'x, y, z'
loop_
 _atom_site_type_symbol
 _atom_site_label
 _atom_site_symmetry_multiplicity
 _atom_site_fract_x
 _atom_site_fract_y
 _atom_site_fract_z
 _atom_site_occupancy
  Te  Te0  1  0.874999  0.875001  0.874999  1
  Te  Te1  1  0.500000  0.500000  1.000000  1
  Te  Te2  1  0.500000  0.500000  0.500000  1
  Te  Te3  1  0.500000  0.000000  0.500000  1
  Te  Te4  1  0.000000  0.500000  0.500000  1
  Te  Te5  1  0.125001  0.124999  0.125000  1
  Pd  Pd6  1  0.759714  0.759710  0.759711  1
  Pd  Pd7  1  0.375002  0.375000  0.374998  1
  Pd  Pd8  1  0.136955  0.613044  0.136956  1
  Pd  Pd9  1  0.759710  0.220865  0.759713  1
  Pd  Pd10  1  -0.000000  -0.000001  0.000000  1
  Pd  Pd11  1  0.779134  0.240291  0.240287  1
  Pd  Pd12  1  0.613047  0.136955  0.136956  1
  Pd  Pd13  1  0.759711  0.759709  0.220865  1
  Pd  Pd14  1  0.613045  0.136957  0.613043  1
  Pd  Pd15  1  0.863045  0.386956  0.863044  1
  Pd  Pd16  1  0.136956  0.613044  0.613045  1
  Pd  Pd17  1  0.240288  0.240289  0.240290  1
  Pd  Pd18  1  0.240288  0.779134  0.240290  1
  Pd  Pd19  1  0.613046  0.613046  0.136954  1
  Pd  Pd20  1  0.999999  0.000001  0.500000  1
  Pd  Pd21  1  0.863044  0.863046  0.386956  1
  Pd  Pd22  1  0.625001  0.624999  0.625001  1
  Pd  Pd23  1  0.386955  0.863044  0.386956  1
  Pd  Pd24  1  0.863046  0.386955  0.386954  1
  Pd  Pd25  1  0.000000  0.500000  1.000000  1
  Pd  Pd26  1  0.386954  0.386956  0.863045  1
  Pd  Pd27  1  0.386953  0.863044  0.863045  1
  Pd  Pd28  1  0.240286  0.240291  0.779135  1
  Pd  Pd29  1  0.220867  0.759709  0.759712  1
  Pd  Pd30  1  0.136955  0.136956  0.613045  1
  Pd  Pd31  1  0.499999  0.000000  0.000000  1
