# generated using pymatgen
data_LaAlO3
_symmetry_space_group_name_H-M   'P 1'
_cell_length_a   10.87638097
_cell_length_b   3.79584976
_cell_length_c   7.02178126
_cell_angle_alpha   118.36194640
_cell_angle_beta   150.77301662
_cell_angle_gamma   62.31182397
_symmetry_Int_Tables_number   1
_chemical_formula_structural   LaAlO3
_chemical_formula_sum   'La2 Al2 O6'
_cell_volume   123.70699757
_cell_formula_units_Z   2
loop_
 _symmetry_equiv_pos_site_id
 _symmetry_equiv_pos_as_xyz
  1  'x, y, z'
loop_
 _atom_site_type_symbol
 _atom_site_label
 _atom_site_symmetry_multiplicity
 _atom_site_fract_x
 _atom_site_fract_y
 _atom_site_fract_z
 _atom_site_occupancy
  La  La0  1  0.788542  0.336084  0.187361  1
  La  La1  1  0.389217  -0.102641  0.094658  1
  Al  Al2  1  0.963436  0.466756  0.055067  1
  Al  Al3  1  0.317001  0.776797  0.401124  1
  O  O4  1  0.145525  0.519425  0.887399  1
  O  O5  1  0.618481  0.546899  0.612643  1
  O  O6  1  0.976310  0.951941  0.057133  1
  O  O7  1  0.288241  0.280257  0.361408  1
  O  O8  1  0.503670  0.980263  0.916682  1
  O  O9  1  0.028944  0.725544  0.423486  1
