# generated using pymatgen
data_SiO2
_symmetry_space_group_name_H-M   'P 1'
_cell_length_a   7.22138099
_cell_length_b   7.22138099
_cell_length_c   21.10019192
_cell_angle_alpha   90.00000000
_cell_angle_beta   90.00000000
_cell_angle_gamma   90.00000000
_symmetry_Int_Tables_number   1
_chemical_formula_structural   SiO2
_chemical_formula_sum   'Si18 O36'
_cell_volume   1100.34005411
_cell_formula_units_Z   18
loop_
 _symmetry_equiv_pos_site_id
 _symmetry_equiv_pos_as_xyz
  1  'x, y, z'
loop_
 _atom_site_type_symbol
 _atom_site_label
 _atom_site_symmetry_multiplicity
 _atom_site_fract_x
 _atom_site_fract_y
 _atom_site_fract_z
 _atom_site_occupancy
  Si  Si0  1  0.282236  0.500000  0.076334  1
  Si  Si1  1  0.500000  0.282236  0.576334  1
  Si  Si2  1  0.500000  0.717764  0.576334  1
  Si  Si3  1  0.282236  0.500000  0.923666  1
  Si  Si4  1  0.717764  0.500000  0.923666  1
  Si  Si5  1  0.717764  0.500000  0.076334  1
  Si  Si6  1  0.500000  0.282236  0.423666  1
  Si  Si7  1  0.500000  0.717764  0.423666  1
  Si  Si8  1  0.000000  0.793189  0.127957  1
  Si  Si9  1  0.206811  0.000000  0.627957  1
  Si  Si10  1  0.793189  0.000000  0.627957  1
  Si  Si11  1  0.000000  0.206811  0.872043  1
  Si  Si12  1  0.000000  0.793189  0.872043  1
  Si  Si13  1  0.000000  0.206811  0.127957  1
  Si  Si14  1  0.793189  0.000000  0.372043  1
  Si  Si15  1  0.206811  0.000000  0.372043  1
  Si  Si16  1  0.000000  0.000000  0.750000  1
  Si  Si17  1  0.000000  0.000000  0.250000  1
  O  O18  1  0.255381  0.500000  0.000000  1
  O  O19  1  0.500000  0.255381  0.500000  1
  O  O20  1  0.500000  0.744619  0.500000  1
  O  O21  1  0.744619  0.500000  0.000000  1
  O  O22  1  0.185327  0.683793  0.106070  1
  O  O23  1  0.316207  0.185327  0.606070  1
  O  O24  1  0.683793  0.814673  0.606070  1
  O  O25  1  0.185327  0.316207  0.893930  1
  O  O26  1  0.814673  0.683793  0.893930  1
  O  O27  1  0.814673  0.316207  0.106070  1
  O  O28  1  0.683793  0.185327  0.393930  1
  O  O29  1  0.316207  0.814673  0.393930  1
  O  O30  1  0.814673  0.316207  0.893930  1
  O  O31  1  0.683793  0.814673  0.393930  1
  O  O32  1  0.316207  0.185327  0.393930  1
  O  O33  1  0.814673  0.683793  0.106070  1
  O  O34  1  0.185327  0.316207  0.106070  1
  O  O35  1  0.185327  0.683793  0.893930  1
  O  O36  1  0.316207  0.814673  0.606070  1
  O  O37  1  0.683793  0.185327  0.606070  1
  O  O38  1  0.500000  0.500000  0.094650  1
  O  O39  1  0.500000  0.500000  0.594650  1
  O  O40  1  0.500000  0.500000  0.905350  1
  O  O41  1  0.500000  0.500000  0.405350  1
  O  O42  1  0.000000  0.000000  0.096551  1
  O  O43  1  0.000000  0.000000  0.596551  1
  O  O44  1  0.000000  0.000000  0.903449  1
  O  O45  1  0.000000  0.000000  0.403449  1
  O  O46  1  0.000000  0.815448  0.205247  1
  O  O47  1  0.184552  0.000000  0.705247  1
  O  O48  1  0.815448  0.000000  0.705247  1
  O  O49  1  0.000000  0.184552  0.794753  1
  O  O50  1  0.000000  0.815448  0.794753  1
  O  O51  1  0.000000  0.184552  0.205247  1
  O  O52  1  0.815448  0.000000  0.294753  1
  O  O53  1  0.184552  0.000000  0.294753  1
