# generated using pymatgen
data_Li9Ta11N20
_symmetry_space_group_name_H-M   'P 1'
_cell_length_a   3.13165889
_cell_length_b   3.13165888
_cell_length_c   62.27043489
_cell_angle_alpha   59.80711164
_cell_angle_beta   59.80711173
_cell_angle_gamma   59.99999567
_symmetry_Int_Tables_number   1
_chemical_formula_structural   Li9Ta11N20
_chemical_formula_sum   'Li9 Ta11 N20'
_cell_volume   430.56966412
_cell_formula_units_Z   1
loop_
 _symmetry_equiv_pos_site_id
 _symmetry_equiv_pos_as_xyz
  1  'x, y, z'
loop_
 _atom_site_type_symbol
 _atom_site_label
 _atom_site_symmetry_multiplicity
 _atom_site_fract_x
 _atom_site_fract_y
 _atom_site_fract_z
 _atom_site_occupancy
  Li  Li0  1  0.013392  0.013392  0.047991  1
  Li  Li1  1  0.986608  0.986608  0.552009  1
  Li  Li2  1  0.988158  0.988158  0.651776  1
  Li  Li3  1  0.997201  0.997201  0.700420  1
  Li  Li4  1  0.000000  0.000000  0.800000  1
  Li  Li5  1  0.003240  0.003240  0.749514  1
  Li  Li6  1  0.996760  0.996760  0.850486  1
  Li  Li7  1  0.002799  0.002799  0.899580  1
  Li  Li8  1  0.011842  0.011842  0.948224  1
  Ta  Ta9  1  0.001381  0.001381  0.999793  1
  Ta  Ta10  1  0.005100  0.005100  0.099235  1
  Ta  Ta11  1  0.004027  0.004027  0.149396  1
  Ta  Ta12  1  0.999567  0.999567  0.200065  1
  Ta  Ta13  1  0.999632  0.999632  0.250055  1
  Ta  Ta14  1  0.000000  0.000000  0.300000  1
  Ta  Ta15  1  0.000368  0.000368  0.349945  1
  Ta  Ta16  1  0.995973  0.995973  0.450604  1
  Ta  Ta17  1  0.000433  0.000433  0.399935  1
  Ta  Ta18  1  0.994900  0.994900  0.500765  1
  Ta  Ta19  1  0.998619  0.998619  0.600207  1
  N  N20  1  0.518728  0.518728  0.022191  1
  N  N21  1  0.477402  0.477402  0.078390  1
  N  N22  1  0.501510  0.501510  0.124773  1
  N  N23  1  0.499847  0.499847  0.175023  1
  N  N24  1  0.500411  0.500411  0.224938  1
  N  N25  1  0.499608  0.499608  0.275059  1
  N  N26  1  0.500392  0.500392  0.324941  1
  N  N27  1  0.499589  0.499589  0.375062  1
  N  N28  1  0.500153  0.500153  0.424977  1
  N  N29  1  0.498490  0.498490  0.475227  1
  N  N30  1  0.522598  0.522598  0.521610  1
  N  N31  1  0.481272  0.481272  0.577809  1
  N  N32  1  0.525544  0.525544  0.621168  1
  N  N33  1  0.495186  0.495186  0.675722  1
  N  N34  1  0.503739  0.503739  0.724439  1
  N  N35  1  0.499843  0.499843  0.775024  1
  N  N36  1  0.500157  0.500157  0.824976  1
  N  N37  1  0.496261  0.496261  0.875561  1
  N  N38  1  0.504814  0.504814  0.924278  1
  N  N39  1  0.474456  0.474456  0.978832  1
