# generated using pymatgen
data_Ag2Te
_symmetry_space_group_name_H-M   'P 1'
_cell_length_a   4.78229167
_cell_length_b   19.22388305
_cell_length_c   8.31854829
_cell_angle_alpha   30.06713144
_cell_angle_beta   55.37376862
_cell_angle_gamma   60.54365980
_symmetry_Int_Tables_number   1
_chemical_formula_structural   Ag2Te
_chemical_formula_sum   'Ag8 Te4'
_cell_volume   315.28945069
_cell_formula_units_Z   4
loop_
 _symmetry_equiv_pos_site_id
 _symmetry_equiv_pos_as_xyz
  1  'x, y, z'
loop_
 _atom_site_type_symbol
 _atom_site_label
 _atom_site_symmetry_multiplicity
 _atom_site_fract_x
 _atom_site_fract_y
 _atom_site_fract_z
 _atom_site_occupancy
  Ag  Ag0  1  0.331821  0.000292  0.332208  1
  Ag  Ag1  1  0.331821  0.249708  0.333376  1
  Ag  Ag2  1  0.752880  0.998056  0.759858  1
  Ag  Ag3  1  0.252641  0.500287  0.250087  1
  Ag  Ag4  1  0.752880  0.251944  0.752081  1
  Ag  Ag5  1  0.252641  0.749713  0.251236  1
  Ag  Ag6  1  0.753444  0.501413  0.747188  1
  Ag  Ag7  1  0.753444  0.748587  0.752839  1
  Te  Te8  1  0.001379  0.994936  0.004216  1
  Te  Te9  1  0.001379  0.255064  0.983958  1
  Te  Te10  1  0.991134  0.504631  0.990514  1
  Te  Te11  1  0.991134  0.745369  0.009039  1
