# generated using pymatgen
data_H(CO)2
_symmetry_space_group_name_H-M   'P 1'
_cell_length_a   11.47085137
_cell_length_b   6.09153703
_cell_length_c   6.09192104
_cell_angle_alpha   89.98798137
_cell_angle_beta   90.00000000
_cell_angle_gamma   90.00000000
_symmetry_Int_Tables_number   1
_chemical_formula_structural   H(CO)2
_chemical_formula_sum   'H8 C16 O16'
_cell_volume   425.67367976
_cell_formula_units_Z   8
loop_
 _symmetry_equiv_pos_site_id
 _symmetry_equiv_pos_as_xyz
  1  'x, y, z'
loop_
 _atom_site_type_symbol
 _atom_site_label
 _atom_site_symmetry_multiplicity
 _atom_site_fract_x
 _atom_site_fract_y
 _atom_site_fract_z
 _atom_site_occupancy
  H  H0  1  0.125000  0.773132  0.262499  1
  H  H1  1  0.125000  0.266423  0.740814  1
  H  H2  1  0.375004  0.228841  0.733870  1
  H  H3  1  0.374985  0.759195  0.230929  1
  H  H4  1  0.625000  0.240996  0.769033  1
  H  H5  1  0.625000  0.771039  0.265761  1
  H  H6  1  0.874996  0.228841  0.733870  1
  H  H7  1  0.875015  0.759195  0.230929  1
  C  C8  1  0.125000  0.102016  0.308157  1
  C  C9  1  0.125000  0.198335  0.089330  1
  C  C10  1  0.125000  0.317955  0.406756  1
  C  C11  1  0.125000  0.419457  0.187933  1
  C  C12  1  0.375035  0.682094  0.586643  1
  C  C13  1  0.375132  0.583337  0.808439  1
  C  C14  1  0.375004  0.802790  0.903489  1
  C  C15  1  0.374914  0.900266  0.688122  1
  C  C16  1  0.625000  0.100058  0.311758  1
  C  C17  1  0.625000  0.197655  0.096452  1
  C  C18  1  0.625000  0.318293  0.413232  1
  C  C19  1  0.625000  0.417122  0.191468  1
  C  C20  1  0.874868  0.583337  0.808439  1
  C  C21  1  0.874965  0.682094  0.586643  1
  C  C22  1  0.874996  0.802790  0.903489  1
  C  C23  1  0.875086  0.900266  0.688122  1
  O  O24  1  0.125000  0.121494  0.897078  1
  O  O25  1  0.125000  0.610545  0.111207  1
  O  O26  1  0.125000  0.395158  0.602003  1
  O  O27  1  0.125000  0.906890  0.387423  1
  O  O28  1  0.374960  0.096040  0.609361  1
  O  O29  1  0.374985  0.605474  0.395245  1
  O  O30  1  0.375115  0.392228  0.885941  1
  O  O31  1  0.375001  0.882988  0.098725  1
  O  O32  1  0.625000  0.117293  0.901181  1
  O  O33  1  0.625000  0.394816  0.604662  1
  O  O34  1  0.625000  0.608196  0.114047  1
  O  O35  1  0.625000  0.904321  0.390379  1
  O  O36  1  0.875040  0.096040  0.609361  1
  O  O37  1  0.874885  0.392228  0.885941  1
  O  O38  1  0.875015  0.605474  0.395245  1
  O  O39  1  0.874999  0.882988  0.098725  1
