# generated using pymatgen
data_BaNa2Al4(SiO4)4
_symmetry_space_group_name_H-M   'P 1'
_cell_length_a   8.68737237
_cell_length_b   10.07988442
_cell_length_c   10.77495532
_cell_angle_alpha   117.88808347
_cell_angle_beta   113.77387107
_cell_angle_gamma   89.99999999
_symmetry_Int_Tables_number   1
_chemical_formula_structural   BaNa2Al4(SiO4)4
_chemical_formula_sum   'Ba2 Na4 Al8 Si8 O32'
_cell_volume   742.16428565
_cell_formula_units_Z   2
loop_
 _symmetry_equiv_pos_site_id
 _symmetry_equiv_pos_as_xyz
  1  'x, y, z'
loop_
 _atom_site_type_symbol
 _atom_site_label
 _atom_site_symmetry_multiplicity
 _atom_site_fract_x
 _atom_site_fract_y
 _atom_site_fract_z
 _atom_site_occupancy
  O  O0  1  0.407901  0.879974  0.063836  1
  O  O1  1  0.655935  0.183862  0.063836  1
  O  O2  1  0.155935  0.379974  0.063836  1
  O  O3  1  0.907901  0.683862  0.063836  1
  O  O4  1  0.900360  0.116583  0.543906  1
  O  O5  1  0.643546  0.427323  0.543906  1
  O  O6  1  0.143546  0.616583  0.543906  1
  O  O7  1  0.400360  0.927323  0.543906  1
  O  O8  1  0.363514  0.461093  0.623018  1
  O  O9  1  0.259504  0.161925  0.623018  1
  O  O10  1  0.759504  0.961093  0.623018  1
  O  O11  1  0.863514  0.661925  0.623018  1
  O  O12  1  0.776883  0.485669  0.110199  1
  O  O13  1  0.333316  0.624530  0.110199  1
  O  O14  1  0.833316  0.985669  0.110199  1
  O  O15  1  0.276883  0.124530  0.110199  1
  O  O16  1  0.969483  0.836486  0.500237  1
  O  O17  1  0.530754  0.663751  0.500237  1
  O  O18  1  0.030754  0.336486  0.500237  1
  O  O19  1  0.469483  0.163751  0.500237  1
  O  O20  1  0.419393  0.347820  0.989807  1
  O  O21  1  0.570414  0.641987  0.989807  1
  O  O22  1  0.193097  0.891456  0.814979  1
  O  O23  1  0.621882  0.923523  0.814979  1
  O  O24  1  0.121882  0.391456  0.814979  1
  O  O25  1  0.693097  0.423523  0.814979  1
  O  O26  1  0.154604  0.366660  0.315886  1
  O  O27  1  0.161282  0.949227  0.315886  1
  O  O28  1  0.661282  0.866660  0.315886  1
  O  O29  1  0.654604  0.449227  0.315886  1
  O  O30  1  0.919393  0.141987  0.989807  1
  O  O31  1  0.070414  0.847820  0.989807  1
  Na  Na32  1  0.864373  0.231749  0.809506  1
  Na  Na33  1  0.364373  0.077758  0.809506  1
  Na  Na34  1  0.945134  0.577758  0.809506  1
  Na  Na35  1  0.445134  0.731749  0.809506  1
  Al  Al36  1  0.133690  0.249063  0.125992  1
  Al  Al37  1  0.992302  0.876929  0.125992  1
  Al  Al38  1  0.032120  0.754277  0.621815  1
  Al  Al39  1  0.492302  0.749063  0.125992  1
  Al  Al40  1  0.532120  0.367538  0.621815  1
  Al  Al41  1  0.089695  0.254277  0.621815  1
  Al  Al42  1  0.589695  0.867538  0.621815  1
  Al  Al43  1  0.633690  0.376929  0.125992  1
  Si  Si44  1  0.822724  0.939356  0.491988  1
  Si  Si45  1  0.730700  0.558281  0.994517  1
  Si  Si46  1  0.263817  0.436236  0.994517  1
  Si  Si47  1  0.763817  0.058281  0.994517  1
  Si  Si48  1  0.230700  0.936236  0.994517  1
  Si  Si49  1  0.322724  0.052632  0.491988  1
  Si  Si50  1  0.169264  0.439356  0.491988  1
  Si  Si51  1  0.669264  0.552632  0.491988  1
  Ba  Ba52  1  0.653912  0.153912  0.307823  1
  Ba  Ba53  1  0.153912  0.653912  0.307823  1
