# generated using pymatgen
data_Li6I3N
_symmetry_space_group_name_H-M   'P 1'
_cell_length_a   6.78769514
_cell_length_b   6.75047041
_cell_length_c   6.75503540
_cell_angle_alpha   60.34262995
_cell_angle_beta   59.79536100
_cell_angle_gamma   60.04391377
_symmetry_Int_Tables_number   1
_chemical_formula_structural   Li6I3N
_chemical_formula_sum   'Li6 I3 N1'
_cell_volume   219.15206249
_cell_formula_units_Z   1
loop_
 _symmetry_equiv_pos_site_id
 _symmetry_equiv_pos_as_xyz
  1  'x, y, z'
loop_
 _atom_site_type_symbol
 _atom_site_label
 _atom_site_symmetry_multiplicity
 _atom_site_fract_x
 _atom_site_fract_y
 _atom_site_fract_z
 _atom_site_occupancy
  Li  Li0  1  0.277903  0.722097  0.129579  1
  Li  Li1  1  0.223516  0.183433  0.817687  1
  Li  Li2  1  0.133054  0.866946  0.748070  1
  Li  Li3  1  0.895733  0.104267  0.279327  1
  Li  Li4  1  0.751035  0.248965  0.896910  1
  Li  Li5  1  0.816567  0.776484  0.224635  1
  I  I6  1  0.254189  0.246108  0.254657  1
  I  I7  1  0.503163  0.496837  0.503086  1
  I  I8  1  0.753892  0.745811  0.754953  1
  N  N9  1  0.013748  0.986252  0.013895  1
