# generated using pymatgen
data_In2Br3
_symmetry_space_group_name_H-M   'P 1'
_cell_length_a   13.23698973
_cell_length_b   13.40572618
_cell_length_c   16.78481328
_cell_angle_alpha   90.00000000
_cell_angle_beta   90.00000000
_cell_angle_gamma   90.00000000
_symmetry_Int_Tables_number   1
_chemical_formula_structural   In2Br3
_chemical_formula_sum   'In32 Br48'
_cell_volume   2978.48961847
_cell_formula_units_Z   16
loop_
 _symmetry_equiv_pos_site_id
 _symmetry_equiv_pos_as_xyz
  1  'x, y, z'
loop_
 _atom_site_type_symbol
 _atom_site_label
 _atom_site_symmetry_multiplicity
 _atom_site_fract_x
 _atom_site_fract_y
 _atom_site_fract_z
 _atom_site_occupancy
  In  In0  1  0.023062  0.823792  0.748365  1
  In  In1  1  0.035631  0.511315  0.246783  1
  In  In2  1  0.110679  0.194763  0.669096  1
  In  In3  1  0.116428  0.193393  0.835249  1
  In  In4  1  0.146895  0.520032  0.949990  1
  In  In5  1  0.188234  0.893679  0.054964  1
  In  In6  1  0.179892  0.881960  0.441248  1
  In  In7  1  0.189302  0.652320  0.249971  1
  In  In8  1  0.310698  0.152320  0.250029  1
  In  In9  1  0.320108  0.381960  0.058752  1
  In  In10  1  0.311766  0.393679  0.445036  1
  In  In11  1  0.353105  0.020032  0.550010  1
  In  In12  1  0.383572  0.693393  0.664751  1
  In  In13  1  0.389321  0.694763  0.830904  1
  In  In14  1  0.464369  0.011315  0.253217  1
  In  In15  1  0.476938  0.323792  0.751635  1
  In  In16  1  0.523062  0.676208  0.251635  1
  In  In17  1  0.535631  0.988685  0.753217  1
  In  In18  1  0.616428  0.306607  0.164751  1
  In  In19  1  0.610679  0.305237  0.330904  1
  In  In20  1  0.646895  0.979968  0.050010  1
  In  In21  1  0.688234  0.606321  0.945036  1
  In  In22  1  0.679892  0.618040  0.558752  1
  In  In23  1  0.689302  0.847680  0.750029  1
  In  In24  1  0.810698  0.347680  0.749971  1
  In  In25  1  0.820108  0.118040  0.941248  1
  In  In26  1  0.811766  0.106321  0.554964  1
  In  In27  1  0.853105  0.479968  0.449990  1
  In  In28  1  0.889321  0.805237  0.169096  1
  In  In29  1  0.883572  0.806607  0.335249  1
  In  In30  1  0.964369  0.488685  0.746783  1
  In  In31  1  0.976938  0.176208  0.248365  1
  Br  Br32  1  0.010743  0.698883  0.080573  1
  Br  Br33  1  0.008254  0.697805  0.419814  1
  Br  Br34  1  0.059283  0.387948  0.128457  1
  Br  Br35  1  0.053484  0.392924  0.373880  1
  Br  Br36  1  0.077547  0.017600  0.604669  1
  Br  Br37  1  0.073560  0.016459  0.894795  1
  Br  Br38  1  0.159947  0.848243  0.249701  1
  Br  Br39  1  0.158887  0.460637  0.753602  1
  Br  Br40  1  0.188323  0.132207  0.127114  1
  Br  Br41  1  0.189777  0.132825  0.374045  1
  Br  Br42  1  0.208178  0.740863  0.605643  1
  Br  Br43  1  0.209406  0.738174  0.892791  1
  Br  Br44  1  0.291822  0.240863  0.894357  1
  Br  Br45  1  0.290594  0.238174  0.607209  1
  Br  Br46  1  0.310223  0.632825  0.125955  1
  Br  Br47  1  0.311677  0.632207  0.372886  1
  Br  Br48  1  0.341113  0.960637  0.746398  1
  Br  Br49  1  0.340053  0.348243  0.250299  1
  Br  Br50  1  0.422453  0.517600  0.895331  1
  Br  Br51  1  0.426440  0.516459  0.605205  1
  Br  Br52  1  0.446516  0.892924  0.126120  1
  Br  Br53  1  0.440717  0.887948  0.371543  1
  Br  Br54  1  0.491746  0.197805  0.080186  1
  Br  Br55  1  0.489257  0.198883  0.419427  1
  Br  Br56  1  0.508254  0.802195  0.580186  1
  Br  Br57  1  0.510743  0.801117  0.919427  1
  Br  Br58  1  0.553484  0.107076  0.626120  1
  Br  Br59  1  0.559283  0.112052  0.871543  1
  Br  Br60  1  0.577547  0.482400  0.395331  1
  Br  Br61  1  0.573560  0.483541  0.105205  1
  Br  Br62  1  0.659947  0.651757  0.750299  1
  Br  Br63  1  0.658887  0.039363  0.246398  1
  Br  Br64  1  0.689777  0.367175  0.625955  1
  Br  Br65  1  0.688323  0.367793  0.872886  1
  Br  Br66  1  0.708178  0.759137  0.394357  1
  Br  Br67  1  0.709406  0.761826  0.107209  1
  Br  Br68  1  0.791822  0.259137  0.105643  1
  Br  Br69  1  0.790594  0.261826  0.392791  1
  Br  Br70  1  0.810223  0.867175  0.874045  1
  Br  Br71  1  0.811677  0.867793  0.627114  1
  Br  Br72  1  0.841113  0.539363  0.253602  1
  Br  Br73  1  0.840053  0.151757  0.749701  1
  Br  Br74  1  0.926440  0.983541  0.394795  1
  Br  Br75  1  0.922453  0.982400  0.104669  1
  Br  Br76  1  0.946516  0.607076  0.873880  1
  Br  Br77  1  0.940717  0.612052  0.628457  1
  Br  Br78  1  0.989257  0.301117  0.580573  1
  Br  Br79  1  0.991746  0.302195  0.919814  1
