# generated using pymatgen
data_Co8(BiO4)5
_symmetry_space_group_name_H-M   'P 1'
_cell_length_a   7.93542088
_cell_length_b   7.98130936
_cell_length_c   8.46370926
_cell_angle_alpha   110.56742299
_cell_angle_beta   109.37823202
_cell_angle_gamma   107.22316158
_symmetry_Int_Tables_number   1
_chemical_formula_structural   Co8(BiO4)5
_chemical_formula_sum   'Co8 Bi5 O20'
_cell_volume   418.59530666
_cell_formula_units_Z   1
loop_
 _symmetry_equiv_pos_site_id
 _symmetry_equiv_pos_as_xyz
  1  'x, y, z'
loop_
 _atom_site_type_symbol
 _atom_site_label
 _atom_site_symmetry_multiplicity
 _atom_site_fract_x
 _atom_site_fract_y
 _atom_site_fract_z
 _atom_site_occupancy
  Co  Co0  1  0.171033  0.836349  0.593861  1
  Co  Co1  1  0.161866  0.496454  0.271260  1
  Co  Co2  1  0.327651  0.830952  0.111889  1
  Co  Co3  1  0.479666  0.675535  0.775399  1
  Co  Co4  1  0.016697  0.000614  0.020887  1
  Co  Co5  1  0.497065  0.325968  0.215400  1
  Co  Co6  1  0.665561  0.161227  0.893686  1
  Co  Co7  1  0.840136  0.508605  0.727828  1
  Bi  Bi8  1  0.202840  0.329537  0.855955  1
  Bi  Bi9  1  0.364785  0.171888  0.464834  1
  Bi  Bi10  1  0.682048  0.848846  0.529593  1
  Bi  Bi11  1  0.793772  0.653589  0.115256  1
  Bi  Bi12  1  0.847707  0.201972  0.334712  1
  O  O13  1  0.011263  0.643571  0.334731  1
  O  O14  1  0.354323  0.659440  0.919857  1
  O  O15  1  0.041139  0.727460  0.972432  1
  O  O16  1  0.961076  0.242477  0.018382  1
  O  O17  1  0.341796  0.392128  0.673504  1
  O  O18  1  0.302845  0.678899  0.569342  1
  O  O19  1  0.298528  0.662415  0.213242  1
  O  O20  1  0.392196  0.077253  0.735476  1
  O  O21  1  0.301148  0.335924  0.301906  1
  O  O22  1  0.720058  0.692872  0.752225  1
  O  O23  1  0.707563  0.357600  0.824241  1
  O  O24  1  0.617322  0.948386  0.295973  1
  O  O25  1  0.321032  0.049153  0.085699  1
  O  O26  1  0.622149  0.596586  0.285173  1
  O  O27  1  0.666198  0.353732  0.462496  1
  O  O28  1  0.006920  0.000011  0.270564  1
  O  O29  1  0.947601  0.314598  0.657615  1
  O  O30  1  0.678688  0.315734  0.120982  1
  O  O31  1  0.645905  0.954666  0.939704  1
  O  O32  1  0.011422  0.955559  0.655896  1
