# generated using pymatgen
data_Al(HO)3
_symmetry_space_group_name_H-M   'P 1'
_cell_length_a   8.79621831
_cell_length_b   5.20362927
_cell_length_c   9.33846849
_cell_angle_alpha   90.90884291
_cell_angle_beta   90.00000000
_cell_angle_gamma   90.00000000
_symmetry_Int_Tables_number   1
_chemical_formula_structural   Al(HO)3
_chemical_formula_sum   'Al8 H24 O24'
_cell_volume   427.38902555
_cell_formula_units_Z   8
loop_
 _symmetry_equiv_pos_site_id
 _symmetry_equiv_pos_as_xyz
  1  'x, y, z'
loop_
 _atom_site_type_symbol
 _atom_site_label
 _atom_site_symmetry_multiplicity
 _atom_site_fract_x
 _atom_site_fract_y
 _atom_site_fract_z
 _atom_site_occupancy
  Al  Al0  1  0.331266  0.983655  0.493648  1
  Al  Al1  1  0.668734  0.016345  0.506352  1
  Al  Al2  1  0.831266  0.516345  0.506352  1
  Al  Al3  1  0.168734  0.483655  0.493648  1
  Al  Al4  1  0.831174  0.976385  0.006763  1
  Al  Al5  1  0.168826  0.023615  0.993237  1
  Al  Al6  1  0.331174  0.523615  0.993237  1
  Al  Al7  1  0.668826  0.476385  0.006763  1
  H  H8  1  0.011630  0.805065  0.621581  1
  H  H9  1  0.988370  0.194935  0.378419  1
  H  H10  1  0.511630  0.694935  0.378419  1
  H  H11  1  0.488370  0.305065  0.621581  1
  H  H12  1  0.137571  0.149462  0.689979  1
  H  H13  1  0.862429  0.850538  0.310021  1
  H  H14  1  0.637571  0.350538  0.310021  1
  H  H15  1  0.362429  0.649462  0.689979  1
  H  H16  1  0.866382  0.171211  0.697519  1
  H  H17  1  0.133618  0.828789  0.302481  1
  H  H18  1  0.366382  0.328789  0.302481  1
  H  H19  1  0.633618  0.671211  0.697519  1
  H  H20  1  0.982586  0.304004  0.887698  1
  H  H21  1  0.017414  0.695996  0.112302  1
  H  H22  1  0.482586  0.195996  0.112302  1
  H  H23  1  0.517414  0.804004  0.887698  1
  H  H24  1  0.657237  0.142069  0.803325  1
  H  H25  1  0.342763  0.857931  0.196675  1
  H  H26  1  0.157237  0.357931  0.196675  1
  H  H27  1  0.842763  0.642069  0.803325  1
  H  H28  1  0.860661  0.329008  0.201136  1
  H  H29  1  0.139339  0.670992  0.798864  1
  H  H30  1  0.360661  0.170992  0.798864  1
  H  H31  1  0.639339  0.829008  0.201136  1
  O  O32  1  0.009445  0.617104  0.618430  1
  O  O33  1  0.990555  0.382896  0.381570  1
  O  O34  1  0.509445  0.882896  0.381570  1
  O  O35  1  0.490555  0.117104  0.618430  1
  O  O36  1  0.175432  0.169639  0.592288  1
  O  O37  1  0.824568  0.830361  0.407712  1
  O  O38  1  0.675432  0.330361  0.407712  1
  O  O39  1  0.324568  0.669639  0.592288  1
  O  O40  1  0.802463  0.223860  0.618598  1
  O  O41  1  0.197537  0.776140  0.381402  1
  O  O42  1  0.302463  0.276140  0.381402  1
  O  O43  1  0.697537  0.723860  0.618598  1
  O  O44  1  0.990687  0.116395  0.881220  1
  O  O45  1  0.009313  0.883605  0.118780  1
  O  O46  1  0.490687  0.383605  0.118780  1
  O  O47  1  0.509313  0.616395  0.881220  1
  O  O48  1  0.673960  0.153661  0.906003  1
  O  O49  1  0.326040  0.846339  0.093997  1
  O  O50  1  0.173960  0.346339  0.093997  1
  O  O51  1  0.826040  0.653661  0.906003  1
  O  O52  1  0.804331  0.277495  0.115948  1
  O  O53  1  0.195669  0.722505  0.884052  1
  O  O54  1  0.304331  0.222505  0.884052  1
  O  O55  1  0.695669  0.777495  0.115948  1
