# generated using pymatgen
data_Na2ZnGe2(HO2)4
_symmetry_space_group_name_H-M   'P 1'
_cell_length_a   13.26304835
_cell_length_b   8.83870830
_cell_length_c   13.14453328
_cell_angle_alpha   90.00000000
_cell_angle_beta   90.00000000
_cell_angle_gamma   90.00000000
_symmetry_Int_Tables_number   1
_chemical_formula_structural   Na2ZnGe2(HO2)4
_chemical_formula_sum   'Na16 Zn8 Ge16 H32 O64'
_cell_volume   1540.91018045
_cell_formula_units_Z   8
loop_
 _symmetry_equiv_pos_site_id
 _symmetry_equiv_pos_as_xyz
  1  'x, y, z'
loop_
 _atom_site_type_symbol
 _atom_site_label
 _atom_site_symmetry_multiplicity
 _atom_site_fract_x
 _atom_site_fract_y
 _atom_site_fract_z
 _atom_site_occupancy
  Na  Na0  1  0.147228  0.744332  0.874441  1
  Na  Na1  1  0.352772  0.755668  0.374441  1
  Na  Na2  1  0.647228  0.755668  0.125559  1
  Na  Na3  1  0.852772  0.744332  0.625559  1
  Na  Na4  1  0.852772  0.255668  0.125559  1
  Na  Na5  1  0.647228  0.244332  0.625559  1
  Na  Na6  1  0.352772  0.244332  0.874441  1
  Na  Na7  1  0.147228  0.255668  0.374441  1
  Na  Na8  1  0.000000  0.000000  0.000000  1
  Na  Na9  1  0.500000  0.500000  0.500000  1
  Na  Na10  1  0.500000  0.500000  0.000000  1
  Na  Na11  1  0.000000  0.000000  0.500000  1
  Na  Na12  1  0.000000  0.494402  0.750000  1
  Na  Na13  1  0.500000  0.005598  0.250000  1
  Na  Na14  1  0.000000  0.505598  0.250000  1
  Na  Na15  1  0.500000  0.994402  0.750000  1
  Zn  Zn16  1  0.251328  0.876206  0.627072  1
  Zn  Zn17  1  0.248672  0.623794  0.127072  1
  Zn  Zn18  1  0.751328  0.623794  0.372928  1
  Zn  Zn19  1  0.748672  0.876206  0.872928  1
  Zn  Zn20  1  0.748672  0.123794  0.372928  1
  Zn  Zn21  1  0.751328  0.376206  0.872928  1
  Zn  Zn22  1  0.248672  0.376206  0.627072  1
  Zn  Zn23  1  0.251328  0.123794  0.127072  1
  Ge  Ge24  1  0.377535  0.874039  0.000664  1
  Ge  Ge25  1  0.122465  0.625961  0.500664  1
  Ge  Ge26  1  0.877535  0.625961  0.999336  1
  Ge  Ge27  1  0.622465  0.874039  0.499336  1
  Ge  Ge28  1  0.622465  0.125961  0.999336  1
  Ge  Ge29  1  0.877535  0.374039  0.499336  1
  Ge  Ge30  1  0.122465  0.374039  0.000664  1
  Ge  Ge31  1  0.377535  0.125961  0.500664  1
  Ge  Ge32  1  0.120692  0.120382  0.752268  1
  Ge  Ge33  1  0.379308  0.379618  0.252268  1
  Ge  Ge34  1  0.620692  0.379618  0.247732  1
  Ge  Ge35  1  0.879308  0.120382  0.747732  1
  Ge  Ge36  1  0.879308  0.879618  0.247732  1
  Ge  Ge37  1  0.620692  0.620382  0.747732  1
  Ge  Ge38  1  0.379308  0.620382  0.752268  1
  Ge  Ge39  1  0.120692  0.879618  0.252268  1
  H  H40  1  0.169238  0.090533  0.920495  1
  H  H41  1  0.330762  0.409467  0.420495  1
  H  H42  1  0.669238  0.409467  0.079505  1
  H  H43  1  0.830762  0.090533  0.579505  1
  H  H44  1  0.830762  0.909467  0.079505  1
  H  H45  1  0.669238  0.590533  0.579505  1
  H  H46  1  0.330762  0.590533  0.920495  1
  H  H47  1  0.169238  0.909467  0.420495  1
  H  H48  1  0.329490  0.902838  0.832722  1
  H  H49  1  0.170510  0.597162  0.332722  1
  H  H50  1  0.829490  0.597162  0.167278  1
  H  H51  1  0.670510  0.902838  0.667278  1
  H  H52  1  0.670510  0.097162  0.167278  1
  H  H53  1  0.829490  0.402838  0.667278  1
  H  H54  1  0.170510  0.402838  0.832722  1
  H  H55  1  0.329490  0.097162  0.332722  1
  H  H56  1  0.545964  0.849509  0.957938  1
  H  H57  1  0.954036  0.650491  0.457938  1
  H  H58  1  0.045964  0.650491  0.042062  1
  H  H59  1  0.454036  0.849509  0.542062  1
  H  H60  1  0.454036  0.150491  0.042062  1
  H  H61  1  0.045964  0.349509  0.542062  1
  H  H62  1  0.954036  0.349509  0.957938  1
  H  H63  1  0.545964  0.150491  0.457938  1
  H  H64  1  0.044828  0.846182  0.709175  1
  H  H65  1  0.455172  0.653818  0.209175  1
  H  H66  1  0.544828  0.653818  0.290825  1
  H  H67  1  0.955172  0.846182  0.790825  1
  H  H68  1  0.955172  0.153818  0.290825  1
  H  H69  1  0.544828  0.346182  0.790825  1
  H  H70  1  0.455172  0.346182  0.709175  1
  H  H71  1  0.044828  0.153818  0.209175  1
  O  O72  1  0.131550  0.021305  0.873292  1
  O  O73  1  0.368450  0.478695  0.373292  1
  O  O74  1  0.631550  0.478695  0.126708  1
  O  O75  1  0.868450  0.021305  0.626708  1
  O  O76  1  0.868450  0.978695  0.126708  1
  O  O77  1  0.631550  0.521305  0.626708  1
  O  O78  1  0.368450  0.521305  0.873292  1
  O  O79  1  0.131550  0.978695  0.373292  1
  O  O80  1  0.367581  0.972179  0.879300  1
  O  O81  1  0.132419  0.527821  0.379300  1
  O  O82  1  0.867581  0.527821  0.120700  1
  O  O83  1  0.632419  0.972179  0.620700  1
  O  O84  1  0.632419  0.027821  0.120700  1
  O  O85  1  0.867581  0.472179  0.620700  1
  O  O86  1  0.132419  0.472179  0.879300  1
  O  O87  1  0.367581  0.027821  0.379300  1
  O  O88  1  0.500565  0.783706  0.000555  1
  O  O89  1  0.999435  0.716294  0.500555  1
  O  O90  1  0.000565  0.716294  0.999445  1
  O  O91  1  0.499435  0.783706  0.499445  1
  O  O92  1  0.499435  0.216294  0.999445  1
  O  O93  1  0.000565  0.283706  0.499445  1
  O  O94  1  0.999435  0.283706  0.000555  1
  O  O95  1  0.500565  0.216294  0.500555  1
  O  O96  1  0.122789  0.982953  0.656227  1
  O  O97  1  0.377211  0.517047  0.156227  1
  O  O98  1  0.622789  0.517047  0.343773  1
  O  O99  1  0.877211  0.982953  0.843773  1
  O  O100  1  0.877211  0.017047  0.343773  1
  O  O101  1  0.622789  0.482953  0.843773  1
  O  O102  1  0.377211  0.482953  0.656227  1
  O  O103  1  0.122789  0.017047  0.156227  1
  O  O104  1  0.000000  0.214812  0.750000  1
  O  O105  1  0.500000  0.285188  0.250000  1
  O  O106  1  0.000000  0.785188  0.250000  1
  O  O107  1  0.500000  0.714812  0.750000  1
  O  O108  1  0.377000  0.011286  0.097023  1
  O  O109  1  0.123000  0.488714  0.597023  1
  O  O110  1  0.877000  0.488714  0.902977  1
  O  O111  1  0.623000  0.011286  0.402977  1
  O  O112  1  0.623000  0.988714  0.902977  1
  O  O113  1  0.877000  0.511286  0.402977  1
  O  O114  1  0.123000  0.511286  0.097023  1
  O  O115  1  0.377000  0.988714  0.597023  1
  O  O116  1  0.284345  0.733201  0.000379  1
  O  O117  1  0.215655  0.766799  0.500379  1
  O  O118  1  0.784345  0.766799  0.999621  1
  O  O119  1  0.715655  0.733201  0.499621  1
  O  O120  1  0.715655  0.266799  0.999621  1
  O  O121  1  0.784345  0.233201  0.499621  1
  O  O122  1  0.215655  0.233201  0.000379  1
  O  O123  1  0.284345  0.266799  0.500379  1
  O  O124  1  0.285692  0.760594  0.751807  1
  O  O125  1  0.214308  0.739406  0.251807  1
  O  O126  1  0.785692  0.739406  0.248193  1
  O  O127  1  0.714308  0.760594  0.748193  1
  O  O128  1  0.714308  0.239406  0.248193  1
  O  O129  1  0.785692  0.260594  0.748193  1
  O  O130  1  0.214308  0.260594  0.751807  1
  O  O131  1  0.285692  0.239406  0.251807  1
  O  O132  1  0.000000  0.777209  0.750000  1
  O  O133  1  0.500000  0.722791  0.250000  1
  O  O134  1  0.000000  0.222791  0.250000  1
  O  O135  1  0.500000  0.277209  0.750000  1
