# generated using pymatgen
data_ZnH20S2(NO7)2
_symmetry_space_group_name_H-M   'P 1'
_cell_length_a   8.71513005
_cell_length_b   13.81414875
_cell_length_c   6.22558623
_cell_angle_alpha   90.00000000
_cell_angle_beta   103.47123592
_cell_angle_gamma   90.00000000
_symmetry_Int_Tables_number   1
_chemical_formula_structural   ZnH20S2(NO7)2
_chemical_formula_sum   'Zn2 H40 S4 N4 O28'
_cell_volume   728.89010561
_cell_formula_units_Z   2
loop_
 _symmetry_equiv_pos_site_id
 _symmetry_equiv_pos_as_xyz
  1  'x, y, z'
loop_
 _atom_site_type_symbol
 _atom_site_label
 _atom_site_symmetry_multiplicity
 _atom_site_fract_x
 _atom_site_fract_y
 _atom_site_fract_z
 _atom_site_occupancy
  Zn  Zn0  1  0.500000  0.500000  0.000000  1
  Zn  Zn1  1  0.000000  0.000000  0.000000  1
  H  H2  1  0.549569  0.169976  0.223597  1
  H  H3  1  0.950431  0.669976  0.776403  1
  H  H4  1  0.450431  0.830024  0.776403  1
  H  H5  1  0.049569  0.330024  0.223597  1
  H  H6  1  0.663486  0.259175  0.362611  1
  H  H7  1  0.836514  0.759175  0.637389  1
  H  H8  1  0.336514  0.740825  0.637389  1
  H  H9  1  0.163486  0.240825  0.362611  1
  H  H10  1  0.616201  0.164305  0.506432  1
  H  H11  1  0.883799  0.664305  0.493568  1
  H  H12  1  0.383799  0.835695  0.493568  1
  H  H13  1  0.116201  0.335695  0.506432  1
  H  H14  1  0.765062  0.020361  0.184593  1
  H  H15  1  0.734938  0.520361  0.815407  1
  H  H16  1  0.234938  0.979639  0.815407  1
  H  H17  1  0.265062  0.479639  0.184593  1
  H  H18  1  0.728810  0.424653  0.343133  1
  H  H19  1  0.771190  0.924653  0.656867  1
  H  H20  1  0.271190  0.575347  0.656867  1
  H  H21  1  0.228810  0.075347  0.343133  1
  H  H22  1  0.751594  0.383305  0.114817  1
  H  H23  1  0.748406  0.883305  0.885183  1
  H  H24  1  0.248406  0.616695  0.885183  1
  H  H25  1  0.251594  0.116695  0.114817  1
  H  H26  1  0.242833  0.348112  0.338474  1
  H  H27  1  0.257167  0.848112  0.661526  1
  H  H28  1  0.757167  0.651888  0.661526  1
  H  H29  1  0.742833  0.151888  0.338474  1
  H  H30  1  0.221327  0.416822  0.966066  1
  H  H31  1  0.278673  0.916822  0.033934  1
  H  H32  1  0.778673  0.583178  0.033934  1
  H  H33  1  0.721327  0.083178  0.966066  1
  H  H34  1  0.424994  0.585760  0.345770  1
  H  H35  1  0.075006  0.085760  0.654230  1
  H  H36  1  0.575006  0.414240  0.654230  1
  H  H37  1  0.924994  0.914240  0.345770  1
  H  H38  1  0.548899  0.659534  0.291187  1
  H  H39  1  0.951101  0.159534  0.708813  1
  H  H40  1  0.451101  0.340466  0.708813  1
  H  H41  1  0.048899  0.840466  0.291187  1
  S  S42  1  0.914157  0.366595  0.760660  1
  S  S43  1  0.585843  0.866595  0.239340  1
  S  S44  1  0.085843  0.633405  0.239340  1
  S  S45  1  0.414157  0.133405  0.760660  1
  N  N46  1  0.642246  0.186109  0.359345  1
  N  N47  1  0.857754  0.686109  0.640655  1
  N  N48  1  0.357754  0.813891  0.640655  1
  N  N49  1  0.142246  0.313891  0.359345  1
  O  O50  1  0.892355  0.275502  0.630257  1
  O  O51  1  0.607645  0.775502  0.369743  1
  O  O52  1  0.107645  0.724498  0.369743  1
  O  O53  1  0.392355  0.224498  0.630257  1
  O  O54  1  0.074134  0.405659  0.766867  1
  O  O55  1  0.425866  0.905659  0.233133  1
  O  O56  1  0.925866  0.594341  0.233133  1
  O  O57  1  0.574134  0.094341  0.766867  1
  O  O58  1  0.791843  0.439082  0.647122  1
  O  O59  1  0.708157  0.939082  0.352878  1
  O  O60  1  0.208157  0.560918  0.352878  1
  O  O61  1  0.291843  0.060918  0.647122  1
  O  O62  1  0.892862  0.350482  -0.011077  1
  O  O63  1  0.607138  0.850482  0.011077  1
  O  O64  1  0.107138  0.649518  0.011077  1
  O  O65  1  0.392862  0.149518  -0.011077  1
  O  O66  1  0.669820  0.397723  0.199734  1
  O  O67  1  0.830180  0.897723  0.800266  1
  O  O68  1  0.330180  0.602277  0.800266  1
  O  O69  1  0.169820  0.102277  0.199734  1
  O  O70  1  0.311900  0.431556  0.096769  1
  O  O71  1  0.188100  0.931556  0.903231  1
  O  O72  1  0.688100  0.568444  0.903231  1
  O  O73  1  0.811900  0.068444  0.096769  1
  O  O74  1  0.523974  0.589097  0.293958  1
  O  O75  1  0.976026  0.089097  0.706042  1
  O  O76  1  0.476026  0.410903  0.706042  1
  O  O77  1  0.023974  0.910903  0.293958  1
