# generated using pymatgen
data_ReC5IO5
_symmetry_space_group_name_H-M   'P 1'
_cell_length_a   6.78063434
_cell_length_b   6.78063465
_cell_length_c   10.99374308
_cell_angle_alpha   90.00000000
_cell_angle_beta   90.00000000
_cell_angle_gamma   110.32517940
_symmetry_Int_Tables_number   1
_chemical_formula_structural   ReC5IO5
_chemical_formula_sum   'Re2 C10 I2 O10'
_cell_volume   473.98763982
_cell_formula_units_Z   2
loop_
 _symmetry_equiv_pos_site_id
 _symmetry_equiv_pos_as_xyz
  1  'x, y, z'
loop_
 _atom_site_type_symbol
 _atom_site_label
 _atom_site_symmetry_multiplicity
 _atom_site_fract_x
 _atom_site_fract_y
 _atom_site_fract_z
 _atom_site_occupancy
  Re  Re0  1  0.140066  0.859934  0.750000  1
  Re  Re1  1  0.859934  0.140066  0.250000  1
  C  C2  1  0.682523  0.946485  0.122074  1
  C  C3  1  0.317477  0.053515  0.622074  1
  C  C4  1  0.684036  0.315964  0.250000  1
  C  C5  1  0.053515  0.317477  0.377926  1
  C  C6  1  0.946485  0.682523  0.622074  1
  C  C7  1  0.315964  0.684036  0.750000  1
  C  C8  1  0.946485  0.682523  0.877926  1
  C  C9  1  0.053515  0.317477  0.122074  1
  C  C10  1  0.317477  0.053515  0.877926  1
  C  C11  1  0.682523  0.946485  0.377926  1
  I  I12  1  0.115496  0.884504  0.250000  1
  I  I13  1  0.884504  0.115496  0.750000  1
  O  O14  1  0.418860  0.167083  0.549880  1
  O  O15  1  0.832917  0.581140  0.950120  1
  O  O16  1  0.581140  0.832917  0.450120  1
  O  O17  1  0.420422  0.579578  0.750000  1
  O  O18  1  0.581140  0.832917  0.049880  1
  O  O19  1  0.167083  0.418860  0.049880  1
  O  O20  1  0.579578  0.420422  0.250000  1
  O  O21  1  0.832917  0.581140  0.549880  1
  O  O22  1  0.418860  0.167083  0.950120  1
  O  O23  1  0.167083  0.418860  0.450120  1
