# generated using pymatgen
data_HN
_symmetry_space_group_name_H-M   'P 1'
_cell_length_a   6.26284029
_cell_length_b   6.19714624
_cell_length_c   6.57281879
_cell_angle_alpha   114.97400339
_cell_angle_beta   87.86622256
_cell_angle_gamma   103.66384885
_symmetry_Int_Tables_number   1
_chemical_formula_structural   HN
_chemical_formula_sum   'H16 N16'
_cell_volume   224.13911026
_cell_formula_units_Z   16
loop_
 _symmetry_equiv_pos_site_id
 _symmetry_equiv_pos_as_xyz
  1  'x, y, z'
loop_
 _atom_site_type_symbol
 _atom_site_label
 _atom_site_symmetry_multiplicity
 _atom_site_fract_x
 _atom_site_fract_y
 _atom_site_fract_z
 _atom_site_occupancy
  H  H0  1  0.635716  0.961938  0.368426  1
  H  H1  1  0.006393  0.329745  0.683048  1
  H  H2  1  0.991724  0.198103  0.118172  1
  H  H3  1  0.147490  0.097865  0.375200  1
  H  H4  1  0.349166  0.770738  0.932786  1
  H  H5  1  0.377284  0.525830  0.661576  1
  H  H6  1  0.378582  0.525750  0.127301  1
  H  H7  1  0.146109  0.554916  0.432271  1
  H  H8  1  0.853891  0.445084  0.567729  1
  H  H9  1  0.621418  0.474250  0.872699  1
  H  H10  1  0.622716  0.474170  0.338424  1
  H  H11  1  0.650834  0.229262  0.067214  1
  H  H12  1  0.852510  0.902135  0.624800  1
  H  H13  1  0.008276  0.801897  0.881828  1
  H  H14  1  -0.006393  0.670255  0.316952  1
  H  H15  1  0.364284  0.038062  0.631574  1
  N  N16  1  0.787955  0.481856  0.881494  1
  N  N17  1  0.602052  0.857985  0.772021  1
  N  N18  1  0.836300  0.896196  0.150972  1
  N  N19  1  0.147348  0.648240  0.333809  1
  N  N20  1  0.908535  0.731819  0.980915  1
  N  N21  1  0.417725  0.709017  0.780415  1
  N  N22  1  0.717393  0.762576  0.608651  1
  N  N23  1  0.336129  0.188508  0.768808  1
  N  N24  1  0.663871  0.811492  0.231192  1
  N  N25  1  0.282607  0.237424  0.391349  1
  N  N26  1  0.582275  0.290983  0.219585  1
  N  N27  1  0.091465  0.268181  0.019085  1
  N  N28  1  0.852652  0.351760  0.666191  1
  N  N29  1  0.163700  0.103804  0.849028  1
  N  N30  1  0.397948  0.142015  0.227979  1
  N  N31  1  0.212045  0.518144  0.118506  1
