# generated using pymatgen
data_TlHg(AsS2)3
_symmetry_space_group_name_H-M   'P 1'
_cell_length_a   6.20343707
_cell_length_b   12.29730410
_cell_length_c   16.29267074
_cell_angle_alpha   90.00000000
_cell_angle_beta   91.31662980
_cell_angle_gamma   90.00000000
_symmetry_Int_Tables_number   1
_chemical_formula_structural   TlHg(AsS2)3
_chemical_formula_sum   'Tl4 Hg4 As12 S24'
_cell_volume   1242.56723686
_cell_formula_units_Z   4
loop_
 _symmetry_equiv_pos_site_id
 _symmetry_equiv_pos_as_xyz
  1  'x, y, z'
loop_
 _atom_site_type_symbol
 _atom_site_label
 _atom_site_symmetry_multiplicity
 _atom_site_fract_x
 _atom_site_fract_y
 _atom_site_fract_z
 _atom_site_occupancy
  S  S0  1  0.242554  0.860592  0.881261  1
  S  S1  1  0.372380  0.053504  0.742511  1
  S  S2  1  0.127620  0.553504  0.757489  1
  S  S3  1  0.627620  0.946496  0.257489  1
  S  S4  1  0.872380  0.446496  0.242511  1
  S  S5  1  0.558556  0.359669  0.789772  1
  S  S6  1  0.941444  0.859669  0.710228  1
  S  S7  1  0.441444  0.640331  0.210228  1
  S  S8  1  0.058556  0.140331  0.289772  1
  S  S9  1  0.444431  0.185149  0.943262  1
  S  S10  1  0.055569  0.685149  0.556738  1
  S  S11  1  0.555569  0.814851  0.056738  1
  S  S12  1  0.944431  0.314851  0.443262  1
  S  S13  1  0.888441  0.363700  0.950919  1
  S  S14  1  0.611559  0.863700  0.549081  1
  S  S15  1  0.111559  0.636300  0.049081  1
  S  S16  1  0.371941  0.349085  0.115733  1
  S  S17  1  0.128059  0.849085  0.384267  1
  S  S18  1  0.628059  0.650915  0.884267  1
  S  S19  1  0.871941  0.150915  0.615733  1
  S  S20  1  0.757446  0.139408  0.118739  1
  S  S21  1  0.742554  0.639408  0.381261  1
  S  S22  1  0.257446  0.360592  0.618739  1
  S  S23  1  0.388441  0.136300  0.450919  1
  As  As24  1  0.025738  0.131762  0.432736  1
  As  As25  1  0.607853  0.825225  0.917903  1
  As  As26  1  0.474262  0.631762  0.067264  1
  As  As27  1  0.974262  0.868238  0.567264  1
  As  As28  1  0.525738  0.368238  0.932736  1
  As  As29  1  0.194723  0.371575  0.755389  1
  As  As30  1  0.305277  0.871575  0.744611  1
  As  As31  1  0.805277  0.628425  0.244611  1
  As  As32  1  0.694723  0.128425  0.255389  1
  As  As33  1  0.892147  0.325225  0.582097  1
  As  As34  1  0.107853  0.674775  0.417903  1
  As  As35  1  0.392147  0.174775  0.082097  1
  Hg  Hg36  1  0.429207  0.094582  0.597474  1
  Hg  Hg37  1  0.929207  0.405418  0.097474  1
  Hg  Hg38  1  0.570793  0.905418  0.402526  1
  Hg  Hg39  1  0.070793  0.594582  0.902526  1
  Tl  Tl40  1  0.374864  0.384593  0.302504  1
  Tl  Tl41  1  0.125136  0.884593  0.197496  1
  Tl  Tl42  1  0.625136  0.615407  0.697496  1
  Tl  Tl43  1  0.874864  0.115407  0.802504  1
