# generated using pymatgen
data_La(HO)3
_symmetry_space_group_name_H-M   'P 1'
_cell_length_a   6.61215770
_cell_length_b   6.57091588
_cell_length_c   3.83109215
_cell_angle_alpha   87.61291643
_cell_angle_beta   92.18489929
_cell_angle_gamma   119.41507910
_symmetry_Int_Tables_number   1
_chemical_formula_structural   La(HO)3
_chemical_formula_sum   'La2 H6 O6'
_cell_volume   144.83899438
_cell_formula_units_Z   2
loop_
 _symmetry_equiv_pos_site_id
 _symmetry_equiv_pos_as_xyz
  1  'x, y, z'
loop_
 _atom_site_type_symbol
 _atom_site_label
 _atom_site_symmetry_multiplicity
 _atom_site_fract_x
 _atom_site_fract_y
 _atom_site_fract_z
 _atom_site_occupancy
  La  La0  1  0.336018  0.660862  0.217501  1
  La  La1  1  0.673626  0.330534  0.727260  1
  H  H2  1  0.870234  0.713663  0.130316  1
  H  H3  1  0.861365  0.131515  0.235940  1
  H  H4  1  0.300856  0.138785  0.242673  1
  H  H5  1  0.138309  0.271643  0.757396  1
  H  H6  1  0.148958  0.861197  0.642509  1
  H  H7  1  0.712242  0.844900  0.643938  1
  O  O8  1  0.927991  0.612459  0.234686  1
  O  O9  1  0.695403  0.075739  0.254194  1
  O  O10  1  0.405155  0.307084  0.218884  1
  O  O11  1  0.089233  0.389390  0.728707  1
  O  O12  1  0.311491  0.914730  0.711894  1
  O  O13  1  0.615295  0.686768  0.739055  1
