# generated using pymatgen
data_ScF3
_symmetry_space_group_name_H-M   'P 1'
_cell_length_a   3.68812657
_cell_length_b   3.35000262
_cell_length_c   3.97884425
_cell_angle_alpha   92.46897226
_cell_angle_beta   117.61104261
_cell_angle_gamma   84.66677943
_symmetry_Int_Tables_number   1
_chemical_formula_structural   ScF3
_chemical_formula_sum   'Sc1 F3'
_cell_volume   43.37240258
_cell_formula_units_Z   1
loop_
 _symmetry_equiv_pos_site_id
 _symmetry_equiv_pos_as_xyz
  1  'x, y, z'
loop_
 _atom_site_type_symbol
 _atom_site_label
 _atom_site_symmetry_multiplicity
 _atom_site_fract_x
 _atom_site_fract_y
 _atom_site_fract_z
 _atom_site_occupancy
  Sc  Sc0  1  0.005042  1.000000  0.010083  1
  F  F1  1  0.480853  0.182910  0.488256  1
  F  F2  1  0.007403  0.817090  0.488256  1
  F  F3  1  0.506702  0.500000  0.013405  1
