# generated using pymatgen
data_EuTi2CdO6F
_symmetry_space_group_name_H-M   'P 1'
_cell_length_a   7.27446952
_cell_length_b   7.27446956
_cell_length_c   7.39446815
_cell_angle_alpha   59.45280933
_cell_angle_beta   59.45280915
_cell_angle_gamma   59.29501230
_symmetry_Int_Tables_number   1
_chemical_formula_structural   EuTi2CdO6F
_chemical_formula_sum   'Eu2 Ti4 Cd2 O12 F2'
_cell_volume   272.91275528
_cell_formula_units_Z   2
loop_
 _symmetry_equiv_pos_site_id
 _symmetry_equiv_pos_as_xyz
  1  'x, y, z'
loop_
 _atom_site_type_symbol
 _atom_site_label
 _atom_site_symmetry_multiplicity
 _atom_site_fract_x
 _atom_site_fract_y
 _atom_site_fract_z
 _atom_site_occupancy
  Eu  Eu0  1  0.000000  0.000000  0.000000  1
  Eu  Eu1  1  0.000000  0.000000  0.500000  1
  Ti  Ti2  1  0.000000  0.500000  0.500000  1
  Ti  Ti3  1  0.500000  0.500000  0.000000  1
  Ti  Ti4  1  0.500000  0.500000  0.500000  1
  Ti  Ti5  1  0.500000  0.000000  0.500000  1
  Cd  Cd6  1  0.000000  0.500000  0.000000  1
  Cd  Cd7  1  0.500000  0.000000  0.000000  1
  O  O8  1  0.170836  0.170836  0.579164  1
  O  O9  1  0.171841  0.579667  0.175291  1
  O  O10  1  0.171841  0.579667  0.573201  1
  O  O11  1  0.579667  0.171841  0.175291  1
  O  O12  1  0.575238  0.575238  0.174762  1
  O  O13  1  0.579667  0.171841  0.573201  1
  O  O14  1  0.424762  0.424762  0.825238  1
  O  O15  1  0.420333  0.828159  0.426799  1
  O  O16  1  0.828159  0.420333  0.426799  1
  O  O17  1  0.420333  0.828159  0.824709  1
  O  O18  1  0.828159  0.420333  0.824709  1
  O  O19  1  0.829164  0.829164  0.420836  1
  F  F20  1  0.129590  0.129590  0.120410  1
  F  F21  1  0.870410  0.870410  0.879590  1
