# generated using pymatgen
data_Sr2GdCoCu2O7
_symmetry_space_group_name_H-M   'P 1'
_cell_length_a   5.46325110
_cell_length_b   5.53272357
_cell_length_c   12.15646181
_cell_angle_alpha   103.16066292
_cell_angle_beta   102.98706553
_cell_angle_gamma   89.99239720
_symmetry_Int_Tables_number   1
_chemical_formula_structural   Sr2GdCoCu2O7
_chemical_formula_sum   'Sr4 Gd2 Co2 Cu4 O14'
_cell_volume   348.14145030
_cell_formula_units_Z   2
loop_
 _symmetry_equiv_pos_site_id
 _symmetry_equiv_pos_as_xyz
  1  'x, y, z'
loop_
 _atom_site_type_symbol
 _atom_site_label
 _atom_site_symmetry_multiplicity
 _atom_site_fract_x
 _atom_site_fract_y
 _atom_site_fract_z
 _atom_site_occupancy
  Sr  Sr0  1  0.849600  0.835892  0.695031  1
  Sr  Sr1  1  0.154795  0.164064  0.305214  1
  Sr  Sr2  1  0.349479  0.358902  0.694796  1
  Sr  Sr3  1  0.654669  0.640843  0.304987  1
  Gd  Gd4  1  0.502295  0.500176  0.999918  1
  Gd  Gd5  1  0.002338  0.000204  0.000043  1
  Co  Co6  1  0.720267  0.187908  0.500004  1
  Co  Co7  1  0.219025  0.811543  0.500023  1
  Cu  Cu8  1  0.930601  0.427449  0.855189  1
  Cu  Cu9  1  0.430501  0.927816  0.855080  1
  Cu  Cu10  1  0.075538  0.572853  0.144884  1
  Cu  Cu11  1  0.575515  0.072296  0.144750  1
  O  O12  1  0.687233  0.183293  0.867395  1
  O  O13  1  0.314594  0.310977  0.126372  1
  O  O14  1  0.819679  0.817001  0.132196  1
  O  O15  1  0.198761  0.636062  0.351385  1
  O  O16  1  0.849503  0.363993  0.648352  1
  O  O17  1  0.188129  0.689344  0.873935  1
  O  O18  1  0.187513  0.184454  0.867819  1
  O  O19  1  0.870059  0.870648  0.500008  1
  O  O20  1  0.687941  0.684737  0.873611  1
  O  O21  1  0.371496  0.127607  0.500010  1
  O  O22  1  0.814087  0.315375  0.126085  1
  O  O23  1  0.701134  0.215518  0.351613  1
  O  O24  1  0.320200  0.816228  0.132616  1
  O  O25  1  0.347249  0.784816  0.648685  1
