# generated using pymatgen
data_Hf6Fe16Si7
_symmetry_space_group_name_H-M   'P 1'
_cell_length_a   8.06801211
_cell_length_b   8.06750803
_cell_length_c   8.06819535
_cell_angle_alpha   59.99518517
_cell_angle_beta   59.99781992
_cell_angle_gamma   59.99584019
_symmetry_Int_Tables_number   1
_chemical_formula_structural   Hf6Fe16Si7
_chemical_formula_sum   'Hf6 Fe16 Si7'
_cell_volume   371.30495121
_cell_formula_units_Z   1
loop_
 _symmetry_equiv_pos_site_id
 _symmetry_equiv_pos_as_xyz
  1  'x, y, z'
loop_
 _atom_site_type_symbol
 _atom_site_label
 _atom_site_symmetry_multiplicity
 _atom_site_fract_x
 _atom_site_fract_y
 _atom_site_fract_z
 _atom_site_occupancy
  Hf  Hf0  1  0.205191  0.205103  0.794895  1
  Hf  Hf1  1  0.794900  0.205247  0.205240  1
  Hf  Hf2  1  0.205292  0.794975  0.794654  1
  Hf  Hf3  1  0.794663  0.794777  0.205337  1
  Hf  Hf4  1  0.794871  0.205293  0.794668  1
  Hf  Hf5  1  0.205247  0.795003  0.205152  1
  Fe  Fe6  1  0.621068  0.136870  0.621004  1
  Fe  Fe7  1  0.473667  0.175387  0.175453  1
  Fe  Fe8  1  0.378925  0.378898  0.863216  1
  Fe  Fe9  1  0.175408  0.175359  0.175419  1
  Fe  Fe10  1  0.175416  0.473681  0.175431  1
  Fe  Fe11  1  0.824567  0.824638  0.526219  1
  Fe  Fe12  1  0.621039  0.621020  0.136917  1
  Fe  Fe13  1  0.824582  0.526214  0.824616  1
  Fe  Fe14  1  0.824517  0.824591  0.824550  1
  Fe  Fe15  1  0.175415  0.175368  0.473746  1
  Fe  Fe16  1  0.621088  0.621072  0.621025  1
  Fe  Fe17  1  0.863262  0.378870  0.378934  1
  Fe  Fe18  1  0.378910  0.378878  0.378940  1
  Fe  Fe19  1  0.378918  0.863182  0.378951  1
  Fe  Fe20  1  0.526293  0.824604  0.824563  1
  Fe  Fe21  1  0.136711  0.621110  0.621064  1
  Si  Si22  1  0.499772  0.000013  0.000122  1
  Si  Si23  1  0.499993  -0.000038  0.500052  1
  Si  Si24  1  0.500193  0.500019  0.499855  1
  Si  Si25  1  0.999933  0.499700  0.000179  1
  Si  Si26  1  0.500199  0.500029  -0.000076  1
  Si  Si27  1  0.000078  0.000216  0.499722  1
  Si  Si28  1  0.999881  0.499919  0.500149  1
