# generated using pymatgen
data_Ca2F
_symmetry_space_group_name_H-M   'P 1'
_cell_length_a   3.96827678
_cell_length_b   19.69249920
_cell_length_c   17.18455117
_cell_angle_alpha   23.45018024
_cell_angle_beta   54.80239196
_cell_angle_gamma   59.79169378
_symmetry_Int_Tables_number   1
_chemical_formula_structural   Ca2F
_chemical_formula_sum   'Ca10 F5'
_cell_volume   435.33965578
_cell_formula_units_Z   5
loop_
 _symmetry_equiv_pos_site_id
 _symmetry_equiv_pos_as_xyz
  1  'x, y, z'
loop_
 _atom_site_type_symbol
 _atom_site_label
 _atom_site_symmetry_multiplicity
 _atom_site_fract_x
 _atom_site_fract_y
 _atom_site_fract_z
 _atom_site_occupancy
  Ca  Ca0  1  0.995427  0.999691  0.002145  1
  Ca  Ca1  1  0.024590  0.204878  0.986060  1
  Ca  Ca2  1  0.023977  0.400053  0.990388  1
  Ca  Ca3  1  0.997461  0.098024  0.502243  1
  Ca  Ca4  1  0.999584  0.601259  0.997604  1
  Ca  Ca5  1  0.034413  0.302324  0.483672  1
  Ca  Ca6  1  0.965814  0.797385  0.015456  1
  Ca  Ca7  1  0.976841  0.699763  0.508324  1
  Ca  Ca8  1  0.004700  0.497808  0.499924  1
  Ca  Ca9  1  0.969142  0.899662  0.510702  1
  F  F10  1  0.231135  0.773467  0.133271  1
  F  F11  1  0.769470  0.327546  0.364410  1
  F  F12  1  0.759078  0.230347  0.866899  1
  F  F13  1  0.231202  0.874382  0.631160  1
  F  F14  1  0.764158  0.420294  0.873986  1
