# generated using pymatgen
data_PH3W(CO)5
_symmetry_space_group_name_H-M   'P 1'
_cell_length_a   6.84270043
_cell_length_b   11.18841966
_cell_length_c   12.78179183
_cell_angle_alpha   97.14570531
_cell_angle_beta   90.00000000
_cell_angle_gamma   90.00000000
_symmetry_Int_Tables_number   1
_chemical_formula_structural   PH3W(CO)5
_chemical_formula_sum   'P4 H12 W4 C20 O20'
_cell_volume   970.96079094
_cell_formula_units_Z   4
loop_
 _symmetry_equiv_pos_site_id
 _symmetry_equiv_pos_as_xyz
  1  'x, y, z'
loop_
 _atom_site_type_symbol
 _atom_site_label
 _atom_site_symmetry_multiplicity
 _atom_site_fract_x
 _atom_site_fract_y
 _atom_site_fract_z
 _atom_site_occupancy
  P  P0  1  0.106763  0.294503  0.325477  1
  P  P1  1  0.893237  0.705497  0.674523  1
  P  P2  1  0.606763  0.705497  0.174523  1
  P  P3  1  0.393237  0.294503  0.825477  1
  H  H4  1  0.698732  0.667103  0.649633  1
  H  H5  1  0.493554  0.387294  0.889690  1
  H  H6  1  0.006446  0.387294  0.389690  1
  H  H7  1  0.801268  0.667103  0.149633  1
  H  H8  1  0.301268  0.332897  0.350367  1
  H  H9  1  0.596110  0.796995  0.107428  1
  H  H10  1  0.403890  0.203005  0.892572  1
  H  H11  1  0.096110  0.203005  0.392572  1
  H  H12  1  0.993554  0.612706  0.610310  1
  H  H13  1  0.506446  0.612706  0.110310  1
  H  H14  1  0.198732  0.332897  0.850367  1
  H  H15  1  0.903890  0.796995  0.607428  1
  W  W16  1  0.493380  0.755267  0.367521  1
  W  W17  1  0.006620  0.755267  0.867521  1
  W  W18  1  0.993380  0.244733  0.132479  1
  W  W19  1  0.506620  0.244733  0.632479  1
  C  C20  1  0.133073  0.913711  0.830260  1
  C  C21  1  0.633073  0.086289  0.669740  1
  C  C22  1  0.731951  0.333440  0.168128  1
  C  C23  1  0.880657  0.597598  0.904241  1
  C  C24  1  0.600066  0.206152  0.481164  1
  C  C25  1  0.399934  0.793848  0.518836  1
  C  C26  1  0.231951  0.666560  0.331872  1
  C  C27  1  0.380657  0.402402  0.595759  1
  C  C28  1  0.768049  0.333440  0.668128  1
  C  C29  1  0.246682  0.152522  0.597673  1
  C  C30  1  0.899934  0.206152  0.981164  1
  C  C31  1  0.753318  0.847478  0.402327  1
  C  C32  1  0.746682  0.847478  0.902327  1
  C  C33  1  0.366927  0.913711  0.330260  1
  C  C34  1  0.619343  0.597598  0.404241  1
  C  C35  1  0.119343  0.402402  0.095759  1
  C  C36  1  0.100066  0.793848  0.018836  1
  C  C37  1  0.253318  0.152522  0.097673  1
  C  C38  1  0.866927  0.086289  0.169740  1
  C  C39  1  0.268049  0.666560  0.831872  1
  O  O40  1  0.204138  0.002156  0.810401  1
  O  O41  1  0.689695  0.509551  0.426833  1
  O  O42  1  0.083103  0.617872  0.314021  1
  O  O43  1  0.295862  0.002156  0.310401  1
  O  O44  1  0.898367  0.898970  0.422569  1
  O  O45  1  0.845608  0.185270  0.894078  1
  O  O46  1  0.310305  0.490449  0.573167  1
  O  O47  1  0.795862  0.997844  0.189599  1
  O  O48  1  0.416897  0.617872  0.814021  1
  O  O49  1  0.345608  0.814730  0.605922  1
  O  O50  1  0.704138  0.997844  0.689599  1
  O  O51  1  0.583103  0.382128  0.185979  1
  O  O52  1  0.916897  0.382128  0.685979  1
  O  O53  1  0.601633  0.898970  0.922569  1
  O  O54  1  0.810305  0.509551  0.926833  1
  O  O55  1  0.101633  0.101030  0.577431  1
  O  O56  1  0.189695  0.490449  0.073167  1
  O  O57  1  0.154392  0.814730  0.105922  1
  O  O58  1  0.398367  0.101030  0.077431  1
  O  O59  1  0.654392  0.185270  0.394078  1
