# generated using pymatgen
data_Sr51W12N56O3
_symmetry_space_group_name_H-M   'P 1'
_cell_length_a   11.23471128
_cell_length_b   13.18632936
_cell_length_c   16.98810234
_cell_angle_alpha   102.53083976
_cell_angle_beta   95.33147242
_cell_angle_gamma   109.81545718
_symmetry_Int_Tables_number   1
_chemical_formula_structural   Sr51W12N56O3
_chemical_formula_sum   'Sr51 W12 N56 O3'
_cell_volume   2272.99427194
_cell_formula_units_Z   1
loop_
 _symmetry_equiv_pos_site_id
 _symmetry_equiv_pos_as_xyz
  1  'x, y, z'
loop_
 _atom_site_type_symbol
 _atom_site_label
 _atom_site_symmetry_multiplicity
 _atom_site_fract_x
 _atom_site_fract_y
 _atom_site_fract_z
 _atom_site_occupancy
  Sr  Sr0  1  0.921480  0.359145  0.330067  1
  Sr  Sr1  1  0.875709  0.344182  0.542586  1
  Sr  Sr2  1  0.796649  0.546233  0.473503  1
  Sr  Sr3  1  0.593651  0.236338  0.626201  1
  Sr  Sr4  1  0.604336  0.198861  0.835618  1
  Sr  Sr5  1  0.849934  0.497018  0.934306  1
  Sr  Sr6  1  0.466341  0.522867  0.401997  1
  Sr  Sr7  1  0.066813  0.822493  0.848368  1
  Sr  Sr8  1  0.533659  0.477133  0.598003  1
  Sr  Sr9  1  0.762967  0.720474  0.902216  1
  Sr  Sr10  1  0.237033  0.279526  0.097784  1
  Sr  Sr11  1  0.355924  0.901963  0.746626  1
  Sr  Sr12  1  0.744935  0.814003  0.494134  1
  Sr  Sr13  1  0.679742  0.018286  0.674016  1
  Sr  Sr14  1  0.009334  0.952755  0.199953  1
  Sr  Sr15  1  0.078520  0.640855  0.669933  1
  Sr  Sr16  1  0.455891  0.607833  0.975816  1
  Sr  Sr17  1  0.912638  0.310840  0.751168  1
  Sr  Sr18  1  0.285470  0.133948  0.722087  1
  Sr  Sr19  1  0.577528  0.334161  0.231950  1
  Sr  Sr20  1  0.309787  0.044784  0.122814  1
  Sr  Sr21  1  0.255065  0.185997  0.505866  1
  Sr  Sr22  1  0.359318  0.858344  0.948022  1
  Sr  Sr23  1  0.150066  0.502982  0.065694  1
  Sr  Sr24  1  0.124291  0.655818  0.457414  1
  Sr  Sr25  1  0.238260  0.232593  0.298978  1
  Sr  Sr26  1  0.544109  0.392167  0.024184  1
  Sr  Sr27  1  0.320258  0.981714  0.325984  1
  Sr  Sr28  1  0.142085  0.577670  0.856735  1
  Sr  Sr29  1  0.395664  0.801139  0.164382  1
  Sr  Sr30  1  0.761740  0.767407  0.701022  1
  Sr  Sr31  1  0.203351  0.453767  0.526497  1
  Sr  Sr32  1  0.479363  0.570426  0.181799  1
  Sr  Sr33  1  0.974744  0.136856  0.596345  1
  Sr  Sr34  1  0.714530  0.866052  0.277913  1
  Sr  Sr35  1  0.933187  0.177507  0.151632  1
  Sr  Sr36  1  0.406349  0.763662  0.373799  1
  Sr  Sr37  1  0.640682  0.141656  0.051978  1
  Sr  Sr38  1  0.355214  0.957688  0.544242  1
  Sr  Sr39  1  0.783642  0.674221  0.097716  1
  Sr  Sr40  1  0.990666  0.047245  0.800047  1
  Sr  Sr41  1  0.857915  0.422330  0.143265  1
  Sr  Sr42  1  0.216358  0.325779  0.902284  1
  Sr  Sr43  1  0.644076  0.098037  0.253374  1
  Sr  Sr44  1  0.644786  0.042312  0.455758  1
  Sr  Sr45  1  0.422472  0.665839  0.768050  1
  Sr  Sr46  1  0.000000  0.000000  0.000000  1
  Sr  Sr47  1  0.520637  0.429574  0.818201  1
  Sr  Sr48  1  0.025256  0.863144  0.403655  1
  Sr  Sr49  1  0.690213  0.955216  0.877186  1
  Sr  Sr50  1  0.087362  0.689160  0.248832  1
  W  W51  1  0.970171  0.099461  0.385014  1
  W  W52  1  0.029829  0.900539  0.614986  1
  W  W53  1  0.372234  0.119242  0.943232  1
  W  W54  1  0.905410  0.258110  0.931816  1
  W  W55  1  0.517984  0.244818  0.409294  1
  W  W56  1  0.223752  0.485171  0.264642  1
  W  W57  1  0.218296  0.379747  0.715532  1
  W  W58  1  0.482016  0.755182  0.590706  1
  W  W59  1  0.094590  0.741890  0.068184  1
  W  W60  1  0.627766  0.880758  0.056768  1
  W  W61  1  0.776248  0.514829  0.735358  1
  W  W62  1  0.781704  0.620253  0.284468  1
  N  N63  1  0.650515  0.581649  0.751503  1
  N  N64  1  0.564105  0.652568  0.553445  1
  N  N65  1  0.212773  0.009151  0.945020  1
  N  N66  1  0.442637  0.171723  0.296238  1
  N  N67  1  0.881882  0.101491  0.286306  1
  N  N68  1  0.650278  0.542841  0.956864  1
  N  N69  1  0.287165  0.622123  0.231451  1
  N  N70  1  0.838942  0.986094  0.422337  1
  N  N71  1  0.383875  0.226984  0.879448  1
  N  N72  1  0.684577  0.518791  0.180488  1
  N  N73  1  0.900994  0.564793  0.329544  1
  N  N74  1  0.935494  0.608100  0.802979  1
  N  N75  1  0.435895  0.347432  0.446555  1
  N  N76  1  0.009717  0.389007  0.904956  1
  N  N77  1  0.349485  0.418351  0.248497  1
  N  N78  1  0.516556  0.954957  0.094769  1
  N  N79  1  0.315423  0.481209  0.819512  1
  N  N80  1  0.184393  0.850440  0.172341  1
  N  N81  1  0.349722  0.457159  0.043136  1
  N  N82  1  0.536198  0.868589  0.530959  1
  N  N83  1  0.979940  0.790610  0.010416  1
  N  N84  1  0.099006  0.435207  0.670456  1
  N  N85  1  0.781806  0.301160  0.986766  1
  N  N86  1  0.122200  0.244230  0.740064  1
  N  N87  1  0.616125  0.773016  0.120552  1
  N  N88  1  0.064506  0.391900  0.197021  1
  N  N89  1  0.877800  0.755770  0.259936  1
  N  N90  1  0.889158  0.945426  0.644233  1
  N  N91  1  0.118118  0.898509  0.713694  1
  N  N92  1  0.669302  0.645674  0.359201  1
  N  N93  1  0.557363  0.828277  0.703762  1
  N  N94  1  0.110842  0.054574  0.355767  1
  N  N95  1  0.161058  0.013906  0.577663  1
  N  N96  1  0.479799  0.085210  0.685678  1
  N  N97  1  0.781703  0.485387  0.620538  1
  N  N98  1  0.136284  0.113908  0.156442  1
  N  N99  1  0.483444  0.045043  0.905231  1
  N  N100  1  0.787227  0.990849  0.054980  1
  N  N101  1  0.559068  0.799244  0.943919  1
  N  N102  1  0.330698  0.354326  0.640799  1
  N  N103  1  0.815607  0.149560  0.827659  1
  N  N104  1  0.960942  0.756933  0.536525  1
  N  N105  1  0.218297  0.514613  0.379462  1
  N  N106  1  0.256443  0.739134  0.803850  1
  N  N107  1  0.218194  0.698840  0.013234  1
  N  N108  1  0.020060  0.209390  0.989584  1
  N  N109  1  0.039058  0.243067  0.463475  1
  N  N110  1  0.463802  0.131411  0.469041  1
  N  N111  1  0.300013  0.689958  0.583667  1
  N  N112  1  0.712835  0.377877  0.768549  1
  N  N113  1  0.520201  0.914790  0.314322  1
  N  N114  1  0.863716  0.886092  0.843558  1
  N  N115  1  0.699987  0.310042  0.416333  1
  N  N116  1  0.440932  0.200756  0.056081  1
  N  N117  1  0.990283  0.610993  0.095044  1
  N  N118  1  0.743557  0.260866  0.196150  1
  O  O119  1  0.000000  0.000000  0.500000  1
  O  O120  1  0.222677  0.821266  0.394118  1
  O  O121  1  0.777323  0.178734  0.605882  1
