# generated using pymatgen
data_Os3C8SO8
_symmetry_space_group_name_H-M   'P 1'
_cell_length_a   8.29147853
_cell_length_b   16.47631954
_cell_length_c   19.69647502
_cell_angle_alpha   90.00000000
_cell_angle_beta   92.68790182
_cell_angle_gamma   90.00000000
_symmetry_Int_Tables_number   1
_chemical_formula_structural   Os3C8SO8
_chemical_formula_sum   'Os24 C64 S8 O64'
_cell_volume   2687.83510850
_cell_formula_units_Z   8
loop_
 _symmetry_equiv_pos_site_id
 _symmetry_equiv_pos_as_xyz
  1  'x, y, z'
loop_
 _atom_site_type_symbol
 _atom_site_label
 _atom_site_symmetry_multiplicity
 _atom_site_fract_x
 _atom_site_fract_y
 _atom_site_fract_z
 _atom_site_occupancy
  Os  Os0  1  0.042828  0.658831  0.710239  1
  Os  Os1  1  0.424745  0.878144  0.629192  1
  Os  Os2  1  0.399092  0.757329  0.028659  1
  Os  Os3  1  0.116011  0.713468  0.109157  1
  Os  Os4  1  0.600908  0.242671  0.971341  1
  Os  Os5  1  0.883989  0.213468  0.390843  1
  Os  Os6  1  0.116011  0.786532  0.609157  1
  Os  Os7  1  0.399092  0.742671  0.528659  1
  Os  Os8  1  0.575255  0.378144  0.870808  1
  Os  Os9  1  0.221286  0.899024  0.095838  1
  Os  Os10  1  0.042828  0.841169  0.210239  1
  Os  Os11  1  0.635621  0.277520  0.312417  1
  Os  Os12  1  0.778714  0.399024  0.404162  1
  Os  Os13  1  0.364379  0.777520  0.187583  1
  Os  Os14  1  0.957172  0.341169  0.289761  1
  Os  Os15  1  0.575255  0.121856  0.370808  1
  Os  Os16  1  0.221286  0.600976  0.595838  1
  Os  Os17  1  0.883989  0.286532  0.890843  1
  Os  Os18  1  0.635621  0.222480  0.812417  1
  Os  Os19  1  0.424745  0.621856  0.129192  1
  Os  Os20  1  0.600908  0.257329  0.471341  1
  Os  Os21  1  0.957172  0.158831  0.789761  1
  Os  Os22  1  0.364379  0.722480  0.687583  1
  Os  Os23  1  0.778714  0.100976  0.904162  1
  C  C24  1  0.566977  0.556960  0.079537  1
  C  C25  1  0.493572  0.821295  0.472207  1
  C  C26  1  0.743745  0.458608  0.875827  1
  C  C27  1  0.480307  0.421605  0.789438  1
  C  C28  1  0.490690  0.850205  0.242292  1
  C  C29  1  0.027752  0.847251  0.533815  1
  C  C30  1  0.809246  0.060134  0.994409  1
  C  C31  1  0.908382  0.565752  0.718245  1
  C  C32  1  0.896186  0.722860  0.758330  1
  C  C33  1  0.566977  0.943040  0.579537  1
  C  C34  1  0.478716  0.339908  0.513167  1
  C  C35  1  0.784704  0.233631  0.034507  1
  C  C36  1  0.091618  0.434248  0.281755  1
  C  C37  1  0.103814  0.277140  0.241670  1
  C  C38  1  0.509310  0.350205  0.257708  1
  C  C39  1  0.159876  0.633698  0.793504  1
  C  C40  1  0.215296  0.766369  0.965493  1
  C  C41  1  0.559709  0.065169  0.889386  1
  C  C42  1  0.343596  0.715383  0.265849  1
  C  C43  1  0.343596  0.784617  0.765849  1
  C  C44  1  0.972248  0.347251  0.966185  1
  C  C45  1  0.506428  0.178705  0.527793  1
  C  C46  1  0.521284  0.839908  0.986833  1
  C  C47  1  0.215296  0.733631  0.465493  1
  C  C48  1  0.256254  0.958608  0.624173  1
  C  C49  1  0.004241  0.145800  0.336854  1
  C  C50  1  0.440291  0.565169  0.610614  1
  C  C51  1  0.784704  0.266369  0.534507  1
  C  C52  1  0.743745  0.041392  0.375827  1
  C  C53  1  0.848424  -0.000497  0.869722  1
  C  C54  1  0.256254  0.541392  0.124173  1
  C  C55  1  0.840124  0.366302  0.206496  1
  C  C56  1  0.433023  0.056960  0.420463  1
  C  C57  1  0.103814  0.222860  0.741670  1
  C  C58  1  0.840124  0.133698  0.706496  1
  C  C59  1  0.656404  0.284617  0.734151  1
  C  C60  1  0.509310  0.149795  0.757708  1
  C  C61  1  0.091618  0.065752  0.781755  1
  C  C62  1  0.190754  0.560134  0.505591  1
  C  C63  1  0.493572  0.678705  0.972207  1
  C  C64  1  0.995759  0.645800  0.163146  1
  C  C65  1  0.559709  0.434831  0.389386  1
  C  C66  1  0.027752  0.652749  0.033815  1
  C  C67  1  0.519693  0.578395  0.210562  1
  C  C68  1  0.151576  0.499503  0.630278  1
  C  C69  1  0.478716  0.160092  0.013167  1
  C  C70  1  0.519693  0.921605  0.710562  1
  C  C71  1  0.848424  0.500497  0.369722  1
  C  C72  1  0.521284  0.660092  0.486833  1
  C  C73  1  0.151576  0.000497  0.130278  1
  C  C74  1  0.809246  0.439866  0.494409  1
  C  C75  1  0.995759  0.854200  0.663146  1
  C  C76  1  0.004241  0.354200  0.836854  1
  C  C77  1  0.433023  0.443040  0.920463  1
  C  C78  1  0.490690  0.649795  0.742292  1
  C  C79  1  0.440291  0.934831  0.110614  1
  C  C80  1  0.972248  0.152749  0.466185  1
  C  C81  1  0.908382  0.934248  0.218245  1
  C  C82  1  0.159876  0.866302  0.293504  1
  C  C83  1  0.656404  0.215383  0.234151  1
  C  C84  1  0.480307  0.078395  0.289438  1
  C  C85  1  0.190754  0.939866  0.005591  1
  C  C86  1  0.506428  0.321295  0.027793  1
  C  C87  1  0.896186  0.777140  0.258330  1
  S  S88  1  0.588662  0.742269  0.124759  1
  S  S89  1  0.411338  0.257731  0.875241  1
  S  S90  1  0.038659  0.170065  0.908862  1
  S  S91  1  0.961341  0.829935  0.091138  1
  S  S92  1  0.961341  0.670065  0.591138  1
  S  S93  1  0.588662  0.757731  0.624759  1
  S  S94  1  0.038659  0.329935  0.408862  1
  S  S95  1  0.411338  0.242269  0.375241  1
  O  O96  1  0.553356  0.863678  0.433491  1
  O  O97  1  0.598726  0.888791  0.961044  1
  O  O98  1  0.918972  0.601674  0.195404  1
  O  O99  1  0.830237  0.992132  0.222253  1
  O  O100  1  0.340463  0.019036  0.449546  1
  O  O101  1  0.446644  0.363678  0.066509  1
  O  O102  1  0.431047  0.390858  0.220437  1
  O  O103  1  0.807786  0.738616  0.289214  1
  O  O104  1  0.340463  0.480964  0.949546  1
  O  O105  1  0.431047  0.109142  0.720437  1
  O  O106  1  0.117821  0.065436  0.147442  1
  O  O107  1  0.553356  0.636322  0.933491  1
  O  O108  1  0.830237  0.507868  0.722253  1
  O  O109  1  0.165825  0.012471  0.620638  1
  O  O110  1  0.568953  0.609142  0.779563  1
  O  O111  1  0.581764  0.553655  0.260317  1
  O  O112  1  0.028858  0.113658  0.510462  1
  O  O113  1  0.882179  0.565436  0.352558  1
  O  O114  1  0.668161  0.179508  0.183326  1
  O  O115  1  0.971142  0.886342  0.489538  1
  O  O116  1  0.832148  0.031432  0.047850  1
  O  O117  1  0.882179  0.934564  0.852558  1
  O  O118  1  0.807786  0.761384  0.789214  1
  O  O119  1  0.570981  0.539927  0.617851  1
  O  O120  1  0.777602  0.387391  0.155322  1
  O  O121  1  0.222398  0.612609  0.844678  1
  O  O122  1  0.598726  0.611209  0.461044  1
  O  O123  1  0.331839  0.820492  0.816674  1
  O  O124  1  0.659537  0.519036  0.050454  1
  O  O125  1  0.081028  0.101674  0.304596  1
  O  O126  1  0.192214  0.238616  0.210786  1
  O  O127  1  0.834175  0.512471  0.879362  1
  O  O128  1  0.890229  0.226563  0.075027  1
  O  O129  1  0.777602  0.112609  0.655322  1
  O  O130  1  0.659537  0.980964  0.550454  1
  O  O131  1  0.169763  0.492131  0.277747  1
  O  O132  1  0.401274  0.388791  0.538956  1
  O  O133  1  0.834175  0.987529  0.379362  1
  O  O134  1  0.169763  0.007869  0.777747  1
  O  O135  1  0.971142  0.613658  0.989538  1
  O  O136  1  0.331839  0.679508  0.316674  1
  O  O137  1  0.165825  0.487529  0.120638  1
  O  O138  1  0.109771  0.773437  0.924973  1
  O  O139  1  0.418236  0.053655  0.239683  1
  O  O140  1  0.568953  0.890858  0.279563  1
  O  O141  1  0.109771  0.726563  0.424973  1
  O  O142  1  0.446644  0.136322  0.566509  1
  O  O143  1  0.222398  0.887391  0.344678  1
  O  O144  1  0.890229  0.273437  0.575027  1
  O  O145  1  0.581764  0.946345  0.760317  1
  O  O146  1  0.117821  0.434564  0.647442  1
  O  O147  1  0.418236  0.446345  0.739683  1
  O  O148  1  0.668161  0.320492  0.683326  1
  O  O149  1  0.028858  0.386342  0.010462  1
  O  O150  1  0.429019  0.460073  0.382149  1
  O  O151  1  0.081028  0.398326  0.804596  1
  O  O152  1  0.570981  0.960073  0.117851  1
  O  O153  1  0.167852  0.968568  0.952150  1
  O  O154  1  0.192214  0.261384  0.710786  1
  O  O155  1  0.401274  0.111209  0.038956  1
  O  O156  1  0.832148  0.468568  0.547850  1
  O  O157  1  0.167852  0.531432  0.452150  1
  O  O158  1  0.429019  0.039927  0.882149  1
  O  O159  1  0.918972  0.898326  0.695404  1
