# generated using pymatgen
data_Ce2SbO2
_symmetry_space_group_name_H-M   'P 1'
_cell_length_a   4.01067738
_cell_length_b   8.01944316
_cell_length_c   6.81909907
_cell_angle_alpha   106.11338052
_cell_angle_beta   106.07662160
_cell_angle_gamma   89.88238449
_symmetry_Int_Tables_number   1
_chemical_formula_structural   Ce2SbO2
_chemical_formula_sum   'Ce4 Sb2 O4'
_cell_volume   201.80288884
_cell_formula_units_Z   2
loop_
 _symmetry_equiv_pos_site_id
 _symmetry_equiv_pos_as_xyz
  1  'x, y, z'
loop_
 _atom_site_type_symbol
 _atom_site_label
 _atom_site_symmetry_multiplicity
 _atom_site_fract_x
 _atom_site_fract_y
 _atom_site_fract_z
 _atom_site_occupancy
  Ce  Ce0  1  0.339009  0.169356  0.691458  1
  Ce  Ce1  1  0.336623  0.668726  0.690623  1
  Ce  Ce2  1  0.660991  0.330644  0.308542  1
  Ce  Ce3  1  0.663377  0.831274  0.309377  1
  Sb  Sb4  1  0.005981  0.000354  0.001356  1
  Sb  Sb5  1  0.994019  0.499646  0.998644  1
  O  O6  1  0.249079  0.374771  0.499286  1
  O  O7  1  0.251128  0.875110  0.500687  1
  O  O8  1  0.750921  0.125229  0.500714  1
  O  O9  1  0.748872  0.624890  0.499313  1
