# generated using pymatgen
data_FeSiGe
_symmetry_space_group_name_H-M   'P 1'
_cell_length_a   6.44864809
_cell_length_b   6.44864770
_cell_length_c   8.02680124
_cell_angle_alpha   90.00000000
_cell_angle_beta   90.00000000
_cell_angle_gamma   103.79062175
_symmetry_Int_Tables_number   1
_chemical_formula_structural   FeSiGe
_chemical_formula_sum   'Fe8 Si8 Ge8'
_cell_volume   324.17280368
_cell_formula_units_Z   8
loop_
 _symmetry_equiv_pos_site_id
 _symmetry_equiv_pos_as_xyz
  1  'x, y, z'
loop_
 _atom_site_type_symbol
 _atom_site_label
 _atom_site_symmetry_multiplicity
 _atom_site_fract_x
 _atom_site_fract_y
 _atom_site_fract_z
 _atom_site_occupancy
  Fe  Fe0  1  0.284094  0.715906  0.500000  1
  Fe  Fe1  1  0.308779  0.308779  0.314094  1
  Fe  Fe2  1  0.715906  0.284094  0.500000  1
  Fe  Fe3  1  0.215906  0.784094  0.000000  1
  Fe  Fe4  1  0.691221  0.691221  0.685906  1
  Fe  Fe5  1  0.808779  0.808779  0.185906  1
  Fe  Fe6  1  0.784094  0.215906  0.000000  1
  Fe  Fe7  1  0.191221  0.191221  0.814094  1
  Si  Si8  1  0.830170  0.083321  0.729293  1
  Si  Si9  1  0.669830  0.416679  0.229293  1
  Si  Si10  1  0.169830  0.916679  0.270707  1
  Si  Si11  1  0.583321  0.330170  0.770707  1
  Si  Si12  1  0.083321  0.830170  0.729293  1
  Si  Si13  1  0.330170  0.583321  0.770707  1
  Si  Si14  1  0.916679  0.169830  0.270707  1
  Si  Si15  1  0.416679  0.669830  0.229293  1
  Ge  Ge16  1  0.403194  0.146717  0.052326  1
  Ge  Ge17  1  0.596806  0.853283  0.947674  1
  Ge  Ge18  1  0.646717  0.903194  0.447674  1
  Ge  Ge19  1  0.353283  0.096806  0.552326  1
  Ge  Ge20  1  0.146717  0.403194  0.052326  1
  Ge  Ge21  1  0.903194  0.646717  0.447674  1
  Ge  Ge22  1  0.096806  0.353283  0.552326  1
  Ge  Ge23  1  0.853283  0.596806  0.947674  1
