# generated using pymatgen
data_Sr(H8O5)2
_symmetry_space_group_name_H-M   'P 1'
_cell_length_a   6.88078409
_cell_length_b   6.37646469
_cell_length_c   5.77712066
_cell_angle_alpha   91.17298562
_cell_angle_beta   92.61923404
_cell_angle_gamma   89.27761232
_symmetry_Int_Tables_number   1
_chemical_formula_structural   Sr(H8O5)2
_chemical_formula_sum   'Sr1 H16 O10'
_cell_volume   253.13645785
_cell_formula_units_Z   1
loop_
 _symmetry_equiv_pos_site_id
 _symmetry_equiv_pos_as_xyz
  1  'x, y, z'
loop_
 _atom_site_type_symbol
 _atom_site_label
 _atom_site_symmetry_multiplicity
 _atom_site_fract_x
 _atom_site_fract_y
 _atom_site_fract_z
 _atom_site_occupancy
  Sr  Sr0  1  0.992236  0.986742  0.996729  1
  H  H1  1  0.319250  0.285834  0.741920  1
  H  H2  1  0.128542  0.411094  0.747521  1
  H  H3  1  0.642226  0.686025  0.685782  1
  H  H4  1  0.799829  0.793021  0.549155  1
  H  H5  1  0.677776  0.076421  0.702116  1
  H  H6  1  0.640519  0.336077  0.687805  1
  H  H7  1  0.313320  0.672004  0.731294  1
  H  H8  1  0.171513  0.757283  0.549489  1
  H  H9  1  0.694957  0.637709  0.275445  1
  H  H10  1  0.916023  0.580749  0.263675  1
  H  H11  1  0.199053  0.229245  0.423178  1
  H  H12  1  0.364891  0.327251  0.287437  1
  H  H13  1  0.359638  0.686010  0.292730  1
  H  H14  1  0.311827  0.941368  0.298459  1
  H  H15  1  0.818503  0.220952  0.460601  1
  H  H16  1  0.705458  0.312060  0.251801  1
  O  O17  1  0.510232  0.506699  0.610828  1
  O  O18  1  0.507681  0.515721  0.350724  1
  O  O19  1  0.177544  0.264516  0.742117  1
  O  O20  1  0.742145  0.807844  0.701900  1
  O  O21  1  0.738288  0.214056  0.738143  1
  O  O22  1  0.176459  0.724381  0.718484  1
  O  O23  1  0.829095  0.702519  0.251090  1
  O  O24  1  0.263657  0.210373  0.276107  1
  O  O25  1  0.251721  0.801595  0.271173  1
  O  O26  1  0.826612  0.233215  0.288660  1
