# generated using pymatgen
data_Cu23(Sb4S13)2
_symmetry_space_group_name_H-M   'P 1'
_cell_length_a   8.99351052
_cell_length_b   8.99272405
_cell_length_c   53.79423857
_cell_angle_alpha   109.52004517
_cell_angle_beta   109.64602777
_cell_angle_gamma   109.36870132
_symmetry_Int_Tables_number   1
_chemical_formula_structural   Cu23(Sb4S13)2
_chemical_formula_sum   'Cu69 Sb24 S78'
_cell_volume   3344.11835151
_cell_formula_units_Z   3
loop_
 _symmetry_equiv_pos_site_id
 _symmetry_equiv_pos_as_xyz
  1  'x, y, z'
loop_
 _atom_site_type_symbol
 _atom_site_label
 _atom_site_symmetry_multiplicity
 _atom_site_fract_x
 _atom_site_fract_y
 _atom_site_fract_z
 _atom_site_occupancy
  Cu  Cu0  1  0.999911  0.781047  0.963506  1
  Cu  Cu1  1  0.219039  0.000051  0.869854  1
  Cu  Cu2  1  0.250026  0.749981  0.916655  1
  Cu  Cu3  1  0.249986  0.500015  0.958326  1
  Cu  Cu4  1  0.219066  0.219093  0.833356  1
  Cu  Cu5  1  0.218966  -0.000016  0.703159  1
  Cu  Cu6  1  0.500006  0.750108  0.875017  1
  Cu  Cu7  1  0.250057  0.749965  0.749992  1
  Cu  Cu8  1  0.500080  0.250044  0.958334  1
  Cu  Cu9  1  0.250125  0.500149  0.791673  1
  Cu  Cu10  1  0.219036  0.218995  0.666677  1
  Cu  Cu11  1  0.999098  0.778723  0.463472  1
  Cu  Cu12  1  0.218686  0.999831  0.536441  1
  Cu  Cu13  1  0.749975  0.249940  0.916653  1
  Cu  Cu14  1  0.499961  0.749977  0.708329  1
  Cu  Cu15  1  0.250077  0.750100  0.583320  1
  Cu  Cu16  1  0.750095  0.500025  0.875015  1
  Cu  Cu17  1  0.250094  0.500107  0.625002  1
  Cu  Cu18  1  0.500065  0.250050  0.791666  1
  Cu  Cu19  1  0.781097  0.781110  0.833338  1
  Cu  Cu20  1  0.781096  0.000002  0.796844  1
  Cu  Cu21  1  0.781019  0.000007  0.963526  1
  Cu  Cu22  1  0.218856  0.999882  0.369818  1
  Cu  Cu23  1  0.000018  0.781140  0.796848  1
  Cu  Cu24  1  0.999151  0.778813  0.296820  1
  Cu  Cu25  1  0.218899  0.218056  0.499644  1
  Cu  Cu26  1  0.750001  0.250013  0.749999  1
  Cu  Cu27  1  0.500135  0.750033  0.541369  1
  Cu  Cu28  1  0.249693  0.748126  0.416634  1
  Cu  Cu29  1  0.499982  0.250003  0.624997  1
  Cu  Cu30  1  0.750030  0.500082  0.708336  1
  Cu  Cu31  1  0.000066  0.219039  0.869853  1
  Cu  Cu32  1  0.781035  0.781073  0.666660  1
  Cu  Cu33  1  0.999982  0.781037  0.630175  1
  Cu  Cu34  1  0.219009  0.218142  0.332989  1
  Cu  Cu35  1  0.218790  0.999810  0.203135  1
  Cu  Cu36  1  0.999013  0.778897  0.130127  1
  Cu  Cu37  1  0.750048  0.249898  0.583302  1
  Cu  Cu38  1  0.500297  0.750021  0.374732  1
  Cu  Cu39  1  0.749763  0.499773  0.541618  1
  Cu  Cu40  1  0.249682  0.748089  0.249957  1
  Cu  Cu41  1  0.498439  0.249945  0.458374  1
  Cu  Cu42  1  0.781036  0.000039  0.630159  1
  Cu  Cu43  1  -0.000028  0.218934  0.703162  1
  Cu  Cu44  1  0.779722  0.781782  0.500133  1
  Cu  Cu45  1  0.218895  0.218047  0.166291  1
  Cu  Cu46  1  0.219151  0.000253  0.036550  1
  Cu  Cu47  1  0.500166  0.749961  0.208042  1
  Cu  Cu48  1  0.751579  0.251775  0.416914  1
  Cu  Cu49  1  0.498420  0.250084  0.291704  1
  Cu  Cu50  1  0.249685  0.748047  0.083339  1
  Cu  Cu51  1  0.749962  0.499912  0.375002  1
  Cu  Cu52  1  0.780952  0.999848  0.463487  1
  Cu  Cu53  1  0.779770  0.781804  0.333473  1
  Cu  Cu54  1  0.781054  0.999980  0.296846  1
  Cu  Cu55  1  0.000058  0.218949  0.536464  1
  Cu  Cu56  1  0.219137  0.219050  0.000003  1
  Cu  Cu57  1  0.500066  0.749946  0.041702  1
  Cu  Cu58  1  0.751560  0.251847  0.250259  1
  Cu  Cu59  1  0.749953  0.499892  0.208319  1
  Cu  Cu60  1  0.498285  0.250005  0.125049  1
  Cu  Cu61  1  0.002087  0.221164  0.370061  1
  Cu  Cu62  1  0.781045  0.999791  0.130158  1
  Cu  Cu63  1  0.779701  0.781851  0.166805  1
  Cu  Cu64  1  0.751783  0.252198  0.083686  1
  Cu  Cu65  1  0.750353  0.500223  0.041735  1
  Cu  Cu66  1  0.002031  0.221083  0.203375  1
  Cu  Cu67  1  0.781191  0.781228  0.000023  1
  Cu  Cu68  1  0.002108  0.221066  0.036756  1
  Sb  Sb69  1  0.999856  0.999871  0.743300  1
  Sb  Sb70  1  0.999842  0.999860  0.909913  1
  Sb  Sb71  1  0.459629  0.999899  0.833324  1
  Sb  Sb72  1  0.540401  0.540372  0.923415  1
  Sb  Sb73  1  0.999873  0.459833  0.666673  1
  Sb  Sb74  1  0.459886  0.999897  0.666670  1
  Sb  Sb75  1  0.999677  0.999859  0.576562  1
  Sb  Sb76  1  0.540162  0.540144  0.756706  1
  Sb  Sb77  1  0.999821  0.460204  0.499148  1
  Sb  Sb78  1  0.459995  0.994537  0.499987  1
  Sb  Sb79  1  0.005044  0.005105  0.244114  1
  Sb  Sb80  1  0.999963  0.459709  0.833332  1
  Sb  Sb81  1  0.005046  0.005055  0.410803  1
  Sb  Sb82  1  0.000003  0.459798  0.332502  1
  Sb  Sb83  1  0.540188  0.540200  0.590024  1
  Sb  Sb84  1  0.459701  0.994712  0.333315  1
  Sb  Sb85  1  0.005116  0.005147  0.077488  1
  Sb  Sb86  1  0.000006  0.459738  0.165832  1
  Sb  Sb87  1  0.534870  0.539980  0.423370  1
  Sb  Sb88  1  0.459651  0.994670  0.166670  1
  Sb  Sb89  1  0.000070  0.459207  0.000027  1
  Sb  Sb90  1  0.535056  0.540168  0.256743  1
  Sb  Sb91  1  0.535194  0.540348  0.090089  1
  Sb  Sb92  1  0.459361  0.000085  0.000009  1
  S  S93  1  0.000171  0.749659  0.920144  1
  S  S94  1  0.000159  0.520882  0.958263  1
  S  S95  1  0.250584  0.250471  0.961901  1
  S  S96  1  0.000139  0.521167  0.791664  1
  S  S97  1  0.000180  0.750028  0.753535  1
  S  S98  1  0.250437  0.771236  0.875056  1
  S  S99  1  0.228719  0.479339  0.913209  1
  S  S100  1  0.479269  0.228792  0.913207  1
  S  S101  1  0.250238  0.250295  0.795235  1
  S  S102  1  0.479038  0.479057  0.871421  1
  S  S103  1  0.000054  0.521132  0.625004  1
  S  S104  1  0.250293  0.771317  0.708395  1
  S  S105  1  0.228841  0.479231  0.746532  1
  S  S106  1  0.521036  0.000051  0.791649  1
  S  S107  1  0.520892  0.749603  0.833341  1
  S  S108  1  0.520796  0.000079  0.958255  1
  S  S109  1  0.999913  0.000176  0.500071  1
  S  S110  1  0.478945  0.478938  0.704803  1
  S  S111  1  0.479101  0.228830  0.746516  1
  S  S112  1  0.250162  0.250202  0.628591  1
  S  S113  1  0.250406  0.771491  0.541814  1
  S  S114  1  0.228812  0.479050  0.579833  1
  S  S115  1  0.749591  0.000073  0.920132  1
  S  S116  1  0.749619  0.520905  0.833331  1
  S  S117  1  0.521078  0.749838  0.666683  1
  S  S118  1  0.771327  0.250528  0.875082  1
  S  S119  1  0.999897  0.999854  0.833333  1
  S  S120  1  0.479088  0.228925  0.579831  1
  S  S121  1  0.478837  0.479060  0.538168  1
  S  S122  1  0.248521  0.248024  0.461579  1
  S  S123  1  0.999214  0.748209  0.253337  1
  S  S124  1  0.999542  0.520907  0.291912  1
  S  S125  1  0.250642  0.771847  0.375117  1
  S  S126  1  0.749995  0.000086  0.753535  1
  S  S127  1  0.230739  0.479112  0.413100  1
  S  S128  1  0.749910  0.521140  0.666677  1
  S  S129  1  0.521310  0.000293  0.458243  1
  S  S130  1  0.771379  0.250242  0.708370  1
  S  S131  1  0.521208  0.000077  0.625011  1
  S  S132  1  0.521420  0.752119  0.500039  1
  S  S133  1  0.999913  -0.000065  0.666676  1
  S  S134  1  0.248663  0.248142  0.294920  1
  S  S135  1  0.479117  0.228356  0.413109  1
  S  S136  1  0.000153  0.750151  0.586885  1
  S  S137  1  0.479952  0.479132  0.371348  1
  S  S138  1  0.999274  0.747447  0.086605  1
  S  S139  1  0.999317  0.520587  0.125147  1
  S  S140  1  0.250756  0.771865  0.208482  1
  S  S141  1  0.750082  0.000265  0.586960  1
  S  S142  1  0.230601  0.479267  0.246467  1
  S  S143  1  0.749133  0.520878  0.500094  1
  S  S144  1  0.772045  0.251797  0.541775  1
  S  S145  1  0.521449  0.752039  0.333411  1
  S  S146  1  0.479800  0.478978  0.204622  1
  S  S147  1  0.999196  0.748427  0.420018  1
  S  S148  1  0.249200  0.248363  0.128255  1
  S  S149  1  0.999336  0.520752  0.458571  1
  S  S150  1  0.479162  0.228232  0.246484  1
  S  S151  1  0.250469  0.771462  0.041687  1
  S  S152  1  0.749224  0.999848  0.420146  1
  S  S153  1  0.230607  0.479425  0.079777  1
  S  S154  1  0.749114  0.520995  0.333465  1
  S  S155  1  0.521176  0.000318  0.291579  1
  S  S156  1  0.771811  0.251814  0.375140  1
  S  S157  1  0.521265  0.751714  0.166721  1
  S  S158  1  0.999973  -0.000004  0.333346  1
  S  S159  1  0.999817  0.999550  0.999905  1
  S  S160  1  0.479850  0.478927  0.037933  1
  S  S161  1  0.479259  0.227992  0.079821  1
  S  S162  1  0.749130  0.999759  0.253484  1
  S  S163  1  0.748734  0.520836  0.166786  1
  S  S164  1  0.520894  0.000293  0.124820  1
  S  S165  1  0.520644  0.749435  0.000019  1
  S  S166  1  0.771908  0.251974  0.208473  1
  S  S167  1  0.999810  0.999785  0.166677  1
  S  S168  1  0.748614  0.999611  0.086676  1
  S  S169  1  0.749596  0.520793  0.000007  1
  S  S170  1  0.770877  0.250262  0.041736  1
