# generated using pymatgen
data_Cs3B6H12S4Br
_symmetry_space_group_name_H-M   'P 1'
_cell_length_a   10.54090751
_cell_length_b   10.54094829
_cell_length_c   8.82909297
_cell_angle_alpha   90.00000000
_cell_angle_beta   90.00000000
_cell_angle_gamma   119.99987205
_symmetry_Int_Tables_number   1
_chemical_formula_structural   Cs3B6H12S4Br
_chemical_formula_sum   'Cs6 B12 H24 S8 Br2'
_cell_volume   849.58134404
_cell_formula_units_Z   2
loop_
 _symmetry_equiv_pos_site_id
 _symmetry_equiv_pos_as_xyz
  1  'x, y, z'
loop_
 _atom_site_type_symbol
 _atom_site_label
 _atom_site_symmetry_multiplicity
 _atom_site_fract_x
 _atom_site_fract_y
 _atom_site_fract_z
 _atom_site_occupancy
  Cs  Cs0  1  0.683313  0.841658  0.749482  1
  Cs  Cs1  1  0.158345  0.841658  0.749482  1
  Cs  Cs2  1  0.158343  0.316686  0.749482  1
  Cs  Cs3  1  0.316687  0.158342  0.249482  1
  Cs  Cs4  1  0.841655  0.158342  0.249482  1
  Cs  Cs5  1  0.841657  0.683314  0.249481  1
  B  B6  1  0.764902  0.235112  0.621338  1
  B  B7  1  0.764901  0.529801  0.621344  1
  B  B8  1  0.470210  0.235112  0.621338  1
  B  B9  1  0.235098  0.764888  0.121338  1
  B  B10  1  0.235099  0.470199  0.121344  1
  B  B11  1  0.529790  0.764888  0.121338  1
  B  B12  1  0.569706  0.430294  0.912138  1
  B  B13  1  0.569707  0.139414  0.912138  1
  B  B14  1  0.860588  0.430294  0.912138  1
  B  B15  1  0.430294  0.569706  0.412138  1
  B  B16  1  0.430293  0.860586  0.412138  1
  B  B17  1  0.139412  0.569706  0.412138  1
  H  H18  1  0.698298  0.109132  0.577560  1
  H  H19  1  0.890878  0.589184  0.577566  1
  H  H20  1  0.410826  0.301698  0.577563  1
  H  H21  1  0.890872  0.301698  0.577563  1
  H  H22  1  0.410834  0.109132  0.577560  1
  H  H23  1  0.698306  0.589184  0.577566  1
  H  H24  1  0.301702  0.890868  0.077560  1
  H  H25  1  0.109122  0.410816  0.077566  1
  H  H26  1  0.589174  0.698302  0.077563  1
  H  H27  1  0.109128  0.698302  0.077563  1
  H  H28  1  0.589166  0.890868  0.077560  1
  H  H29  1  0.301694  0.410816  0.077566  1
  H  H30  1  0.505730  0.494269  0.872301  1
  H  H31  1  0.505731  0.011462  0.872299  1
  H  H32  1  0.988540  0.494269  0.872301  1
  H  H33  1  0.494270  0.505731  0.372301  1
  H  H34  1  0.494269  0.988538  0.372299  1
  H  H35  1  0.011460  0.505731  0.372301  1
  H  H36  1  0.575806  0.424191  0.049546  1
  H  H37  1  0.575808  0.151616  0.049545  1
  H  H38  1  0.848385  0.424191  0.049546  1
  H  H39  1  0.424194  0.575809  0.549546  1
  H  H40  1  0.424192  0.848384  0.549545  1
  H  H41  1  0.151615  0.575809  0.549546  1
  S  S42  1  0.768723  0.231278  0.839936  1
  S  S43  1  0.768723  0.537445  0.839939  1
  S  S44  1  0.462555  0.231278  0.839936  1
  S  S45  1  0.231277  0.768722  0.339936  1
  S  S46  1  0.231277  0.462555  0.339939  1
  S  S47  1  0.537445  0.768722  0.339936  1
  S  S48  1  0.666669  0.333338  0.539892  1
  S  S49  1  0.333331  0.666662  0.039892  1
  Br  Br50  1  0.000000  0.000001  0.502099  1
  Br  Br51  1  1.000000  0.999999  0.002099  1
