# generated using pymatgen
data_LiV2(PO4)3
_symmetry_space_group_name_H-M   'P 1'
_cell_length_a   8.72225088
_cell_length_b   8.60070895
_cell_length_c   8.57031778
_cell_angle_alpha   90.00000000
_cell_angle_beta   60.57456682
_cell_angle_gamma   59.41516068
_symmetry_Int_Tables_number   1
_chemical_formula_structural   LiV2(PO4)3
_chemical_formula_sum   'Li2 V4 P6 O24'
_cell_volume   454.49890932
_cell_formula_units_Z   2
loop_
 _symmetry_equiv_pos_site_id
 _symmetry_equiv_pos_as_xyz
  1  'x, y, z'
loop_
 _atom_site_type_symbol
 _atom_site_label
 _atom_site_symmetry_multiplicity
 _atom_site_fract_x
 _atom_site_fract_y
 _atom_site_fract_z
 _atom_site_occupancy
  Li  Li0  1  0.387587  0.667079  0.645349  1
  Li  Li1  1  0.387587  0.167079  0.967064  1
  V  V2  1  0.212452  0.866183  0.149439  1
  V  V3  1  0.212452  0.366183  0.638110  1
  V  V4  1  0.794643  0.133430  0.850372  1
  V  V5  1  0.794643  0.633430  0.354985  1
  P  P6  1  0.721626  0.536840  0.752054  1
  P  P7  1  0.279567  0.461983  0.248132  1
  P  P8  1  0.001972  0.753277  0.962521  1
  P  P9  1  0.001972  0.253277  0.035507  1
  P  P10  1  0.279567  0.961983  0.472301  1
  P  P11  1  0.721626  0.036840  0.526321  1
  O  O12  1  0.833837  0.924331  0.941143  1
  O  O13  1  0.913179  0.036365  0.372066  1
  O  O14  1  0.682134  0.571560  0.593364  1
  O  O15  1  0.762174  0.840025  0.474475  1
  O  O16  1  0.240956  0.154579  0.520136  1
  O  O17  1  0.515209  0.698870  0.936275  1
  O  O18  1  0.240956  0.654579  0.238909  1
  O  O19  1  0.481046  0.294062  0.061914  1
  O  O20  1  0.129409  0.310878  0.874929  1
  O  O21  1  0.481046  0.794062  0.457041  1
  O  O22  1  0.879266  0.199510  0.999132  1
  O  O23  1  0.762174  0.340025  0.763351  1
  O  O24  1  0.306226  0.427608  0.413531  1
  O  O25  1  0.129409  0.810878  0.995662  1
  O  O26  1  0.182592  0.586013  0.768337  1
  O  O27  1  0.879266  0.699510  0.121602  1
  O  O28  1  0.306226  0.927608  0.280242  1
  O  O29  1  0.833837  0.424331  0.225022  1
  O  O30  1  0.515209  0.198870  0.548515  1
  O  O31  1  0.093558  0.456062  0.278308  1
  O  O32  1  0.093558  0.956062  0.628135  1
  O  O33  1  0.682134  0.071560  0.724503  1
  O  O34  1  0.913179  0.536365  0.714755  1
  O  O35  1  0.182592  0.086013  0.049071  1
