# generated using pymatgen
data_KH(CN2)3
_symmetry_space_group_name_H-M   'P 1'
_cell_length_a   3.93340082
_cell_length_b   10.82630631
_cell_length_c   9.08421148
_cell_angle_alpha   103.48595984
_cell_angle_beta   97.15038493
_cell_angle_gamma   92.82174936
_symmetry_Int_Tables_number   1
_chemical_formula_structural   KH(CN2)3
_chemical_formula_sum   'K2 H2 C6 N12'
_cell_volume   372.02219103
_cell_formula_units_Z   2
loop_
 _symmetry_equiv_pos_site_id
 _symmetry_equiv_pos_as_xyz
  1  'x, y, z'
loop_
 _atom_site_type_symbol
 _atom_site_label
 _atom_site_symmetry_multiplicity
 _atom_site_fract_x
 _atom_site_fract_y
 _atom_site_fract_z
 _atom_site_occupancy
  K  K0  1  0.191839  0.052579  0.806021  1
  K  K1  1  0.808161  0.947421  0.193979  1
  H  H2  1  0.833147  0.613821  0.731732  1
  H  H3  1  0.166853  0.386179  0.268268  1
  C  C4  1  0.510739  0.162022  0.512430  1
  C  C5  1  0.489261  0.837978  0.487570  1
  C  C6  1  0.846829  0.325320  0.696423  1
  C  C7  1  0.153171  0.674680  0.303577  1
  C  C8  1  0.166580  0.739323  0.872450  1
  C  C9  1  0.833420  0.260677  0.127550  1
  N  N10  1  0.366178  0.109151  0.389444  1
  N  N11  1  0.633822  0.890849  0.610556  1
  N  N12  1  0.650521  0.206534  0.653803  1
  N  N13  1  0.349479  0.793466  0.346197  1
  N  N14  1  0.893079  0.386582  0.587369  1
  N  N15  1  0.106921  0.613418  0.412631  1
  N  N16  1  0.982846  0.369293  0.842320  1
  N  N17  1  0.017154  0.630707  0.157680  1
  N  N18  1  0.267585  0.837723  0.964507  1
  N  N19  1  0.732415  0.162277  0.035493  1
  N  N20  1  0.089967  0.634646  0.773906  1
  N  N21  1  0.910033  0.365354  0.226094  1
