# generated using pymatgen
data_H2CO
_symmetry_space_group_name_H-M   'P 1'
_cell_length_a   2.57520631
_cell_length_b   10.72047831
_cell_length_c   4.92688007
_cell_angle_alpha   90.00000000
_cell_angle_beta   90.00000000
_cell_angle_gamma   90.00000000
_symmetry_Int_Tables_number   1
_chemical_formula_structural   H2CO
_chemical_formula_sum   'H8 C4 O4'
_cell_volume   136.01856262
_cell_formula_units_Z   4
loop_
 _symmetry_equiv_pos_site_id
 _symmetry_equiv_pos_as_xyz
  1  'x, y, z'
loop_
 _atom_site_type_symbol
 _atom_site_label
 _atom_site_symmetry_multiplicity
 _atom_site_fract_x
 _atom_site_fract_y
 _atom_site_fract_z
 _atom_site_occupancy
  H  H0  1  0.136970  0.601645  0.993422  1
  H  H1  1  0.776338  0.518694  0.173066  1
  H  H2  1  0.363030  0.398355  0.493422  1
  H  H3  1  0.723662  0.481306  0.673066  1
  H  H4  1  0.636970  0.898355  0.006578  1
  H  H5  1  0.276338  0.981306  0.826934  1
  H  H6  1  0.863030  0.101645  0.506578  1
  H  H7  1  0.223662  0.018694  0.326934  1
  C  C8  1  0.555433  0.749906  0.499982  1
  C  C9  1  0.944567  0.250094  -0.000018  1
  C  C10  1  0.055433  0.750094  0.500018  1
  C  C11  1  0.444567  0.249906  0.000018  1
  O  O12  1  0.777317  0.567385  0.000994  1
  O  O13  1  0.722683  0.432615  0.500994  1
  O  O14  1  0.277317  0.932615  -0.000994  1
  O  O15  1  0.222683  0.067385  0.499006  1
