# generated using pymatgen
data_Cr3GeN
_symmetry_space_group_name_H-M   'P 1'
_cell_length_a   4.01024300
_cell_length_b   5.33038975
_cell_length_c   5.33158779
_cell_angle_alpha   89.94755073
_cell_angle_beta   89.96349724
_cell_angle_gamma   89.83914911
_symmetry_Int_Tables_number   1
_chemical_formula_structural   Cr3GeN
_chemical_formula_sum   'Cr6 Ge2 N2'
_cell_volume   113.96834401
_cell_formula_units_Z   2
loop_
 _symmetry_equiv_pos_site_id
 _symmetry_equiv_pos_as_xyz
  1  'x, y, z'
loop_
 _atom_site_type_symbol
 _atom_site_label
 _atom_site_symmetry_multiplicity
 _atom_site_fract_x
 _atom_site_fract_y
 _atom_site_fract_z
 _atom_site_occupancy
  Cr  Cr0  1  0.922932  0.708717  0.791237  1
  Cr  Cr1  1  0.922310  0.290756  0.208622  1
  Cr  Cr2  1  0.499455  0.999816  0.000467  1
  Cr  Cr3  1  0.078597  0.791603  0.291294  1
  Cr  Cr4  1  0.078045  0.209293  0.709249  1
  Cr  Cr5  1  0.499668  0.500032  0.500323  1
  Ge  Ge6  1  0.446174  0.499819  0.999298  1
  Ge  Ge7  1  0.555083  -0.000058  0.500553  1
  N  N8  1  0.999077  0.500165  0.499329  1
  N  N9  1  0.998660  0.999857  0.999627  1
