# generated using pymatgen
data_Bi2O3
_symmetry_space_group_name_H-M   'P 1'
_cell_length_a   3.92730523
_cell_length_b   4.09726302
_cell_length_c   26.31519154
_cell_angle_alpha   55.29266474
_cell_angle_beta   56.84168250
_cell_angle_gamma   55.97317380
_symmetry_Int_Tables_number   1
_chemical_formula_structural   Bi2O3
_chemical_formula_sum   'Bi6 O9'
_cell_volume   271.81247025
_cell_formula_units_Z   3
loop_
 _symmetry_equiv_pos_site_id
 _symmetry_equiv_pos_as_xyz
  1  'x, y, z'
loop_
 _atom_site_type_symbol
 _atom_site_label
 _atom_site_symmetry_multiplicity
 _atom_site_fract_x
 _atom_site_fract_y
 _atom_site_fract_z
 _atom_site_occupancy
  Bi  Bi0  1  -0.010657  0.088665  -0.004015  1
  Bi  Bi1  1  -0.024017  0.074790  0.501513  1
  Bi  Bi2  1  -0.047125  0.128523  0.164334  1
  Bi  Bi3  1  -0.093672  0.013416  0.326877  1
  Bi  Bi4  1  -0.092699  -0.053710  0.665772  1
  Bi  Bi5  1  0.145118  0.034543  0.840683  1
  O  O6  1  0.712437  0.846173  0.106611  1
  O  O7  1  0.154294  0.273639  0.212103  1
  O  O8  1  0.610297  0.697870  0.317133  1
  O  O9  1  0.726040  0.786484  0.441409  1
  O  O10  1  0.165296  0.216370  0.549735  1
  O  O11  1  0.607578  0.628309  0.658991  1
  O  O12  1  0.664333  0.629049  0.780244  1
  O  O13  1  0.730827  0.658581  0.891919  1
  O  O14  1  0.669950  0.727299  0.005027  1
