# generated using pymatgen
data_Al2S3
_symmetry_space_group_name_H-M   'P 1'
_cell_length_a   7.09066811
_cell_length_b   7.09066886
_cell_length_c   63.76869751
_cell_angle_alpha   59.97575304
_cell_angle_beta   59.97575062
_cell_angle_gamma   59.99947405
_symmetry_Int_Tables_number   1
_chemical_formula_structural   Al2S3
_chemical_formula_sum   'Al48 S72'
_cell_volume   2266.24007355
_cell_formula_units_Z   24
loop_
 _symmetry_equiv_pos_site_id
 _symmetry_equiv_pos_as_xyz
  1  'x, y, z'
loop_
 _atom_site_type_symbol
 _atom_site_label
 _atom_site_symmetry_multiplicity
 _atom_site_fract_x
 _atom_site_fract_y
 _atom_site_fract_z
 _atom_site_occupancy
  Al  Al0  1  0.124217  0.124218  0.015497  1
  Al  Al1  1  0.124796  0.124796  0.069514  1
  Al  Al2  1  0.124220  0.612099  0.015496  1
  Al  Al3  1  0.612100  0.124220  0.015496  1
  Al  Al4  1  0.131427  0.131428  0.124506  1
  Al  Al5  1  0.134421  0.134422  0.177416  1
  Al  Al6  1  0.131440  0.616571  0.124504  1
  Al  Al7  1  0.138269  0.138268  0.236742  1
  Al  Al8  1  0.616571  0.131440  0.124504  1
  Al  Al9  1  0.148063  0.148062  0.283978  1
  Al  Al10  1  0.138276  0.592793  0.236741  1
  Al  Al11  1  0.592793  0.138276  0.236741  1
  Al  Al12  1  0.135119  0.135119  0.345115  1
  Al  Al13  1  0.126218  0.126218  0.402375  1
  Al  Al14  1  0.135127  0.623713  0.345115  1
  Al  Al15  1  0.747954  0.747955  0.195126  1
  Al  Al16  1  0.623713  0.135126  0.345115  1
  Al  Al17  1  0.125148  0.125148  0.458270  1
  Al  Al18  1  0.499847  0.499847  0.388943  1
  Al  Al19  1  0.124865  0.124865  0.513935  1
  Al  Al20  1  0.755350  0.755350  0.303772  1
  Al  Al21  1  0.125147  0.625253  0.458270  1
  Al  Al22  1  0.125002  0.125002  0.569445  1
  Al  Al23  1  0.625253  0.125147  0.458270  1
  Al  Al24  1  0.752642  0.752642  0.415790  1
  Al  Al25  1  0.500040  0.500040  0.499987  1
  Al  Al26  1  0.125090  0.125090  0.624968  1
  Al  Al27  1  0.125003  0.625010  0.569445  1
  Al  Al28  1  0.124126  0.124126  0.680773  1
  Al  Al29  1  0.625010  0.125003  0.569445  1
  Al  Al30  1  0.120682  0.120682  0.737552  1
  Al  Al31  1  0.749932  0.749932  0.527801  1
  Al  Al32  1  0.499950  0.499951  0.611126  1
  Al  Al33  1  0.124126  0.624805  0.680773  1
  Al  Al34  1  0.624806  0.124126  0.680773  1
  Al  Al35  1  0.123074  0.123075  0.795315  1
  Al  Al36  1  0.749942  0.749942  0.638907  1
  Al  Al37  1  0.499744  0.499744  0.722309  1
  Al  Al38  1  0.131600  0.131601  0.845022  1
  Al  Al39  1  0.123076  0.595989  0.795318  1
  Al  Al40  1  0.135149  0.135149  0.904392  1
  Al  Al41  1  0.595989  0.123076  0.795318  1
  Al  Al42  1  0.745736  0.745736  0.751418  1
  Al  Al43  1  0.135142  0.590181  0.904392  1
  Al  Al44  1  0.133880  0.133880  0.955372  1
  Al  Al45  1  0.590181  0.135142  0.904392  1
  Al  Al46  1  0.744842  0.744842  0.862832  1
  Al  Al47  1  0.751881  0.751881  0.971597  1
  S  S48  1  0.366842  0.366842  0.041277  1
  S  S49  1  0.370138  0.370138  0.098843  1
  S  S50  1  0.366825  0.894836  0.041277  1
  S  S51  1  0.894836  0.366825  0.041277  1
  S  S52  1  0.369706  0.369705  0.151350  1
  S  S53  1  0.343072  0.884239  0.098716  1
  S  S54  1  0.370551  0.370551  0.209815  1
  S  S55  1  0.887883  0.887882  0.037370  1
  S  S56  1  0.369711  0.898440  0.151351  1
  S  S57  1  0.884239  0.343071  0.098716  1
  S  S58  1  0.370617  0.370617  0.263924  1
  S  S59  1  0.346008  0.882362  0.209917  1
  S  S60  1  0.898441  0.369711  0.151351  1
  S  S61  1  0.884243  0.884243  0.098715  1
  S  S62  1  0.365054  0.365054  0.322759  1
  S  S63  1  0.370620  0.883454  0.263925  1
  S  S64  1  0.882363  0.346008  0.209917  1
  S  S65  1  0.879255  0.879255  0.151359  1
  S  S66  1  0.883454  0.370620  0.263925  1
  S  S67  1  0.351391  0.879056  0.321167  1
  S  S68  1  0.364713  0.364713  0.375230  1
  S  S69  1  0.882369  0.882369  0.209916  1
  S  S70  1  0.367245  0.367245  0.433142  1
  S  S71  1  0.879056  0.351391  0.321167  1
  S  S72  1  0.882437  0.882437  0.261409  1
  S  S73  1  0.364707  0.893524  0.375229  1
  S  S74  1  0.893524  0.364707  0.375229  1
  S  S75  1  0.367594  0.367594  0.485318  1
  S  S76  1  0.879049  0.879049  0.321167  1
  S  S77  1  0.353340  0.881295  0.431565  1
  S  S78  1  0.367807  0.367807  0.544062  1
  S  S79  1  0.881295  0.353340  0.431565  1
  S  S80  1  0.882816  0.882816  0.372393  1
  S  S81  1  0.367597  0.896946  0.485317  1
  S  S82  1  0.896946  0.367597  0.485317  1
  S  S83  1  0.367903  0.367902  0.596429  1
  S  S84  1  0.881285  0.881285  0.431567  1
  S  S85  1  0.353655  0.881871  0.542513  1
  S  S86  1  0.882535  0.882535  0.483602  1
  S  S87  1  0.367753  0.367753  0.655193  1
  S  S88  1  0.881871  0.353655  0.542513  1
  S  S89  1  0.367892  0.896340  0.596428  1
  S  S90  1  0.352708  0.882930  0.653493  1
  S  S91  1  0.896340  0.367891  0.596428  1
  S  S92  1  0.369036  0.369036  0.706949  1
  S  S93  1  0.881870  0.881870  0.542512  1
  S  S94  1  0.372720  0.372720  0.764650  1
  S  S95  1  0.882929  0.352709  0.653493  1
  S  S96  1  0.881980  0.881979  0.594894  1
  S  S97  1  0.369033  0.899387  0.706949  1
  S  S98  1  0.375116  0.375116  0.817698  1
  S  S99  1  0.899387  0.369033  0.706949  1
  S  S100  1  0.352105  0.884709  0.764275  1
  S  S101  1  0.882928  0.882929  0.653493  1
  S  S102  1  0.375124  0.890478  0.817697  1
  S  S103  1  0.884709  0.352105  0.764275  1
  S  S104  1  0.369976  0.369976  0.876674  1
  S  S105  1  0.882151  0.882152  0.705947  1
  S  S106  1  0.890477  0.375124  0.817697  1
  S  S107  1  0.370484  0.370484  0.930121  1
  S  S108  1  0.351309  0.886438  0.875087  1
  S  S109  1  0.884712  0.884712  0.764277  1
  S  S110  1  0.884855  0.884855  0.816160  1
  S  S111  1  0.364613  0.364613  0.989575  1
  S  S112  1  0.370487  0.887950  0.930120  1
  S  S113  1  0.886438  0.351308  0.875087  1
  S  S114  1  0.887950  0.370486  0.930120  1
  S  S115  1  0.354107  0.883871  0.986461  1
  S  S116  1  0.886449  0.886449  0.875087  1
  S  S117  1  0.886648  0.886648  0.926673  1
  S  S118  1  0.883870  0.354107  0.986462  1
  S  S119  1  0.883874  0.883874  0.986460  1
