# generated using pymatgen
data_Ca8MgSi4(ClO8)2
_symmetry_space_group_name_H-M   'P 1'
_cell_length_a   10.80111438
_cell_length_b   11.29444159
_cell_length_c   11.11306537
_cell_angle_alpha   59.50540115
_cell_angle_beta   60.59013773
_cell_angle_gamma   61.17424403
_symmetry_Int_Tables_number   1
_chemical_formula_structural   Ca8MgSi4(ClO8)2
_chemical_formula_sum   'Ca16 Mg2 Si8 Cl4 O32'
_cell_volume   967.39160107
_cell_formula_units_Z   2
loop_
 _symmetry_equiv_pos_site_id
 _symmetry_equiv_pos_as_xyz
  1  'x, y, z'
loop_
 _atom_site_type_symbol
 _atom_site_label
 _atom_site_symmetry_multiplicity
 _atom_site_fract_x
 _atom_site_fract_y
 _atom_site_fract_z
 _atom_site_occupancy
  Ca  Ca0  1  0.106049  0.691013  0.067468  1
  Ca  Ca1  1  0.116216  0.174573  0.636105  1
  Ca  Ca2  1  0.897365  0.531362  0.510043  1
  Ca  Ca3  1  0.094207  0.651454  0.677217  1
  Ca  Ca4  1  0.733296  0.130663  0.008262  1
  Ca  Ca5  1  0.505830  0.506065  0.969964  1
  Ca  Ca6  1  0.517037  0.003377  0.422078  1
  Ca  Ca7  1  0.304380  0.358930  0.955164  1
  Ca  Ca8  1  0.320460  0.899893  0.360307  1
  Ca  Ca9  1  0.520389  0.568661  0.467028  1
  Ca  Ca10  1  0.726421  0.644080  0.079023  1
  Ca  Ca11  1  0.698277  0.059409  0.622865  1
  Ca  Ca12  1  0.402410  0.870194  0.811094  1
  Ca  Ca13  1  0.871365  0.356451  0.357564  1
  Ca  Ca14  1  0.956877  0.334634  0.889577  1
  Ca  Ca15  1  0.899499  0.901479  0.340169  1
  Mg  Mg16  1  0.126705  0.119370  0.143008  1
  Mg  Mg17  1  0.864284  0.894335  0.857460  1
  Si  Si18  1  0.241374  0.272927  0.275517  1
  Si  Si19  1  0.309155  0.269404  0.760431  1
  Si  Si20  1  0.308676  0.777668  0.182643  1
  Si  Si21  1  0.730704  0.284094  0.217368  1
  Si  Si22  1  0.252769  0.783798  0.713531  1
  Si  Si23  1  0.621882  0.253035  0.752942  1
  Si  Si24  1  0.748288  0.785743  0.253902  1
  Si  Si25  1  0.785822  0.701069  0.751186  1
  Cl  Cl26  1  0.020219  0.493276  0.070832  1
  Cl  Cl27  1  0.001020  0.025847  0.499591  1
  Cl  Cl28  1  0.046041  0.009005  0.948647  1
  Cl  Cl29  1  0.461206  0.909132  0.016019  1
  O  O30  1  0.240631  0.169058  0.209527  1
  O  O31  1  0.307643  0.403157  0.136964  1
  O  O32  1  0.199686  0.229222  0.936037  1
  O  O33  1  0.160119  0.906017  0.233137  1
  O  O34  1  0.280705  0.442659  0.704326  1
  O  O35  1  0.075732  0.790068  0.808055  1
  O  O36  1  0.686545  0.426890  0.251666  1
  O  O37  1  0.302378  0.722010  0.585420  1
  O  O38  1  0.487881  0.199595  0.768800  1
  O  O39  1  0.389529  0.687388  0.306260  1
  O  O40  1  0.907598  0.189961  0.205474  1
  O  O41  1  0.290469  0.938411  0.630086  1
  O  O42  1  0.335375  0.677687  0.840953  1
  O  O43  1  0.681058  0.341616  0.577446  1
  O  O44  1  0.758061  0.596358  0.332025  1
  O  O45  1  0.553346  0.330425  0.872257  1
  O  O46  1  0.557297  0.822789  0.350293  1
  O  O47  1  0.747294  0.098180  0.805048  1
  O  O48  1  0.792202  0.816254  0.073977  1
  O  O49  1  0.704356  0.318115  0.066829  1
  O  O50  1  0.727405  0.967745  0.231361  1
  O  O51  1  0.084706  0.325483  0.400173  1
  O  O52  1  0.920560  0.342870  0.711691  1
  O  O53  1  0.527393  0.024493  0.605490  1
  O  O54  1  0.307020  0.706108  0.091107  1
  O  O55  1  0.274546  0.212304  0.678328  1
  O  O56  1  0.918928  0.726313  0.283317  1
  O  O57  1  0.676531  0.919393  0.547742  1
  O  O58  1  0.621906  0.681145  0.818996  1
  O  O59  1  0.883944  0.564472  0.861664  1
  O  O60  1  0.905911  0.695751  0.583882  1
  O  O61  1  0.778022  0.834524  0.783065  1
