# generated using pymatgen
data_Sr8Co8O23
_symmetry_space_group_name_H-M   'P 1'
_cell_length_a   7.74606720
_cell_length_b   8.68824607
_cell_length_c   8.68824555
_cell_angle_alpha   78.53796715
_cell_angle_beta   63.52684287
_cell_angle_gamma   63.52683836
_symmetry_Int_Tables_number   1
_chemical_formula_structural   Sr8Co8O23
_chemical_formula_sum   'Sr8 Co8 O23'
_cell_volume   468.52263627
_cell_formula_units_Z   1
loop_
 _symmetry_equiv_pos_site_id
 _symmetry_equiv_pos_as_xyz
  1  'x, y, z'
loop_
 _atom_site_type_symbol
 _atom_site_label
 _atom_site_symmetry_multiplicity
 _atom_site_fract_x
 _atom_site_fract_y
 _atom_site_fract_z
 _atom_site_occupancy
  Sr  Sr0  1  1.000000  0.741228  0.258772  1
  Sr  Sr1  1  0.500000  0.754997  0.245003  1
  Sr  Sr2  1  0.258772  0.741228  0.741228  1
  Sr  Sr3  1  0.500000  0.245003  0.754997  1
  Sr  Sr4  1  0.745003  0.754997  0.754997  1
  Sr  Sr5  1  0.000000  0.258772  0.741228  1
  Sr  Sr6  1  0.741228  0.258772  0.258772  1
  Sr  Sr7  1  0.254997  0.245003  0.245003  1
  Co  Co8  1  0.000000  0.500000  0.000000  1
  Co  Co9  1  0.500000  0.500000  0.000000  1
  Co  Co10  1  0.250000  0.500000  0.500000  1
  Co  Co11  1  0.240592  0.000000  1.000000  1
  Co  Co12  1  0.500000  0.000000  0.500000  1
  Co  Co13  1  0.759408  1.000000  0.000000  1
  Co  Co14  1  0.000000  0.000000  0.500000  1
  Co  Co15  1  0.750000  0.500000  0.500000  1
  O  O16  1  0.619800  0.500000  0.760399  1
  O  O17  1  0.898531  1.000000  0.766854  1
  O  O18  1  0.880200  0.239601  0.500000  1
  O  O19  1  0.380200  0.239601  0.500000  1
  O  O20  1  0.334615  1.000000  0.766854  1
  O  O21  1  0.733672  1.000000  0.532656  1
  O  O22  1  0.266328  0.467344  0.000000  1
  O  O23  1  0.500000  0.500000  0.500000  1
  O  O24  1  0.101469  0.233146  0.000000  1
  O  O25  1  0.619800  0.760399  0.500000  1
  O  O26  1  0.119800  0.500000  0.760399  1
  O  O27  1  0.880200  0.500000  0.239601  1
  O  O28  1  0.101469  0.000000  0.233146  1
  O  O29  1  0.000000  0.500000  0.500000  1
  O  O30  1  0.119800  0.760399  0.500000  1
  O  O31  1  0.665385  0.000000  0.233146  1
  O  O32  1  0.898531  0.766854  1.000000  1
  O  O33  1  0.334615  0.766854  1.000000  1
  O  O34  1  0.380200  0.500000  0.239601  1
  O  O35  1  0.733672  0.532656  1.000000  1
  O  O36  1  0.266328  0.000000  0.467344  1
  O  O37  1  0.500000  0.000000  0.000000  1
  O  O38  1  0.665385  0.233146  0.000000  1
