# generated using pymatgen
data_Tl9SbTe6
_symmetry_space_group_name_H-M   'P 1'
_cell_length_a   8.98513500
_cell_length_b   8.98503199
_cell_length_c   55.73852761
_cell_angle_alpha   118.90891352
_cell_angle_beta   118.91180728
_cell_angle_gamma   89.99554504
_symmetry_Int_Tables_number   1
_chemical_formula_structural   Tl9SbTe6
_chemical_formula_sum   'Tl54 Sb6 Te36'
_cell_volume   3283.99873462
_cell_formula_units_Z   6
loop_
 _symmetry_equiv_pos_site_id
 _symmetry_equiv_pos_as_xyz
  1  'x, y, z'
loop_
 _atom_site_type_symbol
 _atom_site_label
 _atom_site_symmetry_multiplicity
 _atom_site_fract_x
 _atom_site_fract_y
 _atom_site_fract_z
 _atom_site_occupancy
  Tl  Tl0  1  0.006251  0.515148  0.886092  1
  Tl  Tl1  1  0.196766  0.990417  0.947609  1
  Tl  Tl2  1  0.489037  0.695264  0.947646  1
  Tl  Tl3  1  0.310108  0.801358  0.886071  1
  Tl  Tl4  1  0.010871  0.510681  0.719054  1
  Tl  Tl5  1  0.201248  0.993513  0.781298  1
  Tl  Tl6  1  0.695311  0.196806  0.947635  1
  Tl  Tl7  1  0.515057  0.310134  0.886068  1
  Tl  Tl8  1  0.502385  0.502417  0.834139  1
  Tl  Tl9  1  0.486642  0.694335  0.781324  1
  Tl  Tl10  1  0.303470  0.803593  0.719042  1
  Tl  Tl11  1  0.801437  0.006261  0.886102  1
  Tl  Tl12  1  0.990488  0.488849  0.947612  1
  Tl  Tl13  1  0.008022  0.512491  0.552407  1
  Tl  Tl14  1  0.195979  0.989866  0.614109  1
  Tl  Tl15  1  0.694326  0.201317  0.781318  1
  Tl  Tl16  1  0.510654  0.303516  0.719047  1
  Tl  Tl17  1  0.497254  0.497232  0.665753  1
  Tl  Tl18  1  0.488697  0.694822  0.614110  1
  Tl  Tl19  1  0.306400  0.801852  0.552398  1
  Tl  Tl20  1  0.803597  0.010806  0.719056  1
  Tl  Tl21  1  0.993451  0.486636  0.781310  1
  Tl  Tl22  1  0.010193  0.511298  0.385895  1
  Tl  Tl23  1  0.198089  0.991990  0.447590  1
  Tl  Tl24  1  0.694900  0.196000  0.614122  1
  Tl  Tl25  1  0.512464  0.306419  0.552403  1
  Tl  Tl26  1  0.500000  0.500000  0.500000  1
  Tl  Tl27  1  0.487536  0.693581  0.447597  1
  Tl  Tl28  1  0.305100  0.804000  0.385878  1
  Tl  Tl29  1  0.801911  0.008010  0.552410  1
  Tl  Tl30  1  0.989807  0.488702  0.614105  1
  Tl  Tl31  1  0.006549  0.513364  0.218690  1
  Tl  Tl32  1  0.196403  0.989194  0.280944  1
  Tl  Tl33  1  0.693600  0.198148  0.447602  1
  Tl  Tl34  1  0.511303  0.305178  0.385890  1
  Tl  Tl35  1  0.502746  0.502768  0.334247  1
  Tl  Tl36  1  0.489346  0.696484  0.280953  1
  Tl  Tl37  1  0.305674  0.798683  0.218682  1
  Tl  Tl38  1  0.804021  0.010134  0.385891  1
  Tl  Tl39  1  0.991978  0.487509  0.447593  1
  Tl  Tl40  1  0.009512  0.511151  0.052388  1
  Tl  Tl41  1  0.198563  0.993739  0.113898  1
  Tl  Tl42  1  0.696530  0.196407  0.280958  1
  Tl  Tl43  1  0.513358  0.305665  0.218675  1
  Tl  Tl44  1  0.000000  0.000000  0.000000  1
  Tl  Tl45  1  0.497615  0.497583  0.165861  1
  Tl  Tl46  1  0.484943  0.689866  0.113932  1
  Tl  Tl47  1  0.304690  0.803194  0.052365  1
  Tl  Tl48  1  0.798752  0.006487  0.218702  1
  Tl  Tl49  1  0.989129  0.489319  0.280946  1
  Tl  Tl50  1  0.689892  0.198642  0.113929  1
  Tl  Tl51  1  0.510963  0.304736  0.052354  1
  Tl  Tl52  1  0.803234  0.009583  0.052391  1
  Tl  Tl53  1  0.993749  0.484852  0.113908  1
  Sb  Sb54  1  0.500000  0.500000  0.000000  1
  Sb  Sb55  1  0.002618  0.002598  0.667548  1
  Sb  Sb56  1  0.000000  0.000000  0.500000  1
  Sb  Sb57  1  0.989906  0.989952  0.829964  1
  Sb  Sb58  1  0.997382  0.997402  0.332452  1
  Sb  Sb59  1  0.010094  0.010048  0.170036  1
  Te  Te60  1  0.260077  0.259933  0.920059  1
  Te  Te61  1  0.147134  0.318794  0.832969  1
  Te  Te62  1  0.318787  0.850818  0.832983  1
  Te  Te63  1  0.228935  0.228666  0.742922  1
  Te  Te64  1  0.744288  0.744565  0.914766  1
  Te  Te65  1  0.149181  0.321599  0.666751  1
  Te  Te66  1  0.678999  0.147154  0.832963  1
  Te  Te67  1  0.321688  0.851198  0.666743  1
  Te  Te68  1  0.850789  0.679185  0.832981  1
  Te  Te69  1  0.235500  0.235391  0.578460  1
  Te  Te70  1  0.772214  0.772458  0.757465  1
  Te  Te71  1  0.148566  0.320131  0.499999  1
  Te  Te72  1  0.678848  0.149210  0.666744  1
  Te  Te73  1  0.320141  0.851501  0.500008  1
  Te  Te74  1  0.851256  0.678876  0.666742  1
  Te  Te75  1  0.237036  0.236880  0.412302  1
  Te  Te76  1  0.762964  0.763120  0.587698  1
  Te  Te77  1  0.148744  0.321124  0.333258  1
  Te  Te78  1  0.679859  0.148499  0.499992  1
  Te  Te79  1  0.321152  0.850790  0.333256  1
  Te  Te80  1  0.851434  0.679869  0.500001  1
  Te  Te81  1  0.227786  0.227542  0.242535  1
  Te  Te82  1  0.764500  0.764609  0.421540  1
  Te  Te83  1  0.149211  0.320815  0.167019  1
  Te  Te84  1  0.678312  0.148802  0.333257  1
  Te  Te85  1  0.321001  0.852846  0.167037  1
  Te  Te86  1  0.850819  0.678401  0.333249  1
  Te  Te87  1  0.255712  0.255435  0.085235  1
  Te  Te88  1  0.771065  0.771334  0.257078  1
  Te  Te89  1  0.179801  0.350079  0.999954  1
  Te  Te90  1  0.681213  0.149182  0.167017  1
  Te  Te91  1  0.350176  0.820090  0.000004  1
  Te  Te92  1  0.852866  0.681206  0.167031  1
  Te  Te93  1  0.739923  0.740067  0.079941  1
  Te  Te94  1  0.649824  0.179910  0.999996  1
  Te  Te95  1  0.820199  0.649921  0.000046  1
