# generated using pymatgen
data_Cs2Mn(PO3)4
_symmetry_space_group_name_H-M   'P 1'
_cell_length_a   8.12199704
_cell_length_b   11.71588995
_cell_length_c   13.46831120
_cell_angle_alpha   90.00000000
_cell_angle_beta   90.00000000
_cell_angle_gamma   101.97501485
_symmetry_Int_Tables_number   1
_chemical_formula_structural   Cs2Mn(PO3)4
_chemical_formula_sum   'Cs8 Mn4 P16 O48'
_cell_volume   1253.70644687
_cell_formula_units_Z   4
loop_
 _symmetry_equiv_pos_site_id
 _symmetry_equiv_pos_as_xyz
  1  'x, y, z'
loop_
 _atom_site_type_symbol
 _atom_site_label
 _atom_site_symmetry_multiplicity
 _atom_site_fract_x
 _atom_site_fract_y
 _atom_site_fract_z
 _atom_site_occupancy
  Cs  Cs0  1  0.922114  0.363766  0.879777  1
  Cs  Cs1  1  0.587308  0.656400  0.875209  1
  Cs  Cs2  1  0.912692  0.843600  0.375209  1
  Cs  Cs3  1  0.577886  0.136234  0.379777  1
  Cs  Cs4  1  0.412692  0.343600  0.124791  1
  Cs  Cs5  1  0.422114  0.863766  0.620223  1
  Cs  Cs6  1  0.077886  0.636234  0.120223  1
  Cs  Cs7  1  0.087308  0.156400  0.624791  1
  Mn  Mn8  1  0.259406  0.512660  0.644264  1
  Mn  Mn9  1  0.740594  0.487340  0.355736  1
  Mn  Mn10  1  0.240594  0.987340  0.144264  1
  Mn  Mn11  1  0.759406  0.012660  0.855736  1
  P  P12  1  0.095834  0.170007  0.325390  1
  P  P13  1  0.404166  0.329993  0.825390  1
  P  P14  1  0.675282  0.620555  0.574917  1
  P  P15  1  0.830176  0.412621  0.592459  1
  P  P16  1  0.904017  0.298449  0.187343  1
  P  P17  1  0.330176  0.912621  0.907541  1
  P  P18  1  0.175282  0.120555  0.925083  1
  P  P19  1  0.669824  0.087379  0.092459  1
  P  P20  1  0.595983  0.201551  0.687343  1
  P  P21  1  0.169824  0.587379  0.407541  1
  P  P22  1  0.824718  0.879445  0.074917  1
  P  P23  1  0.904166  0.829993  0.674610  1
  P  P24  1  0.324718  0.379445  0.425083  1
  P  P25  1  0.404017  0.798449  0.312657  1
  P  P26  1  0.095983  0.701551  0.812657  1
  P  P27  1  0.595834  0.670007  0.174610  1
  O  O28  1  0.524049  0.610504  0.641538  1
  O  O29  1  0.685809  0.334790  0.660579  1
  O  O30  1  0.202656  0.459791  0.380353  1
  O  O31  1  0.709192  0.750127  0.090051  1
  O  O32  1  0.478291  0.866072  0.401450  1
  O  O33  1  0.713595  0.151852  0.753600  1
  O  O34  1  0.291772  0.397224  0.771507  1
  O  O35  1  0.475951  0.389496  0.358462  1
  O  O36  1  0.185809  0.834790  0.839421  1
  O  O37  1  0.708228  0.602776  0.228493  1
  O  O38  1  0.209192  0.250127  0.409949  1
  O  O39  1  0.213595  0.651852  0.746400  1
  O  O40  1  0.057984  0.894426  0.622713  1
  O  O41  1  0.843640  0.895248  0.964800  1
  O  O42  1  0.442016  0.605574  0.122713  1
  O  O43  1  0.560852  0.771089  0.248674  1
  O  O44  1  0.343640  0.395248  0.535200  1
  O  O45  1  0.021709  0.633928  0.901450  1
  O  O46  1  0.314191  0.665210  0.339421  1
  O  O47  1  0.797344  0.540209  0.619647  1
  O  O48  1  0.024049  0.110504  0.858462  1
  O  O49  1  0.290808  0.249873  0.909949  1
  O  O50  1  0.786405  0.348148  0.253600  1
  O  O51  1  0.939148  0.728911  0.748674  1
  O  O52  1  0.798160  0.384253  0.484697  1
  O  O53  1  0.942016  0.105574  0.377287  1
  O  O54  1  0.156360  0.104752  0.035200  1
  O  O55  1  0.814191  0.165210  0.160579  1
  O  O56  1  0.501904  0.093524  0.137297  1
  O  O57  1  0.208228  0.102776  0.271507  1
  O  O58  1  0.998096  0.406476  0.637297  1
  O  O59  1  0.521709  0.133928  0.598550  1
  O  O60  1  0.790808  0.749873  0.590051  1
  O  O61  1  0.975951  0.889496  0.141538  1
  O  O62  1  0.201840  0.615747  0.515303  1
  O  O63  1  0.791772  0.897224  0.728493  1
  O  O64  1  0.701840  0.115747  0.984697  1
  O  O65  1  0.498096  0.906476  0.862703  1
  O  O66  1  0.978291  0.366072  0.098550  1
  O  O67  1  0.060852  0.271089  0.251326  1
  O  O68  1  0.298160  0.884253  0.015303  1
  O  O69  1  0.439148  0.228911  0.751326  1
  O  O70  1  0.702656  0.959791  0.119647  1
  O  O71  1  0.001904  0.593524  0.362703  1
  O  O72  1  0.557984  0.394426  0.877287  1
  O  O73  1  0.656360  0.604752  0.464800  1
  O  O74  1  0.286405  0.848148  0.246400  1
  O  O75  1  0.297344  0.040209  0.880353  1
