# generated using pymatgen
data_Cu4W(SCl)4
_symmetry_space_group_name_H-M   'P 1'
_cell_length_a   6.11784665
_cell_length_b   9.96563973
_cell_length_c   9.96563977
_cell_angle_alpha   84.59377400
_cell_angle_beta   72.12465499
_cell_angle_gamma   72.12465663
_symmetry_Int_Tables_number   1
_chemical_formula_structural   Cu4W(SCl)4
_chemical_formula_sum   'Cu8 W2 S8 Cl8'
_cell_volume   550.34287764
_cell_formula_units_Z   2
loop_
 _symmetry_equiv_pos_site_id
 _symmetry_equiv_pos_as_xyz
  1  'x, y, z'
loop_
 _atom_site_type_symbol
 _atom_site_label
 _atom_site_symmetry_multiplicity
 _atom_site_fract_x
 _atom_site_fract_y
 _atom_site_fract_z
 _atom_site_occupancy
  Cu  Cu0  1  0.862765  1.000000  0.274470  1
  Cu  Cu1  1  0.137235  0.725530  0.000000  1
  Cu  Cu2  1  0.500000  0.366633  0.633367  1
  Cu  Cu3  1  0.137235  0.000000  0.725530  1
  Cu  Cu4  1  0.862765  0.274470  1.000000  1
  Cu  Cu5  1  0.500000  0.633367  0.366633  1
  Cu  Cu6  1  0.866633  0.633367  0.633367  1
  Cu  Cu7  1  0.133367  0.366633  0.366633  1
  W  W8  1  0.000000  0.000000  0.000000  1
  W  W9  1  0.500000  0.000000  0.000000  1
  S  S10  1  0.403371  0.847088  0.847088  1
  S  S11  1  0.097547  0.152912  0.152912  1
  S  S12  1  0.902453  0.847088  0.847088  1
  S  S13  1  0.250459  0.152912  0.847088  1
  S  S14  1  0.596629  0.152912  0.152912  1
  S  S15  1  0.749541  0.847088  0.152912  1
  S  S16  1  0.250459  0.847088  0.152912  1
  S  S17  1  0.749541  0.152912  0.847088  1
  Cl  Cl18  1  0.621141  0.500000  0.757718  1
  Cl  Cl19  1  0.121141  0.500000  0.757718  1
  Cl  Cl20  1  0.878859  0.242282  0.500000  1
  Cl  Cl21  1  0.378859  0.242282  0.500000  1
  Cl  Cl22  1  0.621141  0.757718  0.500000  1
  Cl  Cl23  1  0.878859  0.500000  0.242282  1
  Cl  Cl24  1  0.378859  0.500000  0.242282  1
  Cl  Cl25  1  0.121141  0.757718  0.500000  1
