# generated using pymatgen
data_Eu(ScSe2)2
_symmetry_space_group_name_H-M   'P 1'
_cell_length_a   3.78364280
_cell_length_b   11.48988925
_cell_length_c   13.68667981
_cell_angle_alpha   90.00000000
_cell_angle_beta   90.00000000
_cell_angle_gamma   90.00000000
_symmetry_Int_Tables_number   1
_chemical_formula_structural   Eu(ScSe2)2
_chemical_formula_sum   'Eu4 Sc8 Se16'
_cell_volume   595.00974615
_cell_formula_units_Z   4
loop_
 _symmetry_equiv_pos_site_id
 _symmetry_equiv_pos_as_xyz
  1  'x, y, z'
loop_
 _atom_site_type_symbol
 _atom_site_label
 _atom_site_symmetry_multiplicity
 _atom_site_fract_x
 _atom_site_fract_y
 _atom_site_fract_z
 _atom_site_occupancy
  Eu  Eu0  1  0.250000  0.738290  0.831679  1
  Eu  Eu1  1  0.750000  0.761710  0.331679  1
  Eu  Eu2  1  0.250000  0.238290  0.668321  1
  Eu  Eu3  1  0.750000  0.261710  0.168321  1
  Sc  Sc4  1  0.250000  0.583518  0.096777  1
  Sc  Sc5  1  0.250000  0.558846  0.610602  1
  Sc  Sc6  1  0.750000  0.916482  0.596777  1
  Sc  Sc7  1  0.750000  0.441154  0.389398  1
  Sc  Sc8  1  0.750000  0.941154  0.110602  1
  Sc  Sc9  1  0.250000  0.058846  0.889398  1
  Sc  Sc10  1  0.750000  0.416482  0.903223  1
  Sc  Sc11  1  0.250000  0.083518  0.403223  1
  Se  Se12  1  0.250000  0.371165  0.031016  1
  Se  Se13  1  0.250000  0.295569  0.337447  1
  Se  Se14  1  0.250000  0.471973  0.783577  1
  Se  Se15  1  0.750000  0.905344  0.923324  1
  Se  Se16  1  0.250000  0.971973  0.716423  1
  Se  Se17  1  0.250000  0.594656  0.423324  1
  Se  Se18  1  0.750000  0.704431  0.662553  1
  Se  Se19  1  0.750000  0.528027  0.216423  1
  Se  Se20  1  0.250000  0.094656  0.076676  1
  Se  Se21  1  0.750000  0.204431  0.837447  1
  Se  Se22  1  0.250000  0.795569  0.162553  1
  Se  Se23  1  0.250000  0.871165  0.468984  1
  Se  Se24  1  0.750000  0.128835  0.531016  1
  Se  Se25  1  0.750000  0.028027  0.283577  1
  Se  Se26  1  0.750000  0.628835  0.968984  1
  Se  Se27  1  0.750000  0.405344  0.576676  1
