# generated using pymatgen
data_Al6Bi24Cl23
_symmetry_space_group_name_H-M   'P 1'
_cell_length_a   17.02367416
_cell_length_b   16.86858343
_cell_length_c   18.25302936
_cell_angle_alpha   91.14845185
_cell_angle_beta   88.59685283
_cell_angle_gamma   113.90341784
_symmetry_Int_Tables_number   1
_chemical_formula_structural   Al6Bi24Cl23
_chemical_formula_sum   'Al12 Bi48 Cl46'
_cell_volume   4790.32916569
_cell_formula_units_Z   2
loop_
 _symmetry_equiv_pos_site_id
 _symmetry_equiv_pos_as_xyz
  1  'x, y, z'
loop_
 _atom_site_type_symbol
 _atom_site_label
 _atom_site_symmetry_multiplicity
 _atom_site_fract_x
 _atom_site_fract_y
 _atom_site_fract_z
 _atom_site_occupancy
  Al  Al0  1  0.319965  0.725563  0.948677  1
  Al  Al1  1  0.355994  0.645071  0.114591  1
  Al  Al2  1  0.323859  0.691270  0.503172  1
  Al  Al3  1  0.380367  0.329421  0.250237  1
  Al  Al4  1  0.634375  0.678447  0.753006  1
  Al  Al5  1  0.738540  0.411512  0.449710  1
  Al  Al6  1  0.646251  0.310356  0.589513  1
  Al  Al7  1  0.742120  0.412200  0.052772  1
  Al  Al8  1  0.935685  0.945731  0.537005  1
  Al  Al9  1  0.934655  0.946206  0.961147  1
  Al  Al10  1  0.649946  0.285547  0.892274  1
  Al  Al11  1  0.739449  0.117599  0.249056  1
  Bi  Bi12  1  0.069958  0.736034  0.628186  1
  Bi  Bi13  1  0.067386  0.743927  0.871527  1
  Bi  Bi14  1  0.152202  0.978977  0.249710  1
  Bi  Bi15  1  0.168101  0.692997  0.753652  1
  Bi  Bi16  1  0.214794  0.844334  0.164346  1
  Bi  Bi17  1  0.212544  0.845697  0.333765  1
  Bi  Bi18  1  0.010334  0.448626  0.161277  1
  Bi  Bi19  1  0.011714  0.452525  0.334797  1
  Bi  Bi20  1  0.045965  0.177516  0.247694  1
  Bi  Bi21  1  0.409665  0.939788  0.333820  1
  Bi  Bi22  1  0.412319  0.938857  0.162516  1
  Bi  Bi23  1  0.139917  0.365546  0.162915  1
  Bi  Bi24  1  0.138401  0.367414  0.332921  1
  Bi  Bi25  1  0.553125  0.880988  0.750468  1
  Bi  Bi26  1  0.271978  0.450536  0.748856  1
  Bi  Bi27  1  0.228447  0.313417  0.869744  1
  Bi  Bi28  1  0.236333  0.306631  0.630190  1
  Bi  Bi29  1  0.186529  0.166351  0.751326  1
  Bi  Bi30  1  0.689767  0.959926  0.871218  1
  Bi  Bi31  1  0.694836  0.956809  0.630686  1
  Bi  Bi32  1  0.649600  0.797380  0.334487  1
  Bi  Bi33  1  0.650443  0.795827  0.166940  1
  Bi  Bi34  1  0.551086  0.596197  0.165528  1
  Bi  Bi35  1  0.553038  0.597560  0.333978  1
  Bi  Bi36  1  0.425441  0.423591  0.665864  1
  Bi  Bi37  1  0.422435  0.429037  0.835269  1
  Bi  Bi38  1  0.360670  0.225877  0.837383  1
  Bi  Bi39  1  0.364467  0.216397  0.670984  1
  Bi  Bi40  1  0.295749  0.047045  0.366423  1
  Bi  Bi41  1  0.298601  0.044325  0.131056  1
  Bi  Bi42  1  0.837906  0.819458  0.247083  1
  Bi  Bi43  1  0.753929  0.686439  0.366327  1
  Bi  Bi44  1  0.754199  0.683428  0.127426  1
  Bi  Bi45  1  0.683778  0.540280  0.245990  1
  Bi  Bi46  1  0.438937  0.112763  0.247876  1
  Bi  Bi47  1  0.874723  0.640471  0.659259  1
  Bi  Bi48  1  0.884688  0.613467  0.820991  1
  Bi  Bi49  1  0.559840  0.050673  0.835192  1
  Bi  Bi50  1  0.564151  0.047847  0.667977  1
  Bi  Bi51  1  0.978507  0.808416  0.739515  1
  Bi  Bi52  1  -0.001766  0.516073  0.686966  1
  Bi  Bi53  1  0.038452  0.546398  0.854118  1
  Bi  Bi54  1  0.765595  0.155758  0.667970  1
  Bi  Bi55  1  0.757106  0.160988  0.835827  1
  Bi  Bi56  1  0.849238  0.311675  0.248467  1
  Bi  Bi57  1  0.831007  0.032508  0.751687  1
  Bi  Bi58  1  0.950760  0.250253  0.127579  1
  Bi  Bi59  1  0.947589  0.254606  0.368625  1
  Cl  Cl60  1  0.284335  0.825712  0.908552  1
  Cl  Cl61  1  0.304138  0.746006  0.608010  1
  Cl  Cl62  1  0.209591  0.659882  0.438174  1
  Cl  Cl63  1  0.216369  0.652291  0.025404  1
  Cl  Cl64  1  0.130812  0.492986  0.637005  1
  Cl  Cl65  1  0.129527  0.450871  0.870799  1
  Cl  Cl66  1  0.342145  0.661559  0.853370  1
  Cl  Cl67  1  0.062325  0.067408  0.346627  1
  Cl  Cl68  1  0.433780  0.788602  0.015768  1
  Cl  Cl69  1  0.434263  0.793579  0.451658  1
  Cl  Cl70  1  0.365004  0.561642  0.021455  1
  Cl  Cl71  1  0.349353  0.577737  0.515655  1
  Cl  Cl72  1  0.355852  0.447374  0.253018  1
  Cl  Cl73  1  0.256912  0.221443  0.251560  1
  Cl  Cl74  1  0.572921  0.681549  0.856051  1
  Cl  Cl75  1  0.555949  0.683481  0.663770  1
  Cl  Cl76  1  0.447064  0.324932  0.347707  1
  Cl  Cl77  1  0.448249  0.324401  0.151389  1
  Cl  Cl78  1  0.758894  0.785301  0.746278  1
  Cl  Cl79  1  0.653104  0.557798  0.742313  1
  Cl  Cl80  1  0.404548  0.075457  0.744238  1
  Cl  Cl81  1  0.807744  0.844175  0.948426  1
  Cl  Cl82  1  0.808748  0.842180  0.547727  1
  Cl  Cl83  1  0.649963  0.433790  0.535420  1
  Cl  Cl84  1  0.661338  0.440600  0.976892  1
  Cl  Cl85  1  0.547982  0.204192  0.540349  1
  Cl  Cl86  1  0.547032  0.199832  0.966786  1
  Cl  Cl87  1  0.656126  0.328645  0.702129  1
  Cl  Cl88  1  0.673118  0.340304  0.145611  1
  Cl  Cl89  1  0.667725  0.333241  0.364857  1
  Cl  Cl90  1  0.994569  0.987852  0.852150  1
  Cl  Cl91  1  0.010817  0.891080  0.015740  1
  Cl  Cl92  1  0.015348  0.892713  0.480255  1
  Cl  Cl93  1  0.978843  0.786130  0.250083  1
  Cl  Cl94  1  0.845999  0.530664  0.086383  1
  Cl  Cl95  1  0.844685  0.528233  0.429104  1
  Cl  Cl96  1  0.795121  0.335083  0.988323  1
  Cl  Cl97  1  0.773102  0.330755  0.531295  1
  Cl  Cl98  1  0.669499  0.111491  0.348389  1
  Cl  Cl99  1  0.669857  0.108389  0.152454  1
  Cl  Cl100  1  0.897381  0.357730  0.727907  1
  Cl  Cl101  1  0.807525  0.036802  0.249134  1
  Cl  Cl102  1  0.919707  0.056780  0.009765  1
  Cl  Cl103  1  0.920978  0.056568  0.494397  1
  Cl  Cl104  1  0.063707  0.063103  0.150633  1
  Cl  Cl105  1  0.991266  0.984098  0.647428  1
