# generated using pymatgen
data_Cu16I19
_symmetry_space_group_name_H-M   'P 1'
_cell_length_a   4.23286939
_cell_length_b   4.23286920
_cell_length_c   81.43467587
_cell_angle_alpha   60.59650345
_cell_angle_beta   60.59650498
_cell_angle_gamma   60.30583931
_symmetry_Int_Tables_number   1
_chemical_formula_structural   Cu16I19
_chemical_formula_sum   'Cu16 I19'
_cell_volume   1043.35723694
_cell_formula_units_Z   1
loop_
 _symmetry_equiv_pos_site_id
 _symmetry_equiv_pos_as_xyz
  1  'x, y, z'
loop_
 _atom_site_type_symbol
 _atom_site_label
 _atom_site_symmetry_multiplicity
 _atom_site_fract_x
 _atom_site_fract_y
 _atom_site_fract_z
 _atom_site_occupancy
  Cu  Cu0  1  0.259886  0.259886  0.067764  1
  Cu  Cu1  1  0.253264  0.253264  0.170747  1
  Cu  Cu2  1  0.275128  0.275128  0.276095  1
  Cu  Cu3  1  0.269774  0.269774  0.329876  1
  Cu  Cu4  1  0.268672  0.268672  0.382731  1
  Cu  Cu5  1  0.268413  0.268413  0.435372  1
  Cu  Cu6  1  0.268575  0.268575  0.487986  1
  Cu  Cu7  1  0.268878  0.268878  0.540624  1
  Cu  Cu8  1  0.268736  0.268736  0.593247  1
  Cu  Cu9  1  0.268756  0.268756  0.645904  1
  Cu  Cu10  1  0.268646  0.268646  0.698544  1
  Cu  Cu11  1  0.268410  0.268410  0.751191  1
  Cu  Cu12  1  0.268222  0.268222  0.803854  1
  Cu  Cu13  1  0.268322  0.268322  0.856480  1
  Cu  Cu14  1  0.266757  0.266757  0.909384  1
  Cu  Cu15  1  0.259079  0.259079  0.963462  1
  I  I16  1  0.005812  0.005812  0.000112  1
  I  I17  1  0.015474  0.015474  0.052939  1
  I  I18  1  0.011314  0.011314  0.104677  1
  I  I19  1  0.009718  0.009718  0.155614  1
  I  I20  1  0.014303  0.014303  0.263968  1
  I  I21  1  0.020963  0.020963  0.207750  1
  I  I22  1  0.016045  0.016045  0.369375  1
  I  I23  1  0.015684  0.015684  0.316784  1
  I  I24  1  0.017002  0.017002  0.474454  1
  I  I25  1  0.016434  0.016434  0.421913  1
  I  I26  1  0.017590  0.017590  0.527031  1
  I  I27  1  0.017505  0.017505  0.579631  1
  I  I28  1  0.017760  0.017760  0.684867  1
  I  I29  1  0.017755  0.017755  0.632247  1
  I  I30  1  0.017805  0.017805  0.737474  1
  I  I31  1  0.017957  0.017957  0.790074  1
  I  I32  1  0.019292  0.019292  0.895090  1
  I  I33  1  0.019623  0.019623  0.947582  1
  I  I34  1  0.018447  0.018447  0.842629  1
