# generated using pymatgen
data_FeSb2WC8Se2(O2F3)4
_symmetry_space_group_name_H-M   'P 1'
_cell_length_a   12.23816008
_cell_length_b   12.48512265
_cell_length_c   15.42608723
_cell_angle_alpha   90.00000000
_cell_angle_beta   92.64477880
_cell_angle_gamma   90.00000000
_symmetry_Int_Tables_number   1
_chemical_formula_structural   FeSb2WC8Se2(O2F3)4
_chemical_formula_sum   'Fe4 Sb8 W4 C32 Se8 O32 F48'
_cell_volume   2354.51723330
_cell_formula_units_Z   4
loop_
 _symmetry_equiv_pos_site_id
 _symmetry_equiv_pos_as_xyz
  1  'x, y, z'
loop_
 _atom_site_type_symbol
 _atom_site_label
 _atom_site_symmetry_multiplicity
 _atom_site_fract_x
 _atom_site_fract_y
 _atom_site_fract_z
 _atom_site_occupancy
  Fe  Fe0  1  0.379163  0.461473  0.688734  1
  Fe  Fe1  1  0.120837  0.961473  0.311266  1
  Fe  Fe2  1  0.879163  0.038527  0.688734  1
  Fe  Fe3  1  0.620837  0.538527  0.311266  1
  Sb  Sb4  1  0.804035  0.527536  0.608862  1
  Sb  Sb5  1  0.479762  0.768350  0.053978  1
  Sb  Sb6  1  0.304035  0.972464  0.608862  1
  Sb  Sb7  1  0.520238  0.231650  0.946022  1
  Sb  Sb8  1  0.195965  0.472464  0.391138  1
  Sb  Sb9  1  0.020238  0.268350  0.946022  1
  Sb  Sb10  1  0.695965  0.027536  0.391138  1
  Sb  Sb11  1  0.979762  0.731650  0.053978  1
  W  W12  1  0.279880  0.080600  0.214854  1
  W  W13  1  0.220120  0.580600  0.785146  1
  W  W14  1  0.720120  0.919400  0.785146  1
  W  W15  1  0.779880  0.419400  0.214854  1
  C  C16  1  0.627319  0.354860  0.237214  1
  C  C17  1  0.921458  0.158930  0.631813  1
  C  C18  1  0.344438  0.170171  0.322116  1
  C  C19  1  0.556164  0.944295  0.820523  1
  C  C20  1  0.010238  0.030590  0.751125  1
  C  C21  1  0.704248  0.765835  0.844760  1
  C  C22  1  0.272646  0.544078  0.915554  1
  C  C23  1  0.489762  0.530590  0.248875  1
  C  C24  1  0.421458  0.341070  0.631813  1
  C  C25  1  0.227354  0.044078  0.084446  1
  C  C26  1  0.795752  0.265835  0.155240  1
  C  C27  1  0.372681  0.645140  0.762786  1
  C  C28  1  0.056164  0.555705  0.820523  1
  C  C29  1  0.943836  0.444295  0.179477  1
  C  C30  1  0.443836  0.055705  0.179477  1
  C  C31  1  0.913608  0.947649  0.600767  1
  C  C32  1  0.078542  0.841070  0.368187  1
  C  C33  1  0.578542  0.658930  0.368187  1
  C  C34  1  0.655562  0.829829  0.677884  1
  C  C35  1  0.295752  0.234165  0.155240  1
  C  C36  1  0.127319  0.145140  0.237214  1
  C  C37  1  0.204248  0.734165  0.844760  1
  C  C38  1  0.989762  0.969410  0.248875  1
  C  C39  1  0.844438  0.329829  0.322116  1
  C  C40  1  0.155562  0.670171  0.677884  1
  C  C41  1  0.586392  0.447649  0.399233  1
  C  C42  1  0.727354  0.455922  0.084446  1
  C  C43  1  0.413608  0.552351  0.600767  1
  C  C44  1  0.872681  0.854860  0.762786  1
  C  C45  1  0.086392  0.052351  0.399233  1
  C  C46  1  0.772646  0.955922  0.915554  1
  C  C47  1  0.510238  0.469410  0.751125  1
  Se  Se48  1  0.267374  0.371352  0.788149  1
  Se  Se49  1  0.187032  0.438106  0.657846  1
  Se  Se50  1  0.312968  0.938106  0.342154  1
  Se  Se51  1  0.232626  0.871352  0.211851  1
  Se  Se52  1  0.732626  0.628648  0.211851  1
  Se  Se53  1  0.812968  0.561894  0.342154  1
  Se  Se54  1  0.687032  0.061894  0.657846  1
  Se  Se55  1  0.767374  0.128648  0.788149  1
  O  O56  1  0.301025  0.316904  0.124111  1
  O  O57  1  0.701019  0.475460  0.014208  1
  O  O58  1  0.408686  0.521848  0.209672  1
  O  O59  1  0.466803  0.951450  0.838425  1
  O  O60  1  0.591314  0.478152  0.790328  1
  O  O61  1  0.447941  0.701527  0.757991  1
  O  O62  1  0.091314  0.021848  0.790328  1
  O  O63  1  0.798981  0.975460  0.985792  1
  O  O64  1  0.881561  0.279744  0.378277  1
  O  O65  1  0.433044  0.613438  0.548485  1
  O  O66  1  0.550051  0.734628  0.402286  1
  O  O67  1  0.118439  0.720256  0.621723  1
  O  O68  1  0.933044  0.886562  0.548485  1
  O  O69  1  0.801025  0.183096  0.124111  1
  O  O70  1  0.966803  0.548550  0.838425  1
  O  O71  1  0.381561  0.220256  0.378277  1
  O  O72  1  0.949949  0.234628  0.597714  1
  O  O73  1  0.050051  0.765372  0.402286  1
  O  O74  1  0.198975  0.816904  0.875889  1
  O  O75  1  0.033197  0.451450  0.161575  1
  O  O76  1  0.066956  0.113438  0.451515  1
  O  O77  1  0.618439  0.779744  0.621723  1
  O  O78  1  0.947941  0.798473  0.757991  1
  O  O79  1  0.552059  0.298473  0.242009  1
  O  O80  1  0.449949  0.265372  0.597714  1
  O  O81  1  0.533197  0.048550  0.161575  1
  O  O82  1  0.566956  0.386562  0.451515  1
  O  O83  1  0.908686  0.978152  0.209672  1
  O  O84  1  0.298981  0.524540  0.985792  1
  O  O85  1  0.052059  0.201527  0.242009  1
  O  O86  1  0.698975  0.683096  0.875889  1
  O  O87  1  0.201019  0.024540  0.014208  1
  F  F88  1  0.823129  0.444349  0.504609  1
  F  F89  1  0.606414  0.832820  0.006146  1
  F  F90  1  0.040176  0.472384  0.366534  1
  F  F91  1  0.649119  0.294853  0.901622  1
  F  F92  1  0.149119  0.205147  0.901622  1
  F  F93  1  0.186098  0.346463  0.462913  1
  F  F94  1  0.940913  0.135141  0.928516  1
  F  F95  1  0.974288  0.308097  0.829187  1
  F  F96  1  0.176871  0.555651  0.495391  1
  F  F97  1  0.393586  0.167180  0.993854  1
  F  F98  1  0.540176  0.027616  0.366534  1
  F  F99  1  0.784419  0.618511  0.707916  1
  F  F100  1  0.350881  0.705147  0.098378  1
  F  F101  1  0.850881  0.794853  0.098378  1
  F  F102  1  0.852576  0.027490  0.413594  1
  F  F103  1  0.474288  0.191903  0.829187  1
  F  F104  1  0.323129  0.055651  0.504609  1
  F  F105  1  0.434479  0.723185  0.938094  1
  F  F106  1  0.402156  0.901443  0.038768  1
  F  F107  1  0.313902  0.846463  0.537087  1
  F  F108  1  0.791377  0.400719  0.677855  1
  F  F109  1  0.025712  0.691903  0.170813  1
  F  F110  1  0.352576  0.472510  0.413594  1
  F  F111  1  0.208623  0.599281  0.322145  1
  F  F112  1  0.525712  0.808097  0.170813  1
  F  F113  1  0.934479  0.776815  0.938094  1
  F  F114  1  0.597844  0.098557  0.961232  1
  F  F115  1  0.813902  0.653537  0.537087  1
  F  F116  1  0.059087  0.864859  0.071484  1
  F  F117  1  0.715581  0.118511  0.292084  1
  F  F118  1  0.065521  0.223185  0.061906  1
  F  F119  1  0.893586  0.332820  0.993854  1
  F  F120  1  0.291377  0.099281  0.677855  1
  F  F121  1  0.676871  0.944349  0.495391  1
  F  F122  1  0.215581  0.381489  0.292084  1
  F  F123  1  0.106414  0.667180  0.006146  1
  F  F124  1  0.559087  0.635141  0.071484  1
  F  F125  1  0.902156  0.598557  0.038768  1
  F  F126  1  0.565521  0.276815  0.061906  1
  F  F127  1  0.686098  0.153537  0.462913  1
  F  F128  1  0.097844  0.401443  0.961232  1
  F  F129  1  0.959824  0.527616  0.633466  1
  F  F130  1  0.459824  0.972384  0.633466  1
  F  F131  1  0.284419  0.881489  0.707916  1
  F  F132  1  0.708623  0.900719  0.322145  1
  F  F133  1  0.440913  0.364859  0.928516  1
  F  F134  1  0.647424  0.527490  0.586406  1
  F  F135  1  0.147424  0.972510  0.586406  1
