# generated using pymatgen
data_U2CuP2(HO)24
_symmetry_space_group_name_H-M   'P 1'
_cell_length_a   7.04817438
_cell_length_b   7.04817438
_cell_length_c   21.10035838
_cell_angle_alpha   90.00000000
_cell_angle_beta   90.00000000
_cell_angle_gamma   90.00000000
_symmetry_Int_Tables_number   1
_chemical_formula_structural   U2CuP2(HO)24
_chemical_formula_sum   'U4 Cu2 P4 H48 O48'
_cell_volume   1048.19748328
_cell_formula_units_Z   2
loop_
 _symmetry_equiv_pos_site_id
 _symmetry_equiv_pos_as_xyz
  1  'x, y, z'
loop_
 _atom_site_type_symbol
 _atom_site_label
 _atom_site_symmetry_multiplicity
 _atom_site_fract_x
 _atom_site_fract_y
 _atom_site_fract_z
 _atom_site_occupancy
  U  U0  1  0.750000  0.750000  0.541297  1
  U  U1  1  0.750000  0.750000  0.958703  1
  U  U2  1  0.250000  0.250000  0.458703  1
  U  U3  1  0.250000  0.250000  0.041297  1
  Cu  Cu4  1  0.750000  0.750000  0.750000  1
  Cu  Cu5  1  0.250000  0.250000  0.250000  1
  P  P6  1  0.250000  0.750000  0.500000  1
  P  P7  1  0.250000  0.750000  0.000000  1
  P  P8  1  0.750000  0.250000  0.500000  1
  P  P9  1  0.750000  0.250000  0.000000  1
  H  H10  1  0.090321  0.398854  0.665395  1
  H  H11  1  0.409679  0.101146  0.665395  1
  H  H12  1  0.409679  0.398854  0.834605  1
  H  H13  1  0.090321  0.101146  0.834605  1
  H  H14  1  0.909679  0.601146  0.334605  1
  H  H15  1  0.590321  0.898854  0.334605  1
  H  H16  1  0.590321  0.601146  0.165395  1
  H  H17  1  0.909679  0.898854  0.165395  1
  H  H18  1  0.398854  0.090321  0.834605  1
  H  H19  1  0.101146  0.409679  0.834605  1
  H  H20  1  0.398854  0.409679  0.665395  1
  H  H21  1  0.101146  0.090321  0.665395  1
  H  H22  1  0.601146  0.909679  0.165395  1
  H  H23  1  0.898854  0.590321  0.165395  1
  H  H24  1  0.601146  0.590321  0.334605  1
  H  H25  1  0.898854  0.909679  0.334605  1
  H  H26  1  0.153426  0.572364  0.623103  1
  H  H27  1  0.346574  0.927636  0.623103  1
  H  H28  1  0.346574  0.572364  0.876897  1
  H  H29  1  0.153426  0.927636  0.876897  1
  H  H30  1  0.846574  0.427636  0.376897  1
  H  H31  1  0.653426  0.072364  0.376897  1
  H  H32  1  0.653426  0.427636  0.123103  1
  H  H33  1  0.846574  0.072364  0.123103  1
  H  H34  1  0.572364  0.153426  0.876897  1
  H  H35  1  0.927636  0.346574  0.876897  1
  H  H36  1  0.572364  0.346574  0.623103  1
  H  H37  1  0.927636  0.153426  0.623103  1
  H  H38  1  0.427636  0.846574  0.123103  1
  H  H39  1  0.072364  0.653426  0.123103  1
  H  H40  1  0.427636  0.653426  0.376897  1
  H  H41  1  0.072364  0.846574  0.376897  1
  H  H42  1  0.094923  0.666118  0.720345  1
  H  H43  1  0.405077  0.833882  0.720345  1
  H  H44  1  0.405077  0.666118  0.779655  1
  H  H45  1  0.094923  0.833882  0.779655  1
  H  H46  1  0.905077  0.333882  0.279655  1
  H  H47  1  0.594923  0.166118  0.279655  1
  H  H48  1  0.594923  0.333882  0.220345  1
  H  H49  1  0.905077  0.166118  0.220345  1
  H  H50  1  0.666118  0.094923  0.779655  1
  H  H51  1  0.833882  0.405077  0.779655  1
  H  H52  1  0.666118  0.405077  0.720345  1
  H  H53  1  0.833882  0.094923  0.720345  1
  H  H54  1  0.333882  0.905077  0.220345  1
  H  H55  1  0.166118  0.594923  0.220345  1
  H  H56  1  0.333882  0.594923  0.279655  1
  H  H57  1  0.166118  0.905077  0.279655  1
  O  O58  1  0.750000  0.750000  0.627356  1
  O  O59  1  0.750000  0.750000  0.872644  1
  O  O60  1  0.250000  0.250000  0.372644  1
  O  O61  1  0.250000  0.250000  0.127356  1
  O  O62  1  0.750000  0.750000  0.455158  1
  O  O63  1  0.750000  0.750000  0.044842  1
  O  O64  1  0.250000  0.250000  0.544842  1
  O  O65  1  0.250000  0.250000  0.955158  1
  O  O66  1  0.022858  0.750000  0.750000  1
  O  O67  1  0.477142  0.750000  0.750000  1
  O  O68  1  0.977142  0.250000  0.250000  1
  O  O69  1  0.522858  0.250000  0.250000  1
  O  O70  1  0.750000  0.022858  0.750000  1
  O  O71  1  0.750000  0.477142  0.750000  1
  O  O72  1  0.250000  0.977142  0.250000  1
  O  O73  1  0.250000  0.522858  0.250000  1
  O  O74  1  0.076674  0.711977  0.543904  1
  O  O75  1  0.423326  0.788023  0.543904  1
  O  O76  1  0.423326  0.711977  0.956096  1
  O  O77  1  0.076674  0.788023  0.956096  1
  O  O78  1  0.923326  0.288023  0.456096  1
  O  O79  1  0.576674  0.211977  0.456096  1
  O  O80  1  0.576674  0.288023  0.043904  1
  O  O81  1  0.923326  0.211977  0.043904  1
  O  O82  1  0.711977  0.076674  0.956096  1
  O  O83  1  0.788023  0.423326  0.956096  1
  O  O84  1  0.711977  0.423326  0.543904  1
  O  O85  1  0.788023  0.076674  0.543904  1
  O  O86  1  0.288023  0.923326  0.043904  1
  O  O87  1  0.211977  0.576674  0.043904  1
  O  O88  1  0.288023  0.576674  0.456096  1
  O  O89  1  0.211977  0.923326  0.456096  1
  O  O90  1  0.172825  0.514906  0.665193  1
  O  O91  1  0.327175  0.985094  0.665193  1
  O  O92  1  0.327175  0.514906  0.834807  1
  O  O93  1  0.172825  0.985094  0.834807  1
  O  O94  1  0.827175  0.485094  0.334807  1
  O  O95  1  0.672825  0.014906  0.334807  1
  O  O96  1  0.672825  0.485094  0.165193  1
  O  O97  1  0.827175  0.014906  0.165193  1
  O  O98  1  0.514906  0.172825  0.834807  1
  O  O99  1  0.985094  0.327175  0.834807  1
  O  O100  1  0.514906  0.327175  0.665193  1
  O  O101  1  0.985094  0.172825  0.665193  1
  O  O102  1  0.485094  0.827175  0.165193  1
  O  O103  1  0.014906  0.672825  0.165193  1
  O  O104  1  0.485094  0.672825  0.334807  1
  O  O105  1  0.014906  0.827175  0.334807  1
