# generated using pymatgen
data_Li2FeCl4
_symmetry_space_group_name_H-M   'P 1'
_cell_length_a   7.40036347
_cell_length_b   7.27066673
_cell_length_c   36.26454222
_cell_angle_alpha   61.02041182
_cell_angle_beta   60.82744497
_cell_angle_gamma   60.51551052
_symmetry_Int_Tables_number   1
_chemical_formula_structural   Li2FeCl4
_chemical_formula_sum   'Li20 Fe10 Cl40'
_cell_volume   1404.19509509
_cell_formula_units_Z   10
loop_
 _symmetry_equiv_pos_site_id
 _symmetry_equiv_pos_as_xyz
  1  'x, y, z'
loop_
 _atom_site_type_symbol
 _atom_site_label
 _atom_site_symmetry_multiplicity
 _atom_site_fract_x
 _atom_site_fract_y
 _atom_site_fract_z
 _atom_site_occupancy
  Li  Li0  1  0.371702  0.045699  0.009207  1
  Li  Li1  1  0.496734  0.486547  0.006054  1
  Li  Li2  1  0.495020  0.010981  0.100622  1
  Li  Li3  1  0.506891  0.993131  0.202016  1
  Li  Li4  1  0.500429  0.997103  0.300530  1
  Li  Li5  1  0.498509  0.988802  0.406246  1
  Li  Li6  1  0.989604  0.502190  0.499461  1
  Li  Li7  1  0.506821  0.002090  0.498151  1
  Li  Li8  1  0.015633  0.059352  0.677310  1
  Li  Li9  1  0.452002  0.038606  0.594205  1
  Li  Li10  1  0.016597  0.499514  0.695563  1
  Li  Li11  1  0.499006  0.017274  0.696662  1
  Li  Li12  1  0.519306  0.500274  0.595173  1
  Li  Li13  1  0.996875  0.032053  0.892249  1
  Li  Li14  1  0.440584  0.038340  0.798632  1
  Li  Li15  1  0.977121  0.491284  0.907332  1
  Li  Li16  1  0.498859  -0.000073  0.902061  1
  Li  Li17  1  0.921504  0.847580  0.571743  1
  Li  Li18  1  0.922906  0.814262  0.782235  1
  Li  Li19  1  0.913898  0.816464  0.984475  1
  Fe  Fe20  1  0.996926  0.490767  0.105785  1
  Fe  Fe21  1  0.483862  0.489680  0.103777  1
  Fe  Fe22  1  0.499992  0.498418  0.201235  1
  Fe  Fe23  1  0.499551  0.500550  0.299299  1
  Fe  Fe24  1  0.512425  0.493926  0.399265  1
  Fe  Fe25  1  0.001101  0.499007  0.299846  1
  Fe  Fe26  1  0.507973  0.499184  0.493799  1
  Fe  Fe27  1  0.504072  0.495486  0.699446  1
  Fe  Fe28  1  0.507127  0.495492  0.804047  1
  Fe  Fe29  1  0.498631  0.496632  0.895887  1
  Cl  Cl30  1  0.242751  0.270819  0.053037  1
  Cl  Cl31  1  0.249208  0.256349  0.149786  1
  Cl  Cl32  1  0.241905  0.735211  0.055073  1
  Cl  Cl33  1  0.714997  0.270403  0.055192  1
  Cl  Cl34  1  0.282490  0.724707  0.150030  1
  Cl  Cl35  1  0.259642  0.267160  0.248710  1
  Cl  Cl36  1  0.742096  0.261249  0.150401  1
  Cl  Cl37  1  0.256363  0.273143  0.343587  1
  Cl  Cl38  1  0.255121  0.740795  0.250548  1
  Cl  Cl39  1  0.734425  0.733174  0.059236  1
  Cl  Cl40  1  0.739482  0.732954  0.152732  1
  Cl  Cl41  1  0.718970  0.270732  0.250743  1
  Cl  Cl42  1  0.290603  0.726314  0.347796  1
  Cl  Cl43  1  0.282540  0.263660  0.444832  1
  Cl  Cl44  1  0.751905  0.263583  0.346330  1
  Cl  Cl45  1  0.745273  0.732595  0.253678  1
  Cl  Cl46  1  0.260125  0.279301  0.542041  1
  Cl  Cl47  1  0.272522  0.743624  0.446294  1
  Cl  Cl48  1  0.747291  0.731634  0.349474  1
  Cl  Cl49  1  0.737851  0.261142  0.447887  1
  Cl  Cl50  1  0.293233  0.730538  0.545811  1
  Cl  Cl51  1  0.257214  0.240339  0.651111  1
  Cl  Cl52  1  0.737016  0.247111  0.549400  1
  Cl  Cl53  1  0.736239  0.729470  0.453391  1
  Cl  Cl54  1  0.253692  0.743680  0.653272  1
  Cl  Cl55  1  0.260403  0.274670  0.745103  1
  Cl  Cl56  1  0.727351  0.757886  0.551918  1
  Cl  Cl57  1  0.721931  0.260992  0.651798  1
  Cl  Cl58  1  0.297033  0.727453  0.749832  1
  Cl  Cl59  1  0.263314  0.257789  0.849168  1
  Cl  Cl60  1  0.263998  0.269051  0.944463  1
  Cl  Cl61  1  0.746329  0.237047  0.751857  1
  Cl  Cl62  1  0.252467  0.751957  0.849767  1
  Cl  Cl63  1  0.740209  0.728128  0.655679  1
  Cl  Cl64  1  0.741706  0.253545  0.849628  1
  Cl  Cl65  1  0.733539  0.750727  0.754428  1
  Cl  Cl66  1  0.283277  0.742704  0.945256  1
  Cl  Cl67  1  0.753562  0.242642  0.948204  1
  Cl  Cl68  1  0.730492  0.732363  0.856877  1
  Cl  Cl69  1  0.754777  0.767741  0.948320  1
