# generated using pymatgen
data_Sr4Nb2O9
_symmetry_space_group_name_H-M   'P 1'
_cell_length_a   12.03567414
_cell_length_b   18.46456456
_cell_length_c   10.76147536
_cell_angle_alpha   29.04643073
_cell_angle_beta   54.20698606
_cell_angle_gamma   59.24960114
_symmetry_Int_Tables_number   1
_chemical_formula_structural   Sr4Nb2O9
_chemical_formula_sum   'Sr16 Nb8 O36'
_cell_volume   941.84634969
_cell_formula_units_Z   4
loop_
 _symmetry_equiv_pos_site_id
 _symmetry_equiv_pos_as_xyz
  1  'x, y, z'
loop_
 _atom_site_type_symbol
 _atom_site_label
 _atom_site_symmetry_multiplicity
 _atom_site_fract_x
 _atom_site_fract_y
 _atom_site_fract_z
 _atom_site_occupancy
  Sr  Sr0  1  0.136630  0.031227  0.172289  1
  Sr  Sr1  1  0.250000  0.995444  0.506834  1
  Sr  Sr2  1  0.135572  0.324240  0.298786  1
  Sr  Sr3  1  0.636630  0.968773  0.265972  1
  Sr  Sr4  1  0.363370  0.031227  0.734028  1
  Sr  Sr5  1  0.121288  0.668321  0.249332  1
  Sr  Sr6  1  0.750000  0.004556  0.493166  1
  Sr  Sr7  1  0.364428  0.324240  0.728493  1
  Sr  Sr8  1  0.621287  0.331679  0.254293  1
  Sr  Sr9  1  0.250000  0.652730  0.520905  1
  Sr  Sr10  1  0.863370  0.968773  0.827711  1
  Sr  Sr11  1  0.750000  0.347270  0.479095  1
  Sr  Sr12  1  0.635572  0.675760  0.271507  1
  Sr  Sr13  1  0.378713  0.668321  0.745707  1
  Sr  Sr14  1  0.878713  0.331679  0.750668  1
  Sr  Sr15  1  0.864428  0.675760  0.701214  1
  Nb  Nb16  1  0.000000  0.000000  0.000000  1
  Nb  Nb17  1  0.500000  0.000000  0.000000  1
  Nb  Nb18  1  0.495901  0.329803  0.009454  1
  Nb  Nb19  1  0.250000  0.347236  0.479146  1
  Nb  Nb20  1  0.504099  0.670197  0.990546  1
  Nb  Nb21  1  0.004099  0.329803  0.001135  1
  Nb  Nb22  1  0.995901  0.670197  0.998865  1
  Nb  Nb23  1  0.750000  0.652764  0.520854  1
  O  O24  1  0.132186  0.182294  0.186301  1
  O  O25  1  0.375933  0.996984  0.230965  1
  O  O26  1  0.122146  0.487454  0.282852  1
  O  O27  1  0.127359  0.165880  0.751634  1
  O  O28  1  0.367814  0.182294  0.266817  1
  O  O29  1  0.357456  0.327472  0.284221  1
  O  O30  1  0.142544  0.327472  0.733360  1
  O  O31  1  0.600736  0.209243  0.236305  1
  O  O32  1  0.119403  0.504737  0.688106  1
  O  O33  1  0.111842  0.848074  0.239945  1
  O  O34  1  0.372641  0.165880  0.750727  1
  O  O35  1  0.377854  0.487454  0.254787  1
  O  O36  1  0.389261  0.651620  0.236022  1
  O  O37  1  0.875933  0.003016  0.221918  1
  O  O38  1  0.110739  0.651620  0.809120  1
  O  O39  1  0.619403  0.495263  0.202318  1
  O  O40  1  0.611842  0.151926  0.784168  1
  O  O41  1  0.100736  0.790757  0.864035  1
  O  O42  1  0.388158  0.848074  0.215832  1
  O  O43  1  0.899264  0.209243  0.135965  1
  O  O44  1  0.380597  0.504737  0.797682  1
  O  O45  1  0.889261  0.348380  0.190880  1
  O  O46  1  0.610739  0.348380  0.763978  1
  O  O47  1  0.124067  0.996984  0.778082  1
  O  O48  1  0.622146  0.512546  0.745213  1
  O  O49  1  0.627359  0.834120  0.249273  1
  O  O50  1  0.399264  0.790757  0.763695  1
  O  O51  1  0.888158  0.151926  0.760055  1
  O  O52  1  0.880597  0.495263  0.311894  1
  O  O53  1  0.857456  0.672528  0.266640  1
  O  O54  1  0.642544  0.672528  0.715779  1
  O  O55  1  0.632186  0.817706  0.733183  1
  O  O56  1  0.877854  0.512546  0.717148  1
  O  O57  1  0.872641  0.834120  0.248366  1
  O  O58  1  0.624067  0.003016  0.769035  1
  O  O59  1  0.867814  0.817706  0.813699  1
