# generated using pymatgen
data_ErPaO4
_symmetry_space_group_name_H-M   'P 1'
_cell_length_a   6.68664502
_cell_length_b   8.96702329
_cell_length_c   5.97463685
_cell_angle_alpha   28.96337276
_cell_angle_beta   55.97283235
_cell_angle_gamma   41.78135388
_symmetry_Int_Tables_number   1
_chemical_formula_structural   ErPaO4
_chemical_formula_sum   'Er2 Pa2 O8'
_cell_volume   110.69635662
_cell_formula_units_Z   2
loop_
 _symmetry_equiv_pos_site_id
 _symmetry_equiv_pos_as_xyz
  1  'x, y, z'
loop_
 _atom_site_type_symbol
 _atom_site_label
 _atom_site_symmetry_multiplicity
 _atom_site_fract_x
 _atom_site_fract_y
 _atom_site_fract_z
 _atom_site_occupancy
  Er  Er0  1  0.500000  0.000000  0.000000  1
  Er  Er1  1  0.250000  0.500000  0.000000  1
  Pa  Pa2  1  0.000000  0.000000  0.000000  1
  Pa  Pa3  1  0.750000  0.500000  0.000000  1
  O  O4  1  0.375000  0.494993  0.255007  1
  O  O5  1  0.130007  0.494993  0.755007  1
  O  O6  1  0.130007  -0.005007  0.255007  1
  O  O7  1  0.875000  0.505007  0.244993  1
  O  O8  1  0.619993  0.505007  0.744993  1
  O  O9  1  0.619993  0.005007  0.244993  1
  O  O10  1  0.375000  0.005007  0.744993  1
  O  O11  1  0.875000  -0.005007  0.755007  1
