# generated using pymatgen
data_K3Cr(CN)6
_symmetry_space_group_name_H-M   'P 1'
_cell_length_a   8.54396347
_cell_length_b   10.61866043
_cell_length_c   13.71518248
_cell_angle_alpha   90.00000000
_cell_angle_beta   90.00000000
_cell_angle_gamma   90.00000000
_symmetry_Int_Tables_number   1
_chemical_formula_structural   K3Cr(CN)6
_chemical_formula_sum   'K12 Cr4 C24 N24'
_cell_volume   1244.31605864
_cell_formula_units_Z   4
loop_
 _symmetry_equiv_pos_site_id
 _symmetry_equiv_pos_as_xyz
  1  'x, y, z'
loop_
 _atom_site_type_symbol
 _atom_site_label
 _atom_site_symmetry_multiplicity
 _atom_site_fract_x
 _atom_site_fract_y
 _atom_site_fract_z
 _atom_site_occupancy
  K  K0  1  0.873798  0.267150  0.497936  1
  K  K1  1  0.370303  0.000000  0.750000  1
  K  K2  1  0.870303  0.500000  0.750000  1
  K  K3  1  0.129697  0.500000  0.250000  1
  K  K4  1  0.626202  0.767150  0.502064  1
  K  K5  1  0.629697  0.000000  0.250000  1
  K  K6  1  0.126202  0.267150  0.997936  1
  K  K7  1  0.626202  0.232850  0.997936  1
  K  K8  1  0.373798  0.767150  0.002064  1
  K  K9  1  0.873798  0.732850  0.002064  1
  K  K10  1  0.126202  0.732850  0.502064  1
  K  K11  1  0.373798  0.232850  0.497936  1
  Cr  Cr12  1  0.875391  0.000000  0.750000  1
  Cr  Cr13  1  0.624609  0.500000  0.250000  1
  Cr  Cr14  1  0.375391  0.500000  0.750000  1
  Cr  Cr15  1  0.124609  0.000000  0.250000  1
  C  C16  1  0.955593  0.944125  0.347940  1
  C  C17  1  0.203434  0.556226  0.845556  1
  C  C18  1  0.796566  0.443774  0.154444  1
  C  C19  1  0.544407  0.444125  0.652060  1
  C  C20  1  0.455593  0.444125  0.152060  1
  C  C21  1  0.624773  0.675449  0.186018  1
  C  C22  1  0.875227  0.824551  0.686018  1
  C  C23  1  0.044407  0.944125  0.847940  1
  C  C24  1  0.375227  0.324551  0.813982  1
  C  C25  1  0.044407  0.055875  0.652060  1
  C  C26  1  0.124773  0.824551  0.186018  1
  C  C27  1  0.296566  0.056226  0.154444  1
  C  C28  1  0.624773  0.324551  0.313982  1
  C  C29  1  0.124773  0.175449  0.313982  1
  C  C30  1  0.703434  0.943774  0.845556  1
  C  C31  1  0.955593  0.055875  0.152060  1
  C  C32  1  0.875227  0.175449  0.813982  1
  C  C33  1  0.296566  0.943774  0.345556  1
  C  C34  1  0.455593  0.555875  0.347940  1
  C  C35  1  0.203434  0.443774  0.654444  1
  C  C36  1  0.375227  0.675449  0.686018  1
  C  C37  1  0.796566  0.556226  0.345556  1
  C  C38  1  0.703434  0.056226  0.654444  1
  C  C39  1  0.544407  0.555875  0.847940  1
  N  N40  1  0.100815  0.585857  0.898052  1
  N  N41  1  0.600815  0.085857  0.601948  1
  N  N42  1  0.140708  0.090165  0.596420  1
  N  N43  1  0.359292  0.590165  0.403580  1
  N  N44  1  0.600815  0.914143  0.898052  1
  N  N45  1  0.640708  0.409835  0.596420  1
  N  N46  1  0.399185  0.085857  0.101948  1
  N  N47  1  0.140708  0.909835  0.903580  1
  N  N48  1  0.874606  0.726072  0.646934  1
  N  N49  1  0.399185  0.914143  0.398052  1
  N  N50  1  0.100815  0.414143  0.601948  1
  N  N51  1  0.359292  0.409835  0.096420  1
  N  N52  1  0.859292  0.090165  0.096420  1
  N  N53  1  0.125394  0.726072  0.146934  1
  N  N54  1  0.374606  0.773928  0.646934  1
  N  N55  1  0.374606  0.226072  0.853066  1
  N  N56  1  0.899185  0.585857  0.398052  1
  N  N57  1  0.859292  0.909835  0.403580  1
  N  N58  1  0.640708  0.590165  0.903580  1
  N  N59  1  0.899185  0.414143  0.101948  1
  N  N60  1  0.625394  0.773928  0.146934  1
  N  N61  1  0.125394  0.273928  0.353066  1
  N  N62  1  0.874606  0.273928  0.853066  1
  N  N63  1  0.625394  0.226072  0.353066  1
