# generated using pymatgen
data_AlPO4
_symmetry_space_group_name_H-M   'P 1'
_cell_length_a   18.87555347
_cell_length_b   19.08231053
_cell_length_c   9.07327371
_cell_angle_alpha   86.23000659
_cell_angle_beta   90.12506349
_cell_angle_gamma   119.58647827
_symmetry_Int_Tables_number   1
_chemical_formula_structural   AlPO4
_chemical_formula_sum   'Al18 P18 O72'
_cell_volume   2834.09570651
_cell_formula_units_Z   18
loop_
 _symmetry_equiv_pos_site_id
 _symmetry_equiv_pos_as_xyz
  1  'x, y, z'
loop_
 _atom_site_type_symbol
 _atom_site_label
 _atom_site_symmetry_multiplicity
 _atom_site_fract_x
 _atom_site_fract_y
 _atom_site_fract_z
 _atom_site_occupancy
  Al  Al0  1  0.175456  0.508284  0.418118  1
  Al  Al1  1  0.333756  0.508124  0.911780  1
  Al  Al2  1  0.580887  0.584290  0.563055  1
  Al  Al3  1  0.503995  0.343058  0.593702  1
  Al  Al4  1  0.671784  0.499816  0.065991  1
  Al  Al5  1  0.673148  0.510320  0.436214  1
  Al  Al6  1  0.408978  0.010182  0.939261  1
  Al  Al7  1  0.408162  0.001558  0.580034  1
  Al  Al8  1  0.502751  0.181336  0.077801  1
  Al  Al9  1  0.494711  0.177939  0.456246  1
  Al  Al10  1  0.663602  0.155789  0.553430  1
  Al  Al11  1  0.664466  0.167564  0.937485  1
  Al  Al12  1  0.561771  0.974532  0.062933  1
  Al  Al13  1  0.569730  0.978681  0.427560  1
  Al  Al14  1  0.840695  0.503118  0.561419  1
  Al  Al15  1  0.839965  0.505186  0.931964  1
  Al  Al16  1  0.831069  0.327295  0.056666  1
  Al  Al17  1  0.828439  0.332106  0.430274  1
  P  P18  1  0.164642  0.654352  0.901053  1
  P  P19  1  0.172129  0.655702  0.575644  1
  P  P20  1  0.177199  0.508881  0.061523  1
  P  P21  1  0.357900  0.868442  0.066022  1
  P  P22  1  0.379125  0.872263  0.469571  1
  P  P23  1  0.496326  0.811348  0.935488  1
  P  P24  1  0.486434  0.818003  0.604706  1
  P  P25  1  0.332120  0.505503  0.556977  1
  P  P26  1  0.494526  0.684054  0.470958  1
  P  P27  1  0.496159  0.661212  0.001383  1
  P  P28  1  0.424153  0.430345  0.082052  1
  P  P29  1  0.426768  0.435443  0.429953  1
  P  P30  1  0.575687  0.572470  0.915000  1
  P  P31  1  0.503711  0.345398  0.946606  1
  P  P32  1  0.007678  0.578326  0.092467  1
  P  P33  1  0.016428  0.584088  0.418116  1
  P  P34  1  0.004744  0.414787  0.521025  1
  P  P35  1  0.999069  0.432728  0.965081  1
  O  O36  1  0.007983  0.498343  0.117052  1
  O  O37  1  0.021149  0.506251  0.429439  1
  O  O38  1  0.094039  0.652145  0.491724  1
  O  O39  1  0.083253  0.639685  0.984636  1
  O  O40  1  0.001233  0.422161  0.681101  1
  O  O41  1  0.131216  0.621021  0.743209  1
  O  O42  1  0.084517  0.419987  0.461340  1
  O  O43  1  0.094258  0.435520  0.035853  1
  O  O44  1  0.231109  0.736562  0.906773  1
  O  O45  1  0.240164  0.737409  0.569918  1
  O  O46  1  0.315910  0.917173  0.010756  1
  O  O47  1  0.325998  0.898271  0.550676  1
  O  O48  1  0.184729  0.587304  0.972154  1
  O  O49  1  0.184788  0.589057  0.516300  1
  O  O50  1  0.191850  0.529154  0.222901  1
  O  O51  1  0.360111  0.839340  0.322235  1
  O  O52  1  0.409968  0.766422  0.984979  1
  O  O53  1  0.401346  0.811082  0.576178  1
  O  O54  1  0.254621  0.493195  0.488897  1
  O  O55  1  0.245657  0.497752  0.995952  1
  O  O56  1  0.509598  0.846568  0.763503  1
  O  O57  1  0.322535  0.484295  0.724317  1
  O  O58  1  0.420970  0.603979  0.913909  1
  O  O59  1  0.403456  0.590525  0.518394  1
  O  O60  1  0.559872  0.884423  0.007799  1
  O  O61  1  0.553160  0.877344  0.497814  1
  O  O62  1  0.533182  0.750947  0.928216  1
  O  O63  1  0.474927  0.731035  0.612021  1
  O  O64  1  0.347951  0.439457  0.482828  1
  O  O65  1  0.352984  0.435005  0.014408  1
  O  O66  1  0.485887  0.649160  0.162893  1
  O  O67  1  0.412313  0.425048  0.254424  1
  O  O68  1  0.572151  0.651381  0.939697  1
  O  O69  1  0.558602  0.665590  0.542530  1
  O  O70  1  0.504467  0.509523  0.035925  1
  O  O71  1  0.499294  0.516590  0.448329  1
  O  O72  1  0.422006  0.360688  0.502623  1
  O  O73  1  0.430368  0.356732  0.039796  1
  O  O74  1  0.549492  0.548268  0.759549  1
  O  O75  1  0.479591  0.346249  0.786610  1
  O  O76  1  0.653854  0.579875  0.966523  1
  O  O77  1  0.669362  0.594090  0.501779  1
  O  O78  1  0.489046  0.265519  0.011064  1
  O  O79  1  0.488106  0.252420  0.544350  1
  O  O80  1  0.407062  0.082124  0.487261  1
  O  O81  1  0.424186  0.094774  0.015225  1
  O  O82  1  0.582789  0.417805  0.981095  1
  O  O83  1  0.592211  0.428922  0.541092  1
  O  O84  1  0.651488  0.497580  0.249564  1
  O  O85  1  0.430583  0.010250  0.759446  1
  O  O86  1  0.505717  0.190126  0.265354  1
  O  O87  1  0.463932  0.957161  0.474288  1
  O  O88  1  0.451831  0.945938  0.036604  1
  O  O89  1  0.592367  0.192457  0.000581  1
  O  O90  1  0.583260  0.174282  0.507064  1
  O  O91  1  0.761059  0.513540  0.999801  1
  O  O92  1  0.769272  0.522365  0.477685  1
  O  O93  1  0.664473  0.168471  0.743346  1
  O  O94  1  0.576116  0.974896  0.244987  1
  O  O95  1  0.858612  0.526505  0.743187  1
  O  O96  1  0.847602  0.419370  0.975567  1
  O  O97  1  0.833559  0.415151  0.506927  1
  O  O98  1  0.635816  0.057380  0.521673  1
  O  O99  1  0.627560  0.063927  0.966833  1
  O  O100  1  0.760704  0.237179  0.990450  1
  O  O101  1  0.760217  0.233900  0.496602  1
  O  O102  1  0.941587  0.582649  0.471588  1
  O  O103  1  0.933774  0.579447  0.037800  1
  O  O104  1  0.811363  0.330330  0.241780  1
  O  O105  1  0.035899  0.618548  0.247032  1
  O  O106  1  0.938799  0.348798  0.033912  1
  O  O107  1  0.932919  0.351060  0.444323  1
