# generated using pymatgen
data_H2SO4
_symmetry_space_group_name_H-M   'P 1'
_cell_length_a   4.92124999
_cell_length_b   4.92124999
_cell_length_c   8.97267638
_cell_angle_alpha   71.05740937
_cell_angle_beta   108.94259063
_cell_angle_gamma   122.08502905
_symmetry_Int_Tables_number   1
_chemical_formula_structural   H2SO4
_chemical_formula_sum   'H4 S2 O8'
_cell_volume   170.97526473
_cell_formula_units_Z   2
loop_
 _symmetry_equiv_pos_site_id
 _symmetry_equiv_pos_as_xyz
  1  'x, y, z'
loop_
 _atom_site_type_symbol
 _atom_site_label
 _atom_site_symmetry_multiplicity
 _atom_site_fract_x
 _atom_site_fract_y
 _atom_site_fract_z
 _atom_site_occupancy
  H  H0  1  0.638178  0.529753  0.611341  1
  H  H1  1  0.470247  0.361822  0.111341  1
  H  H2  1  0.246106  0.737724  0.816850  1
  H  H3  1  0.262276  0.753894  0.316850  1
  S  S4  1  0.891407  0.916227  0.746069  1
  S  S5  1  0.083773  0.108593  0.246069  1
  O  O6  1  0.665828  0.700999  0.853644  1
  O  O7  1  0.773449  0.769181  0.589873  1
  O  O8  1  0.230819  0.226551  0.089873  1
  O  O9  1  0.299001  0.334172  0.353644  1
  O  O10  1  0.234411  0.929354  0.821527  1
  O  O11  1  0.961661  0.251067  0.690932  1
  O  O12  1  0.748933  0.038339  0.190932  1
  O  O13  1  0.070646  0.765589  0.321527  1
