# generated using pymatgen
data_Ga11NO15
_symmetry_space_group_name_H-M   'P 1'
_cell_length_a   5.96112255
_cell_length_b   11.67073352
_cell_length_c   10.23373717
_cell_angle_alpha   30.18918590
_cell_angle_beta   54.23103872
_cell_angle_gamma   59.29833886
_symmetry_Int_Tables_number   1
_chemical_formula_structural   Ga11NO15
_chemical_formula_sum   'Ga11 N1 O15'
_cell_volume   290.46404492
_cell_formula_units_Z   1
loop_
 _symmetry_equiv_pos_site_id
 _symmetry_equiv_pos_as_xyz
  1  'x, y, z'
loop_
 _atom_site_type_symbol
 _atom_site_label
 _atom_site_symmetry_multiplicity
 _atom_site_fract_x
 _atom_site_fract_y
 _atom_site_fract_z
 _atom_site_occupancy
  Ga  Ga0  1  0.126807  0.005415  0.123504  1
  Ga  Ga1  1  0.981213  0.017688  0.495677  1
  Ga  Ga2  1  0.116055  0.519452  0.116090  1
  Ga  Ga3  1  0.506749  0.256023  0.994507  1
  Ga  Ga4  1  0.492376  0.018287  0.496321  1
  Ga  Ga5  1  0.011463  0.481864  0.514440  1
  Ga  Ga6  1  0.498975  0.748693  0.001579  1
  Ga  Ga7  1  0.510403  0.482188  0.504140  1
  Ga  Ga8  1  0.880492  0.981570  0.884238  1
  Ga  Ga9  1  0.507846  0.744093  0.506093  1
  Ga  Ga10  1  0.872227  0.494797  0.869863  1
  N  N11  1  0.740626  0.499831  0.735176  1
  O  O12  1  0.266064  0.001203  0.259082  1
  O  O13  1  0.250720  0.242589  0.257264  1
  O  O14  1  0.726537  0.000109  0.259252  1
  O  O15  1  0.263876  0.981559  0.760311  1
  O  O16  1  0.240818  0.517635  0.247094  1
  O  O17  1  0.765226  0.230063  0.256334  1
  O  O18  1  0.259694  0.737357  0.257038  1
  O  O19  1  0.247536  0.263908  0.744083  1
  O  O20  1  0.734569  0.517050  0.240698  1
  O  O21  1  0.271156  0.499689  0.740829  1
  O  O22  1  0.750825  0.982286  0.757670  1
  O  O23  1  0.731737  0.733299  0.275446  1
  O  O24  1  0.744417  0.253125  0.746728  1
  O  O25  1  0.257071  0.774311  0.717430  1
  O  O26  1  0.744522  0.765919  0.739110  1
