# generated using pymatgen
data_H9BrO4
_symmetry_space_group_name_H-M   'P 1'
_cell_length_a   7.15854362
_cell_length_b   11.55256799
_cell_length_c   7.70525441
_cell_angle_alpha   90.16995493
_cell_angle_beta   110.54289145
_cell_angle_gamma   89.73991829
_symmetry_Int_Tables_number   1
_chemical_formula_structural   H9BrO4
_chemical_formula_sum   'H36 Br4 O16'
_cell_volume   596.69333024
_cell_formula_units_Z   4
loop_
 _symmetry_equiv_pos_site_id
 _symmetry_equiv_pos_as_xyz
  1  'x, y, z'
loop_
 _atom_site_type_symbol
 _atom_site_label
 _atom_site_symmetry_multiplicity
 _atom_site_fract_x
 _atom_site_fract_y
 _atom_site_fract_z
 _atom_site_occupancy
  H  H0  1  0.266041  0.326315  0.952890  1
  H  H1  1  0.313800  0.195538  0.002126  1
  H  H2  1  0.711716  0.831536  0.036868  1
  H  H3  1  0.670300  0.699202  0.988345  1
  H  H4  1  0.929901  0.173199  0.131835  1
  H  H5  1  0.043749  0.260567  0.045185  1
  H  H6  1  0.069628  0.672802  0.867000  1
  H  H7  1  0.960486  0.761334  0.957969  1
  H  H8  1  0.554686  0.167584  0.784683  1
  H  H9  1  0.778193  0.251141  0.936343  1
  H  H10  1  0.636767  0.256777  0.669877  1
  H  H11  1  0.447807  0.667162  0.215630  1
  H  H12  1  0.362743  0.756470  0.329492  1
  H  H13  1  0.222731  0.750395  0.061552  1
  H  H14  1  0.812352  0.237076  0.498079  1
  H  H15  1  0.643308  0.316703  0.365302  1
  H  H16  1  0.189917  0.736570  0.502300  1
  H  H17  1  0.353983  0.820005  0.629710  1
  H  H18  1  0.128745  0.280728  0.534270  1
  H  H19  1  0.137127  0.158901  0.624202  1
  H  H20  1  0.874315  0.783535  0.461281  1
  H  H21  1  0.865373  0.664840  0.357808  1
  H  H22  1  0.355779  0.351728  0.386361  1
  H  H23  1  0.357832  0.445831  0.546743  1
  H  H24  1  0.646708  0.851555  0.608792  1
  H  H25  1  0.638479  0.951712  0.451548  1
  H  H26  1  0.622011  0.522739  0.713370  1
  H  H27  1  0.437648  0.611382  0.647583  1
  H  H28  1  0.377696  0.023716  0.288385  1
  H  H29  1  0.563048  0.112400  0.350764  1
  H  H30  1  0.029485  0.502715  0.070973  1
  H  H31  1  0.897557  0.506172  0.205820  1
  H  H32  1  0.143789  0.456407  0.308518  1
  H  H33  1  0.968396  0.003514  0.928898  1
  H  H34  1  0.100145  0.005387  0.796238  1
  H  H35  1  0.849328  0.954681  0.686321  1
  Br  Br36  1  0.970574  0.497942  0.789790  1
  Br  Br37  1  0.032666  0.999898  0.218845  1
  Br  Br38  1  0.606812  0.507540  0.204809  1
  Br  Br39  1  0.397103  0.006927  0.798985  1
  O  O40  1  0.268744  0.267265  0.044446  1
  O  O41  1  0.735584  0.768191  0.962852  1
  O  O42  1  0.913404  0.251733  0.070166  1
  O  O43  1  0.087737  0.751593  0.928947  1
  O  O44  1  0.616065  0.245783  0.790236  1
  O  O45  1  0.384915  0.745385  0.209359  1
  O  O46  1  0.662593  0.248807  0.447444  1
  O  O47  1  0.339282  0.751183  0.549650  1
  O  O48  1  0.056984  0.229957  0.591839  1
  O  O49  1  0.956606  0.721088  0.439070  1
  O  O50  1  0.267512  0.389791  0.441362  1
  O  O51  1  0.732735  0.893908  0.556738  1
  O  O52  1  0.476305  0.530121  0.685693  1
  O  O53  1  0.523412  0.030691  0.315544  1
  O  O54  1  0.038861  0.517110  0.205737  1
  O  O55  1  0.959464  0.016591  0.795622  1
