# generated using pymatgen
data_Li2MnCl4
_symmetry_space_group_name_H-M   'P 1'
_cell_length_a   7.47650447
_cell_length_b   7.47650480
_cell_length_c   7.52155882
_cell_angle_alpha   59.80045917
_cell_angle_beta   59.80046240
_cell_angle_gamma   60.86910349
_symmetry_Int_Tables_number   1
_chemical_formula_structural   Li2MnCl4
_chemical_formula_sum   'Li4 Mn2 Cl8'
_cell_volume   298.28233838
_cell_formula_units_Z   2
loop_
 _symmetry_equiv_pos_site_id
 _symmetry_equiv_pos_as_xyz
  1  'x, y, z'
loop_
 _atom_site_type_symbol
 _atom_site_label
 _atom_site_symmetry_multiplicity
 _atom_site_fract_x
 _atom_site_fract_y
 _atom_site_fract_z
 _atom_site_occupancy
  Cl  Cl0  1  0.255113  0.255113  0.258295  1
  Cl  Cl1  1  0.255113  0.255113  0.731479  1
  Cl  Cl2  1  0.253745  0.728014  0.259121  1
  Cl  Cl3  1  0.728014  0.253745  0.259121  1
  Cl  Cl4  1  0.271986  0.746255  0.740879  1
  Cl  Cl5  1  0.746255  0.271986  0.740879  1
  Cl  Cl6  1  0.744887  0.744887  0.268521  1
  Cl  Cl7  1  0.744887  0.744887  0.741705  1
  Li  Li8  1  0.118527  0.118527  0.131473  1
  Li  Li9  1  0.500000  0.500000  0.000000  1
  Li  Li10  1  0.500000  0.500000  0.500000  1
  Li  Li11  1  0.881473  0.881473  0.868527  1
  Mn  Mn12  1  0.500000  0.000000  0.500000  1
  Mn  Mn13  1  0.000000  0.500000  0.500000  1
