# generated using pymatgen
data_Ca(H8O5)2
_symmetry_space_group_name_H-M   'P 1'
_cell_length_a   6.23039638
_cell_length_b   6.23039638
_cell_length_c   10.89226369
_cell_angle_alpha   89.91215363
_cell_angle_beta   89.91215363
_cell_angle_gamma   89.66749191
_symmetry_Int_Tables_number   1
_chemical_formula_structural   Ca(H8O5)2
_chemical_formula_sum   'Ca2 H32 O20'
_cell_volume   422.80603111
_cell_formula_units_Z   2
loop_
 _symmetry_equiv_pos_site_id
 _symmetry_equiv_pos_as_xyz
  1  'x, y, z'
loop_
 _atom_site_type_symbol
 _atom_site_label
 _atom_site_symmetry_multiplicity
 _atom_site_fract_x
 _atom_site_fract_y
 _atom_site_fract_z
 _atom_site_occupancy
  Ca  Ca0  1  0.996102  0.004269  0.248351  1
  Ca  Ca1  1  0.004269  0.996102  0.748351  1
  H  H2  1  0.263084  0.378422  0.342483  1
  H  H3  1  0.133174  0.302696  0.459508  1
  H  H4  1  0.964751  0.558334  0.368521  1
  H  H5  1  0.719618  0.618423  0.354541  1
  H  H6  1  0.553821  0.034303  0.367972  1
  H  H7  1  0.619468  0.277068  0.353139  1
  H  H8  1  0.376963  0.733203  0.343244  1
  H  H9  1  0.301986  0.866140  0.459894  1
  H  H10  1  0.733203  0.376963  0.843244  1
  H  H11  1  0.866140  0.301986  0.959894  1
  H  H12  1  0.277068  0.619468  0.853139  1
  H  H13  1  0.034303  0.553821  0.867972  1
  H  H14  1  0.378422  0.263084  0.842483  1
  H  H15  1  0.302696  0.133174  0.959508  1
  H  H16  1  0.618423  0.719618  0.854541  1
  H  H17  1  0.558334  0.964751  0.868521  1
  H  H18  1  0.735448  0.624567  0.656506  1
  H  H19  1  0.866472  0.697277  0.539595  1
  H  H20  1  0.034587  0.440919  0.631168  1
  H  H21  1  0.279281  0.382017  0.644473  1
  H  H22  1  0.445051  0.967828  0.630059  1
  H  H23  1  0.381412  0.723894  0.645109  1
  H  H24  1  0.616892  0.276997  0.646002  1
  H  H25  1  0.699436  0.131576  0.535754  1
  H  H26  1  0.276997  0.616892  0.146002  1
  H  H27  1  0.131576  0.699436  0.035754  1
  H  H28  1  0.967828  0.445051  0.130059  1
  H  H29  1  0.723894  0.381412  0.145109  1
  H  H30  1  0.624567  0.735448  0.156506  1
  H  H31  1  0.697277  0.866472  0.039595  1
  H  H32  1  0.382017  0.279281  0.144473  1
  H  H33  1  0.440919  0.034587  0.131168  1
  O  O34  1  0.495687  0.500587  0.316242  1
  O  O35  1  0.500587  0.495687  0.816242  1
  O  O36  1  0.500941  0.503546  0.679293  1
  O  O37  1  0.503546  0.500941  0.179293  1
  O  O38  1  0.118925  0.321469  0.368753  1
  O  O39  1  0.864442  0.683128  0.377589  1
  O  O40  1  0.681134  0.130219  0.375609  1
  O  O41  1  0.316252  0.877409  0.368381  1
  O  O42  1  0.877409  0.316252  0.868381  1
  O  O43  1  0.130219  0.681134  0.875609  1
  O  O44  1  0.321469  0.118925  0.868753  1
  O  O45  1  0.683128  0.864442  0.877589  1
  O  O46  1  0.880016  0.681217  0.630636  1
  O  O47  1  0.134725  0.316564  0.622119  1
  O  O48  1  0.319410  0.870476  0.621296  1
  O  O49  1  0.681063  0.130953  0.627008  1
  O  O50  1  0.130953  0.681063  0.127008  1
  O  O51  1  0.870476  0.319410  0.121296  1
  O  O52  1  0.681217  0.880016  0.130636  1
  O  O53  1  0.316564  0.134725  0.122119  1
