# generated using pymatgen
data_Nb12TlTe16
_symmetry_space_group_name_H-M   'P 1'
_cell_length_a   10.82985384
_cell_length_b   10.82985357
_cell_length_c   14.65194927
_cell_angle_alpha   90.00000000
_cell_angle_beta   90.00000000
_cell_angle_gamma   120.00000089
_symmetry_Int_Tables_number   1
_chemical_formula_structural   Nb12TlTe16
_chemical_formula_sum   'Nb24 Tl2 Te32'
_cell_volume   1488.23397222
_cell_formula_units_Z   2
loop_
 _symmetry_equiv_pos_site_id
 _symmetry_equiv_pos_as_xyz
  1  'x, y, z'
loop_
 _atom_site_type_symbol
 _atom_site_label
 _atom_site_symmetry_multiplicity
 _atom_site_fract_x
 _atom_site_fract_y
 _atom_site_fract_z
 _atom_site_occupancy
  Nb  Nb0  1  0.101406  0.491099  0.063255  1
  Nb  Nb1  1  0.101741  0.490547  0.312500  1
  Nb  Nb2  1  0.101406  0.491099  0.561745  1
  Nb  Nb3  1  0.101404  0.492446  0.812500  1
  Nb  Nb4  1  0.389692  0.898594  0.063255  1
  Nb  Nb5  1  0.388807  0.898259  0.312500  1
  Nb  Nb6  1  0.391042  0.898596  0.812500  1
  Nb  Nb7  1  0.389692  0.898594  0.561745  1
  Nb  Nb8  1  0.508901  0.610308  0.063255  1
  Nb  Nb9  1  0.509453  0.611193  0.312500  1
  Nb  Nb10  1  0.508901  0.610308  0.561745  1
  Nb  Nb11  1  0.507554  0.608958  0.812500  1
  Nb  Nb12  1  0.487113  0.385147  0.188055  1
  Nb  Nb13  1  0.487113  0.385147  0.436945  1
  Nb  Nb14  1  0.485525  0.384275  0.687542  1
  Nb  Nb15  1  0.485525  0.384275  0.937458  1
  Nb  Nb16  1  0.614853  0.101965  0.436945  1
  Nb  Nb17  1  0.614853  0.101965  0.188055  1
  Nb  Nb18  1  0.615725  0.101250  0.687542  1
  Nb  Nb19  1  0.615725  0.101250  0.937458  1
  Nb  Nb20  1  0.898035  0.512887  0.188055  1
  Nb  Nb21  1  0.898035  0.512887  0.436945  1
  Nb  Nb22  1  0.898750  0.514475  0.687542  1
  Nb  Nb23  1  0.898750  0.514475  0.937458  1
  Tl  Tl24  1  0.000000  0.000000  0.678744  1
  Tl  Tl25  1  0.000000  0.000000  0.946256  1
  Te  Te26  1  0.066225  0.730386  0.063627  1
  Te  Te27  1  0.066528  0.729299  0.312500  1
  Te  Te28  1  0.066225  0.730386  0.561373  1
  Te  Te29  1  0.066194  0.733079  0.812500  1
  Te  Te30  1  0.333333  0.666667  0.187229  1
  Te  Te31  1  0.333333  0.666667  0.437771  1
  Te  Te32  1  0.333333  0.666667  0.687791  1
  Te  Te33  1  0.333333  0.666667  0.937209  1
  Te  Te34  1  0.269614  0.335840  0.063627  1
  Te  Te35  1  0.270701  0.337229  0.312500  1
  Te  Te36  1  0.269614  0.335840  0.561373  1
  Te  Te37  1  0.266921  0.333115  0.812500  1
  Te  Te38  1  0.664160  0.933775  0.063627  1
  Te  Te39  1  0.662771  0.933472  0.312500  1
  Te  Te40  1  0.664160  0.933775  0.561373  1
  Te  Te41  1  0.666885  0.933806  0.812500  1
  Te  Te42  1  0.340769  0.066175  0.187858  1
  Te  Te43  1  0.340769  0.066175  0.437142  1
  Te  Te44  1  0.342345  0.065655  0.687458  1
  Te  Te45  1  0.342345  0.065655  0.937542  1
  Te  Te46  1  0.725406  0.659231  0.437142  1
  Te  Te47  1  0.725406  0.659231  0.187858  1
  Te  Te48  1  0.723311  0.657655  0.687458  1
  Te  Te49  1  0.723311  0.657655  0.937542  1
  Te  Te50  1  0.666667  0.333333  0.061845  1
  Te  Te51  1  0.666667  0.333333  0.312500  1
  Te  Te52  1  0.666667  0.333333  0.812500  1
  Te  Te53  1  0.666667  0.333333  0.563155  1
  Te  Te54  1  0.933825  0.274594  0.187858  1
  Te  Te55  1  0.934345  0.276689  0.687458  1
  Te  Te56  1  0.934345  0.276689  0.937542  1
  Te  Te57  1  0.933825  0.274594  0.437142  1
