# generated using pymatgen
data_Yb22Fe7S40
_symmetry_space_group_name_H-M   'P 1'
_cell_length_a   7.70573313
_cell_length_b   7.75410933
_cell_length_c   38.56996477
_cell_angle_alpha   59.82781641
_cell_angle_beta   59.67591740
_cell_angle_gamma   59.79210648
_symmetry_Int_Tables_number   1
_chemical_formula_structural   Yb22Fe7S40
_chemical_formula_sum   'Yb22 Fe7 S40'
_cell_volume   1620.90548255
_cell_formula_units_Z   1
loop_
 _symmetry_equiv_pos_site_id
 _symmetry_equiv_pos_as_xyz
  1  'x, y, z'
loop_
 _atom_site_type_symbol
 _atom_site_label
 _atom_site_symmetry_multiplicity
 _atom_site_fract_x
 _atom_site_fract_y
 _atom_site_fract_z
 _atom_site_occupancy
  Yb  Yb0  1  0.503041  0.502760  0.998288  1
  Yb  Yb1  1  0.500150  0.500158  0.100307  1
  Yb  Yb2  1  0.500461  0.500380  0.199756  1
  Yb  Yb3  1  0.499389  0.000608  0.300132  1
  Yb  Yb4  1  0.500150  0.998158  0.100307  1
  Yb  Yb5  1  0.998309  0.500006  0.100336  1
  Yb  Yb6  1  0.998674  0.502390  0.499309  1
  Yb  Yb7  1  0.499389  0.499344  0.300132  1
  Yb  Yb8  1  0.502428  0.998706  0.499300  1
  Yb  Yb9  1  0.500089  0.500018  0.399975  1
  Yb  Yb10  1  0.000600  0.499366  0.300134  1
  Yb  Yb11  1  0.992740  0.500845  0.701114  1
  Yb  Yb12  1  0.502428  0.502365  0.499300  1
  Yb  Yb13  1  0.500523  0.500919  0.599528  1
  Yb  Yb14  1  0.995453  0.999229  0.901218  1
  Yb  Yb15  1  0.998819  0.501709  0.899553  1
  Yb  Yb16  1  0.505009  0.001289  0.798483  1
  Yb  Yb17  1  0.502217  0.507679  0.698882  1
  Yb  Yb18  1  0.499708  0.498044  0.800841  1
  Yb  Yb19  1  0.502217  0.995695  0.698882  1
  Yb  Yb20  1  0.499277  0.998995  0.901232  1
  Yb  Yb21  1  0.499277  0.495566  0.901232  1
  Fe  Fe22  1  0.124097  0.122744  0.026083  1
  Fe  Fe23  1  0.125443  0.124331  0.225179  1
  Fe  Fe24  1  0.125180  0.124107  0.425321  1
  Fe  Fe25  1  0.126435  0.125959  0.624329  1
  Fe  Fe26  1  0.873887  0.874990  0.175227  1
  Fe  Fe27  1  0.874684  0.875681  0.374791  1
  Fe  Fe28  1  0.875583  0.876754  0.574182  1
  S  S29  1  0.239980  0.240052  0.047933  1
  S  S30  1  0.239980  0.780303  0.047933  1
  S  S31  1  0.243448  0.243245  0.154012  1
  S  S32  1  0.779923  0.240531  0.047803  1
  S  S33  1  0.226334  0.757834  0.151600  1
  S  S34  1  0.243553  0.243665  0.248603  1
  S  S35  1  0.758094  0.225569  0.151669  1
  S  S36  1  0.743651  0.743317  0.053943  1
  S  S37  1  0.243931  0.243829  0.353682  1
  S  S38  1  0.243553  0.769766  0.248603  1
  S  S39  1  0.758094  0.757990  0.151669  1
  S  S40  1  0.768973  0.243813  0.248680  1
  S  S41  1  0.231435  0.756364  0.351167  1
  S  S42  1  0.243800  0.243872  0.449000  1
  S  S43  1  0.757242  0.757353  0.245611  1
  S  S44  1  0.756682  0.230527  0.351245  1
  S  S45  1  0.243800  0.767326  0.449000  1
  S  S46  1  0.239223  0.239365  0.556409  1
  S  S47  1  0.766438  0.244058  0.449089  1
  S  S48  1  0.756682  0.756565  0.351245  1
  S  S49  1  0.233453  0.754188  0.551634  1
  S  S50  1  0.235254  0.236486  0.647541  1
  S  S51  1  0.755692  0.755870  0.446514  1
  S  S52  1  0.754386  0.233211  0.551618  1
  S  S53  1  0.235254  0.790554  0.647541  1
  S  S54  1  0.263251  0.257790  0.744234  1
  S  S55  1  0.754386  0.754311  0.551618  1
  S  S56  1  0.788840  0.235725  0.647942  1
  S  S57  1  0.258279  0.747359  0.749401  1
  S  S58  1  0.252812  0.246172  0.851056  1
  S  S59  1  0.762165  0.760013  0.643562  1
  S  S60  1  0.746094  0.259421  0.748548  1
  S  S61  1  0.235127  0.235252  0.958874  1
  S  S62  1  0.252812  0.745734  0.851056  1
  S  S63  1  0.746094  0.751743  0.748548  1
  S  S64  1  0.744065  0.250019  0.851179  1
  S  S65  1  0.254966  0.748999  0.949407  1
  S  S66  1  0.744017  0.748333  0.851863  1
  S  S67  1  0.748789  0.252120  0.950306  1
  S  S68  1  0.748789  0.747559  0.950306  1
