# generated using pymatgen
data_Re8Pb8O27
_symmetry_space_group_name_H-M   'P 1'
_cell_length_a   7.48603227
_cell_length_b   7.48599465
_cell_length_c   59.86864736
_cell_angle_alpha   59.98882570
_cell_angle_beta   59.98914704
_cell_angle_gamma   60.00004317
_symmetry_Int_Tables_number   1
_chemical_formula_structural   Re8Pb8O27
_chemical_formula_sum   'Re32 Pb32 O108'
_cell_volume   2371.99341833
_cell_formula_units_Z   4
loop_
 _symmetry_equiv_pos_site_id
 _symmetry_equiv_pos_as_xyz
  1  'x, y, z'
loop_
 _atom_site_type_symbol
 _atom_site_label
 _atom_site_symmetry_multiplicity
 _atom_site_fract_x
 _atom_site_fract_y
 _atom_site_fract_z
 _atom_site_occupancy
  Re  Re0  1  0.500628  0.500606  0.999765  1
  Re  Re1  1  0.500253  0.500224  0.062459  1
  Re  Re2  1  0.499723  0.499725  0.125101  1
  Re  Re3  1  0.499487  0.000098  0.187616  1
  Re  Re4  1  0.500224  0.999876  0.062459  1
  Re  Re5  1  0.999855  0.500215  0.062461  1
  Re  Re6  1  0.499475  0.499468  0.187618  1
  Re  Re7  1  0.500231  -0.000098  0.312456  1
  Re  Re8  1  0.500076  0.500032  0.249982  1
  Re  Re9  1  0.000102  0.499476  0.187619  1
  Re  Re10  1  0.500211  0.500229  0.312457  1
  Re  Re11  1  0.500000  0.500027  0.374994  1
  Re  Re12  1  -0.000094  0.500225  0.312455  1
  Re  Re13  1  0.498448  0.498433  0.437989  1
  Re  Re14  1  0.498452  0.999208  0.437989  1
  Re  Re15  1  0.499776  -0.000540  0.562622  1
  Re  Re16  1  0.499380  0.499369  0.500231  1
  Re  Re17  1  0.999191  0.498452  0.437990  1
  Re  Re18  1  0.499785  0.499778  0.562622  1
  Re  Re19  1  0.500058  0.500057  0.624981  1
  Re  Re20  1  -0.000544  0.499778  0.562622  1
  Re  Re21  1  0.500097  0.500107  0.687494  1
  Re  Re22  1  0.499887  -0.000055  0.812532  1
  Re  Re23  1  0.499836  0.499872  0.750052  1
  Re  Re24  1  0.500098  -0.000143  0.687491  1
  Re  Re25  1  -0.000140  0.500095  0.687493  1
  Re  Re26  1  0.499893  0.499913  0.812530  1
  Re  Re27  1  0.500382  0.500353  0.874861  1
  Re  Re28  1  0.501436  0.000848  0.937036  1
  Re  Re29  1  -0.000042  0.499897  0.812531  1
  Re  Re30  1  0.501410  0.501419  0.937041  1
  Re  Re31  1  0.000843  0.501427  0.937040  1
  Pb  Pb32  1  0.001097  0.001115  0.000305  1
  Pb  Pb33  1  0.001112  0.495363  0.000303  1
  Pb  Pb34  1  0.495335  0.001123  0.000305  1
  Pb  Pb35  1  0.001985  0.002015  0.125309  1
  Pb  Pb36  1  0.001566  0.001634  0.061899  1
  Pb  Pb37  1  0.493505  0.002024  0.125307  1
  Pb  Pb38  1  0.002169  0.002124  0.250231  1
  Pb  Pb39  1  0.493875  0.002139  0.250229  1
  Pb  Pb40  1  0.002315  0.002336  0.186625  1
  Pb  Pb41  1  0.002000  0.493515  0.125308  1
  Pb  Pb42  1  0.006336  0.006355  0.435124  1
  Pb  Pb43  1  0.494995  -0.000155  0.375662  1
  Pb  Pb44  1  -0.002424  -0.002420  0.500546  1
  Pb  Pb45  1  0.002121  0.002129  0.311699  1
  Pb  Pb46  1  0.002148  0.493903  0.250228  1
  Pb  Pb47  1  0.998539  0.998558  0.563047  1
  Pb  Pb48  1  -0.002400  0.500460  0.500548  1
  Pb  Pb49  1  -0.000164  -0.000146  0.375666  1
  Pb  Pb50  1  0.500450  -0.002397  0.500549  1
  Pb  Pb51  1  -0.000157  0.495001  0.375663  1
  Pb  Pb52  1  0.499749  0.000115  0.624997  1
  Pb  Pb53  1  0.000674  0.000558  0.812269  1
  Pb  Pb54  1  0.000172  0.000148  0.624996  1
  Pb  Pb55  1  0.500238  0.999755  0.750052  1
  Pb  Pb56  1  0.001662  0.001668  0.874404  1
  Pb  Pb57  1  0.000142  0.499765  0.624994  1
  Pb  Pb58  1  0.999830  0.999485  0.750033  1
  Pb  Pb59  1  0.501428  0.001662  0.874401  1
  Pb  Pb60  1  0.999690  0.500351  0.750033  1
  Pb  Pb61  1  0.999892  0.999734  0.687584  1
  Pb  Pb62  1  0.001684  0.501462  0.874401  1
  Pb  Pb63  1  0.001068  0.001072  0.937100  1
  O  O64  1  0.183730  0.566787  0.022837  1
  O  O65  1  0.183172  0.183176  0.070738  1
  O  O66  1  0.566772  0.183732  0.022838  1
  O  O67  1  0.183167  0.567751  0.070739  1
  O  O68  1  0.566785  0.566776  0.022838  1
  O  O69  1  0.567750  0.183173  0.070738  1
  O  O70  1  0.433676  0.433675  0.102022  1
  O  O71  1  0.433800  0.813893  0.054802  1
  O  O72  1  0.183244  0.183242  0.195844  1
  O  O73  1  0.181728  0.567839  0.147824  1
  O  O74  1  0.813893  0.433782  0.054803  1
  O  O75  1  0.433678  0.816477  0.102021  1
  O  O76  1  0.183243  0.566775  0.195842  1
  O  O77  1  0.567848  0.181730  0.147822  1
  O  O78  1  0.816481  0.433670  0.102023  1
  O  O79  1  0.813888  0.813897  0.054803  1
  O  O80  1  0.566792  0.183223  0.195845  1
  O  O81  1  0.567849  0.567834  0.147823  1
  O  O82  1  0.435669  0.435685  0.226808  1
  O  O83  1  0.182577  0.182569  0.320856  1
  O  O84  1  0.434715  0.815883  0.179191  1
  O  O85  1  0.183399  0.566570  0.272934  1
  O  O86  1  0.815875  0.434736  0.179190  1
  O  O87  1  0.875525  0.875529  0.109175  1
  O  O88  1  0.435674  0.814178  0.226809  1
  O  O89  1  0.566535  0.183415  0.272938  1
  O  O90  1  0.182557  0.568021  0.320858  1
  O  O91  1  0.814162  0.435700  0.226804  1
  O  O92  1  0.815874  0.815875  0.179189  1
  O  O93  1  0.567999  0.182567  0.320858  1
  O  O94  1  0.566529  0.566561  0.272937  1
  O  O95  1  0.434662  0.434657  0.351858  1
  O  O96  1  0.179909  0.569970  0.397518  1
  O  O97  1  0.434541  0.815525  0.304302  1
  O  O98  1  0.190326  0.190325  0.444599  1
  O  O99  1  0.815544  0.434511  0.304300  1
  O  O100  1  0.875065  0.875088  0.234348  1
  O  O101  1  0.569991  0.179910  0.397518  1
  O  O102  1  0.129793  0.129795  0.513825  1
  O  O103  1  0.434680  0.815813  0.351856  1
  O  O104  1  0.190321  0.562559  0.444600  1
  O  O105  1  0.815830  0.434644  0.351859  1
  O  O106  1  0.562561  0.190328  0.444599  1
  O  O107  1  0.815532  0.815535  0.304302  1
  O  O108  1  0.569979  0.569990  0.397517  1
  O  O109  1  0.439592  0.439584  0.476281  1
  O  O110  1  0.184720  0.562682  0.523739  1
  O  O111  1  0.436435  0.817121  0.428666  1
  O  O112  1  0.185071  0.185072  0.570865  1
  O  O113  1  0.562683  0.184721  0.523738  1
  O  O114  1  0.817116  0.436428  0.428668  1
  O  O115  1  0.874823  0.874825  0.359440  1
  O  O116  1  0.439593  0.810571  0.476279  1
  O  O117  1  0.125175  0.125150  0.640561  1
  O  O118  1  0.185064  0.562934  0.570867  1
  O  O119  1  0.810565  0.439598  0.476279  1
  O  O120  1  0.562681  0.562685  0.523740  1
  O  O121  1  0.817115  0.817118  0.428667  1
  O  O122  1  0.562941  0.185056  0.570868  1
  O  O123  1  0.436649  0.813188  0.554622  1
  O  O124  1  0.436856  0.436849  0.601710  1
  O  O125  1  0.187644  0.187645  0.695203  1
  O  O126  1  0.186306  0.563353  0.648374  1
  O  O127  1  0.813181  0.436668  0.554622  1
  O  O128  1  0.892764  0.892777  0.477711  1
  O  O129  1  0.187643  0.563091  0.695203  1
  O  O130  1  0.563353  0.186287  0.648372  1
  O  O131  1  0.124835  0.124813  0.765691  1
  O  O132  1  0.436861  0.812619  0.601711  1
  O  O133  1  0.813182  0.813183  0.554622  1
  O  O134  1  0.812606  0.436860  0.601709  1
  O  O135  1  0.563086  0.187645  0.695203  1
  O  O136  1  0.563359  0.563368  0.648372  1
  O  O137  1  0.436730  0.436721  0.726619  1
  O  O138  1  0.186342  0.186342  0.820502  1
  O  O139  1  0.437019  0.812424  0.679767  1
  O  O140  1  0.187309  0.563007  0.773335  1
  O  O141  1  0.812412  0.437040  0.679767  1
  O  O142  1  0.186347  0.563310  0.820499  1
  O  O143  1  0.562988  0.187310  0.773335  1
  O  O144  1  0.875901  0.875901  0.609034  1
  O  O145  1  0.119968  0.119961  0.892511  1
  O  O146  1  0.436714  0.813599  0.726619  1
  O  O147  1  0.812421  0.812426  0.679766  1
  O  O148  1  0.813598  0.436734  0.726619  1
  O  O149  1  0.563298  0.186344  0.820501  1
  O  O150  1  0.563002  0.563004  0.773335  1
  O  O151  1  0.436708  0.814756  0.804222  1
  O  O152  1  0.181153  0.181160  0.946700  1
  O  O153  1  0.437220  0.437235  0.851351  1
  O  O154  1  0.189937  0.559166  0.898968  1
  O  O155  1  0.814732  0.436742  0.804224  1
  O  O156  1  0.874944  0.874936  0.734398  1
  O  O157  1  0.181150  0.564091  0.946701  1
  O  O158  1  0.559138  0.189960  0.898972  1
  O  O159  1  0.437212  0.814744  0.851353  1
  O  O160  1  0.814734  0.814733  0.804224  1
  O  O161  1  0.564064  0.181164  0.946701  1
  O  O162  1  0.814744  0.437223  0.851350  1
  O  O163  1  0.559142  0.559159  0.898970  1
  O  O164  1  0.434449  0.434424  0.976857  1
  O  O165  1  0.437758  0.811518  0.929900  1
  O  O166  1  0.811537  0.437732  0.929899  1
  O  O167  1  0.873731  0.873727  0.859853  1
  O  O168  1  0.434454  0.816253  0.976855  1
  O  O169  1  0.816263  0.434436  0.976857  1
  O  O170  1  0.811527  0.811529  0.929899  1
  O  O171  1  0.857087  0.857100  0.991091  1
