# generated using pymatgen
data_Ce3In3Ru2
_symmetry_space_group_name_H-M   'P 1'
_cell_length_a   4.90520212
_cell_length_b   4.94891990
_cell_length_c   8.55711591
_cell_angle_alpha   98.09095791
_cell_angle_beta   106.65543702
_cell_angle_gamma   89.99999500
_symmetry_Int_Tables_number   1
_chemical_formula_structural   Ce3In3Ru2
_chemical_formula_sum   'Ce3 In3 Ru2'
_cell_volume   196.85351538
_cell_formula_units_Z   1
loop_
 _symmetry_equiv_pos_site_id
 _symmetry_equiv_pos_as_xyz
  1  'x, y, z'
loop_
 _atom_site_type_symbol
 _atom_site_label
 _atom_site_symmetry_multiplicity
 _atom_site_fract_x
 _atom_site_fract_y
 _atom_site_fract_z
 _atom_site_occupancy
  Ce  Ce0  1  0.829077  0.424784  0.658153  1
  Ce  Ce1  1  0.170923  0.575216  0.341847  1
  Ce  Ce2  1  0.000000  0.000000  0.000000  1
  In  In3  1  0.369319  0.942591  0.738637  1
  In  In4  1  0.500000  0.500000  0.000000  1
  In  In5  1  0.630681  0.057409  0.261363  1
  Ru  Ru6  1  0.790870  0.889981  0.581740  1
  Ru  Ru7  1  0.209130  0.110019  0.418260  1
