# generated using pymatgen
data_La3U2O10
_symmetry_space_group_name_H-M   'P 1'
_cell_length_a   19.60649064
_cell_length_b   10.47785242
_cell_length_c   6.91869687
_cell_angle_alpha   28.97949596
_cell_angle_beta   30.01898705
_cell_angle_gamma   18.60607615
_symmetry_Int_Tables_number   1
_chemical_formula_structural   La3U2O10
_chemical_formula_sum   'La3 U2 O10'
_cell_volume   213.40232727
_cell_formula_units_Z   1
loop_
 _symmetry_equiv_pos_site_id
 _symmetry_equiv_pos_as_xyz
  1  'x, y, z'
loop_
 _atom_site_type_symbol
 _atom_site_label
 _atom_site_symmetry_multiplicity
 _atom_site_fract_x
 _atom_site_fract_y
 _atom_site_fract_z
 _atom_site_occupancy
  La  La0  1  0.396856  0.005294  -0.000215  1
  La  La1  1  0.599862  0.997591  0.003351  1
  La  La2  1  0.802710  0.994451  0.002730  1
  U  U3  1  0.006622  0.993041  0.986783  1
  U  U4  1  0.192962  0.007413  0.014998  1
  O  O5  1  0.098697  0.224074  0.279455  1
  O  O6  1  0.272008  0.295453  0.254466  1
  O  O7  1  0.100786  0.775971  0.723143  1
  O  O8  1  0.466137  0.325953  0.225862  1
  O  O9  1  0.734318  0.207107  0.240026  1
  O  O10  1  0.270973  0.787169  0.760332  1
  O  O11  1  0.928309  0.208562  0.243650  1
  O  O12  1  0.467116  0.790487  0.763927  1
  O  O13  1  0.731715  0.679893  0.771066  1
  O  O14  1  0.928277  0.695617  0.758431  1
