# generated using pymatgen
data_H4S4N6O
_symmetry_space_group_name_H-M   'P 1'
_cell_length_a   9.61511304
_cell_length_b   9.61511304
_cell_length_c   7.09981845
_cell_angle_alpha   75.06927626
_cell_angle_beta   104.93072374
_cell_angle_gamma   141.49306313
_symmetry_Int_Tables_number   1
_chemical_formula_structural   H4S4N6O
_chemical_formula_sum   'H8 S8 N12 O2'
_cell_volume   393.15512483
_cell_formula_units_Z   2
loop_
 _symmetry_equiv_pos_site_id
 _symmetry_equiv_pos_as_xyz
  1  'x, y, z'
loop_
 _atom_site_type_symbol
 _atom_site_label
 _atom_site_symmetry_multiplicity
 _atom_site_fract_x
 _atom_site_fract_y
 _atom_site_fract_z
 _atom_site_occupancy
  H  H0  1  0.795387  0.204613  0.125811  1
  H  H1  1  0.204613  0.795387  0.874189  1
  H  H2  1  0.003051  0.260210  0.265754  1
  H  H3  1  0.739790  0.996949  0.265754  1
  H  H4  1  0.996949  0.739790  0.734246  1
  H  H5  1  0.260210  0.003051  0.734246  1
  H  H6  1  0.877348  0.122652  0.058840  1
  H  H7  1  0.122652  0.877348  0.941160  1
  S  S8  1  0.647392  0.352608  0.127090  1
  S  S9  1  0.352608  0.647392  0.872910  1
  S  S10  1  0.763717  0.662638  0.284447  1
  S  S11  1  0.337362  0.236283  0.284447  1
  S  S12  1  0.236283  0.337362  0.715553  1
  S  S13  1  0.662638  0.763717  0.715553  1
  S  S14  1  0.673960  0.326040  0.525644  1
  S  S15  1  0.326040  0.673960  0.474356  1
  N  N16  1  0.793500  0.610417  0.104919  1
  N  N17  1  0.389583  0.206500  0.104919  1
  N  N18  1  0.206500  0.389583  0.895081  1
  N  N19  1  0.610417  0.793500  0.895081  1
  N  N20  1  0.812671  0.588573  0.497042  1
  N  N21  1  0.411427  0.187329  0.497042  1
  N  N22  1  0.187329  0.411427  0.502958  1
  N  N23  1  0.588573  0.812671  0.502958  1
  N  N24  1  0.710013  0.289987  0.334588  1
  N  N25  1  0.289987  0.710013  0.665412  1
  N  N26  1  0.854328  0.145672  0.176719  1
  N  N27  1  0.145672  0.854328  0.823281  1
  O  O28  1  0.686790  0.313210  0.975040  1
  O  O29  1  0.313210  0.686790  0.024960  1
