# generated using pymatgen
data_Na2Cd3Si3O10
_symmetry_space_group_name_H-M   'P 1'
_cell_length_a   5.18983004
_cell_length_b   8.79803465
_cell_length_c   11.15593747
_cell_angle_alpha   94.19745338
_cell_angle_beta   90.00000000
_cell_angle_gamma   107.15409412
_symmetry_Int_Tables_number   1
_chemical_formula_structural   Na2Cd3Si3O10
_chemical_formula_sum   'Na4 Cd6 Si6 O20'
_cell_volume   485.29347031
_cell_formula_units_Z   2
loop_
 _symmetry_equiv_pos_site_id
 _symmetry_equiv_pos_as_xyz
  1  'x, y, z'
loop_
 _atom_site_type_symbol
 _atom_site_label
 _atom_site_symmetry_multiplicity
 _atom_site_fract_x
 _atom_site_fract_y
 _atom_site_fract_z
 _atom_site_occupancy
  O  O0  1  0.163498  0.315220  0.395955  1
  O  O1  1  0.848278  0.684780  0.104045  1
  O  O2  1  0.836502  0.684780  0.604045  1
  O  O3  1  0.151722  0.315220  0.895955  1
  O  O4  1  0.753403  0.438544  0.328769  1
  O  O5  1  0.314859  0.561456  0.171231  1
  O  O6  1  0.246597  0.561456  0.671231  1
  O  O7  1  0.685141  0.438544  0.828769  1
  O  O8  1  0.675490  0.124184  0.326687  1
  O  O9  1  0.551307  0.875816  0.173313  1
  O  O10  1  0.324510  0.875816  0.673313  1
  O  O11  1  0.448693  0.124184  0.826687  1
  O  O12  1  0.940426  0.908740  0.347735  1
  O  O13  1  0.031686  0.091260  0.152265  1
  O  O14  1  0.059574  0.091260  0.652265  1
  O  O15  1  0.968314  0.908740  0.847735  1
  O  O16  1  0.412509  0.703636  0.967856  1
  O  O17  1  0.708873  0.296364  0.532144  1
  O  O18  1  0.587491  0.296364  0.032144  1
  O  O19  1  0.291127  0.703636  0.467856  1
  Na  Na20  1  0.284625  0.095849  0.467817  1
  Na  Na21  1  0.188777  0.904151  0.032183  1
  Na  Na22  1  0.715375  0.904151  0.532183  1
  Na  Na23  1  0.811223  0.095849  0.967817  1
  Si  Si24  1  0.842653  0.301102  0.398445  1
  Si  Si25  1  0.541552  0.698898  0.101555  1
  Si  Si26  1  0.157347  0.698898  0.601555  1
  Si  Si27  1  0.458448  0.301102  0.898445  1
  Si  Si28  1  0.819426  0.000000  0.250000  1
  Si  Si29  1  0.180574  0.000000  0.750000  1
  Cd  Cd30  1  0.053590  0.683031  0.294885  1
  Cd  Cd31  1  0.370559  0.316969  0.205115  1
  Cd  Cd32  1  0.946410  0.316969  0.705115  1
  Cd  Cd33  1  0.629441  0.683031  0.794885  1
  Cd  Cd34  1  0.500000  0.500000  0.500000  1
  Cd  Cd35  1  0.000000  0.500000  0.000000  1
