# generated using pymatgen
data_NaSr3RuO6
_symmetry_space_group_name_H-M   'P 1'
_cell_length_a   6.83118030
_cell_length_b   6.83118030
_cell_length_c   6.83118030
_cell_angle_alpha   90.81839764
_cell_angle_beta   90.81839770
_cell_angle_gamma   90.81839764
_symmetry_Int_Tables_number   1
_chemical_formula_structural   NaSr3RuO6
_chemical_formula_sum   'Na2 Sr6 Ru2 O12'
_cell_volume   318.67869928
_cell_formula_units_Z   2
loop_
 _symmetry_equiv_pos_site_id
 _symmetry_equiv_pos_as_xyz
  1  'x, y, z'
loop_
 _atom_site_type_symbol
 _atom_site_label
 _atom_site_symmetry_multiplicity
 _atom_site_fract_x
 _atom_site_fract_y
 _atom_site_fract_z
 _atom_site_occupancy
  O  O0  1  0.778332  0.444624  0.575470  1
  O  O1  1  0.444624  0.575470  0.778332  1
  O  O2  1  0.575470  0.778332  0.444624  1
  O  O3  1  0.924530  0.055376  0.721668  1
  O  O4  1  0.055376  0.721668  0.924530  1
  O  O5  1  0.721668  0.924530  0.055376  1
  O  O6  1  0.221668  0.555376  0.424530  1
  O  O7  1  0.555376  0.424530  0.221668  1
  O  O8  1  0.424530  0.221668  0.555376  1
  O  O9  1  0.075470  0.944624  0.278332  1
  O  O10  1  0.278332  0.075470  0.944624  1
  O  O11  1  0.944624  0.278332  0.075470  1
  Na  Na12  1  0.250000  0.250000  0.250000  1
  Na  Na13  1  0.750000  0.750000  0.750000  1
  Sr  Sr14  1  0.392021  0.750000  0.107979  1
  Sr  Sr15  1  0.750000  0.107979  0.392021  1
  Sr  Sr16  1  0.107979  0.392021  0.750000  1
  Sr  Sr17  1  0.607979  0.250000  0.892021  1
  Sr  Sr18  1  0.250000  0.892021  0.607979  1
  Sr  Sr19  1  0.892021  0.607979  0.250000  1
  Ru  Ru20  1  0.000000  0.000000  0.000000  1
  Ru  Ru21  1  0.500000  0.500000  0.500000  1
