# generated using pymatgen
data_Y12Ni6Pb
_symmetry_space_group_name_H-M   'P 1'
_cell_length_a   8.47198329
_cell_length_b   8.47554471
_cell_length_c   8.47738223
_cell_angle_alpha   109.44106703
_cell_angle_beta   109.52571097
_cell_angle_gamma   109.17697683
_symmetry_Int_Tables_number   1
_chemical_formula_structural   Y12Ni6Pb
_chemical_formula_sum   'Y12 Ni6 Pb1'
_cell_volume   470.14037905
_cell_formula_units_Z   1
loop_
 _symmetry_equiv_pos_site_id
 _symmetry_equiv_pos_as_xyz
  1  'x, y, z'
loop_
 _atom_site_type_symbol
 _atom_site_label
 _atom_site_symmetry_multiplicity
 _atom_site_fract_x
 _atom_site_fract_y
 _atom_site_fract_z
 _atom_site_occupancy
  Y  Y0  1  0.696297  0.809987  0.506596  1
  Y  Y1  1  0.886034  0.696456  0.189230  1
  Y  Y2  1  0.697264  0.189899  0.886997  1
  Y  Y3  1  0.494327  0.303784  0.189911  1
  Y  Y4  1  0.505944  0.696808  0.810285  1
  Y  Y5  1  0.188293  0.493432  0.303773  1
  Y  Y6  1  0.303490  0.809952  0.113654  1
  Y  Y7  1  0.189324  0.885850  0.696185  1
  Y  Y8  1  0.811140  0.114085  0.304240  1
  Y  Y9  1  0.113969  0.303565  0.809972  1
  Y  Y10  1  0.810638  0.505965  0.696280  1
  Y  Y11  1  0.302702  0.189939  0.493313  1
  Ni  Ni12  1  0.500189  0.621286  0.121536  1
  Ni  Ni13  1  0.121772  0.500214  0.621990  1
  Ni  Ni14  1  0.878354  0.500359  0.378122  1
  Ni  Ni15  1  0.500016  0.378815  0.878669  1
  Ni  Ni16  1  0.621844  0.121663  0.500423  1
  Ni  Ni17  1  0.378434  0.878096  0.500091  1
  Pb  Pb18  1  0.999969  0.999844  0.998735  1
