# generated using pymatgen
data_Sm15(Ga11Ni13)4
_symmetry_space_group_name_H-M   'P 1'
_cell_length_a   8.88192247
_cell_length_b   8.88192263
_cell_length_c   25.03356486
_cell_angle_alpha   90.00000000
_cell_angle_beta   90.00000000
_cell_angle_gamma   119.99999937
_symmetry_Int_Tables_number   1
_chemical_formula_structural   Sm15(Ga11Ni13)4
_chemical_formula_sum   'Sm15 Ga44 Ni52'
_cell_volume   1710.28031456
_cell_formula_units_Z   1
loop_
 _symmetry_equiv_pos_site_id
 _symmetry_equiv_pos_as_xyz
  1  'x, y, z'
loop_
 _atom_site_type_symbol
 _atom_site_label
 _atom_site_symmetry_multiplicity
 _atom_site_fract_x
 _atom_site_fract_y
 _atom_site_fract_z
 _atom_site_occupancy
  Sm  Sm0  1  0.666667  0.333333  0.102353  1
  Sm  Sm1  1  0.333333  0.666667  0.585726  1
  Sm  Sm2  1  0.666667  0.333333  0.583903  1
  Sm  Sm3  1  0.333333  0.666667  0.000000  1
  Sm  Sm4  1  0.333333  0.666667  0.732746  1
  Sm  Sm5  1  0.000000  0.000000  0.094452  1
  Sm  Sm6  1  0.333333  0.666667  0.414274  1
  Sm  Sm7  1  0.666667  0.333333  0.729374  1
  Sm  Sm8  1  0.666667  0.333333  0.270626  1
  Sm  Sm9  1  0.666667  0.333333  0.897647  1
  Sm  Sm10  1  0.666667  0.333333  0.416097  1
  Sm  Sm11  1  0.000000  0.000000  0.664482  1
  Sm  Sm12  1  0.000000  0.000000  0.905548  1
  Sm  Sm13  1  0.000000  0.000000  0.335518  1
  Sm  Sm14  1  0.333333  0.666667  0.267254  1
  Ga  Ga15  1  0.853536  0.146464  0.500000  1
  Ga  Ga16  1  0.546047  0.453953  0.000000  1
  Ga  Ga17  1  0.487626  0.512374  0.500000  1
  Ga  Ga18  1  0.132821  0.867179  0.000000  1
  Ga  Ga19  1  0.487626  0.975251  0.500000  1
  Ga  Ga20  1  0.825191  0.650383  0.820579  1
  Ga  Ga21  1  0.635408  0.663551  0.914033  1
  Ga  Ga22  1  0.158076  0.841924  0.816651  1
  Ga  Ga23  1  0.333333  0.666667  0.870185  1
  Ga  Ga24  1  0.028142  0.663551  0.914033  1
  Ga  Ga25  1  0.158076  0.316153  0.816651  1
  Ga  Ga26  1  0.158076  0.841924  0.183349  1
  Ga  Ga27  1  0.001700  0.500850  0.800809  1
  Ga  Ga28  1  0.349617  0.174809  0.179421  1
  Ga  Ga29  1  0.336449  0.971858  0.914033  1
  Ga  Ga30  1  0.907905  0.453953  0.000000  1
  Ga  Ga31  1  0.028142  0.364592  0.085967  1
  Ga  Ga32  1  0.825191  0.174809  0.179421  1
  Ga  Ga33  1  0.825191  0.650383  0.179421  1
  Ga  Ga34  1  0.158076  0.316153  0.183349  1
  Ga  Ga35  1  0.336449  0.364592  0.914033  1
  Ga  Ga36  1  0.028142  0.364592  0.914033  1
  Ga  Ga37  1  0.683847  0.841924  0.816651  1
  Ga  Ga38  1  0.499150  0.998300  0.800809  1
  Ga  Ga39  1  0.499150  0.998300  0.199191  1
  Ga  Ga40  1  0.546047  0.092095  0.000000  1
  Ga  Ga41  1  0.336449  0.971858  0.085967  1
  Ga  Ga42  1  0.635408  0.971858  0.914033  1
  Ga  Ga43  1  0.333333  0.666667  0.129815  1
  Ga  Ga44  1  0.734358  0.867179  0.000000  1
  Ga  Ga45  1  0.028142  0.663551  0.085967  1
  Ga  Ga46  1  0.499150  0.500850  0.199191  1
  Ga  Ga47  1  0.132821  0.265642  0.000000  1
  Ga  Ga48  1  0.683847  0.841924  0.183349  1
  Ga  Ga49  1  0.001700  0.500850  0.199191  1
  Ga  Ga50  1  0.349617  0.174809  0.820579  1
  Ga  Ga51  1  0.292927  0.146464  0.500000  1
  Ga  Ga52  1  0.825191  0.174809  0.820579  1
  Ga  Ga53  1  0.635408  0.971858  0.085967  1
  Ga  Ga54  1  0.024749  0.512374  0.500000  1
  Ga  Ga55  1  0.853536  0.707073  0.500000  1
  Ga  Ga56  1  0.336449  0.364592  0.085967  1
  Ga  Ga57  1  0.635408  0.663551  0.085967  1
  Ga  Ga58  1  0.499150  0.500850  0.800809  1
  Ni  Ni59  1  0.996738  0.702354  0.736373  1
  Ni  Ni60  1  0.500490  0.499510  0.660246  1
  Ni  Ni61  1  0.181997  0.818003  0.658063  1
  Ni  Ni62  1  0.001748  0.310161  0.581297  1
  Ni  Ni63  1  0.817649  0.182351  0.342569  1
  Ni  Ni64  1  0.001748  0.691587  0.418703  1
  Ni  Ni65  1  0.705615  0.702354  0.263627  1
  Ni  Ni66  1  0.297646  0.294385  0.736373  1
  Ni  Ni67  1  0.689839  0.691587  0.418703  1
  Ni  Ni68  1  0.000000  0.000000  0.550874  1
  Ni  Ni69  1  0.181997  0.363994  0.658063  1
  Ni  Ni70  1  0.999020  0.499510  0.339754  1
  Ni  Ni71  1  0.817649  0.182351  0.657431  1
  Ni  Ni72  1  0.660537  0.830268  0.500000  1
  Ni  Ni73  1  0.689839  0.998252  0.418703  1
  Ni  Ni74  1  0.169732  0.339463  0.500000  1
  Ni  Ni75  1  0.996738  0.702354  0.263627  1
  Ni  Ni76  1  0.308413  0.998252  0.418703  1
  Ni  Ni77  1  0.297646  0.003262  0.736373  1
  Ni  Ni78  1  0.636006  0.818003  0.341937  1
  Ni  Ni79  1  0.000000  0.000000  0.787866  1
  Ni  Ni80  1  0.000000  0.000000  0.212134  1
  Ni  Ni81  1  0.705615  0.003262  0.263627  1
  Ni  Ni82  1  0.817649  0.635297  0.342569  1
  Ni  Ni83  1  0.705615  0.003262  0.736373  1
  Ni  Ni84  1  0.308413  0.998252  0.581297  1
  Ni  Ni85  1  0.996738  0.294385  0.736373  1
  Ni  Ni86  1  0.297646  0.003262  0.263627  1
  Ni  Ni87  1  0.328419  0.164209  0.000000  1
  Ni  Ni88  1  0.000000  0.000000  0.449126  1
  Ni  Ni89  1  0.308413  0.310161  0.581297  1
  Ni  Ni90  1  0.181997  0.818003  0.341937  1
  Ni  Ni91  1  0.835791  0.164209  0.000000  1
  Ni  Ni92  1  0.308413  0.310161  0.418703  1
  Ni  Ni93  1  0.999020  0.499510  0.660246  1
  Ni  Ni94  1  0.689839  0.691587  0.581297  1
  Ni  Ni95  1  0.689839  0.998252  0.581297  1
  Ni  Ni96  1  0.001748  0.691587  0.581297  1
  Ni  Ni97  1  0.500490  0.000980  0.339754  1
  Ni  Ni98  1  0.705615  0.702354  0.736373  1
  Ni  Ni99  1  0.835791  0.671581  0.000000  1
  Ni  Ni100  1  0.297646  0.294385  0.263627  1
  Ni  Ni101  1  0.001748  0.310161  0.418703  1
  Ni  Ni102  1  0.500490  0.000980  0.660246  1
  Ni  Ni103  1  0.181997  0.363994  0.341937  1
  Ni  Ni104  1  0.364703  0.182351  0.342569  1
  Ni  Ni105  1  0.364703  0.182351  0.657431  1
  Ni  Ni106  1  0.636006  0.818003  0.658063  1
  Ni  Ni107  1  0.996738  0.294385  0.263627  1
  Ni  Ni108  1  0.500490  0.499510  0.339754  1
  Ni  Ni109  1  0.817649  0.635297  0.657431  1
  Ni  Ni110  1  0.169732  0.830268  0.500000  1
