# generated using pymatgen
data_Np3Se3O13
_symmetry_space_group_name_H-M   'P 1'
_cell_length_a   10.78558671
_cell_length_b   12.14274880
_cell_length_c   18.02809374
_cell_angle_alpha   90.00000000
_cell_angle_beta   90.00000000
_cell_angle_gamma   90.00000000
_symmetry_Int_Tables_number   1
_chemical_formula_structural   Np3Se3O13
_chemical_formula_sum   'Np24 Se24 O104'
_cell_volume   2361.07940502
_cell_formula_units_Z   8
loop_
 _symmetry_equiv_pos_site_id
 _symmetry_equiv_pos_as_xyz
  1  'x, y, z'
loop_
 _atom_site_type_symbol
 _atom_site_label
 _atom_site_symmetry_multiplicity
 _atom_site_fract_x
 _atom_site_fract_y
 _atom_site_fract_z
 _atom_site_occupancy
  Np  Np0  1  0.750898  0.587372  0.577704  1
  Np  Np1  1  0.989871  0.428946  0.261185  1
  Np  Np2  1  0.010129  0.571054  0.738815  1
  Np  Np3  1  0.993867  0.163899  0.401368  1
  Np  Np4  1  0.749102  0.412628  0.077704  1
  Np  Np5  1  0.249102  0.412628  0.422296  1
  Np  Np6  1  0.489871  0.428946  0.238815  1
  Np  Np7  1  0.510129  0.571054  0.761185  1
  Np  Np8  1  0.493867  0.163899  0.098632  1
  Np  Np9  1  0.006133  0.836101  0.598632  1
  Np  Np10  1  0.250898  0.587372  0.922296  1
  Np  Np11  1  0.250898  0.912628  0.422296  1
  Np  Np12  1  0.989871  0.071054  0.761185  1
  Np  Np13  1  0.010129  0.928946  0.238815  1
  Np  Np14  1  0.993867  0.336101  0.901368  1
  Np  Np15  1  0.489871  0.071054  0.738815  1
  Np  Np16  1  0.506133  0.836101  0.901368  1
  Np  Np17  1  0.493867  0.336101  0.598632  1
  Np  Np18  1  0.750898  0.912628  0.077704  1
  Np  Np19  1  0.510129  0.928946  0.261185  1
  Np  Np20  1  0.249102  0.087372  0.922296  1
  Np  Np21  1  0.749102  0.087372  0.577704  1
  Np  Np22  1  0.506133  0.663899  0.401368  1
  Np  Np23  1  0.006133  0.663899  0.098632  1
  Se  Se24  1  0.526758  0.660227  0.053444  1
  Se  Se25  1  0.275447  0.962392  0.106891  1
  Se  Se26  1  0.973242  0.160227  0.053444  1
  Se  Se27  1  0.775447  0.537608  0.893109  1
  Se  Se28  1  0.775447  0.962392  0.393109  1
  Se  Se29  1  0.204306  0.303006  0.767497  1
  Se  Se30  1  0.704306  0.196994  0.232503  1
  Se  Se31  1  0.473242  0.339773  0.946556  1
  Se  Se32  1  0.224553  0.462392  0.106891  1
  Se  Se33  1  0.295694  0.696994  0.267497  1
  Se  Se34  1  0.026758  0.839773  0.946556  1
  Se  Se35  1  0.526758  0.839773  0.553444  1
  Se  Se36  1  0.473242  0.160227  0.446556  1
  Se  Se37  1  0.795694  0.803006  0.732503  1
  Se  Se38  1  0.295694  0.803006  0.767497  1
  Se  Se39  1  0.704306  0.303006  0.732503  1
  Se  Se40  1  0.973242  0.339773  0.553444  1
  Se  Se41  1  0.224553  0.037608  0.606891  1
  Se  Se42  1  0.275447  0.537608  0.606891  1
  Se  Se43  1  0.026758  0.660227  0.446556  1
  Se  Se44  1  0.724553  0.462392  0.393109  1
  Se  Se45  1  0.795694  0.696994  0.232503  1
  Se  Se46  1  0.204306  0.196994  0.267497  1
  Se  Se47  1  0.724553  0.037608  0.893109  1
  O  O48  1  0.293732  0.078983  0.050687  1
  O  O49  1  0.189050  0.253256  0.859970  1
  O  O50  1  0.634531  0.203222  0.783850  1
  O  O51  1  0.134531  0.296778  0.216150  1
  O  O52  1  0.893813  0.488434  0.834585  1
  O  O53  1  0.914355  0.224359  0.845074  1
  O  O54  1  0.904956  0.550697  0.058110  1
  O  O55  1  0.585645  0.724359  0.845074  1
  O  O56  1  0.106187  0.511566  0.165415  1
  O  O57  1  0.365567  0.433789  0.975527  1
  O  O58  1  0.585645  0.775641  0.345074  1
  O  O59  1  0.147565  0.003713  0.154367  1
  O  O60  1  0.373116  0.117779  0.811650  1
  O  O61  1  0.401527  0.285659  0.468068  1
  O  O62  1  0.074695  0.173299  0.976721  1
  O  O63  1  0.921412  0.891246  0.718130  1
  O  O64  1  0.852435  0.503713  0.345633  1
  O  O65  1  0.793732  0.421017  0.949313  1
  O  O66  1  0.365567  0.066211  0.475527  1
  O  O67  1  0.598473  0.714341  0.531932  1
  O  O68  1  0.884247  0.977092  0.170213  1
  O  O69  1  0.365469  0.796778  0.216150  1
  O  O70  1  0.404956  0.949303  0.941890  1
  O  O71  1  0.647565  0.003713  0.345633  1
  O  O72  1  0.574695  0.326701  0.023279  1
  O  O73  1  0.147565  0.496287  0.654367  1
  O  O74  1  0.095044  0.449303  0.941890  1
  O  O75  1  0.904956  0.949303  0.558110  1
  O  O76  1  0.106187  0.988434  0.665415  1
  O  O77  1  0.293732  0.421017  0.550687  1
  O  O78  1  0.206268  0.578983  0.050687  1
  O  O79  1  0.626884  0.617779  0.688350  1
  O  O80  1  0.206268  0.921017  0.550687  1
  O  O81  1  0.393813  0.011566  0.165415  1
  O  O82  1  0.578588  0.391246  0.718130  1
  O  O83  1  0.598473  0.785659  0.031932  1
  O  O84  1  0.098473  0.714341  0.968068  1
  O  O85  1  0.384247  0.977092  0.329787  1
  O  O86  1  0.706268  0.921017  0.949313  1
  O  O87  1  0.634433  0.566211  0.024473  1
  O  O88  1  0.810950  0.746744  0.140030  1
  O  O89  1  0.352435  0.996287  0.654367  1
  O  O90  1  0.873116  0.382221  0.188350  1
  O  O91  1  0.578588  0.108754  0.218130  1
  O  O92  1  0.404956  0.550697  0.441890  1
  O  O93  1  0.921412  0.608754  0.218130  1
  O  O94  1  0.134433  0.933789  0.975527  1
  O  O95  1  0.134433  0.566211  0.475527  1
  O  O96  1  0.810950  0.753256  0.640030  1
  O  O97  1  0.574695  0.173299  0.523279  1
  O  O98  1  0.310950  0.746744  0.359970  1
  O  O99  1  0.384247  0.522908  0.829787  1
  O  O100  1  0.606187  0.988434  0.834585  1
  O  O101  1  0.189050  0.246744  0.359970  1
  O  O102  1  0.425305  0.673299  0.976721  1
  O  O103  1  0.901527  0.214341  0.531932  1
  O  O104  1  0.865567  0.433789  0.524473  1
  O  O105  1  0.365469  0.703222  0.716150  1
  O  O106  1  0.095044  0.050697  0.441890  1
  O  O107  1  0.873116  0.117779  0.688350  1
  O  O108  1  0.925305  0.826701  0.023279  1
  O  O109  1  0.647565  0.496287  0.845633  1
  O  O110  1  0.115753  0.477092  0.329787  1
  O  O111  1  0.595044  0.449303  0.558110  1
  O  O112  1  0.634433  0.933789  0.524473  1
  O  O113  1  0.414355  0.275641  0.154926  1
  O  O114  1  0.893813  0.011566  0.334585  1
  O  O115  1  0.134531  0.203222  0.716150  1
  O  O116  1  0.126884  0.882221  0.311650  1
  O  O117  1  0.425305  0.826701  0.476721  1
  O  O118  1  0.925305  0.673299  0.523279  1
  O  O119  1  0.595044  0.050697  0.058110  1
  O  O120  1  0.634531  0.296778  0.283850  1
  O  O121  1  0.352435  0.503713  0.154367  1
  O  O122  1  0.310950  0.753256  0.859970  1
  O  O123  1  0.126884  0.617779  0.811650  1
  O  O124  1  0.421412  0.891246  0.781870  1
  O  O125  1  0.401527  0.214341  0.968068  1
  O  O126  1  0.626884  0.882221  0.188350  1
  O  O127  1  0.901527  0.285659  0.031932  1
  O  O128  1  0.078588  0.108754  0.281870  1
  O  O129  1  0.085645  0.775641  0.154926  1
  O  O130  1  0.606187  0.511566  0.334585  1
  O  O131  1  0.689050  0.253256  0.640030  1
  O  O132  1  0.373116  0.382221  0.311650  1
  O  O133  1  0.793732  0.078983  0.449313  1
  O  O134  1  0.421412  0.608754  0.281870  1
  O  O135  1  0.706268  0.578983  0.449313  1
  O  O136  1  0.615753  0.477092  0.170213  1
  O  O137  1  0.085645  0.724359  0.654926  1
  O  O138  1  0.074695  0.326701  0.476721  1
  O  O139  1  0.393813  0.488434  0.665415  1
  O  O140  1  0.078588  0.391246  0.781870  1
  O  O141  1  0.884247  0.522908  0.670213  1
  O  O142  1  0.865567  0.066211  0.024473  1
  O  O143  1  0.852435  0.996287  0.845633  1
  O  O144  1  0.098473  0.785659  0.468068  1
  O  O145  1  0.115753  0.022908  0.829787  1
  O  O146  1  0.689050  0.246744  0.140030  1
  O  O147  1  0.914355  0.275641  0.345074  1
  O  O148  1  0.865469  0.796778  0.283850  1
  O  O149  1  0.615753  0.022908  0.670213  1
  O  O150  1  0.865469  0.703222  0.783850  1
  O  O151  1  0.414355  0.224359  0.654926  1
