# generated using pymatgen
data_BaH2O3
_symmetry_space_group_name_H-M   'P 1'
_cell_length_a   6.97928845
_cell_length_b   4.01011244
_cell_length_c   6.24527425
_cell_angle_alpha   90.00000000
_cell_angle_beta   109.21687061
_cell_angle_gamma   90.00000000
_symmetry_Int_Tables_number   1
_chemical_formula_structural   BaH2O3
_chemical_formula_sum   'Ba2 H4 O6'
_cell_volume   165.05161242
_cell_formula_units_Z   2
loop_
 _symmetry_equiv_pos_site_id
 _symmetry_equiv_pos_as_xyz
  1  'x, y, z'
loop_
 _atom_site_type_symbol
 _atom_site_label
 _atom_site_symmetry_multiplicity
 _atom_site_fract_x
 _atom_site_fract_y
 _atom_site_fract_z
 _atom_site_occupancy
  Ba  Ba0  1  0.292571  0.250000  0.146443  1
  Ba  Ba1  1  0.707429  0.750000  0.853557  1
  H  H2  1  0.058399  0.750000  0.368995  1
  H  H3  1  0.941601  0.250000  0.631005  1
  H  H4  1  0.163223  0.750000  0.733618  1
  H  H5  1  0.836777  0.250000  0.266382  1
  O  O6  1  0.617108  0.750000  0.350097  1
  O  O7  1  0.382892  0.250000  0.649903  1
  O  O8  1  0.056155  0.750000  0.212767  1
  O  O9  1  0.943845  0.250000  0.787233  1
  O  O10  1  0.305587  0.750000  0.831115  1
  O  O11  1  0.694413  0.250000  0.168885  1
