# generated using pymatgen
data_BaH8C6(N3O4)2
_symmetry_space_group_name_H-M   'P 1'
_cell_length_a   9.08730448
_cell_length_b   9.52092711
_cell_length_c   7.44361390
_cell_angle_alpha   97.67638879
_cell_angle_beta   103.39949960
_cell_angle_gamma   84.90616139
_symmetry_Int_Tables_number   1
_chemical_formula_structural   BaH8C6(N3O4)2
_chemical_formula_sum   'Ba2 H16 C12 N12 O16'
_cell_volume   619.75420577
_cell_formula_units_Z   2
loop_
 _symmetry_equiv_pos_site_id
 _symmetry_equiv_pos_as_xyz
  1  'x, y, z'
loop_
 _atom_site_type_symbol
 _atom_site_label
 _atom_site_symmetry_multiplicity
 _atom_site_fract_x
 _atom_site_fract_y
 _atom_site_fract_z
 _atom_site_occupancy
  Ba  Ba0  1  0.731659  0.999203  0.877387  1
  Ba  Ba1  1  0.268341  0.000797  0.122613  1
  H  H2  1  0.157977  0.636359  0.432078  1
  H  H3  1  0.842023  0.363641  0.567922  1
  H  H4  1  0.798904  0.462416  0.049995  1
  H  H5  1  0.201096  0.537584  0.950005  1
  H  H6  1  0.772185  0.625913  0.555942  1
  H  H7  1  0.227815  0.374087  0.444058  1
  H  H8  1  0.423547  0.449199  0.159600  1
  H  H9  1  0.576453  0.550801  0.840400  1
  H  H10  1  0.962510  0.220800  0.222105  1
  H  H11  1  0.037490  0.779200  0.777895  1
  H  H12  1  0.978705  0.065244  0.284953  1
  H  H13  1  0.021295  0.934756  0.715047  1
  H  H14  1  0.401005  0.811785  0.746760  1
  H  H15  1  0.598995  0.188215  0.253240  1
  H  H16  1  0.355801  0.962780  0.688501  1
  H  H17  1  0.644199  0.037220  0.311499  1
  C  C18  1  0.807645  0.685643  0.061350  1
  C  C19  1  0.192355  0.314357  0.938650  1
  C  C20  1  0.013421  0.784214  0.277075  1
  C  C21  1  0.986579  0.215786  0.722925  1
  C  C22  1  0.986088  0.529684  0.249969  1
  C  C23  1  0.013912  0.470316  0.750031  1
  C  C24  1  0.420294  0.673523  0.188973  1
  C  C25  1  0.579706  0.326477  0.811027  1
  C  C26  1  0.615055  0.774520  0.419497  1
  C  C27  1  0.384945  0.225480  0.580503  1
  C  C28  1  0.608800  0.516330  0.361674  1
  C  C29  1  0.391200  0.483670  0.638326  1
  N  N30  1  0.884856  0.799599  0.144425  1
  N  N31  1  0.115144  0.200401  0.855575  1
  N  N32  1  0.059560  0.648850  0.330355  1
  N  N33  1  0.940440  0.351150  0.669645  1
  N  N34  1  0.858413  0.551483  0.114728  1
  N  N35  1  0.141587  0.448517  0.885272  1
  N  N36  1  0.488484  0.788985  0.284844  1
  N  N37  1  0.511516  0.211015  0.715156  1
  N  N38  1  0.672331  0.637388  0.456721  1
  N  N39  1  0.327669  0.362612  0.543279  1
  N  N40  1  0.481384  0.538461  0.226216  1
  N  N41  1  0.518616  0.461539  0.773784  1
  O  O42  1  0.689481  0.697335  0.934112  1
  O  O43  1  0.310519  0.302665  0.065888  1
  O  O44  1  0.093862  0.885240  0.354099  1
  O  O45  1  0.906138  0.114760  0.645901  1
  O  O46  1  0.032182  0.408843  0.294993  1
  O  O47  1  0.967818  0.591157  0.705007  1
  O  O48  1  0.300768  0.685864  0.064045  1
  O  O49  1  0.699232  0.314136  0.935955  1
  O  O50  1  0.684646  0.878022  0.512009  1
  O  O51  1  0.315354  0.121978  0.487991  1
  O  O52  1  0.661622  0.394554  0.394686  1
  O  O53  1  0.338378  0.605446  0.605314  1
  O  O54  1  0.959082  0.118991  0.176673  1
  O  O55  1  0.040918  0.881009  0.823327  1
  O  O56  1  0.409790  0.912766  0.794178  1
  O  O57  1  0.590210  0.087234  0.205822  1
