# generated using pymatgen
data_GdFe3(BO3)4
_symmetry_space_group_name_H-M   'P 1'
_cell_length_a   5.99919653
_cell_length_b   6.00015103
_cell_length_c   6.00735459
_cell_angle_alpha   104.21684547
_cell_angle_beta   104.20497479
_cell_angle_gamma   104.18334480
_symmetry_Int_Tables_number   1
_chemical_formula_structural   GdFe3(BO3)4
_chemical_formula_sum   'Gd1 Fe3 B4 O12'
_cell_volume   192.18680479
_cell_formula_units_Z   1
loop_
 _symmetry_equiv_pos_site_id
 _symmetry_equiv_pos_as_xyz
  1  'x, y, z'
loop_
 _atom_site_type_symbol
 _atom_site_label
 _atom_site_symmetry_multiplicity
 _atom_site_fract_x
 _atom_site_fract_y
 _atom_site_fract_z
 _atom_site_occupancy
  Gd  Gd0  1  0.999917  0.000014  0.000043  1
  Fe  Fe1  1  0.000133  0.557047  0.443139  1
  Fe  Fe2  1  0.557221  0.442648  0.999902  1
  Fe  Fe3  1  0.442961  0.999875  0.556902  1
  B  B4  1  0.059932  0.500746  0.941060  1
  B  B5  1  0.940355  0.059704  0.499981  1
  B  B6  1  0.499314  0.940053  0.058906  1
  B  B7  1  0.500468  0.499550  0.500039  1
  O  O8  1  0.499070  0.087203  0.911711  1
  O  O9  1  0.028578  0.628662  0.782566  1
  O  O10  1  0.498938  0.352262  0.645567  1
  O  O11  1  0.218173  0.371950  0.972194  1
  O  O12  1  0.647774  0.501112  0.354496  1
  O  O13  1  0.912769  0.500955  0.088281  1
  O  O14  1  0.371325  0.971427  0.217445  1
  O  O15  1  0.354096  0.645840  0.500002  1
  O  O16  1  0.628085  0.781858  0.027761  1
  O  O17  1  0.971322  0.218036  0.371642  1
  O  O18  1  0.781945  0.028623  0.628383  1
  O  O19  1  0.087623  0.912436  0.499981  1
