# generated using pymatgen
data_EuGe2Ir
_symmetry_space_group_name_H-M   'P 1'
_cell_length_a   4.30626007
_cell_length_b   4.48291119
_cell_length_c   9.04240990
_cell_angle_alpha   104.35224574
_cell_angle_beta   90.00000000
_cell_angle_gamma   90.00000000
_symmetry_Int_Tables_number   1
_chemical_formula_structural   EuGe2Ir
_chemical_formula_sum   'Eu2 Ge4 Ir2'
_cell_volume   169.11194032
_cell_formula_units_Z   2
loop_
 _symmetry_equiv_pos_site_id
 _symmetry_equiv_pos_as_xyz
  1  'x, y, z'
loop_
 _atom_site_type_symbol
 _atom_site_label
 _atom_site_symmetry_multiplicity
 _atom_site_fract_x
 _atom_site_fract_y
 _atom_site_fract_z
 _atom_site_occupancy
  Eu  Eu0  1  0.750000  0.106628  0.213255  1
  Eu  Eu1  1  0.250000  0.893372  0.786745  1
  Ge  Ge2  1  0.250000  0.541163  0.082325  1
  Ge  Ge3  1  0.750000  0.458837  0.917675  1
  Ge  Ge4  1  0.750000  0.752242  0.504484  1
  Ge  Ge5  1  0.250000  0.247758  0.495516  1
  Ir  Ir6  1  0.750000  0.320057  0.640114  1
  Ir  Ir7  1  0.250000  0.679943  0.359886  1
