# generated using pymatgen
data_Ba4Tb(RuO4)3
_symmetry_space_group_name_H-M   'P 1'
_cell_length_a   10.43888826
_cell_length_b   10.43888826
_cell_length_c   10.43888826
_cell_angle_alpha   33.13082188
_cell_angle_beta   33.13082187
_cell_angle_gamma   33.13082187
_symmetry_Int_Tables_number   1
_chemical_formula_structural   Ba4Tb(RuO4)3
_chemical_formula_sum   'Ba4 Tb1 Ru3 O12'
_cell_volume   302.45910840
_cell_formula_units_Z   1
loop_
 _symmetry_equiv_pos_site_id
 _symmetry_equiv_pos_as_xyz
  1  'x, y, z'
loop_
 _atom_site_type_symbol
 _atom_site_label
 _atom_site_symmetry_multiplicity
 _atom_site_fract_x
 _atom_site_fract_y
 _atom_site_fract_z
 _atom_site_occupancy
  O  O0  1  0.219768  0.219768  0.692049  1
  O  O1  1  0.219768  0.692049  0.219768  1
  O  O2  1  0.692049  0.219768  0.219768  1
  O  O3  1  0.307951  0.780232  0.780232  1
  O  O4  1  0.780232  0.780232  0.307951  1
  O  O5  1  0.780232  0.307951  0.780232  1
  O  O6  1  0.387206  0.387206  0.852355  1
  O  O7  1  0.387206  0.852355  0.387206  1
  O  O8  1  0.612794  0.147645  0.612794  1
  O  O9  1  0.612794  0.612794  0.147645  1
  O  O10  1  0.147645  0.612794  0.612794  1
  O  O11  1  0.852355  0.387206  0.387206  1
  Ru  Ru12  1  0.586366  0.586366  0.586366  1
  Ru  Ru13  1  0.413634  0.413634  0.413634  1
  Ru  Ru14  1  0.500000  0.500000  0.500000  1
  Ba  Ba15  1  0.714967  0.714967  0.714967  1
  Ba  Ba16  1  0.870736  0.870736  0.870736  1
  Ba  Ba17  1  0.285033  0.285033  0.285033  1
  Ba  Ba18  1  0.129264  0.129264  0.129264  1
  Tb  Tb19  1  0.000000  0.000000  0.000000  1
