# generated using pymatgen
data_Fe2S
_symmetry_space_group_name_H-M   'P 1'
_cell_length_a   3.05897853
_cell_length_b   22.70918719
_cell_length_c   4.63550103
_cell_angle_alpha   70.02960327
_cell_angle_beta   109.36031953
_cell_angle_gamma   118.14088862
_symmetry_Int_Tables_number   1
_chemical_formula_structural   Fe2S
_chemical_formula_sum   'Fe14 S7'
_cell_volume   261.17118008
_cell_formula_units_Z   7
loop_
 _symmetry_equiv_pos_site_id
 _symmetry_equiv_pos_as_xyz
  1  'x, y, z'
loop_
 _atom_site_type_symbol
 _atom_site_label
 _atom_site_symmetry_multiplicity
 _atom_site_fract_x
 _atom_site_fract_y
 _atom_site_fract_z
 _atom_site_occupancy
  Fe  Fe0  1  0.013518  0.847498  0.087581  1
  Fe  Fe1  1  0.214169  0.967288  0.652685  1
  Fe  Fe2  1  0.937338  0.636024  0.415596  1
  Fe  Fe3  1  0.147824  0.750171  0.031813  1
  Fe  Fe4  1  -0.001007  0.567899  0.013818  1
  Fe  Fe5  1  0.809587  0.733483  0.478261  1
  Fe  Fe6  1  0.126593  0.464661  -0.009282  1
  Fe  Fe7  1  0.810516  0.456054  0.423081  1
  Fe  Fe8  1  0.022453  0.285725  0.038045  1
  Fe  Fe9  1  0.915430  0.351041  0.377961  1
  Fe  Fe10  1  0.161186  0.184033  0.022230  1
  Fe  Fe11  1  0.829803  0.170680  0.465934  1
  Fe  Fe12  1  0.032919  0.004097  0.038042  1
  Fe  Fe13  1  0.934264  0.065403  0.400322  1
  S  S14  1  0.435290  0.936586  0.315411  1
  S  S15  1  0.635345  0.800966  0.657607  1
  S  S16  1  0.708275  0.644987  0.891569  1
  S  S17  1  0.626851  0.520447  0.602171  1
  S  S18  1  0.690840  0.364075  0.826840  1
  S  S19  1  0.633401  0.238215  0.594710  1
  S  S20  1  0.715735  0.082174  0.854138  1
