# generated using pymatgen
data_Cu7S4
_symmetry_space_group_name_H-M   'P 1'
_cell_length_a   7.87305464
_cell_length_b   7.82934881
_cell_length_c   10.88931563
_cell_angle_alpha   90.00410542
_cell_angle_beta   89.99880560
_cell_angle_gamma   89.99919405
_symmetry_Int_Tables_number   1
_chemical_formula_structural   Cu7S4
_chemical_formula_sum   'Cu28 S16'
_cell_volume   671.22711512
_cell_formula_units_Z   4
loop_
 _symmetry_equiv_pos_site_id
 _symmetry_equiv_pos_as_xyz
  1  'x, y, z'
loop_
 _atom_site_type_symbol
 _atom_site_label
 _atom_site_symmetry_multiplicity
 _atom_site_fract_x
 _atom_site_fract_y
 _atom_site_fract_z
 _atom_site_occupancy
  Cu  Cu0  1  0.750007  0.479105  0.347703  1
  Cu  Cu1  1  0.249992  0.020842  0.847752  1
  Cu  Cu2  1  0.750005  0.580608  0.670483  1
  Cu  Cu3  1  0.750008  0.481939  0.091513  1
  Cu  Cu4  1  0.414591  0.735021  0.340484  1
  Cu  Cu5  1  0.749983  0.979131  0.152260  1
  Cu  Cu6  1  0.476786  0.672974  0.074016  1
  Cu  Cu7  1  0.023170  0.172794  0.426099  1
  Cu  Cu8  1  0.585427  0.264982  0.659500  1
  Cu  Cu9  1  0.914615  0.764991  0.840483  1
  Cu  Cu10  1  0.250028  0.518144  0.908246  1
  Cu  Cu11  1  0.976833  0.327182  0.926049  1
  Cu  Cu12  1  0.914573  0.265006  0.659501  1
  Cu  Cu13  1  0.749979  0.981884  0.408195  1
  Cu  Cu14  1  0.523177  0.827183  0.573942  1
  Cu  Cu15  1  0.585363  0.764975  0.840474  1
  Cu  Cu16  1  0.749986  0.080671  0.829436  1
  Cu  Cu17  1  0.023212  0.672968  0.074023  1
  Cu  Cu18  1  0.476855  0.172794  0.426098  1
  Cu  Cu19  1  0.250017  0.520850  0.652280  1
  Cu  Cu20  1  0.250006  0.419385  0.329481  1
  Cu  Cu21  1  0.414581  0.235001  0.159514  1
  Cu  Cu22  1  0.085400  0.735007  0.340491  1
  Cu  Cu23  1  0.085416  0.235039  0.159489  1
  Cu  Cu24  1  0.523128  0.327186  0.926083  1
  Cu  Cu25  1  0.250022  0.018062  0.591734  1
  Cu  Cu26  1  0.976816  0.827167  0.573948  1
  Cu  Cu27  1  0.249995  0.919406  0.170508  1
  S  S28  1  0.250014  0.787955  0.984366  1
  S  S29  1  0.502091  0.998617  0.262309  1
  S  S30  1  0.749999  0.211837  0.015662  1
  S  S31  1  0.997911  0.498551  0.237763  1
  S  S32  1  0.002071  0.501392  0.762322  1
  S  S33  1  0.750003  0.255304  0.484171  1
  S  S34  1  0.497911  0.001389  0.737721  1
  S  S35  1  0.750003  0.755152  0.015780  1
  S  S36  1  0.002092  0.001390  0.737727  1
  S  S37  1  0.502094  0.498532  0.237773  1
  S  S38  1  0.249997  0.744807  0.515818  1
  S  S39  1  0.997914  0.998621  0.262309  1
  S  S40  1  0.750002  0.711957  0.484270  1
  S  S41  1  0.497932  0.501387  0.762324  1
  S  S42  1  0.249999  0.244750  0.984185  1
  S  S43  1  0.249996  0.288062  0.515716  1
