# generated using pymatgen
data_Na2Li5Al7Si29O72
_symmetry_space_group_name_H-M   'P 1'
_cell_length_a   9.45667729
_cell_length_b   9.39002705
_cell_length_c   28.18988240
_cell_angle_alpha   93.60190573
_cell_angle_beta   92.98624468
_cell_angle_gamma   93.66936127
_symmetry_Int_Tables_number   1
_chemical_formula_structural   Na2Li5Al7Si29O72
_chemical_formula_sum   'Na2 Li5 Al7 Si29 O72'
_cell_volume   2489.19126060
_cell_formula_units_Z   1
loop_
 _symmetry_equiv_pos_site_id
 _symmetry_equiv_pos_as_xyz
  1  'x, y, z'
loop_
 _atom_site_type_symbol
 _atom_site_label
 _atom_site_symmetry_multiplicity
 _atom_site_fract_x
 _atom_site_fract_y
 _atom_site_fract_z
 _atom_site_occupancy
  Na  Na0  1  0.984919  0.471686  0.959217  1
  Na  Na1  1  0.993084  0.469868  0.626246  1
  Li  Li2  1  0.382582  0.366773  0.788639  1
  Li  Li3  1  0.376077  0.371265  0.457498  1
  Li  Li4  1  0.630480  0.628531  0.873053  1
  Li  Li5  1  0.626399  0.629589  0.542035  1
  Li  Li6  1  0.628993  0.627416  0.206208  1
  Al  Al7  1  0.378192  0.602218  0.609219  1
  Al  Al8  1  0.627315  0.172125  0.798097  1
  Al  Al9  1  0.826047  0.601837  0.791427  1
  Al  Al10  1  0.826234  0.372247  0.866465  1
  Al  Al11  1  0.822144  0.371483  0.531772  1
  Al  Al12  1  0.826973  0.606412  0.458377  1
  Al  Al13  1  0.830102  0.602130  0.123928  1
  Si  Si14  1  0.177885  0.399291  0.875968  1
  Si  Si15  1  0.176435  0.622344  0.801655  1
  Si  Si16  1  0.173987  0.399451  0.540578  1
  Si  Si17  1  0.176457  0.624339  0.466355  1
  Si  Si18  1  0.171114  0.398522  0.207787  1
  Si  Si19  1  0.176939  0.622739  0.133182  1
  Si  Si20  1  0.380756  0.829135  0.867204  1
  Si  Si21  1  0.381226  0.602608  0.943133  1
  Si  Si22  1  0.400308  0.174682  0.873706  1
  Si  Si23  1  0.401212  0.619937  0.725463  1
  Si  Si24  1  0.378964  0.831509  0.532906  1
  Si  Si25  1  0.402889  0.176366  0.539918  1
  Si  Si26  1  0.401407  0.621977  0.390331  1
  Si  Si27  1  0.376684  0.828850  0.200543  1
  Si  Si28  1  0.376627  0.597710  0.275408  1
  Si  Si29  1  0.395864  0.173357  0.207653  1
  Si  Si30  1  0.402820  0.623982  0.057982  1
  Si  Si31  1  0.601065  0.827612  0.792012  1
  Si  Si32  1  0.601759  0.372695  0.943166  1
  Si  Si33  1  0.623187  0.398270  0.722675  1
  Si  Si34  1  0.603885  0.377717  0.607755  1
  Si  Si35  1  0.600585  0.829918  0.456642  1
  Si  Si36  1  0.624704  0.398461  0.389994  1
  Si  Si37  1  0.619080  0.171287  0.463998  1
  Si  Si38  1  0.598283  0.372304  0.275402  1
  Si  Si39  1  0.600822  0.831488  0.124920  1
  Si  Si40  1  0.621322  0.398375  0.057416  1
  Si  Si41  1  0.621288  0.176115  0.133431  1
  Si  Si42  1  0.826657  0.375536  0.200775  1
  O  O43  1  0.010894  0.616749  0.794297  1
  O  O44  1  0.010740  0.620979  0.459133  1
  O  O45  1  0.010924  0.626987  0.124842  1
  O  O46  1  0.240391  0.764434  0.835264  1
  O  O47  1  0.239209  0.501466  0.924649  1
  O  O48  1  0.232845  0.475676  0.827986  1
  O  O49  1  0.244899  0.244336  0.877447  1
  O  O50  1  0.249157  0.612520  0.750799  1
  O  O51  1  0.243188  0.766914  0.497932  1
  O  O52  1  0.222694  0.496021  0.589008  1
  O  O53  1  0.230439  0.477982  0.492017  1
  O  O54  1  0.250988  0.247871  0.537573  1
  O  O55  1  0.250555  0.613712  0.414678  1
  O  O56  1  0.242051  0.765869  0.166165  1
  O  O57  1  0.236389  0.496683  0.255527  1
  O  O58  1  0.383523  0.755144  0.919049  1
  O  O59  1  0.218148  0.480169  0.161091  1
  O  O60  1  0.243191  0.244819  0.207056  1
  O  O61  1  0.250025  0.618415  0.081925  1
  O  O62  1  0.377572  0.001051  0.876718  1
  O  O63  1  0.372179  0.619944  0.669674  1
  O  O64  1  0.382313  0.766695  0.583763  1
  O  O65  1  0.377128  0.004289  0.537160  1
  O  O66  1  0.371849  0.000349  0.210026  1
  O  O67  1  0.377998  0.622346  0.332506  1
  O  O68  1  0.383266  0.751208  0.250934  1
  O  O69  1  0.476937  0.474827  0.741883  1
  O  O70  1  0.467721  0.230972  0.826375  1
  O  O71  1  0.500127  0.235949  0.921047  1
  O  O72  1  0.498274  0.757457  0.747044  1
  O  O73  1  0.524719  0.774223  0.843078  1
  O  O74  1  0.526002  0.524208  0.927878  1
  O  O75  1  0.374979  0.628034  0.000567  1
  O  O76  1  0.474110  0.473206  0.404910  1
  O  O77  1  0.474919  0.226912  0.490269  1
  O  O78  1  0.505632  0.233924  0.585639  1
  O  O79  1  0.500089  0.761602  0.409916  1
  O  O80  1  0.525482  0.782559  0.506498  1
  O  O81  1  0.530453  0.519152  0.587927  1
  O  O82  1  0.480763  0.482059  0.072384  1
  O  O83  1  0.478706  0.216742  0.160799  1
  O  O84  1  0.493854  0.235496  0.254754  1
  O  O85  1  0.497240  0.768702  0.078998  1
  O  O86  1  0.525385  0.786304  0.175683  1
  O  O87  1  0.525688  0.523268  0.259340  1
  O  O88  1  0.608735  0.243108  0.742759  1
  O  O89  1  0.601669  0.384187  0.664823  1
  O  O90  1  0.585964  0.992330  0.792321  1
  O  O91  1  0.606556  0.243494  0.412587  1
  O  O92  1  0.594095  0.000802  0.453477  1
  O  O93  1  0.610987  0.369285  0.332091  1
  O  O94  1  0.761562  0.384685  0.926506  1
  O  O95  1  0.755489  0.769575  0.792491  1
  O  O96  1  0.768735  0.529092  0.843906  1
  O  O97  1  0.616372  0.245211  0.082376  1
  O  O98  1  0.615979  0.003879  0.124792  1
  O  O99  1  0.603873  0.365252  0.000482  1
  O  O100  1  0.763776  0.497741  0.739190  1
  O  O101  1  0.776142  0.218361  0.834067  1
  O  O102  1  0.765814  0.372252  0.591191  1
  O  O103  1  0.755162  0.774222  0.456651  1
  O  O104  1  0.764158  0.528440  0.509030  1
  O  O105  1  0.761887  0.497312  0.407283  1
  O  O106  1  0.758983  0.219202  0.496244  1
  O  O107  1  0.752857  0.372285  0.252407  1
  O  O108  1  0.750416  0.764088  0.127822  1
  O  O109  1  0.779263  0.522272  0.177898  1
  O  O110  1  0.765284  0.492773  0.074094  1
  O  O111  1  0.764017  0.234986  0.166560  1
  O  O112  1  0.011480  0.393179  0.882029  1
  O  O113  1  0.006121  0.373278  0.540686  1
  O  O114  1  0.999037  0.372132  0.209153  1
