# generated using pymatgen
data_UAg3(AsO4)3
_symmetry_space_group_name_H-M   'P 1'
_cell_length_a   9.09617054
_cell_length_b   9.34947720
_cell_length_c   27.97557365
_cell_angle_alpha   90.00000000
_cell_angle_beta   90.00000000
_cell_angle_gamma   104.99154087
_symmetry_Int_Tables_number   1
_chemical_formula_structural   UAg3(AsO4)3
_chemical_formula_sum   'U8 Ag24 As24 O96'
_cell_volume   2298.18970958
_cell_formula_units_Z   8
loop_
 _symmetry_equiv_pos_site_id
 _symmetry_equiv_pos_as_xyz
  1  'x, y, z'
loop_
 _atom_site_type_symbol
 _atom_site_label
 _atom_site_symmetry_multiplicity
 _atom_site_fract_x
 _atom_site_fract_y
 _atom_site_fract_z
 _atom_site_occupancy
  U  U0  1  0.611107  0.858808  0.857318  1
  U  U1  1  0.106184  0.329270  0.862579  1
  U  U2  1  0.111107  0.358808  0.642682  1
  U  U3  1  0.606184  0.829270  0.637421  1
  U  U4  1  0.888893  0.641192  0.357318  1
  U  U5  1  0.393816  0.170730  0.362579  1
  U  U6  1  0.388893  0.141192  0.142682  1
  U  U7  1  0.893816  0.670730  0.137421  1
  Ag  Ag8  1  0.093151  0.785131  0.686639  1
  Ag  Ag9  1  0.906849  0.214869  0.313361  1
  Ag  Ag10  1  0.360294  0.588938  0.755774  1
  Ag  Ag11  1  0.406849  0.714869  0.186639  1
  Ag  Ag12  1  0.031825  0.025489  0.435353  1
  Ag  Ag13  1  0.706198  0.216547  0.940072  1
  Ag  Ag14  1  0.968175  0.974511  0.564647  1
  Ag  Ag15  1  0.279970  0.802250  0.427568  1
  Ag  Ag16  1  0.139706  0.911062  0.255774  1
  Ag  Ag17  1  0.220030  0.697750  0.927568  1
  Ag  Ag18  1  0.639706  0.411062  0.244226  1
  Ag  Ag19  1  0.418518  0.663808  0.313458  1
  Ag  Ag20  1  0.793802  0.283453  0.440072  1
  Ag  Ag21  1  0.468175  0.474511  0.935353  1
  Ag  Ag22  1  0.206198  0.716547  0.559928  1
  Ag  Ag23  1  0.860294  0.088938  0.744226  1
  Ag  Ag24  1  0.293802  0.783453  0.059928  1
  Ag  Ag25  1  0.081482  0.836192  0.813458  1
  Ag  Ag26  1  0.918518  0.163808  0.186542  1
  Ag  Ag27  1  0.593151  0.285131  0.813361  1
  Ag  Ag28  1  0.531825  0.525489  0.064647  1
  Ag  Ag29  1  0.720030  0.197750  0.572432  1
  Ag  Ag30  1  0.581482  0.336192  0.686542  1
  Ag  Ag31  1  0.779970  0.302250  0.072432  1
  As  As32  1  0.593724  0.836575  0.506311  1
  As  As33  1  0.906276  0.663425  0.006311  1
  As  As34  1  0.756111  0.806908  0.248391  1
  As  As35  1  0.743889  0.693092  0.748391  1
  As  As36  1  0.819678  0.564045  0.893213  1
  As  As37  1  0.665262  0.848107  0.989793  1
  As  As38  1  0.243889  0.193092  0.751609  1
  As  As39  1  0.319678  0.064045  0.606787  1
  As  As40  1  0.043053  0.529975  0.246925  1
  As  As41  1  0.830997  0.557698  0.598529  1
  As  As42  1  0.330997  0.057698  0.901471  1
  As  As43  1  0.180322  0.435955  0.106787  1
  As  As44  1  0.543053  0.029975  0.253075  1
  As  As45  1  0.256111  0.306908  0.251609  1
  As  As46  1  0.669003  0.942302  0.098529  1
  As  As47  1  0.165262  0.348107  0.510207  1
  As  As48  1  0.093724  0.336575  0.993689  1
  As  As49  1  0.834738  0.651893  0.489793  1
  As  As50  1  0.456947  0.970025  0.746925  1
  As  As51  1  0.334738  0.151893  0.010207  1
  As  As52  1  0.956947  0.470025  0.753075  1
  As  As53  1  0.680322  0.935955  0.393213  1
  As  As54  1  0.406276  0.163425  0.493689  1
  As  As55  1  0.169003  0.442302  0.401471  1
  O  O56  1  0.578172  0.112794  0.198366  1
  O  O57  1  0.742084  0.500502  0.327769  1
  O  O58  1  0.452296  0.695230  0.608300  1
  O  O59  1  0.202765  0.271744  0.397561  1
  O  O60  1  0.539102  0.284690  0.112869  1
  O  O61  1  0.092810  0.167119  0.251412  1
  O  O62  1  0.177911  0.429383  0.944045  1
  O  O63  1  0.507880  0.961851  0.377828  1
  O  O64  1  0.182594  0.444423  0.562013  1
  O  O65  1  0.808955  0.092394  0.114419  1
  O  O66  1  0.165638  0.916734  0.616497  1
  O  O67  1  0.644791  0.665533  0.502114  1
  O  O68  1  0.355209  0.334467  0.497886  1
  O  O69  1  0.193977  0.441357  0.041639  1
  O  O70  1  0.144791  0.165533  0.997886  1
  O  O71  1  0.762493  0.971042  0.662782  1
  O  O72  1  0.834362  0.083266  0.383503  1
  O  O73  1  0.191045  0.907606  0.885581  1
  O  O74  1  0.039102  0.784690  0.387131  1
  O  O75  1  0.693977  0.941357  0.458361  1
  O  O76  1  0.027537  0.188686  0.504886  1
  O  O77  1  0.317406  0.055577  0.062013  1
  O  O78  1  0.112066  0.204113  0.708922  1
  O  O79  1  0.492120  0.038149  0.622172  1
  O  O80  1  0.797235  0.728256  0.602439  1
  O  O81  1  0.988603  0.431536  0.380474  1
  O  O82  1  0.952296  0.195230  0.891700  1
  O  O83  1  0.903987  0.299008  0.998944  1
  O  O84  1  0.237507  0.028958  0.337218  1
  O  O85  1  0.007880  0.461851  0.122172  1
  O  O86  1  0.340703  0.346821  0.306326  1
  O  O87  1  0.159297  0.153179  0.806326  1
  O  O88  1  0.691045  0.407606  0.614419  1
  O  O89  1  0.737507  0.528958  0.162782  1
  O  O90  1  0.895341  0.374733  0.244729  1
  O  O91  1  0.921828  0.387206  0.698366  1
  O  O92  1  0.612066  0.704113  0.791078  1
  O  O93  1  0.308955  0.592394  0.385581  1
  O  O94  1  0.334362  0.583266  0.116497  1
  O  O95  1  0.011397  0.568464  0.619526  1
  O  O96  1  0.527537  0.688686  0.995114  1
  O  O97  1  0.104659  0.625267  0.755271  1
  O  O98  1  0.592810  0.667118  0.248588  1
  O  O99  1  0.257916  0.499498  0.672231  1
  O  O100  1  0.665638  0.416734  0.883503  1
  O  O101  1  0.992120  0.538149  0.877828  1
  O  O102  1  0.854052  0.523473  0.534558  1
  O  O103  1  0.907190  0.832882  0.748588  1
  O  O104  1  0.096013  0.700992  0.001056  1
  O  O105  1  0.960898  0.215310  0.612869  1
  O  O106  1  0.548547  0.161079  0.296437  1
  O  O107  1  0.488603  0.931536  0.119526  1
  O  O108  1  0.702765  0.771744  0.102439  1
  O  O109  1  0.887934  0.795887  0.291078  1
  O  O110  1  0.699439  0.766520  0.376461  1
  O  O111  1  0.604659  0.125267  0.744729  1
  O  O112  1  0.297235  0.228256  0.897561  1
  O  O113  1  0.855209  0.834467  0.002114  1
  O  O114  1  0.784007  0.521978  0.767643  1
  O  O115  1  0.262493  0.471042  0.837218  1
  O  O116  1  0.322089  0.070617  0.444045  1
  O  O117  1  0.395341  0.874733  0.255271  1
  O  O118  1  0.460898  0.715310  0.887131  1
  O  O119  1  0.659297  0.653179  0.693674  1
  O  O120  1  0.421828  0.887206  0.801634  1
  O  O121  1  0.547704  0.304770  0.391700  1
  O  O122  1  0.715993  0.978022  0.267643  1
  O  O123  1  0.407190  0.332881  0.751412  1
  O  O124  1  0.242084  0.000502  0.172231  1
  O  O125  1  0.511397  0.068464  0.880474  1
  O  O126  1  0.215993  0.478022  0.232357  1
  O  O127  1  0.403987  0.799008  0.501056  1
  O  O128  1  0.817406  0.555577  0.437987  1
  O  O129  1  0.387934  0.295887  0.208922  1
  O  O130  1  0.822089  0.570617  0.055955  1
  O  O131  1  0.806023  0.558643  0.958361  1
  O  O132  1  0.145948  0.476527  0.465442  1
  O  O133  1  0.047704  0.804770  0.108300  1
  O  O134  1  0.645948  0.976527  0.034558  1
  O  O135  1  0.757916  0.999498  0.827769  1
  O  O136  1  0.354052  0.023473  0.965442  1
  O  O137  1  0.306023  0.058643  0.541639  1
  O  O138  1  0.951453  0.338921  0.796437  1
  O  O139  1  0.472463  0.311314  0.004886  1
  O  O140  1  0.451453  0.838921  0.703563  1
  O  O141  1  0.199439  0.266520  0.123539  1
  O  O142  1  0.840703  0.846821  0.193674  1
  O  O143  1  0.300561  0.233480  0.623539  1
  O  O144  1  0.800561  0.733480  0.876461  1
  O  O145  1  0.048547  0.661079  0.203563  1
  O  O146  1  0.972463  0.811314  0.495114  1
  O  O147  1  0.677911  0.929383  0.555955  1
  O  O148  1  0.682594  0.944423  0.937987  1
  O  O149  1  0.596013  0.200992  0.498944  1
  O  O150  1  0.078172  0.612794  0.301634  1
  O  O151  1  0.284007  0.021978  0.732357  1
