# generated using pymatgen
data_AlHO2
_symmetry_space_group_name_H-M   'P 1'
_cell_length_a   4.92606517
_cell_length_b   8.51765447
_cell_length_c   2.88451723
_cell_angle_alpha   90.00000000
_cell_angle_beta   90.00000000
_cell_angle_gamma   90.00000000
_symmetry_Int_Tables_number   1
_chemical_formula_structural   AlHO2
_chemical_formula_sum   'Al4 H4 O8'
_cell_volume   121.03007681
_cell_formula_units_Z   4
loop_
 _symmetry_equiv_pos_site_id
 _symmetry_equiv_pos_as_xyz
  1  'x, y, z'
loop_
 _atom_site_type_symbol
 _atom_site_label
 _atom_site_symmetry_multiplicity
 _atom_site_fract_x
 _atom_site_fract_y
 _atom_site_fract_z
 _atom_site_occupancy
  Al  Al0  1  0.398321  0.650199  0.250000  1
  Al  Al1  1  0.101679  0.150199  0.250000  1
  Al  Al2  1  0.601679  0.349801  0.750000  1
  Al  Al3  1  0.898321  0.849801  0.750000  1
  H  H4  1  0.371417  0.934350  0.750000  1
  H  H5  1  0.128583  0.434350  0.750000  1
  H  H6  1  0.628583  0.065650  0.250000  1
  H  H7  1  0.871417  0.565650  0.250000  1
  O  O8  1  0.207774  0.003360  0.750000  1
  O  O9  1  0.292226  0.503360  0.750000  1
  O  O10  1  0.792226  0.996640  0.250000  1
  O  O11  1  0.707774  0.496640  0.250000  1
  O  O12  1  0.946279  0.259439  0.750000  1
  O  O13  1  0.553721  0.759439  0.750000  1
  O  O14  1  0.053721  0.740561  0.250000  1
  O  O15  1  0.446279  0.240561  0.250000  1
