# generated using pymatgen
data_K(Zr3I7)2
_symmetry_space_group_name_H-M   'P 1'
_cell_length_a   11.14865378
_cell_length_b   11.14865351
_cell_length_c   13.45694381
_cell_angle_alpha   90.00000000
_cell_angle_beta   90.00000000
_cell_angle_gamma   97.51965923
_symmetry_Int_Tables_number   1
_chemical_formula_structural   K(Zr3I7)2
_chemical_formula_sum   'K2 Zr12 I28'
_cell_volume   1658.21258974
_cell_formula_units_Z   2
loop_
 _symmetry_equiv_pos_site_id
 _symmetry_equiv_pos_as_xyz
  1  'x, y, z'
loop_
 _atom_site_type_symbol
 _atom_site_label
 _atom_site_symmetry_multiplicity
 _atom_site_fract_x
 _atom_site_fract_y
 _atom_site_fract_z
 _atom_site_occupancy
  K  K0  1  0.000000  0.000000  0.500000  1
  K  K1  1  0.500000  0.500000  0.000000  1
  Zr  Zr2  1  0.195956  0.948859  0.625374  1
  Zr  Zr3  1  0.551141  0.304044  0.125374  1
  Zr  Zr4  1  0.304044  0.551141  0.125374  1
  Zr  Zr5  1  0.051141  0.804044  0.374626  1
  Zr  Zr6  1  0.341029  0.341029  0.882506  1
  Zr  Zr7  1  0.158971  0.158971  0.382506  1
  Zr  Zr8  1  0.948859  0.195956  0.625374  1
  Zr  Zr9  1  0.841029  0.841029  0.617494  1
  Zr  Zr10  1  0.695956  0.448859  0.874626  1
  Zr  Zr11  1  0.448859  0.695956  0.874626  1
  Zr  Zr12  1  0.658971  0.658971  0.117494  1
  Zr  Zr13  1  0.804044  0.051141  0.374626  1
  I  I14  1  0.364739  0.117302  0.508473  1
  I  I15  1  0.250025  0.749975  0.000000  1
  I  I16  1  0.249975  0.750025  0.500000  1
  I  I17  1  0.287088  0.535013  0.749117  1
  I  I18  1  0.903441  0.403441  0.750000  1
  I  I19  1  0.841713  0.841713  0.236959  1
  I  I20  1  0.117302  0.364739  0.508473  1
  I  I21  1  0.135261  0.382698  0.008473  1
  I  I22  1  0.341713  0.341713  0.263041  1
  I  I23  1  0.403441  0.903441  0.750000  1
  I  I24  1  0.749975  0.250025  0.000000  1
  I  I25  1  0.964987  0.212912  0.249117  1
  I  I26  1  0.658287  0.658287  0.736959  1
  I  I27  1  0.882698  0.635261  0.491527  1
  I  I28  1  0.712912  0.464987  0.250883  1
  I  I29  1  0.158287  0.158287  0.763041  1
  I  I30  1  0.464987  0.712912  0.250883  1
  I  I31  1  0.382698  0.135261  0.008473  1
  I  I32  1  0.750025  0.249975  0.500000  1
  I  I33  1  0.035013  0.787088  0.750883  1
  I  I34  1  0.212912  0.964987  0.249117  1
  I  I35  1  0.596559  0.096559  0.250000  1
  I  I36  1  0.787088  0.035013  0.750883  1
  I  I37  1  0.635261  0.882698  0.491527  1
  I  I38  1  0.535013  0.287088  0.749117  1
  I  I39  1  0.864739  0.617302  0.991527  1
  I  I40  1  0.096559  0.596559  0.250000  1
  I  I41  1  0.617302  0.864739  0.991527  1
