# generated using pymatgen
data_Ta2H4O7
_symmetry_space_group_name_H-M   'P 1'
_cell_length_a   7.44541470
_cell_length_b   7.58282794
_cell_length_c   7.46232775
_cell_angle_alpha   59.31606444
_cell_angle_beta   61.14781490
_cell_angle_gamma   62.05172494
_symmetry_Int_Tables_number   1
_chemical_formula_structural   Ta2H4O7
_chemical_formula_sum   'Ta4 H8 O14'
_cell_volume   303.19164206
_cell_formula_units_Z   2
loop_
 _symmetry_equiv_pos_site_id
 _symmetry_equiv_pos_as_xyz
  1  'x, y, z'
loop_
 _atom_site_type_symbol
 _atom_site_label
 _atom_site_symmetry_multiplicity
 _atom_site_fract_x
 _atom_site_fract_y
 _atom_site_fract_z
 _atom_site_occupancy
  Ta  Ta0  1  0.499065  -0.016798  0.508823  1
  Ta  Ta1  1  0.505758  0.486647  0.010245  1
  Ta  Ta2  1  0.016798  0.500935  0.491090  1
  Ta  Ta3  1  0.513353  0.494242  0.502650  1
  H  H4  1  0.953322  0.754210  0.874226  1
  H  H5  1  0.809791  0.906681  0.003740  1
  H  H6  1  0.667594  0.065868  0.696899  1
  H  H7  1  0.077426  0.072538  0.685703  1
  H  H8  1  0.245790  0.046678  0.081758  1
  H  H9  1  0.093319  0.190209  0.220213  1
  H  H10  1  -0.072538  0.922574  0.335667  1
  H  H11  1  -0.065868  0.332406  0.930361  1
  O  O12  1  0.567824  0.181005  0.214989  1
  O  O13  1  0.216445  0.514982  0.578138  1
  O  O14  1  0.182470  0.157074  0.585343  1
  O  O15  1  0.582692  0.533631  0.206579  1
  O  O16  1  0.203623  0.544469  0.197689  1
  O  O17  1  0.589268  0.156004  0.588327  1
  O  O18  1  0.485018  0.783555  0.809565  1
  O  O19  1  0.818995  0.432176  0.463818  1
  O  O20  1  0.842926  0.817530  0.424887  1
  O  O21  1  0.466369  0.417308  0.822901  1
  O  O22  1  0.843996  0.410732  0.833599  1
  O  O23  1  0.455531  0.796377  0.445781  1
  O  O24  1  0.887368  0.906208  0.855056  1
  O  O25  1  0.093792  0.112632  0.148632  1
