# generated using pymatgen
data_Nd2PbSe4
_symmetry_space_group_name_H-M   'P 1'
_cell_length_a   7.83962466
_cell_length_b   7.83962547
_cell_length_c   7.83962503
_cell_angle_alpha   109.41802276
_cell_angle_beta   109.57767569
_cell_angle_gamma   109.41801912
_symmetry_Int_Tables_number   1
_chemical_formula_structural   Nd2PbSe4
_chemical_formula_sum   'Nd4 Pb2 Se8'
_cell_volume   370.90513317
_cell_formula_units_Z   2
loop_
 _symmetry_equiv_pos_site_id
 _symmetry_equiv_pos_as_xyz
  1  'x, y, z'
loop_
 _atom_site_type_symbol
 _atom_site_label
 _atom_site_symmetry_multiplicity
 _atom_site_fract_x
 _atom_site_fract_y
 _atom_site_fract_z
 _atom_site_occupancy
  Nd  Nd0  1  0.250000  0.631030  0.381030  1
  Nd  Nd1  1  0.750000  0.868970  0.118970  1
  Nd  Nd2  1  0.618970  0.368970  0.250000  1
  Nd  Nd3  1  0.881030  0.131030  0.750000  1
  Pb  Pb4  1  0.125000  0.750000  0.875000  1
  Pb  Pb5  1  0.375000  0.250000  0.625000  1
  Se  Se6  1  0.990220  0.847373  0.492400  1
  Se  Se7  1  0.507600  0.997821  0.354974  1
  Se  Se8  1  0.142847  0.152627  0.145026  1
  Se  Se9  1  0.357153  0.502179  0.009780  1
  Se  Se10  1  0.509780  0.002179  0.857153  1
  Se  Se11  1  0.645026  0.652627  0.642847  1
  Se  Se12  1  0.854974  0.497821  0.007600  1
  Se  Se13  1  0.992400  0.347373  0.490220  1
