# generated using pymatgen
data_Rb2Cu3H2S3O14
_symmetry_space_group_name_H-M   'P 1'
_cell_length_a   16.33398511
_cell_length_b   17.68790112
_cell_length_c   5.28262036
_cell_angle_alpha   90.00000000
_cell_angle_beta   90.00000000
_cell_angle_gamma   90.00000000
_symmetry_Int_Tables_number   1
_chemical_formula_structural   Rb2Cu3H2S3O14
_chemical_formula_sum   'Rb8 Cu12 H8 S12 O56'
_cell_volume   1526.22252185
_cell_formula_units_Z   4
loop_
 _symmetry_equiv_pos_site_id
 _symmetry_equiv_pos_as_xyz
  1  'x, y, z'
loop_
 _atom_site_type_symbol
 _atom_site_label
 _atom_site_symmetry_multiplicity
 _atom_site_fract_x
 _atom_site_fract_y
 _atom_site_fract_z
 _atom_site_occupancy
  Rb  Rb0  1  0.384734  0.445039  0.278488  1
  Rb  Rb1  1  0.884734  0.054961  0.221512  1
  Rb  Rb2  1  0.615266  0.945039  0.721512  1
  Rb  Rb3  1  0.115266  0.554961  0.778488  1
  Rb  Rb4  1  0.615266  0.554961  0.721512  1
  Rb  Rb5  1  0.115266  0.945039  0.778488  1
  Rb  Rb6  1  0.384734  0.054961  0.278488  1
  Rb  Rb7  1  0.884734  0.445039  0.221512  1
  Cu  Cu8  1  0.287292  0.677527  0.296481  1
  Cu  Cu9  1  0.787292  0.822473  0.203519  1
  Cu  Cu10  1  0.712708  0.177527  0.703519  1
  Cu  Cu11  1  0.212708  0.322473  0.796481  1
  Cu  Cu12  1  0.712708  0.322473  0.703519  1
  Cu  Cu13  1  0.212708  0.177527  0.796481  1
  Cu  Cu14  1  0.287292  0.822473  0.296481  1
  Cu  Cu15  1  0.787292  0.677527  0.203519  1
  Cu  Cu16  1  0.957169  0.750000  0.601739  1
  Cu  Cu17  1  0.457169  0.750000  0.898261  1
  Cu  Cu18  1  0.042831  0.250000  0.398261  1
  Cu  Cu19  1  0.542831  0.250000  0.101739  1
  H  H20  1  0.133554  0.750000  0.697130  1
  H  H21  1  0.633554  0.750000  0.802870  1
  H  H22  1  0.866446  0.250000  0.302870  1
  H  H23  1  0.366446  0.250000  0.197130  1
  H  H24  1  0.737611  0.750000  0.100019  1
  H  H25  1  0.237611  0.750000  0.399981  1
  H  H26  1  0.262389  0.250000  0.899981  1
  H  H27  1  0.762389  0.250000  0.600019  1
  S  S28  1  0.369464  0.586963  0.832378  1
  S  S29  1  0.869464  0.913037  0.667622  1
  S  S30  1  0.630536  0.086963  0.167622  1
  S  S31  1  0.130536  0.413037  0.332378  1
  S  S32  1  0.630536  0.413037  0.167622  1
  S  S33  1  0.130536  0.086963  0.332378  1
  S  S34  1  0.369464  0.913037  0.832378  1
  S  S35  1  0.869464  0.586963  0.667622  1
  S  S36  1  0.117718  0.750000  0.100344  1
  S  S37  1  0.617718  0.750000  0.399656  1
  S  S38  1  0.882282  0.250000  0.899656  1
  S  S39  1  0.382282  0.250000  0.600344  1
  O  O40  1  0.401220  0.510064  0.788009  1
  O  O41  1  0.901220  0.989936  0.711991  1
  O  O42  1  0.598780  0.010064  0.211991  1
  O  O43  1  0.098780  0.489936  0.288009  1
  O  O44  1  0.598780  0.489936  0.211991  1
  O  O45  1  0.098780  0.010064  0.288009  1
  O  O46  1  0.401220  0.989936  0.788009  1
  O  O47  1  0.901220  0.510064  0.711991  1
  O  O48  1  0.442744  0.638709  0.852275  1
  O  O49  1  0.942744  0.861291  0.647725  1
  O  O50  1  0.557256  0.138709  0.147725  1
  O  O51  1  0.057256  0.361291  0.352275  1
  O  O52  1  0.557256  0.361291  0.147725  1
  O  O53  1  0.057256  0.138709  0.352275  1
  O  O54  1  0.442744  0.861291  0.852275  1
  O  O55  1  0.942744  0.638709  0.647725  1
  O  O56  1  0.310657  0.607753  0.629108  1
  O  O57  1  0.810657  0.892247  0.870892  1
  O  O58  1  0.689343  0.107753  0.370892  1
  O  O59  1  0.189343  0.392247  0.129108  1
  O  O60  1  0.689343  0.392247  0.370892  1
  O  O61  1  0.189343  0.107753  0.129108  1
  O  O62  1  0.310657  0.892247  0.629108  1
  O  O63  1  0.810657  0.607753  0.870892  1
  O  O64  1  0.324569  0.589628  0.082786  1
  O  O65  1  0.824569  0.910372  0.417214  1
  O  O66  1  0.675431  0.089628  0.917214  1
  O  O67  1  0.175431  0.410372  0.582786  1
  O  O68  1  0.675431  0.410372  0.917214  1
  O  O69  1  0.175431  0.089628  0.582786  1
  O  O70  1  0.324569  0.910372  0.082786  1
  O  O71  1  0.824569  0.589628  0.417214  1
  O  O72  1  0.047206  0.750000  0.265234  1
  O  O73  1  0.547206  0.750000  0.234766  1
  O  O74  1  0.952794  0.250000  0.734766  1
  O  O75  1  0.452794  0.250000  0.765234  1
  O  O76  1  0.165537  0.679565  0.110614  1
  O  O77  1  0.665537  0.820435  0.389386  1
  O  O78  1  0.834463  0.179565  0.889386  1
  O  O79  1  0.334463  0.320435  0.610614  1
  O  O80  1  0.834463  0.320435  0.889386  1
  O  O81  1  0.334463  0.179565  0.610614  1
  O  O82  1  0.165537  0.820435  0.110614  1
  O  O83  1  0.665537  0.679565  0.389386  1
  O  O84  1  0.084303  0.750000  0.805051  1
  O  O85  1  0.584303  0.750000  0.694949  1
  O  O86  1  0.915697  0.250000  0.194949  1
  O  O87  1  0.415697  0.250000  0.305051  1
  O  O88  1  0.352861  0.750000  0.531620  1
  O  O89  1  0.852861  0.750000  0.968380  1
  O  O90  1  0.647139  0.250000  0.468380  1
  O  O91  1  0.147139  0.250000  0.031620  1
  O  O92  1  0.932335  0.750000  0.966415  1
  O  O93  1  0.432335  0.750000  0.533585  1
  O  O94  1  0.067665  0.250000  0.033585  1
  O  O95  1  0.567665  0.250000  0.466415  1
