# generated using pymatgen
data_Bi17P5Pb5O43
_symmetry_space_group_name_H-M   'P 1'
_cell_length_a   11.70451360
_cell_length_b   11.64386288
_cell_length_c   11.64386207
_cell_angle_alpha   93.60476977
_cell_angle_beta   117.73711517
_cell_angle_gamma   117.73711563
_symmetry_Int_Tables_number   1
_chemical_formula_structural   Bi17P5Pb5O43
_chemical_formula_sum   'Bi17 P5 Pb5 O43'
_cell_volume   1161.34669576
_cell_formula_units_Z   1
loop_
 _symmetry_equiv_pos_site_id
 _symmetry_equiv_pos_as_xyz
  1  'x, y, z'
loop_
 _atom_site_type_symbol
 _atom_site_label
 _atom_site_symmetry_multiplicity
 _atom_site_fract_x
 _atom_site_fract_y
 _atom_site_fract_z
 _atom_site_occupancy
  Bi  Bi0  1  0.659217  0.981686  0.660390  1
  Bi  Bi1  1  0.322785  0.321952  0.662823  1
  Bi  Bi2  1  0.284190  0.296467  0.296467  1
  Bi  Bi3  1  0.024678  0.675504  0.022193  1
  Bi  Bi4  1  0.370775  0.670253  0.010945  1
  Bi  Bi5  1  0.370775  0.010945  0.670253  1
  Bi  Bi6  1  0.322785  0.662823  0.321952  1
  Bi  Bi7  1  0.666060  0.685235  0.332384  1
  Bi  Bi8  1  0.024300  0.688312  0.688312  1
  Bi  Bi9  1  0.323654  0.652471  0.652471  1
  Bi  Bi10  1  0.988455  0.989160  0.989160  1
  Bi  Bi11  1  0.675354  0.013640  0.309581  1
  Bi  Bi12  1  0.024678  0.022193  0.675504  1
  Bi  Bi13  1  0.667707  0.322840  0.322840  1
  Bi  Bi14  1  0.675354  0.309581  0.013640  1
  Bi  Bi15  1  0.666060  0.332384  0.685235  1
  Bi  Bi16  1  0.659217  0.660390  0.981686  1
  P  P17  1  0.338858  0.310832  0.011271  1
  P  P18  1  0.968280  0.625947  0.318313  1
  P  P19  1  0.649718  0.641631  0.641631  1
  P  P20  1  0.338858  0.011271  0.310832  1
  P  P21  1  0.968280  0.318313  0.625947  1
  Pb  Pb22  1  0.992609  0.319755  0.319755  1
  Pb  Pb23  1  0.007682  0.995230  0.327688  1
  Pb  Pb24  1  0.007682  0.327688  0.995230  1
  Pb  Pb25  1  0.682410  0.998177  0.998177  1
  Pb  Pb26  1  0.353234  0.999673  0.999673  1
  O  O27  1  0.153376  0.103950  0.587716  1
  O  O28  1  0.206901  0.212522  0.029698  1
  O  O29  1  0.380374  0.056723  0.459175  1
  O  O30  1  0.208870  0.259265  0.435828  1
  O  O31  1  0.634732  0.728061  0.139293  1
  O  O32  1  0.041021  0.147666  0.147666  1
  O  O33  1  0.138150  0.729489  0.908697  1
  O  O34  1  0.485963  0.307772  0.106072  1
  O  O35  1  0.466056  0.679735  0.870212  1
  O  O36  1  0.286109  0.252753  0.858466  1
  O  O37  1  0.924164  0.656292  0.180861  1
  O  O38  1  0.654590  0.186040  0.186040  1
  O  O39  1  0.842750  0.270883  0.463003  1
  O  O40  1  0.466056  0.870212  0.679735  1
  O  O41  1  0.829546  0.869401  0.048560  1
  O  O42  1  0.206901  0.029698  0.212522  1
  O  O43  1  0.954194  0.415587  0.706811  1
  O  O44  1  0.246329  0.737965  0.737965  1
  O  O45  1  0.485963  0.106072  0.307772  1
  O  O46  1  0.153376  0.587716  0.103950  1
  O  O47  1  0.823229  0.904203  0.446415  1
  O  O48  1  0.138150  0.908697  0.729489  1
  O  O49  1  0.129546  0.391260  0.645390  1
  O  O50  1  0.495567  0.896131  0.083032  1
  O  O51  1  0.286109  0.858466  0.252753  1
  O  O52  1  0.823229  0.446415  0.904203  1
  O  O53  1  0.129546  0.645390  0.391260  1
  O  O54  1  0.924164  0.180861  0.656292  1
  O  O55  1  0.842750  0.463003  0.270883  1
  O  O56  1  0.484261  0.726145  0.253616  1
  O  O57  1  0.484261  0.253616  0.726145  1
  O  O58  1  0.847350  0.075467  0.264666  1
  O  O59  1  0.208870  0.435828  0.259265  1
  O  O60  1  0.495567  0.083032  0.896131  1
  O  O61  1  0.829493  0.718707  0.718707  1
  O  O62  1  0.610931  0.718114  0.718114  1
  O  O63  1  0.847350  0.264666  0.075467  1
  O  O64  1  0.829546  0.048560  0.869401  1
  O  O65  1  0.954194  0.706811  0.415587  1
  O  O66  1  0.573854  0.488002  0.638400  1
  O  O67  1  0.573854  0.638400  0.488002  1
  O  O68  1  0.380374  0.459175  0.056723  1
  O  O69  1  0.634732  0.139293  0.728061  1
