# generated using pymatgen
data_Mn4P4O13
_symmetry_space_group_name_H-M   'P 1'
_cell_length_a   9.19714345
_cell_length_b   6.72240913
_cell_length_c   21.66045726
_cell_angle_alpha   100.65564471
_cell_angle_beta   83.97808458
_cell_angle_gamma   53.31524125
_symmetry_Int_Tables_number   1
_chemical_formula_structural   Mn4P4O13
_chemical_formula_sum   'Mn16 P16 O52'
_cell_volume   1015.25647153
_cell_formula_units_Z   4
loop_
 _symmetry_equiv_pos_site_id
 _symmetry_equiv_pos_as_xyz
  1  'x, y, z'
loop_
 _atom_site_type_symbol
 _atom_site_label
 _atom_site_symmetry_multiplicity
 _atom_site_fract_x
 _atom_site_fract_y
 _atom_site_fract_z
 _atom_site_occupancy
  Mn  Mn0  1  0.002929  0.306758  0.170743  1
  Mn  Mn1  1  0.139086  0.316876  0.923036  1
  Mn  Mn2  1  0.267488  0.299771  0.669314  1
  Mn  Mn3  1  0.107523  0.700205  0.580687  1
  Mn  Mn4  1  0.378048  0.307797  0.420760  1
  Mn  Mn5  1  0.235908  0.683194  0.326970  1
  Mn  Mn6  1  0.372091  0.693241  0.079262  1
  Mn  Mn7  1  0.512383  0.317578  0.173409  1
  Mn  Mn8  1  0.487199  0.683097  0.826970  1
  Mn  Mn9  1  0.628641  0.306006  0.920481  1
  Mn  Mn10  1  0.755105  0.319898  0.673968  1
  Mn  Mn11  1  0.619901  0.680114  0.576031  1
  Mn  Mn12  1  0.887809  0.316908  0.423027  1
  Mn  Mn13  1  0.746348  0.693979  0.329514  1
  Mn  Mn14  1  0.862614  0.682419  0.076589  1
  Mn  Mn15  1  0.996973  0.692197  0.829238  1
  P  P16  1  0.066262  0.226462  0.557930  1
  P  P17  1  0.231442  0.167856  0.292082  1
  P  P18  1  0.316553  0.226595  0.056595  1
  P  P19  1  0.058427  0.773441  0.193407  1
  P  P20  1  0.483684  0.165931  0.792003  1
  P  P21  1  0.143551  0.832161  0.957923  1
  P  P22  1  0.608980  0.167999  0.540401  1
  P  P23  1  0.308766  0.773497  0.692072  1
  P  P24  1  0.691648  0.226643  0.306484  1
  P  P25  1  0.433575  0.774497  0.443985  1
  P  P26  1  0.856930  0.168301  0.041944  1
  P  P27  1  0.518055  0.831715  0.208056  1
  P  P28  1  0.941456  0.225504  0.806013  1
  P  P29  1  0.683340  0.773331  0.943517  1
  P  P30  1  0.766017  0.831996  0.709593  1
  P  P31  1  0.891327  0.834065  0.457991  1
  O  O32  1  0.024100  0.091687  0.598325  1
  O  O33  1  0.070232  0.336542  0.261342  1
  O  O34  1  0.179353  0.044795  0.334319  1
  O  O35  1  0.123233  0.998149  0.747748  1
  O  O36  1  0.000761  0.624591  0.156163  1
  O  O37  1  0.166390  0.382925  0.021658  1
  O  O38  1  0.276684  0.087381  0.095831  1
  O  O39  1  0.251798  0.001827  0.502257  1
  O  O40  1  0.114016  0.384934  0.597573  1
  O  O41  1  0.050839  0.667380  0.489942  1
  O  O42  1  0.267431  0.338350  0.334906  1
  O  O43  1  0.500454  0.999907  0.000202  1
  O  O44  1  0.098308  0.912635  0.154169  1
  O  O45  1  0.208599  0.617105  0.228344  1
  O  O46  1  0.374240  0.375425  0.093839  1
  O  O47  1  0.107577  0.661654  0.915099  1
  O  O48  1  0.427741  0.046874  0.834552  1
  O  O49  1  0.324150  0.332635  0.760059  1
  O  O50  1  0.260987  0.615037  0.652432  1
  O  O51  1  0.448240  0.333895  0.509361  1
  O  O52  1  0.559285  0.041306  0.581885  1
  O  O53  1  0.372890  0.629388  0.407037  1
  O  O54  1  0.540332  0.383929  0.272003  1
  O  O55  1  0.652156  0.087699  0.345987  1
  O  O56  1  0.482843  0.660429  0.165151  1
  O  O57  1  0.195634  0.955239  0.915690  1
  O  O58  1  0.304784  0.663440  0.988658  1
  O  O59  1  0.695702  0.336745  0.011155  1
  O  O60  1  0.805172  0.044808  0.084152  1
  O  O61  1  0.515217  0.341447  0.835253  1
  O  O62  1  0.350917  0.908278  0.651669  1
  O  O63  1  0.458122  0.615751  0.726747  1
  O  O64  1  0.652769  0.330131  0.581377  1
  O  O65  1  0.874516  0.000095  0.249800  1
  O  O66  1  0.471365  0.915191  0.404578  1
  O  O67  1  0.585764  0.615880  0.477595  1
  O  O68  1  0.749465  0.375391  0.343526  1
  O  O69  1  0.679283  0.663268  0.238847  1
  O  O70  1  0.569816  0.955194  0.165850  1
  O  O71  1  0.892150  0.339575  0.084849  1
  O  O72  1  0.625526  0.624584  0.906471  1
  O  O73  1  0.789252  0.384125  0.772403  1
  O  O74  1  0.903646  0.084810  0.845420  1
  O  O75  1  0.722211  0.669877  0.668624  1
  O  O76  1  0.916900  0.384232  0.523251  1
  O  O77  1  0.859766  0.658565  0.414748  1
  O  O78  1  0.722819  0.912288  0.904013  1
  O  O79  1  0.834643  0.616072  0.977999  1
  O  O80  1  0.002131  0.370601  0.842963  1
  O  O81  1  0.815719  0.958679  0.668105  1
  O  O82  1  0.926736  0.666107  0.740637  1
  O  O83  1  0.947274  0.953119  0.415444  1
