# generated using pymatgen
data_Yb11(U2S11)2
_symmetry_space_group_name_H-M   'P 1'
_cell_length_a   3.97563301
_cell_length_b   11.42960632
_cell_length_c   19.58873252
_cell_angle_alpha   91.34086124
_cell_angle_beta   95.82425952
_cell_angle_gamma   90.00000038
_symmetry_Int_Tables_number   1
_chemical_formula_structural   Yb11(U2S11)2
_chemical_formula_sum   'Yb11 U4 S22'
_cell_volume   885.27054260
_cell_formula_units_Z   1
loop_
 _symmetry_equiv_pos_site_id
 _symmetry_equiv_pos_as_xyz
  1  'x, y, z'
loop_
 _atom_site_type_symbol
 _atom_site_label
 _atom_site_symmetry_multiplicity
 _atom_site_fract_x
 _atom_site_fract_y
 _atom_site_fract_z
 _atom_site_occupancy
  Yb  Yb0  1  0.462968  0.771964  0.925936  1
  Yb  Yb1  1  0.264003  0.863612  0.528006  1
  Yb  Yb2  1  0.630934  0.145197  0.261869  1
  Yb  Yb3  1  0.068241  0.854465  0.136482  1
  Yb  Yb4  1  0.657680  0.816200  0.315360  1
  Yb  Yb5  1  0.369066  0.854803  0.738131  1
  Yb  Yb6  1  0.342320  0.183800  0.684640  1
  Yb  Yb7  1  0.000000  0.500000  0.000000  1
  Yb  Yb8  1  0.931759  0.145535  0.863518  1
  Yb  Yb9  1  0.735997  0.136388  0.471994  1
  Yb  Yb10  1  0.537032  0.228036  0.074064  1
  U  U11  1  0.101389  0.505373  0.202778  1
  U  U12  1  0.801319  0.563662  0.602638  1
  U  U13  1  0.198681  0.436338  0.397362  1
  U  U14  1  0.898611  0.494627  0.797222  1
  S  S15  1  0.257062  0.608206  0.514125  1
  S  S16  1  0.443097  0.994444  0.886195  1
  S  S17  1  0.648595  0.418576  0.297190  1
  S  S18  1  0.187126  0.212761  0.374252  1
  S  S19  1  0.008553  0.731993  0.017105  1
  S  S20  1  0.551923  0.469535  0.103845  1
  S  S21  1  0.991447  0.268007  0.982895  1
  S  S22  1  0.831469  0.366303  0.662938  1
  S  S23  1  0.351405  0.581424  0.702810  1
  S  S24  1  0.598143  0.678438  0.196285  1
  S  S25  1  0.133700  0.964970  0.267399  1
  S  S26  1  0.719856  0.904167  0.439712  1
  S  S27  1  0.280144  0.095833  0.560288  1
  S  S28  1  0.401857  0.321562  0.803715  1
  S  S29  1  0.168531  0.633697  0.337062  1
  S  S30  1  0.812874  0.787239  0.625748  1
  S  S31  1  0.907545  0.726529  0.815091  1
  S  S32  1  0.556903  0.005556  0.113805  1
  S  S33  1  0.866300  0.035030  0.732601  1
  S  S34  1  0.092455  0.273471  0.184909  1
  S  S35  1  0.742938  0.391794  0.485875  1
  S  S36  1  0.448077  0.530465  0.896155  1
