# generated using pymatgen
data_SnH8(CI)4
_symmetry_space_group_name_H-M   'P 1'
_cell_length_a   9.68271950
_cell_length_b   9.68271950
_cell_length_c   7.63899831
_cell_angle_alpha   90.00000000
_cell_angle_beta   90.00000000
_cell_angle_gamma   90.00000000
_symmetry_Int_Tables_number   1
_chemical_formula_structural   SnH8(CI)4
_chemical_formula_sum   'Sn2 H16 C8 I8'
_cell_volume   716.19472133
_cell_formula_units_Z   2
loop_
 _symmetry_equiv_pos_site_id
 _symmetry_equiv_pos_as_xyz
  1  'x, y, z'
loop_
 _atom_site_type_symbol
 _atom_site_label
 _atom_site_symmetry_multiplicity
 _atom_site_fract_x
 _atom_site_fract_y
 _atom_site_fract_z
 _atom_site_occupancy
  Sn  Sn0  1  0.000000  0.000000  0.500000  1
  Sn  Sn1  1  0.500000  0.500000  0.000000  1
  H  H2  1  0.152634  0.769287  0.413722  1
  H  H3  1  0.652634  0.730713  0.086278  1
  H  H4  1  0.847366  0.230713  0.413722  1
  H  H5  1  0.347366  0.269287  0.086278  1
  H  H6  1  0.769287  0.847366  0.586278  1
  H  H7  1  0.730713  0.347366  0.913722  1
  H  H8  1  0.230713  0.152634  0.586278  1
  H  H9  1  0.269287  0.652634  0.913722  1
  H  H10  1  0.035179  0.808746  0.237061  1
  H  H11  1  0.535179  0.691254  0.262939  1
  H  H12  1  0.964821  0.191254  0.237061  1
  H  H13  1  0.464821  0.308746  0.262939  1
  H  H14  1  0.808746  0.964821  0.762939  1
  H  H15  1  0.691254  0.464821  0.737061  1
  H  H16  1  0.191254  0.035179  0.762939  1
  H  H17  1  0.308746  0.535179  0.737061  1
  C  C18  1  0.106276  0.851392  0.334840  1
  C  C19  1  0.606276  0.648608  0.165160  1
  C  C20  1  0.893724  0.148608  0.334840  1
  C  C21  1  0.393724  0.351392  0.165160  1
  C  C22  1  0.851392  0.893724  0.665160  1
  C  C23  1  0.648608  0.393724  0.834840  1
  C  C24  1  0.148608  0.106276  0.665160  1
  C  C25  1  0.351392  0.606276  0.834840  1
  I  I26  1  0.274690  0.941295  0.188528  1
  I  I27  1  0.774690  0.558705  0.311472  1
  I  I28  1  0.725310  0.058705  0.188528  1
  I  I29  1  0.225310  0.441295  0.311472  1
  I  I30  1  0.941295  0.725310  0.811472  1
  I  I31  1  0.558705  0.225310  0.688528  1
  I  I32  1  0.058705  0.274690  0.811472  1
  I  I33  1  0.441295  0.774690  0.688528  1
