# generated using pymatgen
data_SrCa2In2Ge
_symmetry_space_group_name_H-M   'P 1'
_cell_length_a   4.89301163
_cell_length_b   12.23369220
_cell_length_c   14.17781856
_cell_angle_alpha   90.00000000
_cell_angle_beta   90.00000000
_cell_angle_gamma   90.00000000
_symmetry_Int_Tables_number   1
_chemical_formula_structural   SrCa2In2Ge
_chemical_formula_sum   'Sr4 Ca8 In8 Ge4'
_cell_volume   848.67852253
_cell_formula_units_Z   4
loop_
 _symmetry_equiv_pos_site_id
 _symmetry_equiv_pos_as_xyz
  1  'x, y, z'
loop_
 _atom_site_type_symbol
 _atom_site_label
 _atom_site_symmetry_multiplicity
 _atom_site_fract_x
 _atom_site_fract_y
 _atom_site_fract_z
 _atom_site_occupancy
  Sr  Sr0  1  0.750000  0.410750  0.250000  1
  Sr  Sr1  1  0.750000  0.089250  0.750000  1
  Sr  Sr2  1  0.250000  0.910750  0.250000  1
  Sr  Sr3  1  0.250000  0.589250  0.750000  1
  Ca  Ca4  1  0.754035  0.120431  0.404866  1
  Ca  Ca5  1  0.745965  0.120431  0.095134  1
  Ca  Ca6  1  0.245965  0.879569  0.595134  1
  Ca  Ca7  1  0.745965  0.379569  0.904866  1
  Ca  Ca8  1  0.754035  0.379569  0.595134  1
  Ca  Ca9  1  0.254035  0.620431  0.095134  1
  Ca  Ca10  1  0.254035  0.879569  0.904866  1
  Ca  Ca11  1  0.245965  0.620431  0.404866  1
  In  In12  1  0.247896  0.165156  0.580611  1
  In  In13  1  0.752104  0.834844  0.419389  1
  In  In14  1  0.752104  0.665156  0.580611  1
  In  In15  1  0.747896  0.834844  0.080611  1
  In  In16  1  0.747896  0.665156  0.919389  1
  In  In17  1  0.252104  0.334844  0.080611  1
  In  In18  1  0.247896  0.334844  0.419389  1
  In  In19  1  0.252104  0.165156  0.919389  1
  Ge  Ge20  1  0.250000  0.190753  0.250000  1
  Ge  Ge21  1  0.750000  0.809247  0.750000  1
  Ge  Ge22  1  0.750000  0.690753  0.250000  1
  Ge  Ge23  1  0.250000  0.309247  0.750000  1
