# generated using pymatgen
data_GdP2H9O11
_symmetry_space_group_name_H-M   'P 1'
_cell_length_a   6.72878343
_cell_length_b   11.48396017
_cell_length_c   12.01033947
_cell_angle_alpha   90.00000000
_cell_angle_beta   92.33639132
_cell_angle_gamma   90.00000000
_symmetry_Int_Tables_number   1
_chemical_formula_structural   GdP2H9O11
_chemical_formula_sum   'Gd4 P8 H36 O44'
_cell_volume   927.30442733
_cell_formula_units_Z   4
loop_
 _symmetry_equiv_pos_site_id
 _symmetry_equiv_pos_as_xyz
  1  'x, y, z'
loop_
 _atom_site_type_symbol
 _atom_site_label
 _atom_site_symmetry_multiplicity
 _atom_site_fract_x
 _atom_site_fract_y
 _atom_site_fract_z
 _atom_site_occupancy
  Gd  Gd0  1  0.747813  0.583148  0.159318  1
  Gd  Gd1  1  0.252187  0.416852  0.840682  1
  Gd  Gd2  1  0.247813  0.916852  0.659318  1
  Gd  Gd3  1  0.752187  0.083148  0.340682  1
  P  P4  1  0.753949  0.549358  0.857185  1
  P  P5  1  0.978118  0.632406  0.662840  1
  P  P6  1  0.478118  0.867594  0.162840  1
  P  P7  1  0.521882  0.132407  0.837160  1
  P  P8  1  0.746051  0.049358  0.642815  1
  P  P9  1  0.253949  0.950642  0.357185  1
  P  P10  1  0.246051  0.450642  0.142815  1
  P  P11  1  0.021882  0.367594  0.337160  1
  H  H12  1  0.752516  0.600403  0.408301  1
  H  H13  1  0.289535  0.653940  0.331043  1
  H  H14  1  0.309148  0.010713  0.076952  1
  H  H15  1  0.280033  0.211601  0.058092  1
  H  H16  1  0.247484  0.399597  0.591699  1
  H  H17  1  0.282163  0.119716  0.487610  1
  H  H18  1  0.717837  0.880284  0.512390  1
  H  H19  1  0.210465  0.153940  0.168957  1
  H  H20  1  0.389215  0.659890  0.691342  1
  H  H21  1  0.710465  0.346060  0.668957  1
  H  H22  1  0.588883  0.731365  0.686254  1
  H  H23  1  0.869983  0.214795  0.114639  1
  H  H24  1  0.252516  0.899597  0.908301  1
  H  H25  1  0.110785  0.159890  0.808658  1
  H  H26  1  0.628695  0.334670  0.073777  1
  H  H27  1  0.911117  0.231365  0.813746  1
  H  H28  1  0.369983  0.285205  0.614639  1
  H  H29  1  0.871305  0.834670  0.426223  1
  H  H30  1  0.782163  0.380284  0.987610  1
  H  H31  1  0.889215  0.840110  0.191342  1
  H  H32  1  0.719967  0.788399  0.941908  1
  H  H33  1  0.630017  0.714795  0.385361  1
  H  H34  1  0.780033  0.288399  0.558092  1
  H  H35  1  0.130017  0.785205  0.885361  1
  H  H36  1  0.411117  0.268635  0.313746  1
  H  H37  1  0.128695  0.165330  0.573777  1
  H  H38  1  0.789535  0.846060  0.831043  1
  H  H39  1  0.217837  0.619716  0.012390  1
  H  H40  1  0.190852  0.510713  0.423048  1
  H  H41  1  0.747484  0.100403  0.091699  1
  H  H42  1  0.690852  0.989287  0.923048  1
  H  H43  1  0.088883  0.768635  0.186254  1
  H  H44  1  0.809148  0.489287  0.576952  1
  H  H45  1  0.219967  0.711601  0.441908  1
  H  H46  1  0.610785  0.340110  0.308658  1
  H  H47  1  0.371305  0.665330  0.926223  1
  O  O48  1  0.303714  0.349697  0.651067  1
  O  O49  1  0.164301  0.352716  0.231075  1
  O  O50  1  0.338088  0.922916  0.067997  1
  O  O51  1  0.151608  0.554209  0.696349  1
  O  O52  1  0.661912  0.077084  0.932003  1
  O  O53  1  0.944497  0.763347  0.174256  1
  O  O54  1  0.555503  0.263347  0.325744  1
  O  O55  1  0.527135  0.744929  0.128529  1
  O  O56  1  0.252066  0.121008  0.567333  1
  O  O57  1  0.161912  0.422916  0.432003  1
  O  O58  1  0.803714  0.150303  0.151067  1
  O  O59  1  0.348392  0.054209  0.803651  1
  O  O60  1  0.270020  0.137132  0.098382  1
  O  O61  1  0.247934  0.621008  0.932667  1
  O  O62  1  0.411682  0.046486  0.368843  1
  O  O63  1  0.335699  0.852716  0.268925  1
  O  O64  1  0.228859  0.879436  0.463694  1
  O  O65  1  0.651608  0.945791  0.196349  1
  O  O66  1  0.442399  0.495862  0.193426  1
  O  O67  1  0.770020  0.362868  0.598382  1
  O  O68  1  0.848392  0.445791  0.303651  1
  O  O69  1  0.055503  0.236653  0.825744  1
  O  O70  1  0.588318  0.953514  0.631157  1
  O  O71  1  0.911682  0.453514  0.868843  1
  O  O72  1  0.271141  0.379436  0.036306  1
  O  O73  1  0.942399  0.004138  0.693426  1
  O  O74  1  0.472865  0.255071  0.871471  1
  O  O75  1  0.664301  0.147284  0.731075  1
  O  O76  1  0.088318  0.546486  0.131157  1
  O  O77  1  0.838088  0.577084  0.567997  1
  O  O78  1  0.196286  0.849697  0.848933  1
  O  O79  1  0.057601  0.995862  0.306574  1
  O  O80  1  0.752066  0.378992  0.067333  1
  O  O81  1  0.729980  0.862868  0.901618  1
  O  O82  1  0.557601  0.504138  0.806574  1
  O  O83  1  0.027135  0.755071  0.628529  1
  O  O84  1  0.728859  0.620564  0.963694  1
  O  O85  1  0.972865  0.244929  0.371471  1
  O  O86  1  0.696286  0.650303  0.348933  1
  O  O87  1  0.835699  0.647284  0.768925  1
  O  O88  1  0.771141  0.120564  0.536306  1
  O  O89  1  0.229980  0.637132  0.401618  1
  O  O90  1  0.444497  0.736653  0.674256  1
  O  O91  1  0.747934  0.878992  0.432667  1
