# generated using pymatgen
data_MoSe2Cl4O
_symmetry_space_group_name_H-M   'P 1'
_cell_length_a   7.97391182
_cell_length_b   16.21087795
_cell_length_c   28.35458778
_cell_angle_alpha   102.93402898
_cell_angle_beta   90.00000000
_cell_angle_gamma   90.00000000
_symmetry_Int_Tables_number   1
_chemical_formula_structural   MoSe2Cl4O
_chemical_formula_sum   'Mo16 Se32 Cl64 O16'
_cell_volume   3572.23793587
_cell_formula_units_Z   16
loop_
 _symmetry_equiv_pos_site_id
 _symmetry_equiv_pos_as_xyz
  1  'x, y, z'
loop_
 _atom_site_type_symbol
 _atom_site_label
 _atom_site_symmetry_multiplicity
 _atom_site_fract_x
 _atom_site_fract_y
 _atom_site_fract_z
 _atom_site_occupancy
  Mo  Mo0  1  0.882460  0.083709  0.062402  1
  Mo  Mo1  1  0.617540  0.083709  0.562402  1
  Mo  Mo2  1  0.282495  0.674663  0.778032  1
  Mo  Mo3  1  0.217505  0.674663  0.278032  1
  Mo  Mo4  1  0.382460  0.916291  0.437598  1
  Mo  Mo5  1  0.911134  0.606403  0.554388  1
  Mo  Mo6  1  0.717505  0.325337  0.221968  1
  Mo  Mo7  1  0.782495  0.325337  0.721968  1
  Mo  Mo8  1  0.117540  0.916291  0.937598  1
  Mo  Mo9  1  0.789725  0.815722  0.240107  1
  Mo  Mo10  1  0.210275  0.184278  0.759893  1
  Mo  Mo11  1  0.088866  0.393597  0.445612  1
  Mo  Mo12  1  0.710275  0.815722  0.740107  1
  Mo  Mo13  1  0.411134  0.393597  0.945612  1
  Mo  Mo14  1  0.588866  0.606403  0.054388  1
  Mo  Mo15  1  0.289725  0.184278  0.259893  1
  Se  Se16  1  0.224587  0.437675  0.651950  1
  Se  Se17  1  0.724587  0.562325  0.848050  1
  Se  Se18  1  0.513241  0.037876  0.851437  1
  Se  Se19  1  0.275413  0.437675  0.151950  1
  Se  Se20  1  0.490461  0.868640  0.073178  1
  Se  Se21  1  0.732227  0.186087  0.409044  1
  Se  Se22  1  0.556081  0.372635  0.583658  1
  Se  Se23  1  0.477631  0.499348  0.636407  1
  Se  Se24  1  0.765712  0.096408  0.832457  1
  Se  Se25  1  0.943919  0.372635  0.083658  1
  Se  Se26  1  0.775413  0.562325  0.348050  1
  Se  Se27  1  0.009539  0.868640  0.573178  1
  Se  Se28  1  0.734288  0.096408  0.332457  1
  Se  Se29  1  0.486759  0.962124  0.148563  1
  Se  Se30  1  0.267773  0.813913  0.590956  1
  Se  Se31  1  0.990461  0.131360  0.426822  1
  Se  Se32  1  0.234288  0.903592  0.167543  1
  Se  Se33  1  0.977631  0.500652  0.863593  1
  Se  Se34  1  0.767773  0.186087  0.909044  1
  Se  Se35  1  0.509539  0.131360  0.926822  1
  Se  Se36  1  0.197356  0.312186  0.099031  1
  Se  Se37  1  0.056081  0.627365  0.916342  1
  Se  Se38  1  0.522369  0.500652  0.363593  1
  Se  Se39  1  0.986759  0.037876  0.351437  1
  Se  Se40  1  0.302644  0.312186  0.599031  1
  Se  Se41  1  0.802644  0.687814  0.900969  1
  Se  Se42  1  0.697356  0.687814  0.400969  1
  Se  Se43  1  0.443919  0.627365  0.416342  1
  Se  Se44  1  0.232227  0.813913  0.090956  1
  Se  Se45  1  0.013241  0.962124  0.648563  1
  Se  Se46  1  0.022369  0.499348  0.136407  1
  Se  Se47  1  0.265712  0.903592  0.667543  1
  Cl  Cl48  1  0.516488  0.689724  0.996519  1
  Cl  Cl49  1  0.054115  0.807644  0.982248  1
  Cl  Cl50  1  0.839231  0.495841  0.597017  1
  Cl  Cl51  1  0.575046  0.296582  0.144836  1
  Cl  Cl52  1  0.075046  0.703418  0.355164  1
  Cl  Cl53  1  0.151039  0.327140  0.756004  1
  Cl  Cl54  1  0.828159  0.469486  0.467258  1
  Cl  Cl55  1  0.259420  0.639074  0.191137  1
  Cl  Cl56  1  0.016488  0.310276  0.503481  1
  Cl  Cl57  1  0.176302  0.047679  0.912526  1
  Cl  Cl58  1  0.671841  0.469486  0.967258  1
  Cl  Cl59  1  0.358169  0.036336  0.256346  1
  Cl  Cl60  1  0.483512  0.310276  0.003481  1
  Cl  Cl61  1  0.339231  0.504159  0.902983  1
  Cl  Cl62  1  0.375390  0.371200  0.456936  1
  Cl  Cl63  1  0.095807  0.904146  0.452500  1
  Cl  Cl64  1  0.146949  0.531146  0.271639  1
  Cl  Cl65  1  0.232871  0.148448  0.674971  1
  Cl  Cl66  1  0.759420  0.360926  0.308863  1
  Cl  Cl67  1  0.641831  0.963664  0.743654  1
  Cl  Cl68  1  0.858169  0.963664  0.243654  1
  Cl  Cl69  1  0.838772  0.181328  0.728823  1
  Cl  Cl70  1  0.124610  0.371200  0.956936  1
  Cl  Cl71  1  0.983512  0.689724  0.496519  1
  Cl  Cl72  1  0.348961  0.327140  0.256004  1
  Cl  Cl73  1  0.624610  0.628800  0.543064  1
  Cl  Cl74  1  0.342586  0.026602  0.539345  1
  Cl  Cl75  1  0.823698  0.952321  0.087474  1
  Cl  Cl76  1  0.924954  0.296582  0.644836  1
  Cl  Cl77  1  0.328159  0.530514  0.032742  1
  Cl  Cl78  1  0.171841  0.530514  0.532742  1
  Cl  Cl79  1  0.875390  0.628800  0.043064  1
  Cl  Cl80  1  0.767129  0.851552  0.325029  1
  Cl  Cl81  1  0.646949  0.468854  0.228361  1
  Cl  Cl82  1  0.842586  0.973398  0.960655  1
  Cl  Cl83  1  0.651039  0.672860  0.743996  1
  Cl  Cl84  1  0.676302  0.952321  0.587474  1
  Cl  Cl85  1  0.740580  0.360926  0.808863  1
  Cl  Cl86  1  0.157414  0.026602  0.039345  1
  Cl  Cl87  1  0.267129  0.148448  0.174971  1
  Cl  Cl88  1  0.595807  0.095854  0.047500  1
  Cl  Cl89  1  0.923875  0.786517  0.160953  1
  Cl  Cl90  1  0.141831  0.036336  0.756346  1
  Cl  Cl91  1  0.554115  0.192356  0.517752  1
  Cl  Cl92  1  0.240580  0.639074  0.691137  1
  Cl  Cl93  1  0.445885  0.807644  0.482248  1
  Cl  Cl94  1  0.732871  0.851552  0.825029  1
  Cl  Cl95  1  0.848961  0.672860  0.243996  1
  Cl  Cl96  1  0.338772  0.818672  0.771177  1
  Cl  Cl97  1  0.853051  0.468854  0.728361  1
  Cl  Cl98  1  0.660769  0.495841  0.097017  1
  Cl  Cl99  1  0.404193  0.904146  0.952500  1
  Cl  Cl100  1  0.424954  0.703418  0.855164  1
  Cl  Cl101  1  0.076125  0.213483  0.839047  1
  Cl  Cl102  1  0.423875  0.213483  0.339047  1
  Cl  Cl103  1  0.945885  0.192356  0.017752  1
  Cl  Cl104  1  0.576125  0.786517  0.660953  1
  Cl  Cl105  1  0.353051  0.531146  0.771639  1
  Cl  Cl106  1  0.161228  0.818672  0.271177  1
  Cl  Cl107  1  0.904193  0.095854  0.547500  1
  Cl  Cl108  1  0.661228  0.181328  0.228823  1
  Cl  Cl109  1  0.657414  0.973398  0.460655  1
  Cl  Cl110  1  0.323698  0.047679  0.412526  1
  Cl  Cl111  1  0.160769  0.504159  0.402983  1
  O  O112  1  0.085762  0.188663  0.277336  1
  O  O113  1  0.087408  0.853757  0.882069  1
  O  O114  1  0.914238  0.811337  0.722664  1
  O  O115  1  0.462574  0.318884  0.895896  1
  O  O116  1  0.912592  0.146243  0.117931  1
  O  O117  1  0.582250  0.319892  0.702537  1
  O  O118  1  0.537426  0.681116  0.104104  1
  O  O119  1  0.082250  0.680108  0.797463  1
  O  O120  1  0.037426  0.318884  0.395896  1
  O  O121  1  0.587408  0.146243  0.617931  1
  O  O122  1  0.585762  0.811337  0.222664  1
  O  O123  1  0.414238  0.188663  0.777336  1
  O  O124  1  0.412592  0.853757  0.382069  1
  O  O125  1  0.417750  0.680108  0.297463  1
  O  O126  1  0.962574  0.681116  0.604104  1
  O  O127  1  0.917750  0.319892  0.202537  1
