# generated using pymatgen
data_NaLaCoWO6
_symmetry_space_group_name_H-M   'P 1'
_cell_length_a   11.84309252
_cell_length_b   14.41044211
_cell_length_c   7.28547457
_cell_angle_alpha   92.19110510
_cell_angle_beta   90.00000000
_cell_angle_gamma   90.00000000
_symmetry_Int_Tables_number   1
_chemical_formula_structural   NaLaCoWO6
_chemical_formula_sum   'Na8 La8 Co8 W8 O48'
_cell_volume   1242.46061052
_cell_formula_units_Z   8
loop_
 _symmetry_equiv_pos_site_id
 _symmetry_equiv_pos_as_xyz
  1  'x, y, z'
loop_
 _atom_site_type_symbol
 _atom_site_label
 _atom_site_symmetry_multiplicity
 _atom_site_fract_x
 _atom_site_fract_y
 _atom_site_fract_z
 _atom_site_occupancy
  Na  Na0  1  0.125000  0.319403  0.498481  1
  Na  Na1  1  0.125000  0.796527  0.940880  1
  Na  Na2  1  0.379323  0.707373  0.053474  1
  Na  Na3  1  0.400310  0.203609  0.024834  1
  Na  Na4  1  0.625000  0.296266  0.960802  1
  Na  Na5  1  0.625000  0.795470  0.945215  1
  Na  Na6  1  0.849690  0.203609  0.024834  1
  Na  Na7  1  0.870677  0.707373  0.053474  1
  La  La8  1  0.125000  0.297372  0.975874  1
  La  La9  1  0.125000  0.818390  0.486657  1
  La  La10  1  0.357021  0.196407  0.488059  1
  La  La11  1  0.375370  0.681155  0.510805  1
  La  La12  1  0.625000  0.310929  0.508425  1
  La  La13  1  0.625000  0.817456  0.489588  1
  La  La14  1  0.892979  0.196407  0.488059  1
  La  La15  1  0.874630  0.681155  0.510805  1
  Co  Co16  1  0.125000  0.129935  0.246531  1
  Co  Co17  1  0.125000  0.625574  0.258925  1
  Co  Co18  1  0.374989  0.372076  0.755530  1
  Co  Co19  1  0.376422  0.875756  0.738007  1
  Co  Co20  1  0.625000  0.126823  0.255073  1
  Co  Co21  1  0.625000  0.621807  0.260977  1
  Co  Co22  1  0.875011  0.372076  0.755530  1
  Co  Co23  1  0.873578  0.875756  0.738007  1
  W  W24  1  0.125000  0.053274  0.741940  1
  W  W25  1  0.125000  0.555450  0.774020  1
  W  W26  1  0.375812  0.442022  0.247081  1
  W  W27  1  0.375202  0.946712  0.231746  1
  W  W28  1  0.625000  0.053758  0.762778  1
  W  W29  1  0.625000  0.554068  0.770932  1
  W  W30  1  0.874188  0.442022  0.247081  1
  W  W31  1  0.874798  0.946712  0.231746  1
  O  O32  1  -0.000257  0.513958  0.245622  1
  O  O33  1  0.999185  0.020338  0.255598  1
  O  O34  1  0.997331  0.273264  0.739081  1
  O  O35  1  0.992376  0.777962  0.698319  1
  O  O36  1  0.125000  0.123764  0.955257  1
  O  O37  1  0.125000  0.122807  0.538596  1
  O  O38  1  0.125000  0.637949  0.970289  1
  O  O39  1  0.125000  0.615954  0.559090  1
  O  O40  1  0.252669  0.273264  0.739081  1
  O  O41  1  0.257624  0.777962  0.698319  1
  O  O42  1  0.250257  0.513958  0.245622  1
  O  O43  1  0.250815  0.020338  0.255598  1
  O  O44  1  0.248639  0.979846  0.731169  1
  O  O45  1  0.249360  0.482507  0.780990  1
  O  O46  1  0.244759  0.723809  0.299038  1
  O  O47  1  0.241798  0.232120  0.242065  1
  O  O48  1  0.375308  0.380250  0.461501  1
  O  O49  1  0.379393  0.367047  0.041069  1
  O  O50  1  0.386104  0.880725  0.438595  1
  O  O51  1  0.366744  0.868503  0.029429  1
  O  O52  1  0.506144  0.228544  0.297841  1
  O  O53  1  0.508650  0.721947  0.297999  1
  O  O54  1  0.502270  0.979407  0.761620  1
  O  O55  1  0.500252  0.480519  0.764125  1
  O  O56  1  0.498145  0.517753  0.251838  1
  O  O57  1  0.499793  0.019178  0.225810  1
  O  O58  1  0.488741  0.266167  0.712825  1
  O  O59  1  0.492506  0.775779  0.705131  1
  O  O60  1  0.625000  0.133957  0.964995  1
  O  O61  1  0.625000  0.110978  0.544501  1
  O  O62  1  0.625000  0.634295  0.969813  1
  O  O63  1  0.625000  0.618331  0.561959  1
  O  O64  1  0.761259  0.266167  0.712825  1
  O  O65  1  0.757494  0.775779  0.705131  1
  O  O66  1  0.751855  0.517753  0.251838  1
  O  O67  1  0.750207  0.019178  0.225810  1
  O  O68  1  0.747730  0.979407  0.761620  1
  O  O69  1  0.749748  0.480519  0.764125  1
  O  O70  1  0.743856  0.228544  0.297841  1
  O  O71  1  0.741350  0.721947  0.297999  1
  O  O72  1  0.874692  0.380250  0.461501  1
  O  O73  1  0.870607  0.367047  0.041069  1
  O  O74  1  0.863896  0.880725  0.438595  1
  O  O75  1  0.883256  0.868503  0.029429  1
  O  O76  1  0.008202  0.232120  0.242065  1
  O  O77  1  0.005241  0.723809  0.299038  1
  O  O78  1  0.001361  0.979846  0.731169  1
  O  O79  1  0.000640  0.482507  0.780990  1
