# generated using pymatgen
data_V6H4O13
_symmetry_space_group_name_H-M   'P 1'
_cell_length_a   6.42585490
_cell_length_b   6.42585490
_cell_length_c   10.69808837
_cell_angle_alpha   80.35660609
_cell_angle_beta   99.64339391
_cell_angle_gamma   145.29161341
_symmetry_Int_Tables_number   1
_chemical_formula_structural   V6H4O13
_chemical_formula_sum   'V6 H4 O13'
_cell_volume   247.62338171
_cell_formula_units_Z   1
loop_
 _symmetry_equiv_pos_site_id
 _symmetry_equiv_pos_as_xyz
  1  'x, y, z'
loop_
 _atom_site_type_symbol
 _atom_site_label
 _atom_site_symmetry_multiplicity
 _atom_site_fract_x
 _atom_site_fract_y
 _atom_site_fract_z
 _atom_site_occupancy
  V  V0  1  0.653674  0.352339  0.999716  1
  V  V1  1  0.352339  0.653674  0.000284  1
  V  V2  1  0.588903  0.414960  0.615419  1
  V  V3  1  0.414960  0.588903  0.384581  1
  V  V4  1  0.277804  0.715008  0.617174  1
  V  V5  1  0.715008  0.277804  0.382826  1
  H  H6  1  0.311832  0.181131  0.806339  1
  H  H7  1  0.181131  0.311832  0.193661  1
  H  H8  1  0.610205  0.828559  0.802824  1
  H  H9  1  0.828559  0.610205  0.197176  1
  O  O10  1  0.824456  0.195405  0.001160  1
  O  O11  1  0.195405  0.824456  0.998840  1
  O  O12  1  0.121917  0.887601  0.623370  1
  O  O13  1  0.887601  0.121917  0.376630  1
  O  O14  1  0.744413  0.243093  0.586630  1
  O  O15  1  0.243093  0.744413  0.413370  1
  O  O16  1  0.511833  0.511833  0.000000  1
  O  O17  1  0.574741  0.372193  0.803238  1
  O  O18  1  0.372193  0.574741  0.196762  1
  O  O19  1  0.372963  0.703319  0.802224  1
  O  O20  1  0.703319  0.372963  0.197776  1
  O  O21  1  0.439056  0.566964  0.579641  1
  O  O22  1  0.566964  0.439056  0.420359  1
