# generated using pymatgen
data_MoH2(CO2)2
_symmetry_space_group_name_H-M   'P 1'
_cell_length_a   5.63685887
_cell_length_b   8.09884887
_cell_length_c   11.52396389
_cell_angle_alpha   90.00000000
_cell_angle_beta   90.00000000
_cell_angle_gamma   109.93740750
_symmetry_Int_Tables_number   1
_chemical_formula_structural   MoH2(CO2)2
_chemical_formula_sum   'Mo4 H8 C8 O16'
_cell_volume   494.56178064
_cell_formula_units_Z   4
loop_
 _symmetry_equiv_pos_site_id
 _symmetry_equiv_pos_as_xyz
  1  'x, y, z'
loop_
 _atom_site_type_symbol
 _atom_site_label
 _atom_site_symmetry_multiplicity
 _atom_site_fract_x
 _atom_site_fract_y
 _atom_site_fract_z
 _atom_site_occupancy
  Mo  Mo0  1  0.166062  0.511071  0.548261  1
  Mo  Mo1  1  0.833938  0.488929  0.451739  1
  Mo  Mo2  1  0.666062  0.011071  0.951739  1
  Mo  Mo3  1  0.333938  0.988929  0.048261  1
  H  H4  1  0.261510  0.996109  0.439019  1
  H  H5  1  0.196853  0.094173  0.718974  1
  H  H6  1  0.803147  0.905827  0.281026  1
  H  H7  1  0.303147  0.405827  0.218974  1
  H  H8  1  0.738490  0.003891  0.560981  1
  H  H9  1  0.761510  0.496109  0.060981  1
  H  H10  1  0.696853  0.594173  0.781026  1
  H  H11  1  0.238490  0.503891  0.939019  1
  C  C12  1  0.718145  0.936139  0.201430  1
  C  C13  1  0.683971  0.354273  0.043434  1
  C  C14  1  0.281855  0.063861  0.798570  1
  C  C15  1  0.781855  0.563861  0.701430  1
  C  C16  1  0.816029  0.145727  0.543434  1
  C  C17  1  0.316029  0.645727  0.956566  1
  C  C18  1  0.183971  0.854273  0.456566  1
  C  C19  1  0.218145  0.436139  0.298570  1
  O  O20  1  0.183047  0.713824  0.017244  1
  O  O21  1  0.966156  0.764320  0.415927  1
  O  O22  1  0.652303  0.536267  0.606642  1
  O  O23  1  0.033844  0.235680  0.584073  1
  O  O24  1  0.152303  0.036267  0.893358  1
  O  O25  1  0.006201  0.560179  0.705788  1
  O  O26  1  0.683047  0.213824  0.482756  1
  O  O27  1  0.466156  0.264320  0.084073  1
  O  O28  1  0.506201  0.060179  0.794212  1
  O  O29  1  0.493799  0.939821  0.205788  1
  O  O30  1  0.993799  0.439821  0.294212  1
  O  O31  1  0.316953  0.786176  0.517244  1
  O  O32  1  0.347697  0.463733  0.393358  1
  O  O33  1  0.816953  0.286176  0.982756  1
  O  O34  1  0.533844  0.735680  0.915927  1
  O  O35  1  0.847697  0.963733  0.106642  1
