# generated using pymatgen
data_Rb2Cr2O7
_symmetry_space_group_name_H-M   'P 1'
_cell_length_a   7.82282501
_cell_length_b   7.88848718
_cell_length_c   14.01886484
_cell_angle_alpha   93.85681778
_cell_angle_beta   90.00000000
_cell_angle_gamma   90.00000000
_symmetry_Int_Tables_number   1
_chemical_formula_structural   Rb2Cr2O7
_chemical_formula_sum   'Rb8 Cr8 O28'
_cell_volume   863.14847401
_cell_formula_units_Z   4
loop_
 _symmetry_equiv_pos_site_id
 _symmetry_equiv_pos_as_xyz
  1  'x, y, z'
loop_
 _atom_site_type_symbol
 _atom_site_label
 _atom_site_symmetry_multiplicity
 _atom_site_fract_x
 _atom_site_fract_y
 _atom_site_fract_z
 _atom_site_occupancy
  Rb  Rb0  1  0.224447  0.194303  0.133159  1
  Rb  Rb1  1  0.275553  0.694303  0.633159  1
  Rb  Rb2  1  0.382298  0.858053  0.341709  1
  Rb  Rb3  1  0.775553  0.805697  0.866841  1
  Rb  Rb4  1  0.882298  0.641947  0.158291  1
  Rb  Rb5  1  0.617702  0.141947  0.658291  1
  Rb  Rb6  1  0.724447  0.305697  0.366841  1
  Rb  Rb7  1  0.117702  0.358053  0.841709  1
  Cr  Cr8  1  0.834622  0.817634  0.420667  1
  Cr  Cr9  1  0.716053  0.119195  0.112175  1
  Cr  Cr10  1  0.334622  0.682366  0.079333  1
  Cr  Cr11  1  0.665378  0.317634  0.920667  1
  Cr  Cr12  1  0.283947  0.880805  0.887825  1
  Cr  Cr13  1  0.216053  0.380805  0.387825  1
  Cr  Cr14  1  0.165378  0.182366  0.579333  1
  Cr  Cr15  1  0.783947  0.619195  0.612175  1
  O  O16  1  0.586695  0.057148  0.194410  1
  O  O17  1  0.348450  0.238493  0.339612  1
  O  O18  1  0.824113  0.958328  0.063883  1
  O  O19  1  0.910268  0.713501  0.523048  1
  O  O20  1  0.151550  0.738493  0.839612  1
  O  O21  1  0.002793  0.114468  0.638153  1
  O  O22  1  0.675887  0.458328  0.563883  1
  O  O23  1  0.775108  0.181193  0.851561  1
  O  O24  1  0.089732  0.286499  0.476952  1
  O  O25  1  0.724892  0.681193  0.351561  1
  O  O26  1  0.291694  0.023752  0.545334  1
  O  O27  1  0.848450  0.261507  0.160388  1
  O  O28  1  0.997207  0.885532  0.361847  1
  O  O29  1  0.497207  0.614468  0.138153  1
  O  O30  1  0.913305  0.557148  0.694410  1
  O  O31  1  0.791694  0.476248  0.954666  1
  O  O32  1  0.275108  0.318807  0.648439  1
  O  O33  1  0.324113  0.541672  0.436117  1
  O  O34  1  0.208306  0.523752  0.045334  1
  O  O35  1  0.589732  0.213501  0.023048  1
  O  O36  1  0.502793  0.385532  0.861847  1
  O  O37  1  0.086695  0.442852  0.305590  1
  O  O38  1  0.413305  0.942852  0.805590  1
  O  O39  1  0.708306  0.976248  0.454666  1
  O  O40  1  0.175887  0.041672  0.936117  1
  O  O41  1  0.410268  0.786499  0.976952  1
  O  O42  1  0.224892  0.818807  0.148439  1
  O  O43  1  0.651550  0.761507  0.660388  1
