# generated using pymatgen
data_Eu(HO)3
_symmetry_space_group_name_H-M   'P 1'
_cell_length_a   6.47712931
_cell_length_b   6.72500427
_cell_length_c   3.67926949
_cell_angle_alpha   90.00000000
_cell_angle_beta   90.00000000
_cell_angle_gamma   120.90461677
_symmetry_Int_Tables_number   1
_chemical_formula_structural   Eu(HO)3
_chemical_formula_sum   'Eu2 H6 O6'
_cell_volume   137.51052013
_cell_formula_units_Z   2
loop_
 _symmetry_equiv_pos_site_id
 _symmetry_equiv_pos_as_xyz
  1  'x, y, z'
loop_
 _atom_site_type_symbol
 _atom_site_label
 _atom_site_symmetry_multiplicity
 _atom_site_fract_x
 _atom_site_fract_y
 _atom_site_fract_z
 _atom_site_occupancy
  Eu  Eu0  1  0.331913  0.677359  0.250000  1
  Eu  Eu1  1  0.668087  0.322641  0.750000  1
  H  H2  1  0.816486  0.680026  0.250000  1
  H  H3  1  0.867615  0.145276  0.250000  1
  H  H4  1  0.279728  0.139849  0.250000  1
  H  H5  1  0.183514  0.319974  0.750000  1
  H  H6  1  0.132385  0.854724  0.750000  1
  H  H7  1  0.720272  0.860151  0.750000  1
  O  O8  1  0.900705  0.594172  0.250000  1
  O  O9  1  0.695435  0.087410  0.250000  1
  O  O10  1  0.399364  0.305010  0.250000  1
  O  O11  1  0.099295  0.405828  0.750000  1
  O  O12  1  0.304565  0.912590  0.750000  1
  O  O13  1  0.600636  0.694990  0.750000  1
