# generated using pymatgen
data_CsSb3F16
_symmetry_space_group_name_H-M   'P 1'
_cell_length_a   7.89392014
_cell_length_b   16.33296253
_cell_length_c   22.46846793
_cell_angle_alpha   90.00000000
_cell_angle_beta   90.00000000
_cell_angle_gamma   90.00000000
_symmetry_Int_Tables_number   1
_chemical_formula_structural   CsSb3F16
_chemical_formula_sum   'Cs8 Sb24 F128'
_cell_volume   2896.88432735
_cell_formula_units_Z   8
loop_
 _symmetry_equiv_pos_site_id
 _symmetry_equiv_pos_as_xyz
  1  'x, y, z'
loop_
 _atom_site_type_symbol
 _atom_site_label
 _atom_site_symmetry_multiplicity
 _atom_site_fract_x
 _atom_site_fract_y
 _atom_site_fract_z
 _atom_site_occupancy
  Cs  Cs0  1  0.963652  0.410787  0.503556  1
  Cs  Cs1  1  0.446839  0.144720  0.755807  1
  Cs  Cs2  1  0.553161  0.644720  0.244193  1
  Cs  Cs3  1  0.036348  0.910787  0.496444  1
  Cs  Cs4  1  0.553161  0.144720  0.255807  1
  Cs  Cs5  1  0.446839  0.644720  0.744193  1
  Cs  Cs6  1  0.963652  0.910787  0.996444  1
  Cs  Cs7  1  0.036348  0.410787  0.003556  1
  Sb  Sb8  1  0.451570  0.861831  0.869183  1
  Sb  Sb9  1  0.548430  0.861831  0.369183  1
  Sb  Sb10  1  0.953213  0.684734  0.618081  1
  Sb  Sb11  1  0.046787  0.684734  0.118081  1
  Sb  Sb12  1  0.046787  0.184734  0.381919  1
  Sb  Sb13  1  0.033726  0.638900  0.387919  1
  Sb  Sb14  1  0.621451  0.137921  0.478788  1
  Sb  Sb15  1  0.510041  0.420779  0.858272  1
  Sb  Sb16  1  0.135090  0.920038  0.272206  1
  Sb  Sb17  1  0.033726  0.138900  0.112081  1
  Sb  Sb18  1  0.621451  0.637921  0.021212  1
  Sb  Sb19  1  0.135090  0.420038  0.227794  1
  Sb  Sb20  1  0.378549  0.637921  0.521212  1
  Sb  Sb21  1  0.489959  0.920779  0.141728  1
  Sb  Sb22  1  0.864910  0.420038  0.727794  1
  Sb  Sb23  1  0.548430  0.361831  0.130817  1
  Sb  Sb24  1  0.966274  0.638900  0.887919  1
  Sb  Sb25  1  0.489959  0.420779  0.358272  1
  Sb  Sb26  1  0.378549  0.137921  0.978788  1
  Sb  Sb27  1  0.966274  0.138900  0.612081  1
  Sb  Sb28  1  0.451570  0.361831  0.630817  1
  Sb  Sb29  1  0.510041  0.920779  0.641728  1
  Sb  Sb30  1  0.864910  0.920038  0.772206  1
  Sb  Sb31  1  0.953213  0.184734  0.881919  1
  F  F32  1  0.318596  0.321772  0.695189  1
  F  F33  1  0.746864  0.520162  0.717934  1
  F  F34  1  0.849215  0.674693  0.054008  1
  F  F35  1  0.223675  0.696011  0.174299  1
  F  F36  1  0.424369  0.604525  0.981353  1
  F  F37  1  0.951985  0.468789  0.267722  1
  F  F38  1  0.894400  0.631816  0.171672  1
  F  F39  1  0.934609  0.523269  0.884847  1
  F  F40  1  0.957875  0.423039  0.650305  1
  F  F41  1  0.836561  0.236787  0.945335  1
  F  F42  1  0.575631  0.104525  0.018647  1
  F  F43  1  0.350579  0.367252  0.195224  1
  F  F44  1  0.745882  0.139654  0.557422  1
  F  F45  1  0.116214  0.080412  0.410332  1
  F  F46  1  0.066584  0.311522  0.241686  1
  F  F47  1  0.081572  0.120940  0.539181  1
  F  F48  1  0.341648  0.395015  0.421868  1
  F  F49  1  0.532407  0.253118  0.621281  1
  F  F50  1  0.563606  0.033626  0.633855  1
  F  F51  1  0.424369  0.104525  0.518647  1
  F  F52  1  0.689108  0.927981  0.094719  1
  F  F53  1  0.718714  0.854084  0.428185  1
  F  F54  1  0.658352  0.895015  0.578132  1
  F  F55  1  0.933416  0.311522  0.741686  1
  F  F56  1  0.379659  0.901696  0.422509  1
  F  F57  1  0.532749  0.137675  0.400580  1
  F  F58  1  0.599049  0.970727  0.345947  1
  F  F59  1  0.048015  0.968789  0.732278  1
  F  F60  1  0.776325  0.696011  0.674299  1
  F  F61  1  0.467593  0.253118  0.121281  1
  F  F62  1  0.813891  0.652555  0.823552  1
  F  F63  1  0.681404  0.821772  0.304811  1
  F  F64  1  0.400951  0.970727  0.845947  1
  F  F65  1  0.350579  0.867252  0.304776  1
  F  F66  1  0.649421  0.867252  0.804776  1
  F  F67  1  0.936143  0.785904  0.134234  1
  F  F68  1  0.163271  0.642404  0.839628  1
  F  F69  1  0.037176  0.253360  0.096836  1
  F  F70  1  0.400951  0.470727  0.654053  1
  F  F71  1  0.658352  0.395015  0.921868  1
  F  F72  1  0.310892  0.427981  0.905281  1
  F  F73  1  0.262732  0.909823  0.193943  1
  F  F74  1  0.918428  0.120940  0.039181  1
  F  F75  1  0.594120  0.948994  0.215088  1
  F  F76  1  0.737268  0.909823  0.693943  1
  F  F77  1  0.042125  0.423039  0.150305  1
  F  F78  1  0.063857  0.285904  0.865766  1
  F  F79  1  0.186109  0.652555  0.323552  1
  F  F80  1  0.532407  0.753118  0.878719  1
  F  F81  1  0.515797  0.307972  0.339351  1
  F  F82  1  0.254118  0.639654  0.442578  1
  F  F83  1  0.467251  0.137675  0.900580  1
  F  F84  1  0.894400  0.131816  0.328328  1
  F  F85  1  0.105600  0.131816  0.828328  1
  F  F86  1  0.042125  0.923039  0.349695  1
  F  F87  1  0.281286  0.854084  0.928185  1
  F  F88  1  0.934609  0.023269  0.615153  1
  F  F89  1  0.883786  0.080412  0.910332  1
  F  F90  1  0.405880  0.948994  0.715088  1
  F  F91  1  0.063857  0.785904  0.634234  1
  F  F92  1  0.281286  0.354084  0.571815  1
  F  F93  1  0.957875  0.923039  0.849695  1
  F  F94  1  0.484203  0.807972  0.660649  1
  F  F95  1  0.594120  0.448994  0.284912  1
  F  F96  1  0.962824  0.253360  0.596836  1
  F  F97  1  0.150785  0.674693  0.554008  1
  F  F98  1  0.933416  0.811522  0.758314  1
  F  F99  1  0.745882  0.639654  0.942578  1
  F  F100  1  0.689108  0.427981  0.405281  1
  F  F101  1  0.711961  0.030722  0.471886  1
  F  F102  1  0.065391  0.523269  0.384847  1
  F  F103  1  0.918428  0.620940  0.460819  1
  F  F104  1  0.467593  0.753118  0.378719  1
  F  F105  1  0.436394  0.033626  0.133855  1
  F  F106  1  0.718714  0.354084  0.071815  1
  F  F107  1  0.048015  0.468789  0.767722  1
  F  F108  1  0.253136  0.520162  0.217934  1
  F  F109  1  0.575631  0.604525  0.481353  1
  F  F110  1  0.116214  0.580412  0.089668  1
  F  F111  1  0.288039  0.530722  0.528114  1
  F  F112  1  0.065391  0.023269  0.115153  1
  F  F113  1  0.776325  0.196011  0.825701  1
  F  F114  1  0.253136  0.020162  0.282066  1
  F  F115  1  0.037176  0.753360  0.403164  1
  F  F116  1  0.836729  0.642404  0.339628  1
  F  F117  1  0.379659  0.401696  0.077491  1
  F  F118  1  0.620341  0.901696  0.922509  1
  F  F119  1  0.484203  0.307972  0.839351  1
  F  F120  1  0.746864  0.020162  0.782066  1
  F  F121  1  0.563606  0.533626  0.866145  1
  F  F122  1  0.310892  0.927981  0.594719  1
  F  F123  1  0.936143  0.285904  0.365766  1
  F  F124  1  0.105600  0.631816  0.671672  1
  F  F125  1  0.223675  0.196011  0.325701  1
  F  F126  1  0.467251  0.637675  0.599420  1
  F  F127  1  0.962824  0.753360  0.903164  1
  F  F128  1  0.649421  0.367252  0.695224  1
  F  F129  1  0.813891  0.152555  0.676448  1
  F  F130  1  0.262732  0.409823  0.306057  1
  F  F131  1  0.515797  0.807972  0.160649  1
  F  F132  1  0.599049  0.470727  0.154053  1
  F  F133  1  0.849215  0.174693  0.445992  1
  F  F134  1  0.081572  0.620940  0.960819  1
  F  F135  1  0.163271  0.142404  0.660372  1
  F  F136  1  0.341648  0.895015  0.078132  1
  F  F137  1  0.737268  0.409823  0.806057  1
  F  F138  1  0.951985  0.968789  0.232278  1
  F  F139  1  0.150785  0.174693  0.945992  1
  F  F140  1  0.066584  0.811522  0.258314  1
  F  F141  1  0.163439  0.236787  0.445335  1
  F  F142  1  0.620341  0.401696  0.577491  1
  F  F143  1  0.836561  0.736787  0.554665  1
  F  F144  1  0.318596  0.821772  0.804811  1
  F  F145  1  0.412729  0.751214  0.509703  1
  F  F146  1  0.405880  0.448994  0.784912  1
  F  F147  1  0.288039  0.030722  0.971886  1
  F  F148  1  0.532749  0.637675  0.099420  1
  F  F149  1  0.412729  0.251214  0.990297  1
  F  F150  1  0.587271  0.251214  0.490297  1
  F  F151  1  0.436394  0.533626  0.366145  1
  F  F152  1  0.163439  0.736787  0.054665  1
  F  F153  1  0.836729  0.142404  0.160372  1
  F  F154  1  0.681404  0.321772  0.195189  1
  F  F155  1  0.254118  0.139654  0.057422  1
  F  F156  1  0.711961  0.530722  0.028114  1
  F  F157  1  0.186109  0.152555  0.176448  1
  F  F158  1  0.883786  0.580412  0.589668  1
  F  F159  1  0.587271  0.751214  0.009703  1
