# generated using pymatgen
data_K3Th2Cu3S7
_symmetry_space_group_name_H-M   'P 1'
_cell_length_a   4.06779707
_cell_length_b   14.26243892
_cell_length_c   24.75949030
_cell_angle_alpha   90.00000000
_cell_angle_beta   90.00000000
_cell_angle_gamma   90.00000000
_symmetry_Int_Tables_number   1
_chemical_formula_structural   K3Th2Cu3S7
_chemical_formula_sum   'K12 Th8 Cu12 S28'
_cell_volume   1436.46410039
_cell_formula_units_Z   4
loop_
 _symmetry_equiv_pos_site_id
 _symmetry_equiv_pos_as_xyz
  1  'x, y, z'
loop_
 _atom_site_type_symbol
 _atom_site_label
 _atom_site_symmetry_multiplicity
 _atom_site_fract_x
 _atom_site_fract_y
 _atom_site_fract_z
 _atom_site_occupancy
  K  K0  1  0.493226  0.453830  0.062234  1
  K  K1  1  0.006774  0.953830  0.062234  1
  K  K2  1  0.506774  0.453830  0.437766  1
  K  K3  1  0.493226  0.546170  0.562234  1
  K  K4  1  0.500000  0.930862  0.250000  1
  K  K5  1  0.993226  0.046170  0.937766  1
  K  K6  1  0.000000  0.430862  0.250000  1
  K  K7  1  0.000000  0.569138  0.750000  1
  K  K8  1  0.506774  0.546170  0.937766  1
  K  K9  1  0.993226  0.953830  0.437766  1
  K  K10  1  0.006774  0.046170  0.562234  1
  K  K11  1  0.500000  0.069138  0.750000  1
  Th  Th12  1  0.996996  0.690786  0.358068  1
  Th  Th13  1  0.496996  0.809214  0.641932  1
  Th  Th14  1  0.996996  0.309214  0.858068  1
  Th  Th15  1  0.003004  0.690786  0.141932  1
  Th  Th16  1  0.496996  0.190786  0.141932  1
  Th  Th17  1  0.503004  0.190786  0.358068  1
  Th  Th18  1  0.003004  0.309214  0.641932  1
  Th  Th19  1  0.503004  0.809214  0.858068  1
  Cu  Cu20  1  0.000730  0.236725  0.462358  1
  Cu  Cu21  1  0.499270  0.736725  0.462358  1
  Cu  Cu22  1  0.999270  0.236725  0.037642  1
  Cu  Cu23  1  0.500000  0.659410  0.250000  1
  Cu  Cu24  1  0.499270  0.263275  0.962358  1
  Cu  Cu25  1  0.500000  0.340590  0.750000  1
  Cu  Cu26  1  0.000000  0.840590  0.750000  1
  Cu  Cu27  1  0.000000  0.159410  0.250000  1
  Cu  Cu28  1  0.500730  0.263275  0.537642  1
  Cu  Cu29  1  0.999270  0.763275  0.537642  1
  Cu  Cu30  1  0.500730  0.736725  0.037642  1
  Cu  Cu31  1  0.000730  0.763275  0.962358  1
  S  S32  1  0.000000  0.248770  0.750000  1
  S  S33  1  0.000056  0.642595  0.032555  1
  S  S34  1  0.496839  0.566611  0.327366  1
  S  S35  1  0.495752  0.817511  0.380004  1
  S  S36  1  0.995752  0.317511  0.119996  1
  S  S37  1  0.504248  0.182489  0.619996  1
  S  S38  1  0.000000  0.751230  0.250000  1
  S  S39  1  0.003161  0.066611  0.327366  1
  S  S40  1  0.004248  0.682489  0.880004  1
  S  S41  1  0.003161  0.933389  0.827366  1
  S  S42  1  0.500000  0.251230  0.250000  1
  S  S43  1  0.495752  0.182489  0.880004  1
  S  S44  1  0.503161  0.433389  0.672634  1
  S  S45  1  0.995752  0.682489  0.619996  1
  S  S46  1  0.500056  0.857405  0.967445  1
  S  S47  1  0.996839  0.066611  0.172634  1
  S  S48  1  0.499944  0.857405  0.532555  1
  S  S49  1  0.496839  0.433389  0.827366  1
  S  S50  1  -0.000056  0.642595  0.467445  1
  S  S51  1  0.500000  0.748770  0.750000  1
  S  S52  1  0.996839  0.933389  0.672634  1
  S  S53  1  0.004248  0.317511  0.380004  1
  S  S54  1  0.500056  0.142595  0.467445  1
  S  S55  1  0.503161  0.566611  0.172634  1
  S  S56  1  0.000056  0.357405  0.532555  1
  S  S57  1  -0.000056  0.357405  0.967445  1
  S  S58  1  0.499944  0.142595  0.032555  1
  S  S59  1  0.504248  0.817511  0.119996  1
