# generated using pymatgen
data_Yb(SbTe2)2
_symmetry_space_group_name_H-M   'P 1'
_cell_length_a   8.49473797
_cell_length_b   8.49473855
_cell_length_c   8.49473824
_cell_angle_alpha   108.89032093
_cell_angle_beta   110.63936677
_cell_angle_gamma   108.89032353
_symmetry_Int_Tables_number   1
_chemical_formula_structural   Yb(SbTe2)2
_chemical_formula_sum   'Yb2 Sb4 Te8'
_cell_volume   471.72881533
_cell_formula_units_Z   2
loop_
 _symmetry_equiv_pos_site_id
 _symmetry_equiv_pos_as_xyz
  1  'x, y, z'
loop_
 _atom_site_type_symbol
 _atom_site_label
 _atom_site_symmetry_multiplicity
 _atom_site_fract_x
 _atom_site_fract_y
 _atom_site_fract_z
 _atom_site_occupancy
  Yb  Yb0  1  0.125000  0.750000  0.875000  1
  Yb  Yb1  1  0.375000  0.250000  0.625000  1
  Sb  Sb2  1  0.250000  0.509209  0.259209  1
  Sb  Sb3  1  0.750000  0.990791  0.240791  1
  Sb  Sb4  1  0.740791  0.490791  0.250000  1
  Sb  Sb5  1  0.759209  0.009209  0.750000  1
  Te  Te6  1  0.000849  0.908956  0.532121  1
  Te  Te7  1  0.032121  0.408957  0.500849  1
  Te  Te8  1  0.499151  0.031272  0.908107  1
  Te  Te9  1  0.091893  0.091043  0.123165  1
  Te  Te10  1  0.408107  0.531272  0.999151  1
  Te  Te11  1  0.623165  0.591044  0.591893  1
  Te  Te12  1  0.467879  0.968728  0.376835  1
  Te  Te13  1  0.876835  0.468728  0.967879  1
