# generated using pymatgen
data_Nb6Tl3SBr17
_symmetry_space_group_name_H-M   'P 1'
_cell_length_a   9.61509394
_cell_length_b   14.23357503
_cell_length_c   14.23357563
_cell_angle_alpha   104.53162488
_cell_angle_beta   84.25991899
_cell_angle_gamma   84.25992475
_symmetry_Int_Tables_number   1
_chemical_formula_structural   Nb6Tl3SBr17
_chemical_formula_sum   'Nb12 Tl6 S2 Br34'
_cell_volume   1860.29888364
_cell_formula_units_Z   2
loop_
 _symmetry_equiv_pos_site_id
 _symmetry_equiv_pos_as_xyz
  1  'x, y, z'
loop_
 _atom_site_type_symbol
 _atom_site_label
 _atom_site_symmetry_multiplicity
 _atom_site_fract_x
 _atom_site_fract_y
 _atom_site_fract_z
 _atom_site_occupancy
  Nb  Nb0  1  0.488659  0.316051  0.066652  1
  Nb  Nb1  1  0.391929  0.754025  0.092359  1
  Nb  Nb2  1  0.475086  0.667189  0.342480  1
  Nb  Nb3  1  0.608071  0.245975  0.907641  1
  Nb  Nb4  1  0.011341  0.933348  0.683949  1
  Nb  Nb5  1  0.511341  0.683949  0.933348  1
  Nb  Nb6  1  0.891929  0.092359  0.754025  1
  Nb  Nb7  1  0.524914  0.332811  0.657520  1
  Nb  Nb8  1  0.975086  0.342480  0.667189  1
  Nb  Nb9  1  0.988659  0.066652  0.316051  1
  Nb  Nb10  1  0.108071  0.907641  0.245975  1
  Nb  Nb11  1  0.024914  0.657520  0.332811  1
  Tl  Tl12  1  0.643806  0.749133  0.603967  1
  Tl  Tl13  1  0.250000  0.047007  0.952993  1
  Tl  Tl14  1  0.856194  0.396033  0.250867  1
  Tl  Tl15  1  0.143806  0.603967  0.749133  1
  Tl  Tl16  1  0.356194  0.250867  0.396033  1
  Tl  Tl17  1  0.750000  0.952993  0.047007  1
  S  S18  1  0.750000  0.304009  0.695991  1
  S  S19  1  0.250000  0.695991  0.304009  1
  Br  Br20  1  0.226589  0.313046  0.060360  1
  Br  Br21  1  0.773411  0.686954  0.939640  1
  Br  Br22  1  0.066336  0.157054  0.193716  1
  Br  Br23  1  0.726589  0.060360  0.313046  1
  Br  Br24  1  0.494056  0.476945  0.262592  1
  Br  Br25  1  0.981475  0.583071  0.158012  1
  Br  Br26  1  0.897347  0.511175  0.640930  1
  Br  Br27  1  0.566336  0.193716  0.157054  1
  Br  Br28  1  0.102653  0.488825  0.359070  1
  Br  Br29  1  0.690133  0.407117  0.008783  1
  Br  Br30  1  0.901954  0.832729  0.318342  1
  Br  Br31  1  0.518525  0.841988  0.416929  1
  Br  Br32  1  0.401954  0.318342  0.832729  1
  Br  Br33  1  0.899855  0.147753  0.940977  1
  Br  Br34  1  0.600145  0.059023  0.852247  1
  Br  Br35  1  0.994056  0.262592  0.476945  1
  Br  Br36  1  0.433664  0.806284  0.842946  1
  Br  Br37  1  0.399855  0.940977  0.147753  1
  Br  Br38  1  0.809867  0.991217  0.592883  1
  Br  Br39  1  0.250000  0.385534  0.614466  1
  Br  Br40  1  0.481475  0.158012  0.583071  1
  Br  Br41  1  0.598046  0.681658  0.167271  1
  Br  Br42  1  0.750000  0.614466  0.385534  1
  Br  Br43  1  0.190133  0.008783  0.407117  1
  Br  Br44  1  0.397347  0.640930  0.511175  1
  Br  Br45  1  0.933664  0.842946  0.806284  1
  Br  Br46  1  0.309867  0.592883  0.991217  1
  Br  Br47  1  0.602653  0.359070  0.488825  1
  Br  Br48  1  0.005944  0.737408  0.523055  1
  Br  Br49  1  0.505944  0.523055  0.737408  1
  Br  Br50  1  0.018525  0.416929  0.841988  1
  Br  Br51  1  0.100145  0.852247  0.059023  1
  Br  Br52  1  0.098046  0.167271  0.681658  1
  Br  Br53  1  0.273411  0.939640  0.686954  1
