# generated using pymatgen
data_H13(C5N)2
_symmetry_space_group_name_H-M   'P 1'
_cell_length_a   11.46085939
_cell_length_b   13.22152802
_cell_length_c   13.55591619
_cell_angle_alpha   90.00000000
_cell_angle_beta   90.00000000
_cell_angle_gamma   101.97893063
_symmetry_Int_Tables_number   1
_chemical_formula_structural   H13(C5N)2
_chemical_formula_sum   'H104 C80 N16'
_cell_volume   2009.39824426
_cell_formula_units_Z   8
loop_
 _symmetry_equiv_pos_site_id
 _symmetry_equiv_pos_as_xyz
  1  'x, y, z'
loop_
 _atom_site_type_symbol
 _atom_site_label
 _atom_site_symmetry_multiplicity
 _atom_site_fract_x
 _atom_site_fract_y
 _atom_site_fract_z
 _atom_site_occupancy
  H  H0  1  0.513215  0.183496  0.963451  1
  H  H1  1  0.983195  0.540054  0.589197  1
  H  H2  1  0.617758  0.647582  0.396576  1
  H  H3  1  0.870997  0.087725  0.847306  1
  H  H4  1  0.620350  0.503709  0.073968  1
  H  H5  1  0.007966  0.172094  0.878778  1
  H  H6  1  0.122966  0.638921  0.164639  1
  H  H7  1  0.483439  0.622794  0.653284  1
  H  H8  1  0.202434  0.486177  0.812361  1
  H  H9  1  0.369104  0.794301  0.474151  1
  H  H10  1  0.797566  0.513823  0.187639  1
  H  H11  1  0.940660  0.032515  0.604408  1
  H  H12  1  0.293855  0.892591  0.052453  1
  H  H13  1  0.129003  0.912275  0.152694  1
  H  H14  1  0.518046  0.072810  0.241585  1
  H  H15  1  0.184130  0.100727  0.749551  1
  H  H16  1  0.478284  0.619246  0.938205  1
  H  H17  1  0.483439  0.122794  0.846716  1
  H  H18  1  0.481954  0.927190  0.758415  1
  H  H19  1  0.007966  0.672094  0.621222  1
  H  H20  1  0.382242  0.852418  0.896576  1
  H  H21  1  0.382242  0.352418  0.603424  1
  H  H22  1  0.059340  0.467485  0.104408  1
  H  H23  1  0.630761  0.065015  0.683743  1
  H  H24  1  0.035624  0.302676  0.740076  1
  H  H25  1  0.379650  0.996291  0.573968  1
  H  H26  1  0.881899  0.127806  0.667738  1
  H  H27  1  0.155489  0.087360  0.620777  1
  H  H28  1  0.844511  0.912640  0.379223  1
  H  H29  1  0.390986  0.576306  0.550515  1
  H  H30  1  0.481954  0.427190  0.741585  1
  H  H31  1  0.174604  0.915083  0.449424  1
  H  H32  1  0.751828  0.194305  0.444843  1
  H  H33  1  0.948639  0.842486  0.916723  1
  H  H34  1  0.617758  0.147582  0.103424  1
  H  H35  1  0.129003  0.412275  0.347306  1
  H  H36  1  0.630896  0.705699  0.974151  1
  H  H37  1  0.521716  0.880754  0.438205  1
  H  H38  1  0.825396  0.584917  0.949424  1
  H  H39  1  0.247498  0.688274  0.489102  1
  H  H40  1  0.184130  0.600727  0.750449  1
  H  H41  1  0.516561  0.877206  0.153284  1
  H  H42  1  0.609014  0.423694  0.449485  1
  H  H43  1  0.486785  0.316504  0.463451  1
  H  H44  1  0.751828  0.694305  0.055157  1
  H  H45  1  0.964376  0.197324  0.240076  1
  H  H46  1  0.118101  0.872194  0.332262  1
  H  H47  1  0.992034  0.327906  0.378778  1
  H  H48  1  0.630761  0.565015  0.816257  1
  H  H49  1  0.334225  0.097404  0.505732  1
  H  H50  1  0.665775  0.902596  0.494268  1
  H  H51  1  0.369104  0.294301  0.025849  1
  H  H52  1  0.752502  0.311726  0.510898  1
  H  H53  1  0.731392  0.723629  0.745230  1
  H  H54  1  0.247498  0.188274  0.010898  1
  H  H55  1  0.983195  0.040054  0.910803  1
  H  H56  1  0.815870  0.399273  0.249551  1
  H  H57  1  0.379650  0.496291  0.926032  1
  H  H58  1  0.620350  0.003709  0.426032  1
  H  H59  1  0.992034  0.827906  0.121222  1
  H  H60  1  0.964376  0.697324  0.259924  1
  H  H61  1  0.268608  0.776371  0.245230  1
  H  H62  1  0.518046  0.572810  0.258415  1
  H  H63  1  0.630896  0.205699  0.525849  1
  H  H64  1  0.390986  0.076306  0.949485  1
  H  H65  1  0.248172  0.305695  0.944843  1
  H  H66  1  0.334225  0.597404  0.994268  1
  H  H67  1  0.870997  0.587725  0.652694  1
  H  H68  1  0.609014  0.923694  0.050515  1
  H  H69  1  0.731392  0.223629  0.754770  1
  H  H70  1  0.521716  0.380754  0.061795  1
  H  H71  1  0.825396  0.084917  0.550576  1
  H  H72  1  0.877034  0.361079  0.835361  1
  H  H73  1  0.940660  0.532515  0.895592  1
  H  H74  1  0.268608  0.276371  0.254770  1
  H  H75  1  0.478284  0.119246  0.561795  1
  H  H76  1  0.948639  0.342486  0.583277  1
  H  H77  1  0.248172  0.805695  0.555157  1
  H  H78  1  0.752502  0.811726  0.989102  1
  H  H79  1  0.016805  0.459946  0.410803  1
  H  H80  1  0.016805  0.959946  0.089197  1
  H  H81  1  0.706145  0.607409  0.552453  1
  H  H82  1  0.051361  0.157514  0.083277  1
  H  H83  1  0.369239  0.934985  0.316257  1
  H  H84  1  0.486785  0.816504  0.036549  1
  H  H85  1  0.155489  0.587360  0.879223  1
  H  H86  1  0.122966  0.138921  0.335361  1
  H  H87  1  0.059340  0.967485  0.395592  1
  H  H88  1  0.797566  0.013823  0.312361  1
  H  H89  1  0.844511  0.412640  0.120777  1
  H  H90  1  0.202434  0.986177  0.687639  1
  H  H91  1  0.293855  0.392591  0.447547  1
  H  H92  1  0.513215  0.683496  0.536549  1
  H  H93  1  0.516561  0.377206  0.346716  1
  H  H94  1  0.877034  0.861079  0.664639  1
  H  H95  1  0.706145  0.107409  0.947547  1
  H  H96  1  0.369239  0.434985  0.183743  1
  H  H97  1  0.174604  0.415083  0.050576  1
  H  H98  1  0.665775  0.402596  0.005732  1
  H  H99  1  0.035624  0.802676  0.759924  1
  H  H100  1  0.051361  0.657514  0.416723  1
  H  H101  1  0.815870  0.899273  0.250449  1
  H  H102  1  0.881899  0.627806  0.832262  1
  H  H103  1  0.118101  0.372194  0.167738  1
  C  C104  1  0.786560  0.429438  0.180814  1
  C  C105  1  0.766612  0.474446  0.831697  1
  C  C106  1  0.906693  0.178607  0.175833  1
  C  C107  1  0.406923  0.687389  0.257819  1
  C  C108  1  0.303938  0.753916  0.527857  1
  C  C109  1  0.766612  0.974446  0.668303  1
  C  C110  1  0.215966  0.320249  0.684939  1
  C  C111  1  0.707666  0.798081  0.731433  1
  C  C112  1  0.213440  0.570562  0.819186  1
  C  C113  1  0.209203  0.623372  0.186435  1
  C  C114  1  0.060652  0.893542  0.095034  1
  C  C115  1  0.303938  0.253916  0.972143  1
  C  C116  1  0.596471  0.803187  0.286772  1
  C  C117  1  0.790797  0.376628  0.813565  1
  C  C118  1  0.336275  0.240253  0.794360  1
  C  C119  1  0.233388  0.025554  0.331697  1
  C  C120  1  0.044161  0.844306  0.913393  1
  C  C121  1  0.663725  0.259747  0.294360  1
  C  C122  1  0.346178  0.010109  0.303861  1
  C  C123  1  0.044161  0.344306  0.586607  1
  C  C124  1  0.292334  0.701919  0.231433  1
  C  C125  1  0.696062  0.246084  0.472143  1
  C  C126  1  0.286558  0.348465  0.600355  1
  C  C127  1  0.114127  0.369643  0.501708  1
  C  C128  1  0.441824  0.646334  0.586858  1
  C  C129  1  0.955839  0.155694  0.086607  1
  C  C130  1  0.403529  0.196813  0.713228  1
  C  C131  1  0.233388  0.525554  0.168303  1
  C  C132  1  0.441824  0.146334  0.913142  1
  C  C133  1  0.885873  0.130357  0.001708  1
  C  C134  1  0.385109  0.580302  0.929687  1
  C  C135  1  0.093307  0.321393  0.675833  1
  C  C136  1  0.906693  0.678607  0.324167  1
  C  C137  1  0.653822  0.989891  0.696139  1
  C  C138  1  0.431423  0.588800  0.239091  1
  C  C139  1  0.403529  0.696813  0.786772  1
  C  C140  1  0.955839  0.655694  0.413393  1
  C  C141  1  0.663725  0.759747  0.205640  1
  C  C142  1  0.142080  0.941120  0.379432  1
  C  C143  1  0.857920  0.058880  0.620568  1
  C  C144  1  0.236126  0.872084  0.988481  1
  C  C145  1  0.215966  0.820249  0.815061  1
  C  C146  1  0.713442  0.651535  0.399645  1
  C  C147  1  0.114127  0.869643  0.998292  1
  C  C148  1  0.568577  0.411199  0.760909  1
  C  C149  1  0.406923  0.187389  0.242181  1
  C  C150  1  0.596471  0.303187  0.213228  1
  C  C151  1  0.286558  0.848465  0.899645  1
  C  C152  1  0.885873  0.630357  0.498292  1
  C  C153  1  0.593077  0.812611  0.757819  1
  C  C154  1  0.707666  0.298081  0.768567  1
  C  C155  1  0.763874  0.627916  0.488481  1
  C  C156  1  0.614891  0.419698  0.070313  1
  C  C157  1  0.336275  0.740253  0.705640  1
  C  C158  1  0.614891  0.919698  0.429687  1
  C  C159  1  0.790797  0.876628  0.686435  1
  C  C160  1  0.093307  0.821393  0.824167  1
  C  C161  1  0.213440  0.070562  0.680814  1
  C  C162  1  0.385109  0.080302  0.570313  1
  C  C163  1  0.763874  0.127916  0.011519  1
  C  C164  1  0.060652  0.393542  0.404966  1
  C  C165  1  0.568577  0.911200  0.739091  1
  C  C166  1  0.939348  0.606458  0.595034  1
  C  C167  1  0.558176  0.353666  0.413142  1
  C  C168  1  0.292334  0.201919  0.268567  1
  C  C169  1  0.857920  0.558880  0.879432  1
  C  C170  1  0.784034  0.179751  0.184939  1
  C  C171  1  0.236126  0.372084  0.511519  1
  C  C172  1  0.713442  0.151535  0.100355  1
  C  C173  1  0.142080  0.441120  0.120568  1
  C  C174  1  0.939348  0.106458  0.904966  1
  C  C175  1  0.696062  0.746084  0.027857  1
  C  C176  1  0.558176  0.853666  0.086858  1
  C  C177  1  0.431423  0.088801  0.260909  1
  C  C178  1  0.593077  0.312611  0.742181  1
  C  C179  1  0.653822  0.489891  0.803861  1
  C  C180  1  0.786560  0.929438  0.319186  1
  C  C181  1  0.784034  0.679751  0.315061  1
  C  C182  1  0.346178  0.510109  0.196139  1
  C  C183  1  0.209203  0.123372  0.313565  1
  N  N184  1  0.662426  0.382600  0.159749  1
  N  N185  1  0.743543  0.704502  0.222475  1
  N  N186  1  0.743543  0.204502  0.277525  1
  N  N187  1  0.516216  0.231367  0.694243  1
  N  N188  1  0.483784  0.268633  0.194243  1
  N  N189  1  0.337574  0.617400  0.840251  1
  N  N190  1  0.483784  0.768633  0.305757  1
  N  N191  1  0.337574  0.117400  0.659749  1
  N  N192  1  0.364216  0.217436  0.888925  1
  N  N193  1  0.635784  0.782564  0.111075  1
  N  N194  1  0.364216  0.717436  0.611075  1
  N  N195  1  0.516216  0.731367  0.805757  1
  N  N196  1  0.256457  0.795498  0.722475  1
  N  N197  1  0.662426  0.882600  0.340251  1
  N  N198  1  0.256457  0.295498  0.777525  1
  N  N199  1  0.635784  0.282564  0.388925  1
