# generated using pymatgen
data_Rb(WO3)6
_symmetry_space_group_name_H-M   'P 1'
_cell_length_a   7.51787298
_cell_length_b   15.03640503
_cell_length_c   7.73016041
_cell_angle_alpha   89.99999970
_cell_angle_beta   90.00000060
_cell_angle_gamma   119.99855007
_symmetry_Int_Tables_number   1
_chemical_formula_structural   Rb(WO3)6
_chemical_formula_sum   'Rb2 W12 O36'
_cell_volume   756.77100176
_cell_formula_units_Z   2
loop_
 _symmetry_equiv_pos_site_id
 _symmetry_equiv_pos_as_xyz
  1  'x, y, z'
loop_
 _atom_site_type_symbol
 _atom_site_label
 _atom_site_symmetry_multiplicity
 _atom_site_fract_x
 _atom_site_fract_y
 _atom_site_fract_z
 _atom_site_occupancy
  Rb  Rb0  1  0.000000  0.000000  0.000000  1
  Rb  Rb1  1  0.000000  0.500000  0.500000  1
  W  W2  1  0.000257  0.753371  0.748387  1
  W  W3  1  0.493514  0.746629  0.751613  1
  W  W4  1  0.000257  0.253372  0.751613  1
  W  W5  1  0.506486  0.753371  0.251613  1
  W  W6  1  0.493228  0.500000  0.249686  1
  W  W7  1  0.506772  0.500000  0.750314  1
  W  W8  1  0.493514  0.246629  0.748387  1
  W  W9  1  0.506486  0.253372  0.248387  1
  W  W10  1  0.999743  0.746629  0.248387  1
  W  W11  1  0.493228  0.000000  0.250314  1
  W  W12  1  0.506772  0.000000  0.749686  1
  W  W13  1  0.999743  0.246629  0.251613  1
  O  O14  1  0.000065  0.750155  0.999339  1
  O  O15  1  0.210549  0.893300  0.247608  1
  O  O16  1  0.213475  0.894798  0.751862  1
  O  O17  1  0.210607  0.712028  0.747696  1
  O  O18  1  0.213449  0.712028  0.252304  1
  O  O19  1  0.576122  0.894798  0.248138  1
  O  O20  1  0.576051  0.893300  0.752392  1
  O  O21  1  0.999935  0.249845  0.000661  1
  O  O22  1  0.499755  0.749845  0.500661  1
  O  O23  1  0.500245  0.750155  0.000661  1
  O  O24  1  0.210549  0.393300  0.252392  1
  O  O25  1  0.423949  0.606700  0.252392  1
  O  O26  1  0.423878  0.605202  0.748138  1
  O  O27  1  0.213475  0.394798  0.748138  1
  O  O28  1  0.210607  0.212028  0.752304  1
  O  O29  1  0.786551  0.787972  0.752304  1
  O  O30  1  0.500000  0.500000  0.000000  1
  O  O31  1  0.500000  0.500000  0.500000  1
  O  O32  1  0.213449  0.212028  0.247696  1
  O  O33  1  0.789393  0.787972  0.247696  1
  O  O34  1  0.576122  0.394798  0.251862  1
  O  O35  1  0.786525  0.605202  0.251862  1
  O  O36  1  0.789451  0.606700  0.747608  1
  O  O37  1  0.576051  0.393300  0.747608  1
  O  O38  1  0.499755  0.249845  0.999339  1
  O  O39  1  0.500245  0.250155  0.499339  1
  O  O40  1  0.999935  0.749845  0.499339  1
  O  O41  1  0.423949  0.106700  0.247608  1
  O  O42  1  0.423878  0.105202  0.751862  1
  O  O43  1  0.786551  0.287972  0.747696  1
  O  O44  1  0.500000  0.000000  0.000000  1
  O  O45  1  0.500000  0.000000  0.500000  1
  O  O46  1  0.789393  0.287972  0.252304  1
  O  O47  1  0.786525  0.105202  0.248138  1
  O  O48  1  0.789451  0.106700  0.752392  1
  O  O49  1  0.000065  0.250155  0.500661  1
