# generated using pymatgen
data_Ca3Y2(GeO4)3
_symmetry_space_group_name_H-M   'P 1'
_cell_length_a   11.22161553
_cell_length_b   11.22161545
_cell_length_c   11.22161538
_cell_angle_alpha   109.47122051
_cell_angle_beta   109.47122036
_cell_angle_gamma   109.47122105
_symmetry_Int_Tables_number   1
_chemical_formula_structural   Ca3Y2(GeO4)3
_chemical_formula_sum   'Ca12 Y8 Ge12 O48'
_cell_volume   1087.78797926
_cell_formula_units_Z   4
loop_
 _symmetry_equiv_pos_site_id
 _symmetry_equiv_pos_as_xyz
  1  'x, y, z'
loop_
 _atom_site_type_symbol
 _atom_site_label
 _atom_site_symmetry_multiplicity
 _atom_site_fract_x
 _atom_site_fract_y
 _atom_site_fract_z
 _atom_site_occupancy
  Ca  Ca0  1  0.250000  0.375000  0.125000  1
  Ca  Ca1  1  0.875000  0.625000  0.250000  1
  Ca  Ca2  1  0.125000  0.250000  0.375000  1
  Ca  Ca3  1  0.750000  0.625000  0.875000  1
  Ca  Ca4  1  0.375000  0.750000  0.125000  1
  Ca  Ca5  1  0.375000  0.125000  0.250000  1
  Ca  Ca6  1  0.250000  0.875000  0.625000  1
  Ca  Ca7  1  0.875000  0.750000  0.625000  1
  Ca  Ca8  1  0.625000  0.250000  0.875000  1
  Ca  Ca9  1  0.625000  0.875000  0.750000  1
  Ca  Ca10  1  0.750000  0.125000  0.375000  1
  Ca  Ca11  1  0.125000  0.375000  0.750000  1
  Y  Y12  1  0.500000  0.500000  0.500000  1
  Y  Y13  1  0.500000  0.000000  0.000000  1
  Y  Y14  1  0.500000  0.000000  0.500000  1
  Y  Y15  1  0.500000  0.500000  0.000000  1
  Y  Y16  1  0.000000  0.000000  0.000000  1
  Y  Y17  1  0.000000  0.500000  0.500000  1
  Y  Y18  1  0.000000  0.500000  0.000000  1
  Y  Y19  1  0.000000  0.000000  0.500000  1
  Ge  Ge20  1  0.125000  0.875000  0.250000  1
  Ge  Ge21  1  0.125000  0.750000  0.875000  1
  Ge  Ge22  1  0.875000  0.125000  0.750000  1
  Ge  Ge23  1  0.625000  0.750000  0.375000  1
  Ge  Ge24  1  0.750000  0.375000  0.625000  1
  Ge  Ge25  1  0.375000  0.250000  0.625000  1
  Ge  Ge26  1  0.250000  0.125000  0.875000  1
  Ge  Ge27  1  0.750000  0.875000  0.125000  1
  Ge  Ge28  1  0.875000  0.250000  0.125000  1
  Ge  Ge29  1  0.375000  0.625000  0.750000  1
  Ge  Ge30  1  0.250000  0.625000  0.375000  1
  Ge  Ge31  1  0.625000  0.375000  0.250000  1
  O  O32  1  0.091779  0.716999  0.696569  1
  O  O33  1  0.783001  0.874780  0.979570  1
  O  O34  1  0.716999  0.696569  0.091779  1
  O  O35  1  0.303431  0.908221  0.283001  1
  O  O36  1  0.625220  0.408221  0.104790  1
  O  O37  1  0.874780  0.395210  0.091779  1
  O  O38  1  0.408221  0.803431  0.783001  1
  O  O39  1  0.895210  0.020430  0.303431  1
  O  O40  1  0.591779  0.196569  0.216999  1
  O  O41  1  0.520430  0.395210  0.803431  1
  O  O42  1  0.604790  0.908221  0.125220  1
  O  O43  1  0.283001  0.303431  0.908221  1
  O  O44  1  0.091779  0.874780  0.395210  1
  O  O45  1  0.803431  0.520430  0.395210  1
  O  O46  1  0.125220  0.604790  0.908221  1
  O  O47  1  0.716999  0.520430  0.625220  1
  O  O48  1  0.196569  0.216999  0.591779  1
  O  O49  1  0.479570  0.374780  0.283001  1
  O  O50  1  0.303431  0.895210  0.020430  1
  O  O51  1  0.895210  0.374780  0.591779  1
  O  O52  1  0.283001  0.479570  0.374780  1
  O  O53  1  0.696569  0.104790  0.979570  1
  O  O54  1  0.196569  0.479570  0.604790  1
  O  O55  1  0.783001  0.408221  0.803431  1
  O  O56  1  0.874780  0.979570  0.783001  1
  O  O57  1  0.625220  0.716999  0.520430  1
  O  O58  1  0.696569  0.091779  0.716999  1
  O  O59  1  0.604790  0.196569  0.479570  1
  O  O60  1  0.104790  0.625220  0.408221  1
  O  O61  1  0.908221  0.125220  0.604790  1
  O  O62  1  0.520430  0.625220  0.716999  1
  O  O63  1  0.395210  0.803431  0.520430  1
  O  O64  1  0.020430  0.216999  0.125220  1
  O  O65  1  0.020430  0.303431  0.895210  1
  O  O66  1  0.125220  0.020430  0.216999  1
  O  O67  1  0.803431  0.783001  0.408221  1
  O  O68  1  0.374780  0.591779  0.895210  1
  O  O69  1  0.374780  0.283001  0.479570  1
  O  O70  1  0.979570  0.783001  0.874780  1
  O  O71  1  0.979570  0.696569  0.104790  1
  O  O72  1  0.408221  0.104790  0.625220  1
  O  O73  1  0.216999  0.125220  0.020430  1
  O  O74  1  0.479570  0.604790  0.196569  1
  O  O75  1  0.395210  0.091779  0.874780  1
  O  O76  1  0.104790  0.979570  0.696569  1
  O  O77  1  0.216999  0.591779  0.196569  1
  O  O78  1  0.908221  0.283001  0.303431  1
  O  O79  1  0.591779  0.895210  0.374780  1
