# generated using pymatgen
data_MnP2O7
_symmetry_space_group_name_H-M   'P 1'
_cell_length_a   5.01705553
_cell_length_b   6.30931236
_cell_length_c   8.61937219
_cell_angle_alpha   113.00158155
_cell_angle_beta   92.30396572
_cell_angle_gamma   87.04869229
_symmetry_Int_Tables_number   1
_chemical_formula_structural   MnP2O7
_chemical_formula_sum   'Mn2 P4 O14'
_cell_volume   250.75378901
_cell_formula_units_Z   2
loop_
 _symmetry_equiv_pos_site_id
 _symmetry_equiv_pos_as_xyz
  1  'x, y, z'
loop_
 _atom_site_type_symbol
 _atom_site_label
 _atom_site_symmetry_multiplicity
 _atom_site_fract_x
 _atom_site_fract_y
 _atom_site_fract_z
 _atom_site_occupancy
  Mn  Mn0  1  0.760648  0.565365  0.272904  1
  Mn  Mn1  1  0.239352  0.434635  0.727096  1
  P  P2  1  0.295480  0.280296  0.343131  1
  P  P3  1  0.780952  0.218499  0.861541  1
  P  P4  1  0.219048  0.781501  0.138459  1
  P  P5  1  0.704520  0.719704  0.656869  1
  O  O6  1  0.258499  0.049081  0.177348  1
  O  O7  1  0.938189  0.776907  0.202807  1
  O  O8  1  0.236419  0.672688  0.948009  1
  O  O9  1  0.433739  0.701560  0.234202  1
  O  O10  1  0.763581  0.327312  0.051991  1
  O  O11  1  0.415338  0.649757  0.659051  1
  O  O12  1  0.254279  0.213617  0.494233  1
  O  O13  1  0.745721  0.786383  0.505767  1
  O  O14  1  0.741501  0.950919  0.822652  1
  O  O15  1  0.584662  0.350243  0.340949  1
  O  O16  1  0.566261  0.298440  0.765798  1
  O  O17  1  0.061811  0.223093  0.797193  1
  O  O18  1  0.098081  0.461433  0.327655  1
  O  O19  1  0.901919  0.538567  0.672345  1
