# generated using pymatgen
data_TaTi9Al3Zn23O48
_symmetry_space_group_name_H-M   'P 1'
_cell_length_a   6.06218980
_cell_length_b   6.01688352
_cell_length_c   36.26643514
_cell_angle_alpha   60.15378891
_cell_angle_beta   59.50076045
_cell_angle_gamma   60.14364751
_symmetry_Int_Tables_number   1
_chemical_formula_structural   TaTi9Al3Zn23O48
_chemical_formula_sum   'Ta1 Ti9 Al3 Zn23 O48'
_cell_volume   933.87964978
_cell_formula_units_Z   1
loop_
 _symmetry_equiv_pos_site_id
 _symmetry_equiv_pos_as_xyz
  1  'x, y, z'
loop_
 _atom_site_type_symbol
 _atom_site_label
 _atom_site_symmetry_multiplicity
 _atom_site_fract_x
 _atom_site_fract_y
 _atom_site_fract_z
 _atom_site_occupancy
  Ta  Ta0  1  0.624980  0.618578  0.436657  1
  Ti  Ti1  1  0.624869  0.126006  0.104174  1
  Ti  Ti2  1  0.626735  0.627109  0.103310  1
  Ti  Ti3  1  0.625643  0.127183  0.270528  1
  Ti  Ti4  1  0.629679  0.628955  0.269381  1
  Ti  Ti5  1  0.623965  0.635244  0.522313  1
  Ti  Ti6  1  0.619911  0.110731  0.606684  1
  Ti  Ti7  1  0.626314  0.139166  0.768680  1
  Ti  Ti8  1  0.623862  0.111046  0.939570  1
  Ti  Ti9  1  0.625076  0.624518  0.854045  1
  Al  Al10  1  0.623312  0.620635  0.605859  1
  Al  Al11  1  0.624636  0.624714  0.770938  1
  Al  Al12  1  0.626491  0.626695  0.936663  1
  Zn  Zn13  1  0.988789  0.024079  0.997489  1
  Zn  Zn14  1  0.267096  0.242368  0.041467  1
  Zn  Zn15  1  0.125642  0.626055  0.103895  1
  Zn  Zn16  1  0.623088  0.619345  0.020161  1
  Zn  Zn17  1  0.262560  0.239173  0.210092  1
  Zn  Zn18  1  0.125318  0.625706  0.270463  1
  Zn  Zn19  1  0.625189  0.624374  0.187146  1
  Zn  Zn20  1  0.989930  0.013305  0.164015  1
  Zn  Zn21  1  0.268425  0.258799  0.374414  1
  Zn  Zn22  1  0.125856  0.624544  0.436611  1
  Zn  Zn23  1  0.626179  0.616365  0.353225  1
  Zn  Zn24  1  0.623060  0.125879  0.436441  1
  Zn  Zn25  1  0.991414  0.006742  0.331248  1
  Zn  Zn26  1  0.251207  0.243827  0.544539  1
  Zn  Zn27  1  0.120322  0.616020  0.606257  1
  Zn  Zn28  1  0.266035  0.230437  0.708895  1
  Zn  Zn29  1  0.985423  0.993310  0.502333  1
  Zn  Zn30  1  0.127956  0.630817  0.769694  1
  Zn  Zn31  1  0.625550  0.625415  0.687804  1
  Zn  Zn32  1  0.981895  0.016009  0.666900  1
  Zn  Zn33  1  0.263115  0.240906  0.874800  1
  Zn  Zn34  1  0.122853  0.620450  0.938383  1
  Zn  Zn35  1  0.987401  0.009753  0.833332  1
  O  O36  1  0.395417  0.363980  0.066529  1
  O  O37  1  0.401125  0.838410  0.064951  1
  O  O38  1  0.408707  0.371516  0.141576  1
  O  O39  1  0.852401  0.370290  0.067207  1
  O  O40  1  0.398849  0.366004  0.232666  1
  O  O41  1  0.399483  0.878390  0.140167  1
  O  O42  1  0.843006  0.881039  0.066012  1
  O  O43  1  0.852348  0.412814  0.141556  1
  O  O44  1  0.397770  0.838368  0.232546  1
  O  O45  1  0.410476  0.372770  0.307201  1
  O  O46  1  0.853808  0.368805  0.233885  1
  O  O47  1  0.852358  0.882914  0.141968  1
  O  O48  1  0.389404  0.389483  0.397984  1
  O  O49  1  0.401616  0.878820  0.306187  1
  O  O50  1  0.844814  0.879544  0.232422  1
  O  O51  1  0.857718  0.406764  0.307381  1
  O  O52  1  0.389828  0.857801  0.400723  1
  O  O53  1  0.389930  0.385346  0.477466  1
  O  O54  1  0.865424  0.386673  0.399422  1
  O  O55  1  0.847949  0.878743  0.309374  1
  O  O56  1  0.410857  0.375133  0.563275  1
  O  O57  1  0.396856  0.837968  0.482950  1
  O  O58  1  0.856804  0.858645  0.399787  1
  O  O59  1  0.841940  0.401114  0.480786  1
  O  O60  1  0.410106  0.833866  0.564797  1
  O  O61  1  0.405702  0.381921  0.640109  1
  O  O62  1  0.838388  0.392036  0.564959  1
  O  O63  1  0.854793  0.850213  0.480833  1
  O  O64  1  0.396112  0.350742  0.734253  1
  O  O65  1  0.395524  0.881909  0.640011  1
  O  O66  1  0.837692  0.866834  0.569292  1
  O  O67  1  0.841404  0.418534  0.642345  1
  O  O68  1  0.407723  0.827839  0.733824  1
  O  O69  1  0.410344  0.378066  0.807213  1
  O  O70  1  0.852300  0.365781  0.735916  1
  O  O71  1  0.854336  0.898262  0.640958  1
  O  O72  1  0.410288  0.378978  0.894992  1
  O  O73  1  0.406839  0.857416  0.812042  1
  O  O74  1  0.839596  0.418426  0.810914  1
  O  O75  1  0.840948  0.867387  0.735969  1
  O  O76  1  0.410240  0.832162  0.897202  1
  O  O77  1  0.409602  0.383084  0.972220  1
  O  O78  1  0.839705  0.871095  0.813311  1
  O  O79  1  0.843378  0.392265  0.896114  1
  O  O80  1  0.398736  0.883944  0.971855  1
  O  O81  1  0.840015  0.873785  0.900812  1
  O  O82  1  0.845239  0.423135  0.973226  1
  O  O83  1  0.852320  0.896732  0.974401  1
