# generated using pymatgen
data_Ca2FeWO6
_symmetry_space_group_name_H-M   'P 1'
_cell_length_a   5.56835459
_cell_length_b   5.78324579
_cell_length_c   7.96170296
_cell_angle_alpha   90.00000000
_cell_angle_beta   90.00000000
_cell_angle_gamma   90.00000000
_symmetry_Int_Tables_number   1
_chemical_formula_structural   Ca2FeWO6
_chemical_formula_sum   'Ca4 Fe2 W2 O12'
_cell_volume   256.39202009
_cell_formula_units_Z   2
loop_
 _symmetry_equiv_pos_site_id
 _symmetry_equiv_pos_as_xyz
  1  'x, y, z'
loop_
 _atom_site_type_symbol
 _atom_site_label
 _atom_site_symmetry_multiplicity
 _atom_site_fract_x
 _atom_site_fract_y
 _atom_site_fract_z
 _atom_site_occupancy
  O  O0  1  0.500000  0.450510  0.748865  1
  O  O1  1  0.500000  0.450510  0.251135  1
  O  O2  1  0.000000  0.962653  0.752935  1
  O  O3  1  0.000000  0.962653  0.247065  1
  O  O4  1  0.756291  0.715686  0.500000  1
  O  O5  1  0.243709  0.715686  0.500000  1
  O  O6  1  0.739431  0.214809  0.500000  1
  O  O7  1  0.260569  0.214809  0.500000  1
  O  O8  1  0.250047  0.200113  0.000000  1
  O  O9  1  0.749953  0.200113  0.000000  1
  O  O10  1  0.766922  0.726729  0.000000  1
  O  O11  1  0.233078  0.726729  0.000000  1
  Ca  Ca12  1  0.000000  0.536314  0.247488  1
  Ca  Ca13  1  0.000000  0.536314  0.752512  1
  Ca  Ca14  1  0.500000  0.042494  0.752844  1
  Ca  Ca15  1  0.500000  0.042494  0.247156  1
  Fe  Fe16  1  0.000000  0.987004  0.500000  1
  Fe  Fe17  1  0.500000  0.481263  0.000000  1
  W  W18  1  0.000000  0.975877  0.000000  1
  W  W19  1  0.500000  0.481242  0.500000  1
