# generated using pymatgen
data_Ba3La7Mn2(Co4O15)2
_symmetry_space_group_name_H-M   'P 1'
_cell_length_a   3.91361669
_cell_length_b   19.56527330
_cell_length_c   8.74271336
_cell_angle_alpha   63.09164600
_cell_angle_beta   90.00000000
_cell_angle_gamma   90.00000000
_symmetry_Int_Tables_number   1
_chemical_formula_structural   Ba3La7Mn2(Co4O15)2
_chemical_formula_sum   'Ba3 La7 Mn2 Co8 O30'
_cell_volume   596.95910397
_cell_formula_units_Z   1
loop_
 _symmetry_equiv_pos_site_id
 _symmetry_equiv_pos_as_xyz
  1  'x, y, z'
loop_
 _atom_site_type_symbol
 _atom_site_label
 _atom_site_symmetry_multiplicity
 _atom_site_fract_x
 _atom_site_fract_y
 _atom_site_fract_z
 _atom_site_occupancy
  Ba  Ba0  1  0.000000  0.000000  0.000000  1
  Ba  Ba1  1  0.000000  0.896054  0.500813  1
  Ba  Ba2  1  0.000000  0.103946  0.499187  1
  La  La3  1  0.000000  0.696291  0.499528  1
  La  La4  1  0.000000  0.203138  -0.001883  1
  La  La5  1  0.000000  0.399342  0.002119  1
  La  La6  1  0.000000  0.303709  0.500472  1
  La  La7  1  0.000000  0.600658  0.997881  1
  La  La8  1  0.000000  0.500000  0.500000  1
  La  La9  1  0.000000  0.796862  0.001883  1
  Mn  Mn10  1  0.500000  0.051413  0.249469  1
  Mn  Mn11  1  0.500000  0.948587  0.750531  1
  Co  Co12  1  0.500000  0.153927  0.747565  1
  Co  Co13  1  0.500000  0.253548  0.247953  1
  Co  Co14  1  0.500000  0.451408  0.248156  1
  Co  Co15  1  0.500000  0.353272  0.748178  1
  Co  Co16  1  0.500000  0.646728  0.251822  1
  Co  Co17  1  0.500000  0.548592  0.751844  1
  Co  Co18  1  0.500000  0.746452  0.752047  1
  Co  Co19  1  0.500000  0.846073  0.252435  1
  O  O20  1  0.500000  0.156974  0.228564  1
  O  O21  1  0.500000  0.049435  0.750295  1
  O  O22  1  0.500000  0.355143  0.242680  1
  O  O23  1  0.500000  0.257454  0.749561  1
  O  O24  1  0.500000  0.549434  0.255400  1
  O  O25  1  0.500000  0.450566  0.744600  1
  O  O26  1  0.500000  0.742546  0.250439  1
  O  O27  1  0.500000  0.644857  0.757320  1
  O  O28  1  0.500000  0.950565  0.249705  1
  O  O29  1  0.500000  0.843026  0.771436  1
  O  O30  1  0.500000  0.000000  0.500000  1
  O  O31  1  0.500000  0.305982  0.996546  1
  O  O32  1  0.500000  0.109713  0.991330  1
  O  O33  1  0.500000  0.211597  0.503276  1
  O  O34  1  0.500000  0.402281  0.497424  1
  O  O35  1  0.500000  0.694018  0.003454  1
  O  O36  1  0.500000  0.500000  0.000000  1
  O  O37  1  0.500000  0.597719  0.502576  1
  O  O38  1  0.500000  0.890287  0.008670  1
  O  O39  1  0.500000  0.788403  0.496724  1
  O  O40  1  0.000000  0.061537  0.233449  1
  O  O41  1  0.000000  0.260830  0.239678  1
  O  O42  1  0.000000  0.165276  0.747788  1
  O  O43  1  0.000000  0.451491  0.249474  1
  O  O44  1  0.000000  0.354307  0.744932  1
  O  O45  1  0.000000  0.645693  0.255068  1
  O  O46  1  0.000000  0.548509  0.750526  1
  O  O47  1  0.000000  0.834724  0.252212  1
  O  O48  1  0.000000  0.739170  0.760322  1
  O  O49  1  0.000000  0.938463  0.766551  1
