# generated using pymatgen
data_Al3H36C12N3F4
_symmetry_space_group_name_H-M   'P 1'
_cell_length_a   6.10158967
_cell_length_b   18.29625879
_cell_length_c   8.62745139
_cell_angle_alpha   44.98330842
_cell_angle_beta   90.00000000
_cell_angle_gamma   90.00000000
_symmetry_Int_Tables_number   1
_chemical_formula_structural   Al3H36C12N3F4
_chemical_formula_sum   'Al3 H36 C12 N3 F4'
_cell_volume   680.84187496
_cell_formula_units_Z   1
loop_
 _symmetry_equiv_pos_site_id
 _symmetry_equiv_pos_as_xyz
  1  'x, y, z'
loop_
 _atom_site_type_symbol
 _atom_site_label
 _atom_site_symmetry_multiplicity
 _atom_site_fract_x
 _atom_site_fract_y
 _atom_site_fract_z
 _atom_site_occupancy
  Al  Al0  1  0.995606  0.997063  0.004406  1
  Al  Al1  1  0.995606  0.336270  0.995594  1
  Al  Al2  1  0.011916  0.666667  0.000000  1
  H  H3  1  0.254845  0.069574  0.254767  1
  H  H4  1  0.254779  0.402926  0.254299  1
  H  H5  1  0.254845  0.263759  0.463488  1
  H  H6  1  0.254342  0.597239  0.463045  1
  H  H7  1  0.254845  0.069574  0.536512  1
  H  H8  1  0.254342  0.736095  0.254761  1
  H  H9  1  0.254845  0.263759  0.745233  1
  H  H10  1  0.254779  0.930407  0.463077  1
  H  H11  1  0.254779  0.402926  0.536923  1
  H  H12  1  0.254342  0.597239  0.745239  1
  H  H13  1  0.254342  0.736095  0.536955  1
  H  H14  1  0.254779  0.930407  0.745701  1
  H  H15  1  0.463264  0.999892  0.254599  1
  H  H16  1  0.463264  0.999892  0.745724  1
  H  H17  1  0.463264  0.333441  0.254276  1
  H  H18  1  0.463264  0.333441  0.745401  1
  H  H19  1  0.463350  0.666667  0.254689  1
  H  H20  1  0.463350  0.666667  0.745311  1
  H  H21  1  0.536519  0.163556  0.254665  1
  H  H22  1  0.536519  0.169777  0.745335  1
  H  H23  1  0.536987  0.497053  0.254421  1
  H  H24  1  0.536889  0.503067  0.745398  1
  H  H25  1  0.536889  0.830266  0.254602  1
  H  H26  1  0.536987  0.836281  0.745579  1
  H  H27  1  0.745741  0.093989  0.463334  1
  H  H28  1  0.745741  0.093989  0.254698  1
  H  H29  1  0.745741  0.239344  0.536666  1
  H  H30  1  0.745741  0.239344  0.745302  1
  H  H31  1  0.745416  0.427414  0.254406  1
  H  H32  1  0.745416  0.427414  0.463354  1
  H  H33  1  0.745069  0.572730  0.745385  1
  H  H34  1  0.745069  0.760603  0.254615  1
  H  H35  1  0.745069  0.760603  0.463575  1
  H  H36  1  0.745069  0.572730  0.536425  1
  H  H37  1  0.745416  0.905920  0.536646  1
  H  H38  1  0.745416  0.905920  0.745594  1
  C  C39  1  0.357458  0.000061  0.357698  1
  C  C40  1  0.357458  0.000061  0.642119  1
  C  C41  1  0.357458  0.333272  0.357881  1
  C  C42  1  0.357458  0.333272  0.642302  1
  C  C43  1  0.358171  0.666667  0.642439  1
  C  C44  1  0.358171  0.666667  0.357561  1
  C  C45  1  0.642099  0.095047  0.357430  1
  C  C46  1  0.642099  0.238287  0.642570  1
  C  C47  1  0.642019  0.428264  0.357604  1
  C  C48  1  0.642722  0.571862  0.642207  1
  C  C49  1  0.642722  0.761471  0.357793  1
  C  C50  1  0.642019  0.905069  0.642396  1
  N  N51  1  0.500479  0.333352  0.499971  1
  N  N52  1  0.500479  0.999981  0.500029  1
  N  N53  1  0.500060  0.666667  0.500000  1
  F  F54  1  0.161537  0.225266  0.162100  1
  F  F55  1  0.161537  0.108067  0.837900  1
  F  F56  1  0.835811  0.666667  0.838781  1
  F  F57  1  0.835811  0.666667  0.161219  1
