# generated using pymatgen
data_Ba17Al3O7
_symmetry_space_group_name_H-M   'P 1'
_cell_length_a   15.09219956
_cell_length_b   15.09219956
_cell_length_c   18.54085910
_cell_angle_alpha   90.00000000
_cell_angle_beta   90.00000000
_cell_angle_gamma   90.00000000
_symmetry_Int_Tables_number   1
_chemical_formula_structural   Ba17Al3O7
_chemical_formula_sum   'Ba68 Al12 O28'
_cell_volume   4223.13468040
_cell_formula_units_Z   4
loop_
 _symmetry_equiv_pos_site_id
 _symmetry_equiv_pos_as_xyz
  1  'x, y, z'
loop_
 _atom_site_type_symbol
 _atom_site_label
 _atom_site_symmetry_multiplicity
 _atom_site_fract_x
 _atom_site_fract_y
 _atom_site_fract_z
 _atom_site_occupancy
  Ba  Ba0  1  0.750000  0.750000  0.152722  1
  Ba  Ba1  1  0.881591  0.618409  0.985359  1
  Ba  Ba2  1  0.118409  0.118409  0.514641  1
  Ba  Ba3  1  0.527404  0.243205  0.291510  1
  Ba  Ba4  1  0.972596  0.256795  0.291510  1
  Ba  Ba5  1  0.472596  0.743205  0.208490  1
  Ba  Ba6  1  0.069392  0.430608  0.410752  1
  Ba  Ba7  1  0.527404  0.256795  0.791510  1
  Ba  Ba8  1  0.569392  0.930608  0.589248  1
  Ba  Ba9  1  0.756795  0.472596  0.708490  1
  Ba  Ba10  1  0.069392  0.069392  0.910752  1
  Ba  Ba11  1  0.118409  0.381591  0.014641  1
  Ba  Ba12  1  0.743205  0.027404  0.708490  1
  Ba  Ba13  1  0.243205  0.527404  0.291510  1
  Ba  Ba14  1  0.381591  0.118409  0.014641  1
  Ba  Ba15  1  0.897008  0.251867  0.089850  1
  Ba  Ba16  1  0.488709  0.488709  0.683877  1
  Ba  Ba17  1  0.988709  0.511291  0.816123  1
  Ba  Ba18  1  0.743205  0.472596  0.208490  1
  Ba  Ba19  1  0.629722  0.870278  0.370075  1
  Ba  Ba20  1  0.756795  0.027404  0.208490  1
  Ba  Ba21  1  0.472596  0.756795  0.708490  1
  Ba  Ba22  1  0.618409  0.618409  0.485359  1
  Ba  Ba23  1  0.430608  0.069392  0.410752  1
  Ba  Ba24  1  0.011291  0.488709  0.183877  1
  Ba  Ba25  1  0.870278  0.870278  0.870075  1
  Ba  Ba26  1  0.027404  0.743205  0.708490  1
  Ba  Ba27  1  0.102992  0.748133  0.910150  1
  Ba  Ba28  1  0.750000  0.750000  0.652722  1
  Ba  Ba29  1  0.397008  0.751867  0.910150  1
  Ba  Ba30  1  0.129722  0.129722  0.129925  1
  Ba  Ba31  1  0.618409  0.881591  0.985359  1
  Ba  Ba32  1  0.751867  0.102992  0.410150  1
  Ba  Ba33  1  0.629722  0.629722  0.870075  1
  Ba  Ba34  1  0.370278  0.370278  0.129925  1
  Ba  Ba35  1  0.748133  0.102992  0.910150  1
  Ba  Ba36  1  0.930608  0.930608  0.089248  1
  Ba  Ba37  1  0.129722  0.370278  0.629925  1
  Ba  Ba38  1  0.256795  0.972596  0.291510  1
  Ba  Ba39  1  0.102992  0.751867  0.410150  1
  Ba  Ba40  1  0.602992  0.251867  0.589850  1
  Ba  Ba41  1  0.511291  0.988709  0.816123  1
  Ba  Ba42  1  0.248133  0.602992  0.089850  1
  Ba  Ba43  1  0.897008  0.248133  0.589850  1
  Ba  Ba44  1  0.256795  0.527404  0.791510  1
  Ba  Ba45  1  0.248133  0.897008  0.589850  1
  Ba  Ba46  1  0.870278  0.629722  0.370075  1
  Ba  Ba47  1  0.381591  0.381591  0.514641  1
  Ba  Ba48  1  0.027404  0.756795  0.208490  1
  Ba  Ba49  1  0.250000  0.250000  0.347278  1
  Ba  Ba50  1  0.370278  0.129722  0.629925  1
  Ba  Ba51  1  0.511291  0.511291  0.316123  1
  Ba  Ba52  1  0.972596  0.243205  0.791510  1
  Ba  Ba53  1  0.251867  0.602992  0.589850  1
  Ba  Ba54  1  0.881591  0.881591  0.485359  1
  Ba  Ba55  1  0.988709  0.988709  0.316123  1
  Ba  Ba56  1  0.251867  0.897008  0.089850  1
  Ba  Ba57  1  0.011291  0.011291  0.683877  1
  Ba  Ba58  1  0.748133  0.397008  0.410150  1
  Ba  Ba59  1  0.569392  0.569392  0.089248  1
  Ba  Ba60  1  0.397008  0.748133  0.410150  1
  Ba  Ba61  1  0.751867  0.397008  0.910150  1
  Ba  Ba62  1  0.430608  0.430608  0.910752  1
  Ba  Ba63  1  0.488709  0.011291  0.183877  1
  Ba  Ba64  1  0.250000  0.250000  0.847278  1
  Ba  Ba65  1  0.930608  0.569392  0.589248  1
  Ba  Ba66  1  0.602992  0.248133  0.089850  1
  Ba  Ba67  1  0.243205  0.972596  0.791510  1
  Al  Al68  1  0.336382  0.336382  0.694671  1
  Al  Al69  1  0.163618  0.163618  0.694671  1
  Al  Al70  1  0.836382  0.663618  0.805329  1
  Al  Al71  1  0.663618  0.836382  0.805329  1
  Al  Al72  1  0.336382  0.163618  0.194671  1
  Al  Al73  1  0.163618  0.336382  0.194671  1
  Al  Al74  1  0.663618  0.663618  0.305329  1
  Al  Al75  1  0.750000  0.250000  0.750000  1
  Al  Al76  1  0.250000  0.750000  0.750000  1
  Al  Al77  1  0.836382  0.836382  0.305329  1
  Al  Al78  1  0.250000  0.750000  0.250000  1
  Al  Al79  1  0.750000  0.250000  0.250000  1
  O  O80  1  0.797379  0.567041  0.851391  1
  O  O81  1  0.250000  0.250000  0.195291  1
  O  O82  1  0.202621  0.067041  0.648609  1
  O  O83  1  0.297379  0.432959  0.648609  1
  O  O84  1  0.067041  0.202621  0.648609  1
  O  O85  1  0.633938  0.633938  0.215130  1
  O  O86  1  0.567041  0.797379  0.851391  1
  O  O87  1  0.702621  0.932959  0.851391  1
  O  O88  1  0.567041  0.702621  0.351391  1
  O  O89  1  0.133938  0.133938  0.784870  1
  O  O90  1  0.797379  0.932959  0.351391  1
  O  O91  1  0.432959  0.202621  0.148609  1
  O  O92  1  0.067041  0.297379  0.148609  1
  O  O93  1  0.133938  0.366062  0.284870  1
  O  O94  1  0.202621  0.432959  0.148609  1
  O  O95  1  0.866062  0.866062  0.215130  1
  O  O96  1  0.366062  0.366062  0.784870  1
  O  O97  1  0.250000  0.250000  0.695291  1
  O  O98  1  0.633938  0.866062  0.715130  1
  O  O99  1  0.750000  0.750000  0.304709  1
  O  O100  1  0.297379  0.067041  0.148609  1
  O  O101  1  0.432959  0.297379  0.648609  1
  O  O102  1  0.932959  0.702621  0.851391  1
  O  O103  1  0.932959  0.797379  0.351391  1
  O  O104  1  0.866062  0.633938  0.715130  1
  O  O105  1  0.366062  0.133938  0.284870  1
  O  O106  1  0.750000  0.750000  0.804709  1
  O  O107  1  0.702621  0.567041  0.351391  1
