# generated using pymatgen
data_Te2Ru4(CO)11
_symmetry_space_group_name_H-M   'P 1'
_cell_length_a   6.99037829
_cell_length_b   16.51006687
_cell_length_c   18.16450819
_cell_angle_alpha   90.00000000
_cell_angle_beta   90.00000000
_cell_angle_gamma   90.00000000
_symmetry_Int_Tables_number   1
_chemical_formula_structural   Te2Ru4(CO)11
_chemical_formula_sum   'Te8 Ru16 C44 O44'
_cell_volume   2096.39518982
_cell_formula_units_Z   4
loop_
 _symmetry_equiv_pos_site_id
 _symmetry_equiv_pos_as_xyz
  1  'x, y, z'
loop_
 _atom_site_type_symbol
 _atom_site_label
 _atom_site_symmetry_multiplicity
 _atom_site_fract_x
 _atom_site_fract_y
 _atom_site_fract_z
 _atom_site_occupancy
  Te  Te0  1  0.995087  0.292108  0.735488  1
  Te  Te1  1  0.504913  0.292108  0.235488  1
  Te  Te2  1  0.004913  0.707892  0.264512  1
  Te  Te3  1  0.504913  0.207892  0.735488  1
  Te  Te4  1  0.495087  0.792108  0.264512  1
  Te  Te5  1  0.495087  0.707892  0.764512  1
  Te  Te6  1  0.004913  0.792108  0.764512  1
  Te  Te7  1  0.995087  0.207892  0.235488  1
  Ru  Ru8  1  0.173372  0.669532  0.849436  1
  Ru  Ru9  1  0.671063  0.334823  0.811096  1
  Ru  Ru10  1  0.173372  0.830468  0.349436  1
  Ru  Ru11  1  0.328937  0.834823  0.688904  1
  Ru  Ru12  1  0.826628  0.330468  0.150564  1
  Ru  Ru13  1  0.328937  0.665177  0.188904  1
  Ru  Ru14  1  0.828937  0.334823  0.311096  1
  Ru  Ru15  1  0.826628  0.169532  0.650564  1
  Ru  Ru16  1  0.673372  0.330468  0.650564  1
  Ru  Ru17  1  0.171063  0.834823  0.188904  1
  Ru  Ru18  1  0.326628  0.830468  0.849436  1
  Ru  Ru19  1  0.828937  0.165177  0.811096  1
  Ru  Ru20  1  0.171063  0.665177  0.688904  1
  Ru  Ru21  1  0.673372  0.169532  0.150564  1
  Ru  Ru22  1  0.671063  0.165177  0.311096  1
  Ru  Ru23  1  0.326628  0.669532  0.349436  1
  C  C24  1  0.560211  0.860704  0.893411  1
  C  C25  1  0.088410  0.929658  0.241127  1
  C  C26  1  0.439789  0.139296  0.106589  1
  C  C27  1  0.411590  0.570342  0.241127  1
  C  C28  1  0.205521  0.919078  0.895154  1
  C  C29  1  0.705521  0.080922  0.604846  1
  C  C30  1  0.173337  0.887091  0.617691  1
  C  C31  1  0.467895  0.169079  0.380144  1
  C  C32  1  0.826663  0.387091  0.882309  1
  C  C33  1  0.750000  0.250000  0.067931  1
  C  C34  1  0.911590  0.070342  0.758873  1
  C  C35  1  0.060211  0.139296  0.606589  1
  C  C36  1  0.939789  0.639296  0.893411  1
  C  C37  1  0.588410  0.429658  0.758873  1
  C  C38  1  0.205521  0.580922  0.395154  1
  C  C39  1  0.326663  0.612909  0.617691  1
  C  C40  1  0.673337  0.387091  0.382309  1
  C  C41  1  0.032105  0.169079  0.880144  1
  C  C42  1  0.088410  0.570342  0.741127  1
  C  C43  1  0.294479  0.919078  0.395154  1
  C  C44  1  0.560211  0.639296  0.393411  1
  C  C45  1  0.532105  0.830921  0.619856  1
  C  C46  1  0.826663  0.112909  0.382309  1
  C  C47  1  0.939789  0.860704  0.393411  1
  C  C48  1  0.032105  0.330921  0.380144  1
  C  C49  1  0.173337  0.612909  0.117691  1
  C  C50  1  0.467895  0.330921  0.880144  1
  C  C51  1  0.588410  0.070342  0.258873  1
  C  C52  1  0.750000  0.250000  0.567931  1
  C  C53  1  0.294479  0.580922  0.895154  1
  C  C54  1  0.794479  0.419078  0.604846  1
  C  C55  1  0.673337  0.112909  0.882309  1
  C  C56  1  0.411590  0.929658  0.741127  1
  C  C57  1  0.326663  0.887091  0.117691  1
  C  C58  1  0.911590  0.429658  0.258873  1
  C  C59  1  0.967895  0.669079  0.619856  1
  C  C60  1  0.250000  0.750000  0.432069  1
  C  C61  1  0.250000  0.750000  0.932069  1
  C  C62  1  0.705521  0.419078  0.104846  1
  C  C63  1  0.794479  0.080922  0.104846  1
  C  C64  1  0.967895  0.830921  0.119856  1
  C  C65  1  0.439789  0.360704  0.606589  1
  C  C66  1  0.060211  0.360704  0.106589  1
  C  C67  1  0.532105  0.669079  0.119856  1
  O  O68  1  0.131617  0.973831  0.923540  1
  O  O69  1  0.250000  0.750000  0.497282  1
  O  O70  1  0.421758  0.919382  0.074410  1
  O  O71  1  0.750000  0.250000  0.002718  1
  O  O72  1  0.295468  0.378972  0.579415  1
  O  O73  1  0.652233  0.828512  0.575935  1
  O  O74  1  0.204532  0.378972  0.079415  1
  O  O75  1  0.473457  0.505322  0.251168  1
  O  O76  1  0.526543  0.005322  0.248832  1
  O  O77  1  0.152233  0.328512  0.424065  1
  O  O78  1  0.250000  0.750000  0.997282  1
  O  O79  1  0.578242  0.419382  0.425590  1
  O  O80  1  0.868383  0.473831  0.576460  1
  O  O81  1  0.078242  0.580618  0.074410  1
  O  O82  1  0.795468  0.878972  0.420585  1
  O  O83  1  0.921758  0.419382  0.925590  1
  O  O84  1  0.750000  0.250000  0.502718  1
  O  O85  1  0.704532  0.878972  0.920585  1
  O  O86  1  0.578242  0.080618  0.925590  1
  O  O87  1  0.368383  0.526169  0.923540  1
  O  O88  1  0.973457  0.005322  0.748832  1
  O  O89  1  0.131617  0.526169  0.423540  1
  O  O90  1  0.526543  0.494678  0.748832  1
  O  O91  1  0.347767  0.328512  0.924065  1
  O  O92  1  0.631617  0.026169  0.576460  1
  O  O93  1  0.295468  0.121028  0.079415  1
  O  O94  1  0.847767  0.671488  0.575935  1
  O  O95  1  0.631617  0.473831  0.076460  1
  O  O96  1  0.868383  0.026169  0.076460  1
  O  O97  1  0.368383  0.973831  0.423540  1
  O  O98  1  0.847767  0.828512  0.075935  1
  O  O99  1  0.421758  0.580618  0.574410  1
  O  O100  1  0.704532  0.621028  0.420585  1
  O  O101  1  0.795468  0.621028  0.920585  1
  O  O102  1  0.973457  0.494678  0.248832  1
  O  O103  1  0.473457  0.994678  0.751168  1
  O  O104  1  0.078242  0.919382  0.574410  1
  O  O105  1  0.347767  0.171487  0.424065  1
  O  O106  1  0.026543  0.505322  0.751168  1
  O  O107  1  0.026543  0.994678  0.251168  1
  O  O108  1  0.152233  0.171487  0.924065  1
  O  O109  1  0.921758  0.080618  0.425590  1
  O  O110  1  0.204532  0.121028  0.579415  1
  O  O111  1  0.652233  0.671488  0.075935  1
