# generated using pymatgen
data_Cs2SbCl6
_symmetry_space_group_name_H-M   'P 1'
_cell_length_a   10.74338508
_cell_length_b   10.74338510
_cell_length_c   13.21463427
_cell_angle_alpha   113.98488985
_cell_angle_beta   113.98488989
_cell_angle_gamma   90.00000145
_symmetry_Int_Tables_number   1
_chemical_formula_structural   Cs2SbCl6
_chemical_formula_sum   'Cs8 Sb4 Cl24'
_cell_volume   1248.01559743
_cell_formula_units_Z   4
loop_
 _symmetry_equiv_pos_site_id
 _symmetry_equiv_pos_as_xyz
  1  'x, y, z'
loop_
 _atom_site_type_symbol
 _atom_site_label
 _atom_site_symmetry_multiplicity
 _atom_site_fract_x
 _atom_site_fract_y
 _atom_site_fract_z
 _atom_site_occupancy
  Cs  Cs0  1  0.500000  0.775369  0.500000  1
  Cs  Cs1  1  0.224631  1.000000  0.000000  1
  Cs  Cs2  1  0.000000  0.224631  0.500000  1
  Cs  Cs3  1  0.775369  0.500000  1.000000  1
  Cs  Cs4  1  0.500000  0.224631  0.500000  1
  Cs  Cs5  1  0.775369  0.000000  1.000000  1
  Cs  Cs6  1  0.224631  0.500000  0.000000  1
  Cs  Cs7  1  0.000000  0.775369  0.500000  1
  Sb  Sb8  1  0.625000  0.375000  0.250000  1
  Sb  Sb9  1  0.375000  0.625000  0.750000  1
  Sb  Sb10  1  0.125000  0.875000  0.250000  1
  Sb  Sb11  1  0.875000  0.125000  0.750000  1
  Cl  Cl12  1  0.997799  0.247799  0.995598  1
  Cl  Cl13  1  0.624078  0.601584  0.248156  1
  Cl  Cl14  1  0.247799  0.997799  0.495598  1
  Cl  Cl15  1  0.130001  0.127113  0.260001  1
  Cl  Cl16  1  0.752201  0.002201  0.504402  1
  Cl  Cl17  1  0.853428  0.375922  0.251844  1
  Cl  Cl18  1  0.375922  0.398416  0.751844  1
  Cl  Cl19  1  0.146572  0.624078  0.748156  1
  Cl  Cl20  1  0.601584  0.624078  0.748156  1
  Cl  Cl21  1  0.130001  0.632888  0.260001  1
  Cl  Cl22  1  0.632888  0.130001  0.760001  1
  Cl  Cl23  1  0.398416  0.375922  0.251844  1
  Cl  Cl24  1  0.512139  0.262139  0.024278  1
  Cl  Cl25  1  0.375922  0.853428  0.751844  1
  Cl  Cl26  1  0.869999  0.367112  0.739999  1
  Cl  Cl27  1  0.872887  0.869999  0.239999  1
  Cl  Cl28  1  0.869999  0.872887  0.739999  1
  Cl  Cl29  1  0.002201  0.752201  0.004402  1
  Cl  Cl30  1  0.262139  0.512139  0.524278  1
  Cl  Cl31  1  0.487861  0.737861  0.975722  1
  Cl  Cl32  1  0.367112  0.869999  0.239999  1
  Cl  Cl33  1  0.624078  0.146572  0.248156  1
  Cl  Cl34  1  0.127113  0.130001  0.760001  1
  Cl  Cl35  1  0.737861  0.487861  0.475722  1
