# generated using pymatgen
data_K6CdPb8
_symmetry_space_group_name_H-M   'P 1'
_cell_length_a   7.01400321
_cell_length_b   15.11849429
_cell_length_c   18.37386695
_cell_angle_alpha   68.38295662
_cell_angle_beta   78.99649835
_cell_angle_gamma   76.58705438
_symmetry_Int_Tables_number   1
_chemical_formula_structural   K6CdPb8
_chemical_formula_sum   'K18 Cd3 Pb24'
_cell_volume   1749.93172643
_cell_formula_units_Z   3
loop_
 _symmetry_equiv_pos_site_id
 _symmetry_equiv_pos_as_xyz
  1  'x, y, z'
loop_
 _atom_site_type_symbol
 _atom_site_label
 _atom_site_symmetry_multiplicity
 _atom_site_fract_x
 _atom_site_fract_y
 _atom_site_fract_z
 _atom_site_occupancy
  K  K0  1  0.571621  0.303120  0.553638  1
  K  K1  1  0.274047  0.925343  0.526563  1
  K  K2  1  0.086230  0.435685  0.391855  1
  K  K3  1  0.913770  0.564315  0.608145  1
  K  K4  1  0.513731  0.191016  0.781523  1
  K  K5  1  0.955453  0.957974  0.131120  1
  K  K6  1  0.044547  0.042026  0.868880  1
  K  K7  1  0.789097  0.424298  0.997508  1
  K  K8  1  0.812261  0.187622  0.187855  1
  K  K9  1  0.922940  0.348112  0.806008  1
  K  K10  1  0.210903  0.575702  0.002492  1
  K  K11  1  0.187739  0.812378  0.812145  1
  K  K12  1  0.077060  0.651888  0.193992  1
  K  K13  1  0.428379  0.696880  0.446362  1
  K  K14  1  0.749752  0.811514  0.688983  1
  K  K15  1  0.486269  0.808984  0.218477  1
  K  K16  1  0.725953  0.074657  0.473437  1
  K  K17  1  0.250248  0.188486  0.311017  1
  Cd  Cd18  1  0.366400  0.379840  0.887360  1
  Cd  Cd19  1  0.500000  0.000000  0.000000  1
  Cd  Cd20  1  0.633600  0.620160  0.112640  1
  Pb  Pb21  1  0.096595  0.942673  0.334756  1
  Pb  Pb22  1  0.951291  0.755741  0.341676  1
  Pb  Pb23  1  0.153617  0.178505  0.514260  1
  Pb  Pb24  1  0.555445  0.567308  0.805994  1
  Pb  Pb25  1  0.169652  0.188557  0.984152  1
  Pb  Pb26  1  0.071253  0.567308  0.805994  1
  Pb  Pb27  1  0.903405  0.057327  0.665244  1
  Pb  Pb28  1  0.610447  0.922725  0.856380  1
  Pb  Pb29  1  0.625976  0.942673  0.334756  1
  Pb  Pb30  1  0.580394  0.541059  0.298154  1
  Pb  Pb31  1  0.389553  0.077275  0.143620  1
  Pb  Pb32  1  0.688770  0.699284  0.923176  1
  Pb  Pb33  1  0.830348  0.811443  0.015848  1
  Pb  Pb34  1  0.330001  0.679395  0.660604  1
  Pb  Pb35  1  0.311230  0.300716  0.076824  1
  Pb  Pb36  1  0.444555  0.432692  0.194006  1
  Pb  Pb37  1  0.928747  0.432692  0.194006  1
  Pb  Pb38  1  0.374024  0.057327  0.665244  1
  Pb  Pb39  1  0.419606  0.458941  0.701846  1
  Pb  Pb40  1  0.846383  0.821495  0.485740  1
  Pb  Pb41  1  0.342361  0.811443  0.015848  1
  Pb  Pb42  1  0.669999  0.320605  0.339396  1
  Pb  Pb43  1  0.657639  0.188557  0.984152  1
  Pb  Pb44  1  0.048709  0.244259  0.658324  1
