# generated using pymatgen
data_U(GaFe)6
_symmetry_space_group_name_H-M   'P 1'
_cell_length_a   4.96122002
_cell_length_b   6.48887070
_cell_length_c   6.49172335
_cell_angle_alpha   82.65810562
_cell_angle_beta   67.54965485
_cell_angle_gamma   67.60289020
_symmetry_Int_Tables_number   1
_chemical_formula_structural   U(GaFe)6
_chemical_formula_sum   'U1 Ga6 Fe6'
_cell_volume   178.53890630
_cell_formula_units_Z   1
loop_
 _symmetry_equiv_pos_site_id
 _symmetry_equiv_pos_as_xyz
  1  'x, y, z'
loop_
 _atom_site_type_symbol
 _atom_site_label
 _atom_site_symmetry_multiplicity
 _atom_site_fract_x
 _atom_site_fract_y
 _atom_site_fract_z
 _atom_site_occupancy
  U  U0  1  0.003598  -0.000364  0.997890  1
  Ga  Ga1  1  -0.002573  0.653547  0.345423  1
  Ga  Ga2  1  0.501528  0.808450  0.190615  1
  Ga  Ga3  1  0.341832  0.659728  0.657892  1
  Ga  Ga4  1  0.503093  0.191942  0.806815  1
  Ga  Ga5  1  0.001082  0.346737  0.651254  1
  Ga  Ga6  1  0.660576  0.340109  0.337080  1
  Fe  Fe7  1  0.499677  0.501753  -0.001474  1
  Fe  Fe8  1  0.736345  0.765444  0.763254  1
  Fe  Fe9  1  0.264662  0.236148  0.233455  1
  Fe  Fe10  1  0.001192  0.000035  0.497863  1
  Fe  Fe11  1  0.500934  0.000990  0.498563  1
  Fe  Fe12  1  0.000517  0.500087  0.997434  1
