# generated using pymatgen
data_TaTe4
_symmetry_space_group_name_H-M   'P 1'
_cell_length_a   13.26865332
_cell_length_b   13.26865332
_cell_length_c   20.91790437
_cell_angle_alpha   90.00000000
_cell_angle_beta   90.00000000
_cell_angle_gamma   90.00000000
_symmetry_Int_Tables_number   1
_chemical_formula_structural   TaTe4
_chemical_formula_sum   'Ta24 Te96'
_cell_volume   3682.74685591
_cell_formula_units_Z   24
loop_
 _symmetry_equiv_pos_site_id
 _symmetry_equiv_pos_as_xyz
  1  'x, y, z'
loop_
 _atom_site_type_symbol
 _atom_site_label
 _atom_site_symmetry_multiplicity
 _atom_site_fract_x
 _atom_site_fract_y
 _atom_site_fract_z
 _atom_site_occupancy
  Ta  Ta0  1  0.750000  0.250000  0.402946  1
  Ta  Ta1  1  0.250000  0.250000  0.918163  1
  Ta  Ta2  1  0.750000  0.250000  0.902946  1
  Ta  Ta3  1  0.250000  0.750000  0.902946  1
  Ta  Ta4  1  0.250000  0.750000  0.097054  1
  Ta  Ta5  1  0.250000  0.250000  0.764633  1
  Ta  Ta6  1  0.750000  0.750000  0.735367  1
  Ta  Ta7  1  0.750000  0.750000  0.081837  1
  Ta  Ta8  1  0.750000  0.250000  0.597054  1
  Ta  Ta9  1  0.750000  0.750000  0.430349  1
  Ta  Ta10  1  0.750000  0.750000  0.581837  1
  Ta  Ta11  1  0.250000  0.250000  0.418163  1
  Ta  Ta12  1  0.250000  0.250000  0.069651  1
  Ta  Ta13  1  0.750000  0.750000  0.930349  1
  Ta  Ta14  1  0.750000  0.250000  0.250000  1
  Ta  Ta15  1  0.750000  0.250000  0.750000  1
  Ta  Ta16  1  0.250000  0.750000  0.402946  1
  Ta  Ta17  1  0.250000  0.250000  0.264633  1
  Ta  Ta18  1  0.250000  0.750000  0.597054  1
  Ta  Ta19  1  0.250000  0.750000  0.250000  1
  Ta  Ta20  1  0.750000  0.750000  0.235367  1
  Ta  Ta21  1  0.750000  0.250000  0.097054  1
  Ta  Ta22  1  0.250000  0.750000  0.750000  1
  Ta  Ta23  1  0.250000  0.250000  0.569651  1
  Te  Te24  1  0.828456  0.587421  0.502084  1
  Te  Te25  1  0.318645  0.083943  0.836931  1
  Te  Te26  1  0.327612  0.587273  0.831073  1
  Te  Te27  1  0.808886  0.404565  0.000621  1
  Te  Te28  1  0.828456  0.912579  0.002084  1
  Te  Te29  1  0.681355  0.583943  0.663069  1
  Te  Te30  1  0.087273  0.827612  0.668927  1
  Te  Te31  1  0.822852  0.086086  0.830264  1
  Te  Te32  1  0.413914  0.677148  0.330264  1
  Te  Te33  1  0.312835  0.097763  0.167487  1
  Te  Te34  1  0.913914  0.177148  0.669736  1
  Te  Te35  1  0.416057  0.318645  0.836931  1
  Te  Te36  1  0.402237  0.312835  0.167487  1
  Te  Te37  1  0.172388  0.587273  0.331073  1
  Te  Te38  1  0.083943  0.181355  0.836931  1
  Te  Te39  1  0.171544  0.087421  0.997916  1
  Te  Te40  1  0.902237  0.812835  0.832513  1
  Te  Te41  1  0.086086  0.822852  0.330264  1
  Te  Te42  1  0.808886  0.095435  0.500621  1
  Te  Te43  1  0.191114  0.595435  0.999379  1
  Te  Te44  1  0.687165  0.597763  0.332513  1
  Te  Te45  1  0.904565  0.191114  0.999379  1
  Te  Te46  1  0.912727  0.327612  0.831073  1
  Te  Te47  1  0.404565  0.808886  0.500621  1
  Te  Te48  1  0.087421  0.171544  0.497916  1
  Te  Te49  1  0.587273  0.172388  0.831073  1
  Te  Te50  1  0.095435  0.808886  0.000621  1
  Te  Te51  1  0.327612  0.912727  0.331073  1
  Te  Te52  1  0.587421  0.671544  0.502084  1
  Te  Te53  1  0.177148  0.913914  0.169736  1
  Te  Te54  1  0.095435  0.691114  0.500621  1
  Te  Te55  1  0.677148  0.086086  0.330264  1
  Te  Te56  1  0.587421  0.828456  0.002084  1
  Te  Te57  1  0.818645  0.916057  0.663069  1
  Te  Te58  1  0.916057  0.681355  0.663069  1
  Te  Te59  1  0.913914  0.322852  0.169736  1
  Te  Te60  1  0.191114  0.904565  0.499379  1
  Te  Te61  1  0.595435  0.308886  0.999379  1
  Te  Te62  1  0.412727  0.827612  0.168927  1
  Te  Te63  1  0.413914  0.822852  0.830264  1
  Te  Te64  1  0.308886  0.595435  0.499379  1
  Te  Te65  1  0.086086  0.677148  0.830264  1
  Te  Te66  1  0.586086  0.177148  0.169736  1
  Te  Te67  1  0.818645  0.583943  0.163069  1
  Te  Te68  1  0.412579  0.171544  0.997916  1
  Te  Te69  1  0.404565  0.691114  0.000621  1
  Te  Te70  1  0.812835  0.597763  0.832513  1
  Te  Te71  1  0.097763  0.312835  0.667487  1
  Te  Te72  1  0.691114  0.404565  0.500621  1
  Te  Te73  1  0.912727  0.172388  0.331073  1
  Te  Te74  1  0.308886  0.904565  0.999379  1
  Te  Te75  1  0.583943  0.681355  0.163069  1
  Te  Te76  1  0.687165  0.902237  0.832513  1
  Te  Te77  1  0.912579  0.671544  0.002084  1
  Te  Te78  1  0.583943  0.818645  0.663069  1
  Te  Te79  1  0.087273  0.672388  0.168927  1
  Te  Te80  1  0.912579  0.828456  0.502084  1
  Te  Te81  1  0.187165  0.097763  0.667487  1
  Te  Te82  1  0.672388  0.087273  0.668927  1
  Te  Te83  1  0.597763  0.687165  0.832513  1
  Te  Te84  1  0.416057  0.181355  0.336931  1
  Te  Te85  1  0.187165  0.402237  0.167487  1
  Te  Te86  1  0.412727  0.672388  0.668927  1
  Te  Te87  1  0.677148  0.413914  0.830264  1
  Te  Te88  1  0.177148  0.586086  0.669736  1
  Te  Te89  1  0.097763  0.187165  0.167487  1
  Te  Te90  1  0.318645  0.416057  0.336931  1
  Te  Te91  1  0.083943  0.318645  0.336931  1
  Te  Te92  1  0.402237  0.187165  0.667487  1
  Te  Te93  1  0.172388  0.912727  0.831073  1
  Te  Te94  1  0.322852  0.586086  0.169736  1
  Te  Te95  1  0.587273  0.327612  0.331073  1
  Te  Te96  1  0.812835  0.902237  0.332513  1
  Te  Te97  1  0.412579  0.328456  0.497916  1
  Te  Te98  1  0.691114  0.095435  0.000621  1
  Te  Te99  1  0.681355  0.916057  0.163069  1
  Te  Te100  1  0.597763  0.812835  0.332513  1
  Te  Te101  1  0.171544  0.412579  0.497916  1
  Te  Te102  1  0.328456  0.087421  0.497916  1
  Te  Te103  1  0.827612  0.412727  0.668927  1
  Te  Te104  1  0.916057  0.818645  0.163069  1
  Te  Te105  1  0.181355  0.416057  0.836931  1
  Te  Te106  1  0.312835  0.402237  0.667487  1
  Te  Te107  1  0.322852  0.913914  0.669736  1
  Te  Te108  1  0.087421  0.328456  0.997916  1
  Te  Te109  1  0.595435  0.191114  0.499379  1
  Te  Te110  1  0.671544  0.587421  0.002084  1
  Te  Te111  1  0.671544  0.912579  0.502084  1
  Te  Te112  1  0.328456  0.412579  0.997916  1
  Te  Te113  1  0.902237  0.687165  0.332513  1
  Te  Te114  1  0.822852  0.413914  0.330264  1
  Te  Te115  1  0.181355  0.083943  0.336931  1
  Te  Te116  1  0.827612  0.087273  0.168927  1
  Te  Te117  1  0.672388  0.412727  0.168927  1
  Te  Te118  1  0.904565  0.308886  0.499379  1
  Te  Te119  1  0.586086  0.322852  0.669736  1
