# generated using pymatgen
data_Sb3Pd8
_symmetry_space_group_name_H-M   'P 1'
_cell_length_a   15.22748149
_cell_length_b   15.22748112
_cell_length_c   15.22748127
_cell_angle_alpha   29.38379176
_cell_angle_beta   29.38379425
_cell_angle_gamma   29.38379284
_symmetry_Int_Tables_number   1
_chemical_formula_structural   Sb3Pd8
_chemical_formula_sum   'Sb12 Pd32'
_cell_volume   752.27163224
_cell_formula_units_Z   4
loop_
 _symmetry_equiv_pos_site_id
 _symmetry_equiv_pos_as_xyz
  1  'x, y, z'
loop_
 _atom_site_type_symbol
 _atom_site_label
 _atom_site_symmetry_multiplicity
 _atom_site_fract_x
 _atom_site_fract_y
 _atom_site_fract_z
 _atom_site_occupancy
  Sb  Sb0  1  0.766462  0.766462  0.766462  1
  Sb  Sb1  1  0.427014  0.427014  0.427014  1
  Sb  Sb2  1  0.924698  0.924698  0.924698  1
  Sb  Sb3  1  0.857074  0.167083  0.494267  1
  Sb  Sb4  1  0.992869  0.667804  0.360511  1
  Sb  Sb5  1  0.667804  0.360511  0.992869  1
  Sb  Sb6  1  0.579280  0.579280  0.579280  1
  Sb  Sb7  1  0.079311  0.079311  0.079311  1
  Sb  Sb8  1  0.167083  0.494267  0.857074  1
  Sb  Sb9  1  0.264997  0.264997  0.264997  1
  Sb  Sb10  1  0.360511  0.992869  0.667804  1
  Sb  Sb11  1  0.494267  0.857074  0.167083  1
  Pd  Pd12  1  0.937991  0.207543  0.569254  1
  Pd  Pd13  1  0.413493  0.784701  0.121241  1
  Pd  Pd14  1  0.537859  0.081755  0.802778  1
  Pd  Pd15  1  0.285052  0.907997  0.625797  1
  Pd  Pd16  1  0.140683  0.140683  0.140683  1
  Pd  Pd17  1  0.784701  0.121241  0.413493  1
  Pd  Pd18  1  0.432865  0.073431  0.710060  1
  Pd  Pd19  1  0.641670  0.641670  0.641670  1
  Pd  Pd20  1  0.536811  0.273872  0.802849  1
  Pd  Pd21  1  0.564667  0.058143  0.302700  1
  Pd  Pd22  1  0.710060  0.432865  0.073431  1
  Pd  Pd23  1  0.036962  0.298087  0.776825  1
  Pd  Pd24  1  0.625797  0.285052  0.907997  1
  Pd  Pd25  1  0.273872  0.802849  0.536811  1
  Pd  Pd26  1  0.081755  0.802778  0.537859  1
  Pd  Pd27  1  0.204056  0.204056  0.204056  1
  Pd  Pd28  1  0.488264  0.488264  0.488264  1
  Pd  Pd29  1  0.985707  0.985707  0.985707  1
  Pd  Pd30  1  0.776825  0.036962  0.298087  1
  Pd  Pd31  1  0.298087  0.776825  0.036962  1
  Pd  Pd32  1  0.364374  0.364374  0.364374  1
  Pd  Pd33  1  0.121241  0.413493  0.784701  1
  Pd  Pd34  1  0.569254  0.937991  0.207543  1
  Pd  Pd35  1  0.302700  0.564667  0.058143  1
  Pd  Pd36  1  0.073431  0.710060  0.432865  1
  Pd  Pd37  1  0.907997  0.625797  0.285052  1
  Pd  Pd38  1  0.802778  0.537859  0.081755  1
  Pd  Pd39  1  0.705896  0.705896  0.705896  1
  Pd  Pd40  1  0.207543  0.569254  0.937991  1
  Pd  Pd41  1  0.861242  0.861242  0.861242  1
  Pd  Pd42  1  0.058143  0.302700  0.564667  1
  Pd  Pd43  1  0.802849  0.536811  0.273872  1
