# generated using pymatgen
data_RbCdH2I3O
_symmetry_space_group_name_H-M   'P 1'
_cell_length_a   7.55004282
_cell_length_b   7.55004282
_cell_length_c   8.98693993
_cell_angle_alpha   89.63033741
_cell_angle_beta   90.36966259
_cell_angle_gamma   94.57011758
_symmetry_Int_Tables_number   1
_chemical_formula_structural   RbCdH2I3O
_chemical_formula_sum   'Rb2 Cd2 H4 I6 O2'
_cell_volume   510.63539607
_cell_formula_units_Z   2
loop_
 _symmetry_equiv_pos_site_id
 _symmetry_equiv_pos_as_xyz
  1  'x, y, z'
loop_
 _atom_site_type_symbol
 _atom_site_label
 _atom_site_symmetry_multiplicity
 _atom_site_fract_x
 _atom_site_fract_y
 _atom_site_fract_z
 _atom_site_occupancy
  Rb  Rb0  1  0.508135  0.712852  0.826013  1
  Rb  Rb1  1  0.287148  0.491865  0.326013  1
  Cd  Cd2  1  0.966495  0.965867  0.500050  1
  Cd  Cd3  1  0.034133  0.033505  0.000050  1
  H  H4  1  0.129655  0.487594  0.678025  1
  H  H5  1  0.512406  0.870345  0.178025  1
  H  H6  1  0.269378  0.347496  0.679193  1
  H  H7  1  0.652504  0.730622  0.179193  1
  I  I8  1  0.802810  0.621036  0.494555  1
  I  I9  1  0.378964  0.197190  0.994555  1
  I  I10  1  0.846247  0.167959  0.248680  1
  I  I11  1  0.832041  0.153753  0.748680  1
  I  I12  1  0.337950  0.990875  0.494248  1
  I  I13  1  0.009125  0.662050  0.994248  1
  O  O14  1  0.253971  0.470762  0.651736  1
  O  O15  1  0.529238  0.746029  0.151736  1
