# generated using pymatgen
data_Cs3NiF7
_symmetry_space_group_name_H-M   'P 1'
_cell_length_a   6.26639608
_cell_length_b   8.47716214
_cell_length_c   8.47716214
_cell_angle_alpha   90.00000000
_cell_angle_beta   90.00000000
_cell_angle_gamma   90.00000000
_symmetry_Int_Tables_number   1
_chemical_formula_structural   Cs3NiF7
_chemical_formula_sum   'Cs6 Ni2 F14'
_cell_volume   450.31749683
_cell_formula_units_Z   2
loop_
 _symmetry_equiv_pos_site_id
 _symmetry_equiv_pos_as_xyz
  1  'x, y, z'
loop_
 _atom_site_type_symbol
 _atom_site_label
 _atom_site_symmetry_multiplicity
 _atom_site_fract_x
 _atom_site_fract_y
 _atom_site_fract_z
 _atom_site_occupancy
  F  F0  1  0.794849  0.893945  0.393945  1
  F  F1  1  0.794849  0.106055  0.606055  1
  F  F2  1  0.794849  0.393945  0.106055  1
  F  F3  1  0.794849  0.606055  0.893945  1
  F  F4  1  0.205151  0.893945  0.393945  1
  F  F5  1  0.205151  0.606055  0.893945  1
  F  F6  1  0.205151  0.393945  0.106055  1
  F  F7  1  0.205151  0.106055  0.606055  1
  F  F8  1  0.500000  0.000000  0.000000  1
  F  F9  1  0.500000  0.500000  0.500000  1
  F  F10  1  0.000000  0.349394  0.849394  1
  F  F11  1  0.000000  0.150606  0.349394  1
  F  F12  1  0.000000  0.849394  0.650606  1
  F  F13  1  0.000000  0.650606  0.150606  1
  Ni  Ni14  1  0.000000  0.500000  0.000000  1
  Ni  Ni15  1  0.000000  0.000000  0.500000  1
  Cs  Cs16  1  0.500000  0.693010  0.193010  1
  Cs  Cs17  1  0.500000  0.806990  0.693010  1
  Cs  Cs18  1  0.500000  0.193010  0.306990  1
  Cs  Cs19  1  0.500000  0.306990  0.806990  1
  Cs  Cs20  1  0.000000  0.500000  0.500000  1
  Cs  Cs21  1  0.000000  0.000000  0.000000  1
