# generated using pymatgen
data_Sn3(HO2)2
_symmetry_space_group_name_H-M   'P 1'
_cell_length_a   8.38189484
_cell_length_b   8.38189484
_cell_length_c   9.63485347
_cell_angle_alpha   93.42962593
_cell_angle_beta   86.57037407
_cell_angle_gamma   88.91473591
_symmetry_Int_Tables_number   1
_chemical_formula_structural   Sn3(HO2)2
_chemical_formula_sum   'Sn12 H8 O16'
_cell_volume   674.31307402
_cell_formula_units_Z   4
loop_
 _symmetry_equiv_pos_site_id
 _symmetry_equiv_pos_as_xyz
  1  'x, y, z'
loop_
 _atom_site_type_symbol
 _atom_site_label
 _atom_site_symmetry_multiplicity
 _atom_site_fract_x
 _atom_site_fract_y
 _atom_site_fract_z
 _atom_site_occupancy
  Sn  Sn0  1  0.793971  0.611307  0.486980  1
  Sn  Sn1  1  0.274068  0.866527  0.967094  1
  Sn  Sn2  1  0.250106  0.352173  0.549407  1
  Sn  Sn3  1  0.714172  0.115707  0.004396  1
  Sn  Sn4  1  0.633473  0.225932  0.467094  1
  Sn  Sn5  1  0.888693  0.706029  0.986980  1
  Sn  Sn6  1  0.384293  0.785828  0.504396  1
  Sn  Sn7  1  0.147827  0.249894  0.049407  1
  Sn  Sn8  1  0.528412  0.546600  0.768363  1
  Sn  Sn9  1  0.993655  0.995458  0.734159  1
  Sn  Sn10  1  0.504542  0.506345  0.234159  1
  Sn  Sn11  1  0.953400  0.971588  0.268363  1
  H  H12  1  0.677320  0.822830  0.744505  1
  H  H13  1  0.159717  0.672740  0.751262  1
  H  H14  1  0.474819  0.246720  0.724101  1
  H  H15  1  0.930629  0.293458  0.862805  1
  H  H16  1  0.827260  0.340283  0.251262  1
  H  H17  1  0.677170  0.822680  0.244505  1
  H  H18  1  0.206542  0.569371  0.362805  1
  H  H19  1  0.253280  0.025181  0.224101  1
  O  O20  1  0.626347  0.750647  0.675044  1
  O  O21  1  0.097001  0.747908  0.818494  1
  O  O22  1  0.424036  0.205054  0.640540  1
  O  O23  1  0.853355  0.217404  0.830012  1
  O  O24  1  0.752092  0.402999  0.318494  1
  O  O25  1  0.749353  0.873653  0.175044  1
  O  O26  1  0.282596  0.646645  0.330012  1
  O  O27  1  0.294946  0.075964  0.140540  1
  O  O28  1  0.671556  0.435417  0.597114  1
  O  O29  1  0.159374  0.070076  0.886097  1
  O  O30  1  0.331872  0.579415  0.634272  1
  O  O31  1  0.808689  0.908734  0.881361  1
  O  O32  1  0.429924  0.340626  0.386097  1
  O  O33  1  0.064583  0.828444  0.097114  1
  O  O34  1  0.591266  0.691311  0.381361  1
  O  O35  1  0.920585  0.168128  0.134272  1
