# generated using pymatgen
data_Na2Sr3As4
_symmetry_space_group_name_H-M   'P 1'
_cell_length_a   9.34155799
_cell_length_b   9.64551307
_cell_length_c   11.80686042
_cell_angle_alpha   100.14758029
_cell_angle_beta   90.00000000
_cell_angle_gamma   90.00000000
_symmetry_Int_Tables_number   1
_chemical_formula_structural   Na2Sr3As4
_chemical_formula_sum   'Na8 Sr12 As16'
_cell_volume   1047.20523342
_cell_formula_units_Z   4
loop_
 _symmetry_equiv_pos_site_id
 _symmetry_equiv_pos_as_xyz
  1  'x, y, z'
loop_
 _atom_site_type_symbol
 _atom_site_label
 _atom_site_symmetry_multiplicity
 _atom_site_fract_x
 _atom_site_fract_y
 _atom_site_fract_z
 _atom_site_occupancy
  Na  Na0  1  0.070462  0.536617  0.782749  1
  Na  Na1  1  0.291159  0.295950  0.139918  1
  Na  Na2  1  0.208841  0.795950  0.639918  1
  Na  Na3  1  0.429538  0.036617  0.282749  1
  Na  Na4  1  0.570462  0.963383  0.717251  1
  Na  Na5  1  0.791159  0.204050  0.360082  1
  Na  Na6  1  0.708841  0.704050  0.860082  1
  Na  Na7  1  0.929538  0.463383  0.217251  1
  Sr  Sr8  1  0.945627  0.788986  0.059179  1
  Sr  Sr9  1  0.031305  0.928142  0.352972  1
  Sr  Sr10  1  0.176170  0.327600  0.430456  1
  Sr  Sr11  1  0.323830  0.827600  0.930456  1
  Sr  Sr12  1  0.554373  0.288986  0.559179  1
  Sr  Sr13  1  0.468695  0.428142  0.852972  1
  Sr  Sr14  1  0.531305  0.571858  0.147028  1
  Sr  Sr15  1  0.445627  0.711014  0.440821  1
  Sr  Sr16  1  0.676170  0.172400  0.069544  1
  Sr  Sr17  1  0.823830  0.672400  0.569544  1
  Sr  Sr18  1  0.968695  0.071858  0.647028  1
  Sr  Sr19  1  0.054373  0.211014  0.940821  1
  As  As20  1  0.979902  0.846474  0.808816  1
  As  As21  1  0.111156  0.630125  0.397769  1
  As  As22  1  0.220529  0.546378  0.026576  1
  As  As23  1  0.225262  0.707504  0.218763  1
  As  As24  1  0.274738  0.207504  0.718763  1
  As  As25  1  0.279471  0.046378  0.526576  1
  As  As26  1  0.388844  0.130125  0.897769  1
  As  As27  1  0.520098  0.346474  0.308816  1
  As  As28  1  0.479902  0.653526  0.691184  1
  As  As29  1  0.611156  0.869875  0.102231  1
  As  As30  1  0.720529  0.953622  0.473424  1
  As  As31  1  0.725262  0.792496  0.281237  1
  As  As32  1  0.774738  0.292496  0.781237  1
  As  As33  1  0.888844  0.369875  0.602231  1
  As  As34  1  0.779471  0.453622  0.973424  1
  As  As35  1  0.020098  0.153526  0.191184  1
