# generated using pymatgen
data_Ca2FeWO6
_symmetry_space_group_name_H-M   'P 1'
_cell_length_a   5.57868485
_cell_length_b   5.58163611
_cell_length_c   5.58313449
_cell_angle_alpha   60.74789125
_cell_angle_beta   60.75206516
_cell_angle_gamma   60.75967777
_symmetry_Int_Tables_number   1
_chemical_formula_structural   Ca2FeWO6
_chemical_formula_sum   'Ca2 Fe1 W1 O6'
_cell_volume   125.01866800
_cell_formula_units_Z   1
loop_
 _symmetry_equiv_pos_site_id
 _symmetry_equiv_pos_as_xyz
  1  'x, y, z'
loop_
 _atom_site_type_symbol
 _atom_site_label
 _atom_site_symmetry_multiplicity
 _atom_site_fract_x
 _atom_site_fract_y
 _atom_site_fract_z
 _atom_site_occupancy
  O  O0  1  0.257318  0.750326  0.750968  1
  O  O1  1  0.248718  0.741841  0.249926  1
  O  O2  1  0.751294  0.258110  0.750089  1
  O  O3  1  0.249263  0.249293  0.741406  1
  O  O4  1  0.742683  0.249641  0.249030  1
  O  O5  1  0.750759  0.750692  0.258561  1
  Ca  Ca6  1  0.257446  0.260774  0.261456  1
  Ca  Ca7  1  0.742514  0.739311  0.738553  1
  Fe  Fe8  1  0.500024  0.499993  0.500004  1
  W  W9  1  -0.000019  0.000017  1.000006  1
