# generated using pymatgen
data_PSeCl9
_symmetry_space_group_name_H-M   'P 1'
_cell_length_a   12.24547536
_cell_length_b   12.28979751
_cell_length_c   12.28979814
_cell_angle_alpha   60.10109369
_cell_angle_beta   60.11921693
_cell_angle_gamma   60.11922023
_symmetry_Int_Tables_number   1
_chemical_formula_structural   PSeCl9
_chemical_formula_sum   'P4 Se4 Cl36'
_cell_volume   1311.17988382
_cell_formula_units_Z   4
loop_
 _symmetry_equiv_pos_site_id
 _symmetry_equiv_pos_as_xyz
  1  'x, y, z'
loop_
 _atom_site_type_symbol
 _atom_site_label
 _atom_site_symmetry_multiplicity
 _atom_site_fract_x
 _atom_site_fract_y
 _atom_site_fract_z
 _atom_site_occupancy
  P  P0  1  0.517927  0.761712  0.219021  1
  P  P1  1  0.498660  0.238288  0.780979  1
  P  P2  1  0.998660  0.280979  0.738288  1
  P  P3  1  0.017927  0.719021  0.261712  1
  Se  Se4  1  0.549783  0.279373  0.220627  1
  Se  Se5  1  0.049783  0.720627  0.779373  1
  Se  Se6  1  0.979252  0.144228  0.355772  1
  Se  Se7  1  0.479252  0.855772  0.644228  1
  Cl  Cl8  1  0.943329  0.934131  0.565869  1
  Cl  Cl9  1  0.375337  0.359975  0.140025  1
  Cl  Cl10  1  0.673233  0.599213  0.237713  1
  Cl  Cl11  1  0.404087  0.422778  0.356619  1
  Cl  Cl12  1  0.491365  0.668122  0.831878  1
  Cl  Cl13  1  0.225220  0.818482  0.681518  1
  Cl  Cl14  1  0.978117  0.566227  0.294098  1
  Cl  Cl15  1  0.365181  0.739160  0.381605  1
  Cl  Cl16  1  0.157560  0.120543  0.379457  1
  Cl  Cl17  1  0.865181  0.881605  0.239160  1
  Cl  Cl18  1  0.183483  0.577222  0.643381  1
  Cl  Cl19  1  0.657560  0.879457  0.620543  1
  Cl  Cl20  1  0.991365  0.331878  0.168122  1
  Cl  Cl21  1  0.058478  0.684476  0.414156  1
  Cl  Cl22  1  0.485946  0.260841  0.618395  1
  Cl  Cl23  1  0.904087  0.856619  0.922778  1
  Cl  Cl24  1  0.334558  0.985778  0.791895  1
  Cl  Cl25  1  0.173233  0.737713  0.099213  1
  Cl  Cl26  1  0.137943  0.560709  0.939291  1
  Cl  Cl27  1  0.510158  0.400787  0.762287  1
  Cl  Cl28  1  0.725220  0.181518  0.318482  1
  Cl  Cl29  1  0.478117  0.794098  0.066227  1
  Cl  Cl30  1  0.838441  0.433774  0.705902  1
  Cl  Cl31  1  0.338441  0.205902  0.933774  1
  Cl  Cl32  1  0.637943  0.439291  0.060709  1
  Cl  Cl33  1  0.834558  0.291895  0.485778  1
  Cl  Cl34  1  0.657109  0.085844  0.815524  1
  Cl  Cl35  1  0.875337  0.640025  0.859975  1
  Cl  Cl36  1  0.112231  0.014222  0.208105  1
  Cl  Cl37  1  0.683483  0.143381  0.077222  1
  Cl  Cl38  1  0.558478  0.914156  0.184476  1
  Cl  Cl39  1  0.010158  0.262287  0.900787  1
  Cl  Cl40  1  0.157109  0.315524  0.585844  1
  Cl  Cl41  1  0.612231  0.708105  0.514222  1
  Cl  Cl42  1  0.443329  0.065869  0.434131  1
  Cl  Cl43  1  0.985946  0.118395  0.760841  1
