# generated using pymatgen
data_Gd3P4Pd7
_symmetry_space_group_name_H-M   'P 1'
_cell_length_a   4.03263801
_cell_length_b   8.24390626
_cell_length_c   8.00958302
_cell_angle_alpha   71.35114011
_cell_angle_beta   75.44916016
_cell_angle_gamma   75.81563822
_symmetry_Int_Tables_number   1
_chemical_formula_structural   Gd3P4Pd7
_chemical_formula_sum   'Gd3 P4 Pd7'
_cell_volume   240.23274838
_cell_formula_units_Z   1
loop_
 _symmetry_equiv_pos_site_id
 _symmetry_equiv_pos_as_xyz
  1  'x, y, z'
loop_
 _atom_site_type_symbol
 _atom_site_label
 _atom_site_symmetry_multiplicity
 _atom_site_fract_x
 _atom_site_fract_y
 _atom_site_fract_z
 _atom_site_occupancy
  Gd  Gd0  1  0.319205  0.677510  0.683832  1
  Gd  Gd1  1  0.680624  0.322638  0.316260  1
  Gd  Gd2  1  0.000009  -0.000091  0.000064  1
  P  P3  1  0.659376  0.746059  0.935740  1
  P  P4  1  0.340775  0.254074  0.064196  1
  P  P5  1  0.894124  0.820477  0.391050  1
  P  P6  1  0.105733  0.179366  0.609132  1
  Pd  Pd7  1  0.305051  0.029370  0.360383  1
  Pd  Pd8  1  0.490526  0.283524  0.735270  1
  Pd  Pd9  1  0.831894  0.421812  0.914447  1
  Pd  Pd10  1  0.694855  0.970912  0.639277  1
  Pd  Pd11  1  0.168364  0.577953  0.085639  1
  Pd  Pd12  1  0.000120  0.499890  0.499869  1
  Pd  Pd13  1  0.509344  0.716506  0.264842  1
