# generated using pymatgen
data_Sr2YAlCu2O7
_symmetry_space_group_name_H-M   'P 1'
_cell_length_a   12.03283100
_cell_length_b   12.03283100
_cell_length_c   12.03283100
_cell_angle_alpha   37.61146302
_cell_angle_beta   153.36202028
_cell_angle_gamma   153.93684803
_symmetry_Int_Tables_number   1
_chemical_formula_structural   Sr2YAlCu2O7
_chemical_formula_sum   'Sr4 Y2 Al2 Cu4 O14'
_cell_volume   342.68207552
_cell_formula_units_Z   2
loop_
 _symmetry_equiv_pos_site_id
 _symmetry_equiv_pos_as_xyz
  1  'x, y, z'
loop_
 _atom_site_type_symbol
 _atom_site_label
 _atom_site_symmetry_multiplicity
 _atom_site_fract_x
 _atom_site_fract_y
 _atom_site_fract_z
 _atom_site_occupancy
  Sr  Sr0  1  0.027103  0.858398  0.860369  1
  Sr  Sr1  1  0.998029  0.166734  0.139631  1
  Sr  Sr2  1  0.027103  0.666734  0.668705  1
  Sr  Sr3  1  0.998029  0.358398  0.331295  1
  Y  Y4  1  0.014143  0.514143  0.500000  1
  Y  Y5  1  0.014143  0.014143  0.000000  1
  Al  Al6  1  0.562848  0.745233  0.317615  1
  Al  Al7  1  0.427618  0.245233  0.682385  1
  Cu  Cu8  1  0.516883  0.443885  0.927270  1
  Cu  Cu9  1  0.516614  0.589613  0.072730  1
  Cu  Cu10  1  0.516883  0.089613  0.572999  1
  Cu  Cu11  1  0.516614  0.943885  0.427001  1
  O  O12  1  0.017433  0.925845  0.591588  1
  O  O13  1  0.334257  0.425845  0.408412  1
  O  O14  1  0.507692  0.201887  0.184561  1
  O  O15  1  0.017327  0.323132  0.815439  1
  O  O16  1  0.507692  0.823132  0.805805  1
  O  O17  1  0.017327  0.701887  0.194195  1
  O  O18  1  0.524935  0.702635  0.685716  1
  O  O19  1  0.016920  0.839219  0.314284  1
  O  O20  1  0.524935  0.339219  0.322300  1
  O  O21  1  0.016920  0.202635  0.677700  1
  O  O22  1  0.491875  0.873434  0.256033  1
  O  O23  1  0.617401  0.235841  0.743967  1
  O  O24  1  0.491875  0.735841  0.118441  1
  O  O25  1  0.617401  0.373434  0.881559  1
