# generated using pymatgen
data_NaCeH2S2O9
_symmetry_space_group_name_H-M   'P 1'
_cell_length_a   7.30631214
_cell_length_b   7.30631186
_cell_length_c   11.92037582
_cell_angle_alpha   90.00000000
_cell_angle_beta   90.00000000
_cell_angle_gamma   120.00000130
_symmetry_Int_Tables_number   1
_chemical_formula_structural   NaCeH2S2O9
_chemical_formula_sum   'Na3 Ce3 H6 S6 O27'
_cell_volume   551.08298465
_cell_formula_units_Z   3
loop_
 _symmetry_equiv_pos_site_id
 _symmetry_equiv_pos_as_xyz
  1  'x, y, z'
loop_
 _atom_site_type_symbol
 _atom_site_label
 _atom_site_symmetry_multiplicity
 _atom_site_fract_x
 _atom_site_fract_y
 _atom_site_fract_z
 _atom_site_occupancy
  Na  Na0  1  0.001192  0.483094  0.833790  1
  Na  Na1  1  0.516906  0.518098  0.500457  1
  Na  Na2  1  0.481902  -0.001192  0.167124  1
  Ce  Ce3  1  -0.000439  0.434276  0.333680  1
  Ce  Ce4  1  0.565724  0.565285  0.000347  1
  Ce  Ce5  1  0.434715  0.000439  0.667014  1
  H  H6  1  0.034007  0.918625  0.965050  1
  H  H7  1  0.081375  0.115382  0.631717  1
  H  H8  1  0.098893  0.066515  0.368824  1
  H  H9  1  0.884618  0.965993  0.298384  1
  H  H10  1  0.967622  0.901107  0.702157  1
  H  H11  1  0.933485  0.032378  0.035491  1
  S  S12  1  -0.000376  0.435093  0.073964  1
  S  S13  1  0.435469  0.000376  0.407297  1
  S  S14  1  0.564907  0.564531  0.740631  1
  S  S15  1  0.560950  0.563607  0.261575  1
  S  S16  1  0.436393  -0.002657  0.928242  1
  S  S17  1  0.002657  0.439050  0.594909  1
  O  O18  1  0.139556  0.629266  0.662896  1
  O  O19  1  0.121125  0.614275  0.153531  1
  O  O20  1  0.238464  0.870062  0.862779  1
  O  O21  1  0.260867  0.856636  0.332425  1
  O  O22  1  0.129938  0.368402  0.529446  1
  O  O23  1  0.143364  0.404231  -0.000908  1
  O  O24  1  0.489710  0.860444  -0.003771  1
  O  O25  1  0.493150  0.878875  0.486864  1
  O  O26  1  0.103872  0.015445  0.676033  1
  O  O27  1  0.385725  0.506850  0.820198  1
  O  O28  1  0.370734  0.510290  0.329562  1
  O  O29  1  0.595769  0.739133  0.665759  1
  O  O30  1  0.631598  0.761536  0.196112  1
  O  O31  1  0.520492  0.376675  0.671956  1
  O  O32  1  0.506091  0.391564  0.178035  1
  O  O33  1  0.367273  0.125899  0.476681  1
  O  O34  1  0.414126  0.145314  0.003778  1
  O  O35  1  0.758626  0.632727  0.810015  1
  O  O36  1  0.731188  0.585874  0.337111  1
  O  O37  1  0.911572  0.896128  0.009367  1
  O  O38  1  0.623325  0.143817  0.338622  1
  O  O39  1  0.608436  0.114527  0.844702  1
  O  O40  1  0.885473  0.493909  0.511369  1
  O  O41  1  0.856182  0.479508  0.005289  1
  O  O42  1  0.854686  0.268812  0.670445  1
  O  O43  1  0.874101  0.241374  0.143348  1
  O  O44  1  0.984555  0.088428  0.342700  1
