# generated using pymatgen
data_Yb15Mg5Ge16
_symmetry_space_group_name_H-M   'P 1'
_cell_length_a   7.20269989
_cell_length_b   7.80047284
_cell_length_c   30.28834137
_cell_angle_alpha   90.00000000
_cell_angle_beta   90.07828399
_cell_angle_gamma   90.00000000
_symmetry_Int_Tables_number   1
_chemical_formula_structural   Yb15Mg5Ge16
_chemical_formula_sum   'Yb30 Mg10 Ge32'
_cell_volume   1701.73266363
_cell_formula_units_Z   2
loop_
 _symmetry_equiv_pos_site_id
 _symmetry_equiv_pos_as_xyz
  1  'x, y, z'
loop_
 _atom_site_type_symbol
 _atom_site_label
 _atom_site_symmetry_multiplicity
 _atom_site_fract_x
 _atom_site_fract_y
 _atom_site_fract_z
 _atom_site_occupancy
  Yb  Yb0  1  0.010654  0.811692  0.046158  1
  Yb  Yb1  1  0.013221  0.829071  0.202775  1
  Yb  Yb2  1  0.018249  0.822554  0.547429  1
  Yb  Yb3  1  0.009094  0.812063  0.701270  1
  Yb  Yb4  1  0.171348  0.330923  0.063078  1
  Yb  Yb5  1  0.175137  0.327218  0.185194  1
  Yb  Yb6  1  0.181694  0.307789  0.563483  1
  Yb  Yb7  1  0.167518  0.316355  0.686355  1
  Yb  Yb8  1  0.330543  0.816523  0.315334  1
  Yb  Yb9  1  0.324433  0.819301  0.814320  1
  Yb  Yb10  1  0.336508  0.826086  0.937751  1
  Yb  Yb11  1  0.494833  0.327357  0.300338  1
  Yb  Yb12  1  0.491461  0.330402  0.452068  1
  Yb  Yb13  1  0.496739  0.315297  0.950900  1
  Yb  Yb14  1  0.478943  0.323085  0.797376  1
  Yb  Yb15  1  0.518249  0.677446  0.047429  1
  Yb  Yb16  1  0.509094  0.687937  0.201270  1
  Yb  Yb17  1  0.510654  0.688308  0.546158  1
  Yb  Yb18  1  0.513221  0.670929  0.702775  1
  Yb  Yb19  1  0.681694  0.192211  0.063483  1
  Yb  Yb20  1  0.667518  0.183645  0.186355  1
  Yb  Yb21  1  0.671348  0.169077  0.563078  1
  Yb  Yb22  1  0.675137  0.172782  0.685194  1
  Yb  Yb23  1  0.824433  0.680699  0.314320  1
  Yb  Yb24  1  0.836508  0.673914  0.437751  1
  Yb  Yb25  1  0.830543  0.683477  0.815334  1
  Yb  Yb26  1  0.978943  0.176915  0.297376  1
  Yb  Yb27  1  -0.003261  0.184703  0.450900  1
  Yb  Yb28  1  -0.005167  0.172643  0.800338  1
  Yb  Yb29  1  0.991461  0.169598  0.952068  1
  Mg  Mg30  1  0.155111  0.475268  0.370723  1
  Mg  Mg31  1  0.148488  0.483504  0.882950  1
  Mg  Mg32  1  0.309424  0.805091  0.436293  1
  Mg  Mg33  1  0.346244  0.979440  0.116300  1
  Mg  Mg34  1  0.344702  0.966322  0.631401  1
  Mg  Mg35  1  0.648488  0.016496  0.382950  1
  Mg  Mg36  1  0.655111  0.024732  0.870723  1
  Mg  Mg37  1  0.809424  0.694909  0.936293  1
  Mg  Mg38  1  0.844702  0.533678  0.131401  1
  Mg  Mg39  1  0.846244  0.520560  0.616300  1
  Ge  Ge40  1  0.025912  0.908234  0.376378  1
  Ge  Ge41  1  0.021192  0.902165  0.877404  1
  Ge  Ge42  1  0.155760  0.526961  0.268338  1
  Ge  Ge43  1  0.167275  0.529015  0.485463  1
  Ge  Ge44  1  0.151739  0.535223  0.766099  1
  Ge  Ge45  1  0.158557  0.522405  -0.021255  1
  Ge  Ge46  1  0.221750  0.644072  0.124693  1
  Ge  Ge47  1  0.222972  0.628387  0.624499  1
  Ge  Ge48  1  0.276964  0.130350  0.372962  1
  Ge  Ge49  1  0.275721  0.131944  0.876580  1
  Ge  Ge50  1  0.335775  0.050849  0.238784  1
  Ge  Ge51  1  0.341573  0.023471  0.732136  1
  Ge  Ge52  1  0.344803  0.031799  0.018955  1
  Ge  Ge53  1  0.338444  0.027552  0.508373  1
  Ge  Ge54  1  0.477935  0.418187  0.123904  1
  Ge  Ge55  1  0.479283  0.407554  0.625193  1
  Ge  Ge56  1  0.521192  0.597835  0.377404  1
  Ge  Ge57  1  0.525912  0.591766  0.876378  1
  Ge  Ge58  1  0.658557  0.977595  0.478745  1
  Ge  Ge59  1  0.667275  0.970985  -0.014537  1
  Ge  Ge60  1  0.651739  0.964777  0.266099  1
  Ge  Ge61  1  0.655760  0.973039  0.768338  1
  Ge  Ge62  1  0.722972  0.871613  0.124499  1
  Ge  Ge63  1  0.721750  0.855928  0.624693  1
  Ge  Ge64  1  0.775721  0.368056  0.376580  1
  Ge  Ge65  1  0.776964  0.369650  0.872962  1
  Ge  Ge66  1  0.838444  0.472448  0.008373  1
  Ge  Ge67  1  0.841573  0.476529  0.232136  1
  Ge  Ge68  1  0.835775  0.449151  0.738784  1
  Ge  Ge69  1  0.844803  0.468201  0.518955  1
  Ge  Ge70  1  -0.020717  0.092446  0.125193  1
  Ge  Ge71  1  -0.022065  0.081813  0.623904  1
