# generated using pymatgen
data_NaSm2Cl6
_symmetry_space_group_name_H-M   'P 1'
_cell_length_a   23.85429998
_cell_length_b   13.77228626
_cell_length_c   3.83276109
_cell_angle_alpha   90.00000000
_cell_angle_beta   90.00000000
_cell_angle_gamma   29.99999816
_symmetry_Int_Tables_number   1
_chemical_formula_structural   NaSm2Cl6
_chemical_formula_sum   'Na3 Sm6 Cl18'
_cell_volume   629.58510793
_cell_formula_units_Z   3
loop_
 _symmetry_equiv_pos_site_id
 _symmetry_equiv_pos_as_xyz
  1  'x, y, z'
loop_
 _atom_site_type_symbol
 _atom_site_label
 _atom_site_symmetry_multiplicity
 _atom_site_fract_x
 _atom_site_fract_y
 _atom_site_fract_z
 _atom_site_occupancy
  Na  Na0  1  0.000000  0.000000  0.751691  1
  Na  Na1  1  0.333333  0.000000  0.004637  1
  Na  Na2  1  0.666667  0.000000  0.499602  1
  Sm  Sm3  1  0.330600  0.339856  0.751545  1
  Sm  Sm4  1  0.337307  0.662700  0.248134  1
  Sm  Sm5  1  0.670457  0.328486  0.751545  1
  Sm  Sm6  1  0.662687  0.674620  0.248134  1
  Sm  Sm7  1  0.998943  0.331658  0.751545  1
  Sm  Sm8  1  0.000006  0.662681  0.248134  1
  Cl  Cl9  1  0.177286  0.087132  0.255238  1
  Cl  Cl10  1  0.105948  0.381252  0.748686  1
  Cl  Cl11  1  0.264418  0.293880  0.255238  1
  Cl  Cl12  1  0.075828  0.686871  0.747426  1
  Cl  Cl13  1  0.215855  0.634776  0.247880  1
  Cl  Cl14  1  0.514302  0.078336  0.249208  1
  Cl  Cl15  1  0.161474  0.914354  0.747426  1
  Cl  Cl16  1  0.433229  0.387723  0.749906  1
  Cl  Cl17  1  0.592638  0.300423  0.249208  1
  Cl  Cl18  1  0.406853  0.699095  0.748686  1
  Cl  Cl19  1  0.558297  0.618989  0.255238  1
  Cl  Cl20  1  0.850631  0.082881  0.247880  1
  Cl  Cl21  1  0.487199  0.919653  0.748686  1
  Cl  Cl22  1  0.762699  0.398775  0.747426  1
  Cl  Cl23  1  0.933512  0.282343  0.247880  1
  Cl  Cl24  1  0.745818  0.687410  0.749906  1
  Cl  Cl25  1  0.893060  0.621242  0.249208  1
  Cl  Cl26  1  0.820952  0.924867  0.749906  1
