# generated using pymatgen
data_Li19Mn5N9
_symmetry_space_group_name_H-M   'P 1'
_cell_length_a   6.39844866
_cell_length_b   19.22273725
_cell_length_c   7.44846678
_cell_angle_alpha   30.63030335
_cell_angle_beta   115.37939404
_cell_angle_gamma   119.91233772
_symmetry_Int_Tables_number   1
_chemical_formula_structural   Li19Mn5N9
_chemical_formula_sum   'Li19 Mn5 N9'
_cell_volume   404.58651630
_cell_formula_units_Z   1
loop_
 _symmetry_equiv_pos_site_id
 _symmetry_equiv_pos_as_xyz
  1  'x, y, z'
loop_
 _atom_site_type_symbol
 _atom_site_label
 _atom_site_symmetry_multiplicity
 _atom_site_fract_x
 _atom_site_fract_y
 _atom_site_fract_z
 _atom_site_occupancy
  Li  Li0  1  0.998931  0.924003  0.490801  1
  Li  Li1  1  0.996415  0.876801  0.000800  1
  Li  Li2  1  0.260577  0.826940  0.518978  1
  Li  Li3  1  0.987791  0.580745  0.512834  1
  Li  Li4  1  0.662750  0.945611  0.492706  1
  Li  Li5  1  0.330094  0.725717  0.494476  1
  Li  Li6  1  0.278359  0.499931  0.500841  1
  Li  Li7  1  0.736950  0.745163  0.500743  1
  Li  Li8  1  0.000164  0.254486  0.499840  1
  Li  Li9  1  0.670268  0.607333  0.505370  1
  Li  Li10  1  0.343800  0.392629  0.495782  1
  Li  Li11  1  0.623679  0.664655  0.995463  1
  Li  Li12  1  0.261530  0.171074  0.484040  1
  Li  Li13  1  0.737245  0.418803  0.493896  1
  Li  Li14  1  0.657456  0.275721  0.502566  1
  Li  Li15  1  0.330921  0.051176  0.512333  1
  Li  Li16  1  0.627720  0.334982  0.005179  1
  Li  Li17  1  0.366959  0.121239  0.000972  1
  Li  Li18  1  0.733178  0.075431  0.508662  1
  Mn  Mn19  1  0.369047  0.788651  0.006388  1
  Mn  Mn20  1  0.994650  0.540070  0.005319  1
  Mn  Mn21  1  0.371293  0.459972  0.997383  1
  Mn  Mn22  1  0.993345  0.208559  0.995296  1
  Mn  Mn23  1  0.639746  0.000703  0.000318  1
  N  N24  1  0.999206  0.703129  0.528208  1
  N  N25  1  0.362278  0.943958  0.531057  1
  N  N26  1  0.634181  0.839104  0.481900  1
  N  N27  1  0.997180  0.375810  0.502239  1
  N  N28  1  0.368050  0.623502  0.500089  1
  N  N29  1  0.632964  0.499982  0.500894  1
  N  N30  1  0.996589  0.053753  0.471803  1
  N  N31  1  0.360008  0.295908  0.473465  1
  N  N32  1  0.629990  0.160376  0.518289  1
