# generated using pymatgen
data_U8Bi2O19
_symmetry_space_group_name_H-M   'P 1'
_cell_length_a   3.83467652
_cell_length_b   38.58387787
_cell_length_c   36.83166898
_cell_angle_alpha   5.18660336
_cell_angle_beta   58.64792336
_cell_angle_gamma   60.21984308
_symmetry_Int_Tables_number   1
_chemical_formula_structural   U8Bi2O19
_chemical_formula_sum   'U8 Bi2 O19'
_cell_volume   404.07023248
_cell_formula_units_Z   1
loop_
 _symmetry_equiv_pos_site_id
 _symmetry_equiv_pos_as_xyz
  1  'x, y, z'
loop_
 _atom_site_type_symbol
 _atom_site_label
 _atom_site_symmetry_multiplicity
 _atom_site_fract_x
 _atom_site_fract_y
 _atom_site_fract_z
 _atom_site_occupancy
  U  U0  1  -0.001464  0.194774  0.005847  1
  U  U1  1  -0.000162  0.298030  0.002777  1
  U  U2  1  0.001305  0.398082  0.002284  1
  U  U3  1  -0.000142  0.498803  0.001351  1
  U  U4  1  0.997271  0.599482  0.000685  1
  U  U5  1  0.998905  0.699075  0.000918  1
  U  U6  1  0.002435  0.801272  -0.001692  1
  U  U7  1  0.000033  0.903137  -0.003400  1
  Bi  Bi8  1  0.988087  0.997412  0.004251  1
  Bi  Bi9  1  0.003561  0.095239  0.003706  1
  O  O10  1  0.248762  0.095966  0.255137  1
  O  O11  1  0.252158  0.197937  0.252185  1
  O  O12  1  0.247975  0.299924  0.250279  1
  O  O13  1  0.247010  0.399043  0.251023  1
  O  O14  1  0.253194  0.501198  0.248137  1
  O  O15  1  0.262534  0.611135  0.236388  1
  O  O16  1  0.763028  0.111595  0.735820  1
  O  O17  1  0.280900  0.730256  0.212912  1
  O  O18  1  0.785205  0.234425  0.707822  1
  O  O19  1  0.211236  0.862937  0.294563  1
  O  O20  1  0.744711  0.301631  0.748957  1
  O  O21  1  0.712791  0.363017  0.794387  1
  O  O22  1  0.241307  -0.008543  0.261018  1
  O  O23  1  0.738512  0.488932  0.764160  1
  O  O24  1  0.750693  0.597795  0.752923  1
  O  O25  1  0.750456  0.697248  0.753058  1
  O  O26  1  0.747906  0.800049  0.750085  1
  O  O27  1  0.747925  0.899981  0.750041  1
  O  O28  1  0.753204  0.000822  0.748592  1
