# generated using pymatgen
data_FeO2
_symmetry_space_group_name_H-M   'P 1'
_cell_length_a   5.76758685
_cell_length_b   5.76758697
_cell_length_c   5.76758644
_cell_angle_alpha   59.99999732
_cell_angle_beta   59.99999661
_cell_angle_gamma   60.00000176
_symmetry_Int_Tables_number   1
_chemical_formula_structural   FeO2
_chemical_formula_sum   'Fe4 O8'
_cell_volume   135.66486757
_cell_formula_units_Z   4
loop_
 _symmetry_equiv_pos_site_id
 _symmetry_equiv_pos_as_xyz
  1  'x, y, z'
loop_
 _atom_site_type_symbol
 _atom_site_label
 _atom_site_symmetry_multiplicity
 _atom_site_fract_x
 _atom_site_fract_y
 _atom_site_fract_z
 _atom_site_occupancy
  O  O0  1  0.736780  0.736780  0.289659  1
  O  O1  1  0.736780  0.736780  0.736780  1
  O  O2  1  0.263221  0.263220  0.710340  1
  O  O3  1  0.263221  0.710341  0.263220  1
  O  O4  1  0.263221  0.263220  0.263220  1
  O  O5  1  0.710341  0.263220  0.263220  1
  O  O6  1  0.736781  0.289658  0.736781  1
  O  O7  1  0.289660  0.736780  0.736781  1
  Fe  Fe8  1  0.499999  0.500001  0.500000  1
  Fe  Fe9  1  0.500001  0.000000  0.500000  1
  Fe  Fe10  1  0.000001  0.500001  0.500000  1
  Fe  Fe11  1  0.499999  0.500001  0.000000  1
