# generated using pymatgen
data_Sr6La14Mg7Ti13O60
_symmetry_space_group_name_H-M   'P 1'
_cell_length_a   5.61888089
_cell_length_b   5.60319229
_cell_length_c   39.56028074
_cell_angle_alpha   89.94614448
_cell_angle_beta   89.95477195
_cell_angle_gamma   89.71038061
_symmetry_Int_Tables_number   1
_chemical_formula_structural   Sr6La14Mg7Ti13O60
_chemical_formula_sum   'Sr6 La14 Mg7 Ti13 O60'
_cell_volume   1245.48598100
_cell_formula_units_Z   1
loop_
 _symmetry_equiv_pos_site_id
 _symmetry_equiv_pos_as_xyz
  1  'x, y, z'
loop_
 _atom_site_type_symbol
 _atom_site_label
 _atom_site_symmetry_multiplicity
 _atom_site_fract_x
 _atom_site_fract_y
 _atom_site_fract_z
 _atom_site_occupancy
  Sr  Sr0  1  0.002981  0.987631  0.147600  1
  Sr  Sr1  1  0.004115  0.985927  0.347471  1
  Sr  Sr2  1  0.003143  0.984170  0.949806  1
  Sr  Sr3  1  0.494551  0.482832  0.347236  1
  Sr  Sr4  1  0.493503  0.483284  0.146566  1
  Sr  Sr5  1  0.506501  0.515822  0.052193  1
  La  La6  1  0.997347  0.983248  0.551119  1
  La  La7  1  0.995895  0.982985  0.751198  1
  La  La8  1  0.487274  0.467041  0.551031  1
  La  La9  1  0.485995  0.466785  0.750852  1
  La  La10  1  0.490670  0.473581  0.949141  1
  La  La11  1  0.509578  0.523642  0.251066  1
  La  La12  1  0.513639  0.533143  0.651044  1
  La  La13  1  0.508179  0.524638  0.450938  1
  La  La14  1  0.511895  0.531819  0.850950  1
  La  La15  1  0.997273  0.014872  0.053818  1
  La  La16  1  0.998665  0.016617  0.251143  1
  La  La17  1  -0.001240  0.018676  0.450707  1
  La  La18  1  0.003962  0.017204  0.651231  1
  La  La19  1  0.001849  0.016009  0.851429  1
  Mg  Mg20  1  0.499666  0.999803  0.099815  1
  Mg  Mg21  1  0.499212  0.001180  0.299964  1
  Mg  Mg22  1  0.500942  0.999128  0.500645  1
  Mg  Mg23  1  0.500346  -0.000316  0.600353  1
  Mg  Mg24  1  0.498761  0.000873  0.899696  1
  Mg  Mg25  1  0.499182  0.999004  0.800021  1
  Mg  Mg26  1  0.500136  0.000536  0.700188  1
  Ti  Ti27  1  0.509928  0.994798  0.000134  1
  Ti  Ti28  1  0.500732  0.006407  0.198649  1
  Ti  Ti29  1  0.498565  0.006072  0.398722  1
  Ti  Ti30  1  0.007493  0.495682  0.000917  1
  Ti  Ti31  1  0.007229  0.504834  0.198057  1
  Ti  Ti32  1  0.004271  0.501081  0.100152  1
  Ti  Ti33  1  0.000479  0.500205  0.601280  1
  Ti  Ti34  1  0.005315  0.504966  0.398243  1
  Ti  Ti35  1  0.008740  0.500007  0.299312  1
  Ti  Ti36  1  -0.000603  0.500861  0.500483  1
  Ti  Ti37  1  -0.000665  0.500079  0.701324  1
  Ti  Ti38  1  -0.000177  0.499841  0.801256  1
  Ti  Ti39  1  0.003158  0.499668  0.901420  1
  O  O40  1  0.062549  0.492039  0.048311  1
  O  O41  1  0.075570  0.489739  0.249684  1
  O  O42  1  0.080348  0.488414  0.449777  1
  O  O43  1  0.087995  0.487617  0.649433  1
  O  O44  1  0.083961  0.489243  0.849382  1
  O  O45  1  0.233259  0.236056  0.194239  1
  O  O46  1  0.234006  0.234932  0.394262  1
  O  O47  1  0.220207  0.237659  0.590230  1
  O  O48  1  0.225215  0.242211  0.105387  1
  O  O49  1  0.223454  0.240819  0.305997  1
  O  O50  1  0.235621  0.245510  0.991958  1
  O  O51  1  0.218233  0.236640  0.708816  1
  O  O52  1  0.219839  0.236174  0.508290  1
  O  O53  1  0.219557  0.237936  0.790190  1
  O  O54  1  0.226511  0.244724  0.907510  1
  O  O55  1  0.260368  0.729941  0.193932  1
  O  O56  1  0.251223  0.730140  0.105612  1
  O  O57  1  0.254838  0.726470  0.305921  1
  O  O58  1  0.258925  0.719114  0.708818  1
  O  O59  1  0.259411  0.719376  0.590113  1
  O  O60  1  0.260955  0.731407  0.394000  1
  O  O61  1  0.260532  0.719982  0.508204  1
  O  O62  1  0.265751  0.727282  0.991415  1
  O  O63  1  0.258775  0.718313  0.789973  1
  O  O64  1  0.263291  0.717155  0.907994  1
  O  O65  1  0.419293  0.993266  0.046953  1
  O  O66  1  0.419631  0.982612  0.248278  1
  O  O67  1  0.408141  0.974474  0.650020  1
  O  O68  1  0.419269  0.982633  0.448699  1
  O  O69  1  0.406228  0.973727  0.849650  1
  O  O70  1  0.563997  0.007585  0.353091  1
  O  O71  1  0.561525  0.006769  0.153049  1
  O  O72  1  0.592771  0.025847  0.550186  1
  O  O73  1  0.591792  0.025632  0.749891  1
  O  O74  1  0.561413  0.019142  0.952045  1
  O  O75  1  0.741071  0.262692  0.007218  1
  O  O76  1  0.736071  0.262965  0.209682  1
  O  O77  1  0.752163  0.266034  0.092611  1
  O  O78  1  0.736479  0.263903  0.409706  1
  O  O79  1  0.741549  0.274543  0.291349  1
  O  O80  1  0.741017  0.281322  0.608973  1
  O  O81  1  0.740675  0.278491  0.490273  1
  O  O82  1  0.741117  0.280966  0.690174  1
  O  O83  1  0.740726  0.280089  0.808871  1
  O  O84  1  0.740026  0.279347  0.891163  1
  O  O85  1  0.777317  0.762365  0.092214  1
  O  O86  1  0.772572  0.759112  0.291282  1
  O  O87  1  0.778592  0.762791  0.490242  1
  O  O88  1  0.780166  0.762378  0.690255  1
  O  O89  1  0.767212  0.769458  0.007347  1
  O  O90  1  0.764931  0.761736  0.209592  1
  O  O91  1  0.765299  0.761607  0.409582  1
  O  O92  1  0.782086  0.763483  0.608911  1
  O  O93  1  0.776595  0.760348  0.890700  1
  O  O94  1  0.781479  0.763773  0.808769  1
  O  O95  1  0.933365  0.507266  0.151749  1
  O  O96  1  0.933898  0.506965  0.351881  1
  O  O97  1  0.913398  0.512384  0.549358  1
  O  O98  1  0.911731  0.512307  0.749392  1
  O  O99  1  0.917527  0.508457  0.950227  1
