# generated using pymatgen
data_Sr2La14Mg4(Ga4O15)3
_symmetry_space_group_name_H-M   'P 1'
_cell_length_a   5.55728871
_cell_length_b   5.58326711
_cell_length_c   44.84938465
_cell_angle_alpha   60.74149706
_cell_angle_beta   60.72331531
_cell_angle_gamma   60.49893594
_symmetry_Int_Tables_number   1
_chemical_formula_structural   Sr2La14Mg4(Ga4O15)3
_chemical_formula_sum   'Sr2 La14 Mg4 Ga12 O45'
_cell_volume   998.52600502
_cell_formula_units_Z   1
loop_
 _symmetry_equiv_pos_site_id
 _symmetry_equiv_pos_as_xyz
  1  'x, y, z'
loop_
 _atom_site_type_symbol
 _atom_site_label
 _atom_site_symmetry_multiplicity
 _atom_site_fract_x
 _atom_site_fract_y
 _atom_site_fract_z
 _atom_site_occupancy
  Sr  Sr0  1  0.259197  0.262292  0.024143  1
  Sr  Sr1  1  0.256131  0.256049  0.154477  1
  La  La2  1  0.277443  0.252426  0.278716  1
  La  La3  1  0.793749  0.736804  0.088882  1
  La  La4  1  0.208604  0.231874  0.415206  1
  La  La5  1  0.755707  0.744416  0.215755  1
  La  La6  1  0.245752  0.242055  0.533756  1
  La  La7  1  0.704217  0.792427  0.349424  1
  La  La8  1  0.246872  0.246071  0.657210  1
  La  La9  1  0.747805  0.752340  0.470477  1
  La  La10  1  0.253149  0.252564  0.779450  1
  La  La11  1  0.751583  0.748628  0.595052  1
  La  La12  1  0.252604  0.266998  0.901792  1
  La  La13  1  0.750453  0.749982  0.718240  1
  La  La14  1  0.749784  0.750248  0.841917  1
  La  La15  1  0.750448  0.757546  0.963572  1
  Mg  Mg16  1  0.969008  0.960927  0.256920  1
  Mg  Mg17  1  0.948476  0.981504  0.380904  1
  Mg  Mg18  1  0.536739  0.513455  0.184886  1
  Mg  Mg19  1  0.521226  0.520753  0.315379  1
  Ga  Ga20  1  0.005934  0.013666  0.993869  1
  Ga  Ga21  1  0.985275  0.001286  0.128640  1
  Ga  Ga22  1  0.528017  0.527968  0.051976  1
  Ga  Ga23  1  0.992170  0.983957  0.504156  1
  Ga  Ga24  1  0.997775  0.995809  0.626296  1
  Ga  Ga25  1  0.486706  0.495487  0.440319  1
  Ga  Ga26  1  0.000435  0.000101  0.749450  1
  Ga  Ga27  1  0.498242  0.495240  0.564832  1
  Ga  Ga28  1  0.004271  0.006548  0.871946  1
  Ga  Ga29  1  0.500429  0.499911  0.687724  1
  Ga  Ga30  1  0.506184  0.504238  0.810443  1
  Ga  Ga31  1  0.503512  0.508727  0.934101  1
  O  O32  1  0.270050  0.766568  0.022749  1
  O  O33  1  0.263167  0.615227  0.093153  1
  O  O34  1  0.688261  0.179641  0.042771  1
  O  O35  1  0.899519  0.271644  0.087185  1
  O  O36  1  0.338535  0.862824  0.135955  1
  O  O37  1  0.800183  0.722787  0.020541  1
  O  O38  1  0.176492  0.673339  0.221405  1
  O  O39  1  0.699343  0.215660  0.163058  1
  O  O40  1  0.759271  0.275452  0.222502  1
  O  O41  1  0.344994  0.896983  0.258377  1
  O  O42  1  0.820912  0.712887  0.156489  1
  O  O43  1  0.190797  0.838752  0.336421  1
  O  O44  1  0.651869  0.218715  0.293834  1
  O  O45  1  0.181060  0.298236  0.468972  1
  O  O46  1  0.587700  0.214977  0.361421  1
  O  O47  1  0.293033  0.774749  0.401042  1
  O  O48  1  0.868251  0.625115  0.298831  1
  O  O49  1  0.215872  0.778419  0.467846  1
  O  O50  1  0.765500  0.229301  0.411987  1
  O  O51  1  0.180359  0.312195  0.594279  1
  O  O52  1  0.673921  0.204491  0.481525  1
  O  O53  1  0.327321  0.749993  0.524403  1
  O  O54  1  0.779031  0.678549  0.418514  1
  O  O55  1  0.236185  0.810726  0.587682  1
  O  O56  1  0.760811  0.185673  0.540968  1
  O  O57  1  0.180984  0.319150  0.719344  1
  O  O58  1  0.671733  0.232918  0.605178  1
  O  O59  1  0.320054  0.749845  0.648512  1
  O  O60  1  0.813945  0.670227  0.539094  1
  O  O61  1  0.253191  0.819196  0.710277  1
  O  O62  1  0.752813  0.180908  0.665464  1
  O  O63  1  0.188402  0.321196  0.844077  1
  O  O64  1  0.682076  0.248596  0.727273  1
  O  O65  1  0.318290  0.749070  0.772192  1
  O  O66  1  0.819292  0.675975  0.658715  1
  O  O67  1  0.265749  0.827910  0.832550  1
  O  O68  1  0.748121  0.178765  0.789278  1
  O  O69  1  0.187626  0.326304  0.967657  1
  O  O70  1  0.692807  0.267829  0.849222  1
  O  O71  1  0.310080  0.737639  0.896308  1
  O  O72  1  0.824538  0.680709  0.779276  1
  O  O73  1  0.269407  0.837311  0.954957  1
  O  O74  1  0.748892  0.182243  0.912560  1
  O  O75  1  0.711188  0.295935  0.970245  1
  O  O76  1  0.816878  0.696677  0.899755  1
