# generated using pymatgen
data_CsVP2O7
_symmetry_space_group_name_H-M   'P 1'
_cell_length_a   7.84044207
_cell_length_b   8.48798950
_cell_length_c   10.20264762
_cell_angle_alpha   90.00000000
_cell_angle_beta   90.00000000
_cell_angle_gamma   104.94525948
_symmetry_Int_Tables_number   1
_chemical_formula_structural   CsVP2O7
_chemical_formula_sum   'Cs4 V4 P8 O28'
_cell_volume   656.01386099
_cell_formula_units_Z   4
loop_
 _symmetry_equiv_pos_site_id
 _symmetry_equiv_pos_as_xyz
  1  'x, y, z'
loop_
 _atom_site_type_symbol
 _atom_site_label
 _atom_site_symmetry_multiplicity
 _atom_site_fract_x
 _atom_site_fract_y
 _atom_site_fract_z
 _atom_site_occupancy
  Cs  Cs0  1  0.802036  0.459693  0.297021  1
  Cs  Cs1  1  0.802036  0.959693  0.202979  1
  Cs  Cs2  1  0.197964  0.540307  0.702979  1
  Cs  Cs3  1  0.197964  0.040307  0.797021  1
  V  V4  1  0.759179  0.741075  0.601776  1
  V  V5  1  0.759179  0.241075  0.898224  1
  V  V6  1  0.240821  0.758925  0.101776  1
  V  V7  1  0.240821  0.258925  0.398224  1
  P  P8  1  0.574671  0.817314  0.872952  1
  P  P9  1  0.131905  0.832623  0.404472  1
  P  P10  1  0.425329  0.182686  0.127048  1
  P  P11  1  0.131905  0.332623  0.095528  1
  P  P12  1  0.868095  0.667377  0.904472  1
  P  P13  1  0.425329  0.682686  0.372952  1
  P  P14  1  0.868095  0.167377  0.595528  1
  P  P15  1  0.574671  0.317314  0.627048  1
  O  O16  1  0.839783  0.984285  0.584039  1
  O  O17  1  0.160217  0.515715  0.084039  1
  O  O18  1  0.988747  0.734586  0.495367  1
  O  O19  1  0.316148  0.294942  0.049263  1
  O  O20  1  0.683852  0.705058  0.950737  1
  O  O21  1  0.683852  0.205058  0.549263  1
  O  O22  1  0.011253  0.265414  0.504633  1
  O  O23  1  0.610118  0.728993  0.433106  1
  O  O24  1  0.316148  0.794942  0.450737  1
  O  O25  1  0.563218  0.266383  0.771649  1
  O  O26  1  0.389882  0.271007  0.566894  1
  O  O27  1  0.389882  0.771007  0.933106  1
  O  O28  1  0.323179  0.506707  0.399038  1
  O  O29  1  0.905885  0.730156  0.762670  1
  O  O30  1  0.610118  0.228993  0.066894  1
  O  O31  1  0.676821  0.493293  0.600962  1
  O  O32  1  0.436782  0.733617  0.228351  1
  O  O33  1  0.676821  0.993293  0.899038  1
  O  O34  1  0.839783  0.484285  0.915961  1
  O  O35  1  0.436782  0.233617  0.271649  1
  O  O36  1  0.323179  0.006707  0.100962  1
  O  O37  1  0.905885  0.230156  0.737330  1
  O  O38  1  0.011253  0.765414  0.995367  1
  O  O39  1  0.563218  0.766383  0.728351  1
  O  O40  1  0.094115  0.269844  0.237330  1
  O  O41  1  0.094115  0.769844  0.262670  1
  O  O42  1  0.160217  0.015715  0.415961  1
  O  O43  1  0.988747  0.234586  0.004633  1
