# generated using pymatgen
data_SiO2
_symmetry_space_group_name_H-M   'P 1'
_cell_length_a   5.01441329
_cell_length_b   8.28224457
_cell_length_c   14.23310750
_cell_angle_alpha   90.00000000
_cell_angle_beta   90.00000000
_cell_angle_gamma   90.00000000
_symmetry_Int_Tables_number   1
_chemical_formula_structural   SiO2
_chemical_formula_sum   'Si12 O24'
_cell_volume   591.10945510
_cell_formula_units_Z   12
loop_
 _symmetry_equiv_pos_site_id
 _symmetry_equiv_pos_as_xyz
  1  'x, y, z'
loop_
 _atom_site_type_symbol
 _atom_site_label
 _atom_site_symmetry_multiplicity
 _atom_site_fract_x
 _atom_site_fract_y
 _atom_site_fract_z
 _atom_site_occupancy
  Si  Si0  1  0.387298  0.316048  0.199525  1
  Si  Si1  1  0.887298  0.183952  0.300475  1
  Si  Si2  1  0.112701  0.816048  0.300475  1
  Si  Si3  1  0.612702  0.683952  0.199525  1
  Si  Si4  1  0.612702  0.683952  0.800475  1
  Si  Si5  1  0.112701  0.816048  0.699525  1
  Si  Si6  1  0.887298  0.183952  0.699525  1
  Si  Si7  1  0.387298  0.316048  0.800475  1
  Si  Si8  1  0.246437  0.878678  0.500000  1
  Si  Si9  1  0.746437  0.621322  0.000000  1
  Si  Si10  1  0.253563  0.378678  0.000000  1
  Si  Si11  1  0.753563  0.121322  0.500000  1
  O  O12  1  0.136187  0.302165  0.272437  1
  O  O13  1  0.636187  0.197835  0.227563  1
  O  O14  1  0.363813  0.802165  0.227563  1
  O  O15  1  0.863813  0.697835  0.272437  1
  O  O16  1  0.863813  0.697835  0.727563  1
  O  O17  1  0.363813  0.802165  0.772437  1
  O  O18  1  0.636187  0.197835  0.772437  1
  O  O19  1  0.136187  0.302165  0.727563  1
  O  O20  1  0.273333  0.268206  0.094648  1
  O  O21  1  0.773333  0.231794  0.405352  1
  O  O22  1  0.226667  0.768206  0.405352  1
  O  O23  1  0.726667  0.731794  0.094648  1
  O  O24  1  0.726667  0.731794  0.905352  1
  O  O25  1  0.226667  0.768206  0.594648  1
  O  O26  1  0.773333  0.231794  0.594648  1
  O  O27  1  0.273333  0.268206  0.905352  1
  O  O28  1  0.500000  0.500000  0.201910  1
  O  O29  1  0.000000  0.000000  0.298090  1
  O  O30  1  0.500000  0.500000  0.798090  1
  O  O31  1  0.000000  0.000000  0.701910  1
  O  O32  1  0.000000  0.000000  0.500000  1
  O  O33  1  0.500000  0.500000  0.000000  1
  O  O34  1  0.500000  0.000000  0.500000  1
  O  O35  1  0.000000  0.500000  0.000000  1
