# generated using pymatgen
data_Sc2Te3
_symmetry_space_group_name_H-M   'P 1'
_cell_length_a   13.90035930
_cell_length_b   41.70081343
_cell_length_c   27.50227226
_cell_angle_alpha   8.42533765
_cell_angle_beta   14.88607852
_cell_angle_gamma   17.05654863
_symmetry_Int_Tables_number   1
_chemical_formula_structural   Sc2Te3
_chemical_formula_sum   'Sc8 Te12'
_cell_volume   600.06485242
_cell_formula_units_Z   4
loop_
 _symmetry_equiv_pos_site_id
 _symmetry_equiv_pos_as_xyz
  1  'x, y, z'
loop_
 _atom_site_type_symbol
 _atom_site_label
 _atom_site_symmetry_multiplicity
 _atom_site_fract_x
 _atom_site_fract_y
 _atom_site_fract_z
 _atom_site_occupancy
  Sc  Sc0  1  0.000000  0.000000  0.000000  1
  Sc  Sc1  1  0.995658  0.335127  0.999458  1
  Sc  Sc2  1  0.004342  0.664873  0.000542  1
  Sc  Sc3  1  0.415612  0.333716  0.414766  1
  Sc  Sc4  1  0.501287  0.333363  0.501168  1
  Sc  Sc5  1  0.498713  0.666637  0.498832  1
  Sc  Sc6  1  0.584388  0.666284  0.585234  1
  Sc  Sc7  1  0.500000  0.000000  0.500000  1
  Te  Te8  1  0.122393  0.002138  0.122592  1
  Te  Te9  1  0.291675  0.002242  0.288331  1
  Te  Te10  1  0.118619  0.331252  0.130675  1
  Te  Te11  1  0.291345  0.331170  0.294499  1
  Te  Te12  1  0.128442  0.666846  0.122538  1
  Te  Te13  1  0.293710  0.666784  0.290258  1
  Te  Te14  1  0.706290  0.333216  0.709742  1
  Te  Te15  1  0.871558  0.333154  0.877462  1
  Te  Te16  1  0.708655  0.668830  0.705501  1
  Te  Te17  1  0.881381  0.668748  0.869325  1
  Te  Te18  1  0.708325  0.997758  0.711669  1
  Te  Te19  1  0.877607  0.997862  0.877408  1
