# generated using pymatgen
data_Os5C15SO15
_symmetry_space_group_name_H-M   'P 1'
_cell_length_a   7.72355907
_cell_length_b   16.31478441
_cell_length_c   19.16690372
_cell_angle_alpha   90.00000000
_cell_angle_beta   90.00000000
_cell_angle_gamma   90.00000000
_symmetry_Int_Tables_number   1
_chemical_formula_structural   Os5C15SO15
_chemical_formula_sum   'Os20 C60 S4 O60'
_cell_volume   2415.18705851
_cell_formula_units_Z   4
loop_
 _symmetry_equiv_pos_site_id
 _symmetry_equiv_pos_as_xyz
  1  'x, y, z'
loop_
 _atom_site_type_symbol
 _atom_site_label
 _atom_site_symmetry_multiplicity
 _atom_site_fract_x
 _atom_site_fract_y
 _atom_site_fract_z
 _atom_site_occupancy
  Os  Os0  1  0.431422  0.158643  0.102676  1
  Os  Os1  1  0.962066  0.899869  0.341815  1
  Os  Os2  1  0.537934  0.899869  0.841815  1
  Os  Os3  1  0.442365  0.248857  0.234984  1
  Os  Os4  1  0.068578  0.158643  0.602676  1
  Os  Os5  1  0.568578  0.658643  0.897324  1
  Os  Os6  1  0.708525  0.268091  0.128097  1
  Os  Os7  1  0.557635  0.748857  0.765016  1
  Os  Os8  1  0.462066  0.399869  0.158185  1
  Os  Os9  1  0.057635  0.248857  0.734984  1
  Os  Os10  1  0.291475  0.768091  0.871903  1
  Os  Os11  1  0.072100  0.314098  0.528517  1
  Os  Os12  1  0.037934  0.399869  0.658185  1
  Os  Os13  1  0.942365  0.748857  0.265016  1
  Os  Os14  1  0.791475  0.268091  0.628097  1
  Os  Os15  1  0.427900  0.314098  0.028517  1
  Os  Os16  1  0.208525  0.768091  0.371903  1
  Os  Os17  1  0.931422  0.658643  0.397324  1
  Os  Os18  1  0.572100  0.814098  0.971483  1
  Os  Os19  1  0.927900  0.814098  0.471483  1
  C  C20  1  0.743515  0.892355  0.998858  1
  C  C21  1  0.822264  0.174742  0.166614  1
  C  C22  1  0.362410  0.737156  0.705136  1
  C  C23  1  0.756485  0.892355  0.498858  1
  C  C24  1  0.905270  0.364761  0.469879  1
  C  C25  1  0.177736  0.674742  0.833386  1
  C  C26  1  0.833680  0.652823  0.229265  1
  C  C27  1  0.780187  0.979867  0.341763  1
  C  C28  1  0.503289  0.567845  0.841825  1
  C  C29  1  0.153827  0.764530  0.954254  1
  C  C30  1  0.677736  0.174742  0.666614  1
  C  C31  1  0.094730  0.864761  0.530121  1
  C  C32  1  0.219813  0.479867  0.658237  1
  C  C33  1  0.146079  0.240537  0.457851  1
  C  C34  1  0.003289  0.067845  0.658175  1
  C  C35  1  0.996711  0.567845  0.341825  1
  C  C36  1  0.849226  0.344817  0.176731  1
  C  C37  1  0.430079  0.619642  0.971363  1
  C  C38  1  0.930079  0.119642  0.528637  1
  C  C39  1  0.243515  0.392355  0.501142  1
  C  C40  1  0.650774  0.344817  0.676731  1
  C  C41  1  0.333680  0.152823  0.270735  1
  C  C42  1  0.892753  0.468738  0.604997  1
  C  C43  1  0.594730  0.364761  0.969879  1
  C  C44  1  0.309673  0.314520  0.297579  1
  C  C45  1  0.346173  0.764530  0.454254  1
  C  C46  1  0.069921  0.619642  0.471363  1
  C  C47  1  0.279301  0.106549  0.572555  1
  C  C48  1  0.544811  0.437173  0.246144  1
  C  C49  1  0.349226  0.844817  0.323269  1
  C  C50  1  0.044811  0.937173  0.253856  1
  C  C51  1  0.190327  0.314520  0.797579  1
  C  C52  1  0.392753  0.968738  0.895003  1
  C  C53  1  0.720699  0.606549  0.427445  1
  C  C54  1  0.280187  0.479867  0.158237  1
  C  C55  1  0.166320  0.152823  0.770735  1
  C  C56  1  0.137590  0.737156  0.205136  1
  C  C57  1  0.637590  0.237156  0.294864  1
  C  C58  1  0.496711  0.067845  0.158175  1
  C  C59  1  0.646079  0.740537  0.042149  1
  C  C60  1  0.256485  0.392355  0.001142  1
  C  C61  1  0.150774  0.844817  0.823269  1
  C  C62  1  0.220699  0.106549  0.072555  1
  C  C63  1  0.455189  0.937173  0.753856  1
  C  C64  1  0.779301  0.606549  0.927445  1
  C  C65  1  0.107247  0.968738  0.395003  1
  C  C66  1  0.846173  0.264530  0.045746  1
  C  C67  1  0.653827  0.264530  0.545746  1
  C  C68  1  0.809673  0.814520  0.202421  1
  C  C69  1  0.862410  0.237156  0.794864  1
  C  C70  1  0.569921  0.119642  0.028637  1
  C  C71  1  0.853921  0.740537  0.542149  1
  C  C72  1  0.690327  0.814520  0.702421  1
  C  C73  1  0.666320  0.652823  0.729265  1
  C  C74  1  0.322264  0.674742  0.333386  1
  C  C75  1  0.607247  0.468738  0.104997  1
  C  C76  1  0.719813  0.979867  0.841763  1
  C  C77  1  0.955189  0.437173  0.746144  1
  C  C78  1  0.405270  0.864761  0.030121  1
  C  C79  1  0.353921  0.240537  0.957851  1
  S  S80  1  0.260199  0.282918  0.134184  1
  S  S81  1  0.739801  0.782918  0.865816  1
  S  S82  1  0.239801  0.282918  0.634184  1
  S  S83  1  0.760199  0.782918  0.365816  1
  O  O84  1  0.399330  0.962952  0.701977  1
  O  O85  1  0.676643  0.031450  0.342201  1
  O  O86  1  0.062785  0.758942  0.002831  1
  O  O87  1  0.234451  0.095369  0.793335  1
  O  O88  1  0.192990  0.899636  0.565158  1
  O  O89  1  0.801838  0.512305  0.573742  1
  O  O90  1  0.727030  0.855652  0.165715  1
  O  O91  1  0.937215  0.258942  0.997169  1
  O  O92  1  0.253897  0.729367  0.166979  1
  O  O93  1  0.305004  0.196407  0.914445  1
  O  O94  1  0.301838  0.012305  0.926258  1
  O  O95  1  0.652004  0.940413  0.513298  1
  O  O96  1  0.765549  0.595369  0.206665  1
  O  O97  1  0.437215  0.758942  0.502831  1
  O  O98  1  0.807010  0.399636  0.434842  1
  O  O99  1  0.265549  0.095369  0.293335  1
  O  O100  1  0.103388  0.618928  0.809902  1
  O  O101  1  0.562785  0.258942  0.497169  1
  O  O102  1  0.847996  0.940413  0.013298  1
  O  O103  1  0.823357  0.031450  0.842201  1
  O  O104  1  0.906319  0.576560  0.947040  1
  O  O105  1  0.198162  0.012305  0.426258  1
  O  O106  1  0.772970  0.855652  0.665715  1
  O  O107  1  0.396612  0.618928  0.309903  1
  O  O108  1  0.692990  0.399636  0.934842  1
  O  O109  1  0.045469  0.510248  0.312195  1
  O  O110  1  0.060072  0.888431  0.791803  1
  O  O111  1  0.954531  0.010248  0.687805  1
  O  O112  1  0.323357  0.531450  0.657799  1
  O  O113  1  0.093681  0.076560  0.052960  1
  O  O114  1  0.655743  0.093407  0.983972  1
  O  O115  1  0.307010  0.899636  0.065158  1
  O  O116  1  0.753897  0.229367  0.333021  1
  O  O117  1  0.246103  0.729367  0.666979  1
  O  O118  1  0.603388  0.118928  0.690098  1
  O  O119  1  0.194996  0.196407  0.414445  1
  O  O120  1  0.545469  0.010248  0.187805  1
  O  O121  1  0.227030  0.355652  0.334285  1
  O  O122  1  0.272970  0.355652  0.834285  1
  O  O123  1  0.896612  0.118928  0.190098  1
  O  O124  1  0.805004  0.696407  0.585555  1
  O  O125  1  0.152004  0.440413  0.986702  1
  O  O126  1  0.734451  0.595369  0.706665  1
  O  O127  1  0.454531  0.510248  0.812195  1
  O  O128  1  0.155743  0.593407  0.516028  1
  O  O129  1  0.347996  0.440413  0.486702  1
  O  O130  1  0.694996  0.696407  0.085555  1
  O  O131  1  0.939928  0.388431  0.208197  1
  O  O132  1  0.560072  0.388431  0.708197  1
  O  O133  1  0.593681  0.576560  0.447040  1
  O  O134  1  0.100670  0.962952  0.201977  1
  O  O135  1  0.344257  0.593407  0.016028  1
  O  O136  1  0.746103  0.229367  0.833021  1
  O  O137  1  0.844257  0.093407  0.483972  1
  O  O138  1  0.600670  0.462952  0.298023  1
  O  O139  1  0.406319  0.076560  0.552960  1
  O  O140  1  0.176643  0.531450  0.157799  1
  O  O141  1  0.899330  0.462952  0.798023  1
  O  O142  1  0.439928  0.888431  0.291803  1
  O  O143  1  0.698162  0.512305  0.073742  1
