# generated using pymatgen
data_K3Ta4F15
_symmetry_space_group_name_H-M   'P 1'
_cell_length_a   4.13527507
_cell_length_b   18.59592269
_cell_length_c   19.97589008
_cell_angle_alpha   90.00000000
_cell_angle_beta   90.00000000
_cell_angle_gamma   90.00000000
_symmetry_Int_Tables_number   1
_chemical_formula_structural   K3Ta4F15
_chemical_formula_sum   'K12 Ta16 F60'
_cell_volume   1536.13107517
_cell_formula_units_Z   4
loop_
 _symmetry_equiv_pos_site_id
 _symmetry_equiv_pos_as_xyz
  1  'x, y, z'
loop_
 _atom_site_type_symbol
 _atom_site_label
 _atom_site_symmetry_multiplicity
 _atom_site_fract_x
 _atom_site_fract_y
 _atom_site_fract_z
 _atom_site_occupancy
  K  K0  1  0.000000  0.860383  0.517494  1
  K  K1  1  0.500000  0.452212  0.862875  1
  K  K2  1  0.500000  0.659595  0.853587  1
  K  K3  1  0.500000  0.642609  0.536931  1
  K  K4  1  0.500000  0.139617  0.017494  1
  K  K5  1  0.000000  0.357391  0.036931  1
  K  K6  1  0.500000  0.179058  0.673653  1
  K  K7  1  0.000000  0.340405  0.353587  1
  K  K8  1  0.000000  0.547788  0.362875  1
  K  K9  1  0.000000  0.820942  0.173653  1
  K  K10  1  0.000000  0.036296  0.178250  1
  K  K11  1  0.500000  0.963704  0.678250  1
  Ta  Ta12  1  0.500000  0.243773  0.183457  1
  Ta  Ta13  1  0.000000  0.016627  0.840197  1
  Ta  Ta14  1  0.000000  0.464373  0.549714  1
  Ta  Ta15  1  0.000000  0.495142  0.704586  1
  Ta  Ta16  1  0.000000  0.964880  0.989838  1
  Ta  Ta17  1  0.500000  0.630602  0.160126  1
  Ta  Ta18  1  0.000000  0.242222  0.869090  1
  Ta  Ta19  1  0.000000  0.756227  0.683457  1
  Ta  Ta20  1  0.500000  0.757778  0.369090  1
  Ta  Ta21  1  0.000000  0.854250  0.874330  1
  Ta  Ta22  1  0.500000  0.035120  0.489838  1
  Ta  Ta23  1  0.500000  0.145750  0.374330  1
  Ta  Ta24  1  0.500000  0.983373  0.340197  1
  Ta  Ta25  1  0.000000  0.369398  0.660126  1
  Ta  Ta26  1  0.500000  0.535627  0.049714  1
  Ta  Ta27  1  0.500000  0.504858  0.204586  1
  F  F28  1  0.500000  0.865482  0.338023  1
  F  F29  1  0.000000  0.055780  0.051819  1
  F  F30  1  0.000000  0.243976  0.180276  1
  F  F31  1  0.500000  0.348489  0.671035  1
  F  F32  1  0.000000  0.352828  0.557840  1
  F  F33  1  0.000000  0.970862  0.328402  1
  F  F34  1  0.500000  0.506950  0.719883  1
  F  F35  1  0.500000  0.241928  0.870310  1
  F  F36  1  0.000000  0.251100  0.650464  1
  F  F37  1  0.500000  0.443116  0.121126  1
  F  F38  1  0.500000  0.145043  0.477214  1
  F  F39  1  0.000000  0.561960  0.498449  1
  F  F40  1  0.500000  0.572779  0.954128  1
  F  F41  1  0.000000  0.528986  0.041409  1
  F  F42  1  0.500000  0.438040  0.998449  1
  F  F43  1  0.500000  0.756024  0.680276  1
  F  F44  1  0.000000  0.027364  0.500091  1
  F  F45  1  0.500000  0.972636  0.000091  1
  F  F46  1  0.500000  0.647172  0.057840  1
  F  F47  1  0.000000  0.161453  0.366625  1
  F  F48  1  0.500000  0.471014  0.541409  1
  F  F49  1  0.000000  0.058816  0.934327  1
  F  F50  1  0.000000  0.854957  0.977214  1
  F  F51  1  0.500000  0.960399  0.239440  1
  F  F52  1  0.500000  0.656691  0.401968  1
  F  F53  1  0.000000  0.725282  0.586646  1
  F  F54  1  0.500000  0.470621  0.307304  1
  F  F55  1  0.500000  0.838547  0.866625  1
  F  F56  1  0.000000  0.660840  0.725181  1
  F  F57  1  0.000000  0.749222  0.900110  1
  F  F58  1  0.000000  0.343309  0.901968  1
  F  F59  1  0.500000  0.274718  0.086646  1
  F  F60  1  0.000000  0.860656  0.653526  1
  F  F61  1  0.500000  0.029138  0.828402  1
  F  F62  1  0.500000  0.941184  0.434327  1
  F  F63  1  0.500000  0.788681  0.466179  1
  F  F64  1  0.000000  0.399492  0.767171  1
  F  F65  1  0.000000  0.791538  0.781209  1
  F  F66  1  0.000000  0.427221  0.454128  1
  F  F67  1  0.000000  0.924660  0.083723  1
  F  F68  1  0.000000  0.493050  0.219883  1
  F  F69  1  0.000000  0.134518  0.838023  1
  F  F70  1  0.500000  0.339160  0.225181  1
  F  F71  1  0.500000  0.944220  0.551819  1
  F  F72  1  0.500000  0.080723  0.290139  1
  F  F73  1  0.500000  0.075340  0.583723  1
  F  F74  1  0.000000  0.529379  0.807304  1
  F  F75  1  0.000000  0.758072  0.370310  1
  F  F76  1  0.500000  0.208462  0.281209  1
  F  F77  1  0.000000  0.039601  0.739440  1
  F  F78  1  0.500000  0.600508  0.267171  1
  F  F79  1  0.000000  0.919277  0.790139  1
  F  F80  1  0.500000  0.748900  0.150464  1
  F  F81  1  0.000000  0.651511  0.171035  1
  F  F82  1  0.000000  0.260497  0.774556  1
  F  F83  1  0.500000  0.139344  0.153526  1
  F  F84  1  0.000000  0.556884  0.621126  1
  F  F85  1  0.500000  0.739503  0.274556  1
  F  F86  1  0.000000  0.211319  0.966179  1
  F  F87  1  0.500000  0.250778  0.400110  1
