# generated using pymatgen
data_Yb2Te4O11
_symmetry_space_group_name_H-M   'P 1'
_cell_length_a   5.25859219
_cell_length_b   6.67820906
_cell_length_c   16.37753416
_cell_angle_alpha   78.64175120
_cell_angle_beta   80.79653031
_cell_angle_gamma   66.86320662
_symmetry_Int_Tables_number   1
_chemical_formula_structural   Yb2Te4O11
_chemical_formula_sum   'Yb4 Te8 O22'
_cell_volume   516.34969790
_cell_formula_units_Z   2
loop_
 _symmetry_equiv_pos_site_id
 _symmetry_equiv_pos_as_xyz
  1  'x, y, z'
loop_
 _atom_site_type_symbol
 _atom_site_label
 _atom_site_symmetry_multiplicity
 _atom_site_fract_x
 _atom_site_fract_y
 _atom_site_fract_z
 _atom_site_occupancy
  Yb  Yb0  1  0.355051  0.798108  0.963231  1
  Yb  Yb1  1  0.885166  0.298482  0.462627  1
  Yb  Yb2  1  0.647929  0.198304  0.036811  1
  Yb  Yb3  1  0.115263  0.699820  0.537211  1
  Te  Te4  1  0.153171  0.058236  0.193964  1
  Te  Te5  1  0.406581  0.438663  0.305861  1
  Te  Te6  1  0.185663  0.373883  0.875648  1
  Te  Te7  1  0.565527  0.873694  0.375753  1
  Te  Te8  1  0.593469  0.559941  0.693808  1
  Te  Te9  1  0.435211  0.125011  0.624068  1
  Te  Te10  1  0.817800  0.622530  0.124369  1
  Te  Te11  1  0.848295  0.939041  0.806448  1
  O  O12  1  0.099381  0.358184  0.327746  1
  O  O13  1  0.832734  0.685032  0.446415  1
  O  O14  1  0.543770  0.446265  0.602387  1
  O  O15  1  0.743887  0.035275  0.547622  1
  O  O16  1  0.214607  0.860803  0.827948  1
  O  O17  1  0.902019  0.638915  0.672140  1
  O  O18  1  0.333292  0.854624  0.633933  1
  O  O19  1  0.456422  0.552305  0.397359  1
  O  O20  1  0.329580  0.463792  0.951974  1
  O  O21  1  0.788297  0.137727  0.171847  1
  O  O22  1  0.190488  0.747243  0.249783  1
  O  O23  1  0.167353  0.313537  0.553489  1
  O  O24  1  0.667232  0.143118  0.366140  1
  O  O25  1  0.407285  0.944264  0.102357  1
  O  O26  1  0.254929  0.962999  0.452236  1
  O  O27  1  0.823790  0.643950  0.866195  1
  O  O28  1  0.672749  0.533747  0.047681  1
  O  O29  1  0.807285  0.250077  0.750100  1
  O  O30  1  0.037094  0.185265  0.946622  1
  O  O31  1  0.178138  0.353482  0.133937  1
  O  O32  1  0.595189  0.052506  0.897946  1
  O  O33  1  0.967076  0.812242  0.053510  1
