# generated using pymatgen
data_K3P2H(O3F)2
_symmetry_space_group_name_H-M   'P 1'
_cell_length_a   7.17173932
_cell_length_b   7.17173977
_cell_length_c   9.44805219
_cell_angle_alpha   102.05189029
_cell_angle_beta   102.05189230
_cell_angle_gamma   111.35332624
_symmetry_Int_Tables_number   1
_chemical_formula_structural   K3P2H(O3F)2
_chemical_formula_sum   'K6 P4 H2 O12 F4'
_cell_volume   420.41715919
_cell_formula_units_Z   2
loop_
 _symmetry_equiv_pos_site_id
 _symmetry_equiv_pos_as_xyz
  1  'x, y, z'
loop_
 _atom_site_type_symbol
 _atom_site_label
 _atom_site_symmetry_multiplicity
 _atom_site_fract_x
 _atom_site_fract_y
 _atom_site_fract_z
 _atom_site_occupancy
  K  K0  1  0.148806  0.859996  0.254057  1
  K  K1  1  0.278679  0.537494  0.563317  1
  K  K2  1  0.462378  0.722866  0.940036  1
  K  K3  1  0.537494  0.278679  0.063317  1
  K  K4  1  0.722866  0.462378  0.440036  1
  K  K5  1  0.859996  0.148806  0.754057  1
  P  P6  1  0.092568  0.325346  0.182618  1
  P  P7  1  0.325346  0.092568  0.682618  1
  P  P8  1  0.676647  0.902460  0.321149  1
  P  P9  1  0.902460  0.676647  0.821149  1
  H  H10  1  0.998561  0.994650  0.501000  1
  H  H11  1  0.994650  0.998561  0.001000  1
  O  O12  1  0.066019  0.886975  0.946433  1
  O  O13  1  0.007095  0.560203  0.741063  1
  O  O14  1  0.118084  0.923740  0.558508  1
  O  O15  1  0.448611  -0.002843  0.768272  1
  O  O16  1  0.300987  0.279214  0.771449  1
  O  O17  1  0.279214  0.300987  0.271449  1
  O  O18  1  0.716653  0.697731  0.727745  1
  O  O19  1  0.697731  0.716653  0.227745  1
  O  O20  1  0.560203  0.007095  0.241063  1
  O  O21  1  0.886975  0.066019  0.446433  1
  O  O22  1  -0.002843  0.448611  0.268272  1
  O  O23  1  0.923740  0.118084  0.058508  1
  F  F24  1  0.188893  0.468429  0.075637  1
  F  F25  1  0.534741  0.805015  0.426715  1
  F  F26  1  0.468429  0.188893  0.575637  1
  F  F27  1  0.805015  0.534741  0.926715  1
