# generated using pymatgen
data_Ca10Pr4Cu24O41
_symmetry_space_group_name_H-M   'P 1'
_cell_length_a   8.55034315
_cell_length_b   8.55034301
_cell_length_c   27.96809868
_cell_angle_alpha   90.00000000
_cell_angle_beta   90.00000000
_cell_angle_gamma   97.45560084
_symmetry_Int_Tables_number   1
_chemical_formula_structural   Ca10Pr4Cu24O41
_chemical_formula_sum   'Ca20 Pr8 Cu48 O82'
_cell_volume   2027.41551324
_cell_formula_units_Z   2
loop_
 _symmetry_equiv_pos_site_id
 _symmetry_equiv_pos_as_xyz
  1  'x, y, z'
loop_
 _atom_site_type_symbol
 _atom_site_label
 _atom_site_symmetry_multiplicity
 _atom_site_fract_x
 _atom_site_fract_y
 _atom_site_fract_z
 _atom_site_occupancy
  Ca  Ca0  1  0.374150  0.132605  0.713536  1
  Ca  Ca1  1  0.140815  0.375956  0.500000  1
  Ca  Ca2  1  0.373960  0.126080  0.569639  1
  Ca  Ca3  1  0.859185  0.624044  0.500000  1
  Ca  Ca4  1  0.126080  0.373960  0.930361  1
  Ca  Ca5  1  0.867395  0.625850  0.213536  1
  Ca  Ca6  1  0.375956  0.140815  0.000000  1
  Ca  Ca7  1  0.374150  0.132605  0.286464  1
  Ca  Ca8  1  0.624044  0.859185  0.000000  1
  Ca  Ca9  1  0.626040  0.873920  0.430361  1
  Ca  Ca10  1  0.625850  0.867395  0.286464  1
  Ca  Ca11  1  0.873920  0.626040  0.930361  1
  Ca  Ca12  1  0.626040  0.873920  0.569639  1
  Ca  Ca13  1  0.126080  0.373960  0.069639  1
  Ca  Ca14  1  0.132605  0.374150  0.213536  1
  Ca  Ca15  1  0.867395  0.625850  0.786464  1
  Ca  Ca16  1  0.625850  0.867395  0.713536  1
  Ca  Ca17  1  0.373960  0.126080  0.430361  1
  Ca  Ca18  1  0.873920  0.626040  0.069639  1
  Ca  Ca19  1  0.132605  0.374150  0.786464  1
  Pr  Pr20  1  0.130505  0.360536  0.357177  1
  Pr  Pr21  1  0.360536  0.130505  0.857177  1
  Pr  Pr22  1  0.869495  0.639464  0.357177  1
  Pr  Pr23  1  0.639464  0.869495  0.142823  1
  Pr  Pr24  1  0.360536  0.130505  0.142823  1
  Pr  Pr25  1  0.639464  0.869495  0.857177  1
  Pr  Pr26  1  0.869495  0.639464  0.642823  1
  Pr  Pr27  1  0.130505  0.360536  0.642823  1
  Cu  Cu28  1  0.669092  0.168776  0.214858  1
  Cu  Cu29  1  0.669092  0.168776  0.785142  1
  Cu  Cu30  1  0.500000  0.500000  0.900144  1
  Cu  Cu31  1  0.672049  0.163917  0.500000  1
  Cu  Cu32  1  0.500000  0.500000  0.799593  1
  Cu  Cu33  1  0.327951  0.836083  0.500000  1
  Cu  Cu34  1  0.000000  0.000000  0.549529  1
  Cu  Cu35  1  0.168776  0.669092  0.285142  1
  Cu  Cu36  1  0.000000  0.000000  0.849631  1
  Cu  Cu37  1  0.831224  0.330908  0.285142  1
  Cu  Cu38  1  0.000000  0.000000  0.650369  1
  Cu  Cu39  1  0.168947  0.667049  0.570137  1
  Cu  Cu40  1  0.330908  0.831224  0.214858  1
  Cu  Cu41  1  0.500000  0.500000  0.700407  1
  Cu  Cu42  1  0.834260  0.335786  0.857092  1
  Cu  Cu43  1  0.831224  0.330908  0.714858  1
  Cu  Cu44  1  0.500000  0.500000  0.599856  1
  Cu  Cu45  1  0.000000  0.000000  0.750000  1
  Cu  Cu46  1  0.000000  0.000000  0.150369  1
  Cu  Cu47  1  0.831053  0.332950  0.429863  1
  Cu  Cu48  1  0.500000  0.500000  0.099856  1
  Cu  Cu49  1  0.332950  0.831053  0.070137  1
  Cu  Cu50  1  0.667049  0.168947  0.929863  1
  Cu  Cu51  1  0.332950  0.831053  0.929863  1
  Cu  Cu52  1  0.330908  0.831224  0.785142  1
  Cu  Cu53  1  0.163917  0.672049  0.000000  1
  Cu  Cu54  1  0.667049  0.168947  0.070137  1
  Cu  Cu55  1  0.000000  0.000000  0.349631  1
  Cu  Cu56  1  0.165740  0.664214  0.857092  1
  Cu  Cu57  1  0.500000  0.500000  0.299593  1
  Cu  Cu58  1  0.834260  0.335786  0.142908  1
  Cu  Cu59  1  0.335786  0.834260  0.642908  1
  Cu  Cu60  1  0.500000  0.500000  0.200407  1
  Cu  Cu61  1  0.000000  0.000000  0.450471  1
  Cu  Cu62  1  0.500000  0.500000  0.500000  1
  Cu  Cu63  1  0.500000  0.500000  0.000000  1
  Cu  Cu64  1  0.664214  0.165740  0.357092  1
  Cu  Cu65  1  0.500000  0.500000  0.400144  1
  Cu  Cu66  1  0.168947  0.667049  0.429863  1
  Cu  Cu67  1  0.664214  0.165740  0.642908  1
  Cu  Cu68  1  0.836083  0.327951  0.000000  1
  Cu  Cu69  1  0.168776  0.669092  0.714858  1
  Cu  Cu70  1  0.831053  0.332950  0.570137  1
  Cu  Cu71  1  0.000000  0.000000  0.250000  1
  Cu  Cu72  1  0.000000  0.000000  0.950471  1
  Cu  Cu73  1  0.335786  0.834260  0.357092  1
  Cu  Cu74  1  0.000000  0.000000  0.049529  1
  Cu  Cu75  1  0.165740  0.664214  0.142908  1
  O  O76  1  0.336967  0.841363  0.285765  1
  O  O77  1  0.338381  0.827403  0.142225  1
  O  O78  1  0.362678  0.403280  0.151341  1
  O  O79  1  0.335906  0.836919  0.428410  1
  O  O80  1  0.500000  0.000000  0.641770  1
  O  O81  1  0.158637  0.663034  0.785765  1
  O  O82  1  0.663034  0.158637  0.714235  1
  O  O83  1  0.895981  0.859864  0.300697  1
  O  O84  1  0.163081  0.664094  0.071590  1
  O  O85  1  0.102351  0.130306  0.000000  1
  O  O86  1  0.500000  0.000000  0.358230  1
  O  O87  1  0.664333  0.157837  0.000000  1
  O  O88  1  0.114642  0.121852  0.598577  1
  O  O89  1  0.403280  0.362678  0.651341  1
  O  O90  1  0.663034  0.158637  0.285765  1
  O  O91  1  0.000000  0.500000  0.709377  1
  O  O92  1  0.163081  0.664094  0.928410  1
  O  O93  1  0.617025  0.617025  0.750000  1
  O  O94  1  0.335667  0.842163  0.000000  1
  O  O95  1  0.000000  0.500000  0.290623  1
  O  O96  1  0.393116  0.370043  0.950460  1
  O  O97  1  0.370043  0.393116  0.549540  1
  O  O98  1  0.878148  0.885358  0.098577  1
  O  O99  1  0.885358  0.878148  0.401423  1
  O  O100  1  0.859864  0.895981  0.800697  1
  O  O101  1  0.382975  0.382975  0.750000  1
  O  O102  1  0.836919  0.335906  0.928410  1
  O  O103  1  0.500000  0.000000  0.790623  1
  O  O104  1  0.000000  0.500000  0.424607  1
  O  O105  1  0.172597  0.661619  0.642225  1
  O  O106  1  0.121852  0.114642  0.901423  1
  O  O107  1  0.842163  0.335667  0.500000  1
  O  O108  1  0.500000  0.000000  0.500000  1
  O  O109  1  0.596720  0.637322  0.348659  1
  O  O110  1  0.836919  0.335906  0.071590  1
  O  O111  1  0.859864  0.895981  0.199303  1
  O  O112  1  0.172597  0.661619  0.357775  1
  O  O113  1  0.664094  0.163081  0.428410  1
  O  O114  1  0.000000  0.500000  0.858230  1
  O  O115  1  0.000000  0.500000  0.141770  1
  O  O116  1  0.393116  0.370043  0.049540  1
  O  O117  1  0.336967  0.841363  0.714235  1
  O  O118  1  0.841363  0.336967  0.785765  1
  O  O119  1  0.661619  0.172597  0.142225  1
  O  O120  1  0.121852  0.114642  0.098577  1
  O  O121  1  0.000000  0.500000  0.575393  1
  O  O122  1  0.841363  0.336967  0.214235  1
  O  O123  1  0.885358  0.878148  0.598577  1
  O  O124  1  0.606884  0.629957  0.950460  1
  O  O125  1  0.157837  0.664333  0.500000  1
  O  O126  1  0.606884  0.629957  0.049540  1
  O  O127  1  0.637322  0.596720  0.151341  1
  O  O128  1  0.897649  0.869694  0.000000  1
  O  O129  1  0.370043  0.393116  0.450460  1
  O  O130  1  0.130306  0.102351  0.500000  1
  O  O131  1  0.000000  0.500000  0.000000  1
  O  O132  1  0.403280  0.362678  0.348659  1
  O  O133  1  0.500000  0.000000  0.924607  1
  O  O134  1  0.335906  0.836919  0.571590  1
  O  O135  1  0.878148  0.885358  0.901423  1
  O  O136  1  0.104019  0.140136  0.699303  1
  O  O137  1  0.596720  0.637322  0.651341  1
  O  O138  1  0.500000  0.000000  0.209377  1
  O  O139  1  0.338381  0.827403  0.857775  1
  O  O140  1  0.661619  0.172597  0.857775  1
  O  O141  1  0.114642  0.121852  0.401423  1
  O  O142  1  0.140136  0.104019  0.800697  1
  O  O143  1  0.158637  0.663034  0.214235  1
  O  O144  1  0.895981  0.859864  0.699303  1
  O  O145  1  0.382975  0.382975  0.250000  1
  O  O146  1  0.637322  0.596720  0.848659  1
  O  O147  1  0.827403  0.338381  0.642225  1
  O  O148  1  0.362678  0.403280  0.848659  1
  O  O149  1  0.869694  0.897649  0.500000  1
  O  O150  1  0.500000  0.000000  0.075393  1
  O  O151  1  0.140136  0.104019  0.199303  1
  O  O152  1  0.104019  0.140136  0.300697  1
  O  O153  1  0.617025  0.617025  0.250000  1
  O  O154  1  0.629957  0.606884  0.549540  1
  O  O155  1  0.664094  0.163081  0.571590  1
  O  O156  1  0.629957  0.606884  0.450460  1
  O  O157  1  0.827403  0.338381  0.357775  1
