# generated using pymatgen
data_Ta6Te3S
_symmetry_space_group_name_H-M   'P 1'
_cell_length_a   10.14604702
_cell_length_b   10.38022387
_cell_length_c   13.87799390
_cell_angle_alpha   79.38417887
_cell_angle_beta   81.33712815
_cell_angle_gamma   86.22956082
_symmetry_Int_Tables_number   1
_chemical_formula_structural   Ta6Te3S
_chemical_formula_sum   'Ta36 Te18 S6'
_cell_volume   1419.11362900
_cell_formula_units_Z   6
loop_
 _symmetry_equiv_pos_site_id
 _symmetry_equiv_pos_as_xyz
  1  'x, y, z'
loop_
 _atom_site_type_symbol
 _atom_site_label
 _atom_site_symmetry_multiplicity
 _atom_site_fract_x
 _atom_site_fract_y
 _atom_site_fract_z
 _atom_site_occupancy
  Ta  Ta0  1  0.235350  0.442717  0.466806  1
  Ta  Ta1  1  0.353552  0.251623  0.035862  1
  Ta  Ta2  1  0.262934  0.476023  0.661947  1
  Ta  Ta3  1  0.287912  0.720010  0.474921  1
  Ta  Ta4  1  0.364513  0.143591  0.249566  1
  Ta  Ta5  1  0.367532  0.434056  0.191754  1
  Ta  Ta6  1  0.381431  0.001604  0.462710  1
  Ta  Ta7  1  0.334409  0.214500  0.793084  1
  Ta  Ta8  1  0.429788  0.740204  0.107798  1
  Ta  Ta9  1  0.395328  0.869881  0.279395  1
  Ta  Ta10  1  0.355743  0.466005  0.853797  1
  Ta  Ta11  1  0.427605  0.233958  0.568540  1
  Ta  Ta12  1  0.500000  0.500000  0.000000  1
  Ta  Ta13  1  0.384906  0.980401  0.691764  1
  Ta  Ta14  1  0.472331  0.598547  0.311472  1
  Ta  Ta15  1  0.549757  0.010206  0.092402  1
  Ta  Ta16  1  0.400072  0.741825  0.864499  1
  Ta  Ta17  1  0.441714  0.707933  0.646058  1
  Ta  Ta18  1  0.500000  0.500000  0.500000  1
  Ta  Ta19  1  0.558286  0.292067  0.353942  1
  Ta  Ta20  1  0.599928  0.258175  0.135501  1
  Ta  Ta21  1  0.450243  0.989794  0.907598  1
  Ta  Ta22  1  0.527669  0.401453  0.688528  1
  Ta  Ta23  1  0.615094  0.019599  0.308236  1
  Ta  Ta24  1  0.572395  0.766042  0.431460  1
  Ta  Ta25  1  0.644257  0.533995  0.146203  1
  Ta  Ta26  1  0.604672  0.130119  0.720605  1
  Ta  Ta27  1  0.570212  0.259796  0.892202  1
  Ta  Ta28  1  0.665591  0.785500  0.206916  1
  Ta  Ta29  1  0.618569  0.998396  0.537290  1
  Ta  Ta30  1  0.632468  0.565944  0.808246  1
  Ta  Ta31  1  0.635487  0.856409  0.750434  1
  Ta  Ta32  1  0.712088  0.279990  0.525079  1
  Ta  Ta33  1  0.737066  0.523977  0.338053  1
  Ta  Ta34  1  0.646448  0.748377  0.964138  1
  Ta  Ta35  1  0.764650  0.557283  0.533194  1
  Te  Te36  1  0.041709  0.612465  0.574287  1
  Te  Te37  1  0.138333  0.294220  0.190840  1
  Te  Te38  1  0.151967  0.238578  0.644218  1
  Te  Te39  1  0.151175  0.968304  0.374584  1
  Te  Te40  1  0.234694  0.614026  0.032232  1
  Te  Te41  1  0.130847  0.312821  0.925817  1
  Te  Te42  1  0.201655  0.640670  0.289107  1
  Te  Te43  1  0.270096  0.982862  0.094536  1
  Te  Te44  1  0.191925  0.959642  0.858784  1
  Te  Te45  1  0.808075  0.040358  0.141216  1
  Te  Te46  1  0.729904  0.017138  0.905464  1
  Te  Te47  1  0.798345  0.359330  0.710893  1
  Te  Te48  1  0.869153  0.687179  0.074183  1
  Te  Te49  1  0.765306  0.385974  0.967768  1
  Te  Te50  1  0.848825  0.031696  0.625416  1
  Te  Te51  1  0.848033  0.761422  0.355782  1
  Te  Te52  1  0.861667  0.705780  0.809160  1
  Te  Te53  1  0.958291  0.387535  0.425713  1
  S  S54  1  0.231963  0.649719  0.769539  1
  S  S55  1  0.319886  0.239239  0.406294  1
  S  S56  1  0.247351  0.866300  0.603763  1
  S  S57  1  0.752649  0.133700  0.396237  1
  S  S58  1  0.680114  0.760761  0.593706  1
  S  S59  1  0.768037  0.350281  0.230461  1
