# generated using pymatgen
data_NaNO2
_symmetry_space_group_name_H-M   'P 1'
_cell_length_a   4.54404918
_cell_length_b   8.66523331
_cell_length_c   7.07853303
_cell_angle_alpha   35.22543604
_cell_angle_beta   54.06674114
_cell_angle_gamma   61.35474991
_symmetry_Int_Tables_number   1
_chemical_formula_structural   NaNO2
_chemical_formula_sum   'Na2 N2 O4'
_cell_volume   130.17056712
_cell_formula_units_Z   2
loop_
 _symmetry_equiv_pos_site_id
 _symmetry_equiv_pos_as_xyz
  1  'x, y, z'
loop_
 _atom_site_type_symbol
 _atom_site_label
 _atom_site_symmetry_multiplicity
 _atom_site_fract_x
 _atom_site_fract_y
 _atom_site_fract_z
 _atom_site_occupancy
  Na  Na0  1  0.349300  0.000000  0.648683  1
  Na  Na1  1  0.650700  0.500000  0.351317  1
  N  N2  1  0.784886  0.000000  0.195359  1
  N  N3  1  0.215114  0.500000  0.804641  1
  O  O4  1  0.903244  0.865097  0.725151  1
  O  O5  1  0.903244  0.134903  0.455346  1
  O  O6  1  0.096756  0.634903  0.274849  1
  O  O7  1  0.096756  0.365097  0.544654  1
