# generated using pymatgen
data_V12P7
_symmetry_space_group_name_H-M   'P 1'
_cell_length_a   9.31298390
_cell_length_b   9.31298372
_cell_length_c   3.22405960
_cell_angle_alpha   90.00000000
_cell_angle_beta   90.00000000
_cell_angle_gamma   120.00000060
_symmetry_Int_Tables_number   1
_chemical_formula_structural   V12P7
_chemical_formula_sum   'V12 P7'
_cell_volume   242.16500655
_cell_formula_units_Z   1
loop_
 _symmetry_equiv_pos_site_id
 _symmetry_equiv_pos_as_xyz
  1  'x, y, z'
loop_
 _atom_site_type_symbol
 _atom_site_label
 _atom_site_symmetry_multiplicity
 _atom_site_fract_x
 _atom_site_fract_y
 _atom_site_fract_z
 _atom_site_occupancy
  V  V0  1  0.198728  0.993351  0.250000  1
  V  V1  1  0.132349  0.621507  0.250000  1
  V  V2  1  0.006649  0.205377  0.250000  1
  V  V3  1  0.489158  0.867651  0.250000  1
  V  V4  1  0.265106  0.251724  0.750000  1
  V  V5  1  0.378493  0.510842  0.250000  1
  V  V6  1  0.794623  0.801272  0.250000  1
  V  V7  1  0.626360  0.497349  0.750000  1
  V  V8  1  0.502651  0.129011  0.750000  1
  V  V9  1  0.986617  0.734894  0.750000  1
  V  V10  1  0.870989  0.373640  0.750000  1
  V  V11  1  0.748276  0.013383  0.750000  1
  P  P12  1  0.283949  0.841267  0.750000  1
  P  P13  1  0.158733  0.442683  0.750000  1
  P  P14  1  0.557317  0.716051  0.750000  1
  P  P15  1  0.462486  0.291217  0.250000  1
  P  P16  1  0.000000  0.000000  0.750000  1
  P  P17  1  0.828731  0.537514  0.250000  1
  P  P18  1  0.708783  0.171269  0.250000  1
