# generated using pymatgen
data_O2
_symmetry_space_group_name_H-M   'P 1'
_cell_length_a   2.42938291
_cell_length_b   2.42956247
_cell_length_c   4.13369956
_cell_angle_alpha   102.74521719
_cell_angle_beta   102.78106909
_cell_angle_gamma   104.36303457
_symmetry_Int_Tables_number   1
_chemical_formula_structural   O2
_chemical_formula_sum   O2
_cell_volume   22.04842224
_cell_formula_units_Z   1
loop_
 _symmetry_equiv_pos_site_id
 _symmetry_equiv_pos_as_xyz
  1  'x, y, z'
loop_
 _atom_site_type_symbol
 _atom_site_label
 _atom_site_symmetry_multiplicity
 _atom_site_fract_x
 _atom_site_fract_y
 _atom_site_fract_z
 _atom_site_occupancy
  O  O0  1  0.902541  0.919887  0.840977  1
  O  O1  1  0.062116  0.078667  0.159651  1
