# generated using pymatgen
data_CsP4N7
_symmetry_space_group_name_H-M   'P 1'
_cell_length_a   4.75091023
_cell_length_b   12.52532431
_cell_length_c   10.07832329
_cell_angle_alpha   90.00000000
_cell_angle_beta   90.00000000
_cell_angle_gamma   90.00000000
_symmetry_Int_Tables_number   1
_chemical_formula_structural   CsP4N7
_chemical_formula_sum   'Cs4 P16 N28'
_cell_volume   599.72767383
_cell_formula_units_Z   4
loop_
 _symmetry_equiv_pos_site_id
 _symmetry_equiv_pos_as_xyz
  1  'x, y, z'
loop_
 _atom_site_type_symbol
 _atom_site_label
 _atom_site_symmetry_multiplicity
 _atom_site_fract_x
 _atom_site_fract_y
 _atom_site_fract_z
 _atom_site_occupancy
  Cs  Cs0  1  0.725417  0.250000  0.857171  1
  Cs  Cs1  1  0.225417  0.750000  0.642829  1
  Cs  Cs2  1  0.274583  0.750000  0.142829  1
  Cs  Cs3  1  0.774583  0.250000  0.357171  1
  P  P4  1  0.715277  0.629390  0.911140  1
  P  P5  1  0.784723  0.629390  0.411140  1
  P  P6  1  0.215277  0.129390  0.588860  1
  P  P7  1  0.225907  0.999330  0.842285  1
  P  P8  1  0.725907  0.499330  0.657715  1
  P  P9  1  0.225907  0.500670  0.842285  1
  P  P10  1  0.215277  0.370610  0.588860  1
  P  P11  1  0.774093  0.499330  0.157715  1
  P  P12  1  0.725907  0.000670  0.657715  1
  P  P13  1  0.715277  0.870610  0.911140  1
  P  P14  1  0.284723  0.129390  0.088860  1
  P  P15  1  0.274093  0.999330  0.342285  1
  P  P16  1  0.284723  0.370610  0.088860  1
  P  P17  1  0.274093  0.500670  0.342285  1
  P  P18  1  0.774093  0.000670  0.157715  1
  P  P19  1  0.784723  0.870610  0.411140  1
  N  N20  1  0.310513  0.096082  0.441586  1
  N  N21  1  0.689487  0.903918  0.558414  1
  N  N22  1  0.310513  0.403918  0.441586  1
  N  N23  1  0.111076  0.893255  0.380782  1
  N  N24  1  0.388924  0.893255  0.880782  1
  N  N25  1  0.611069  0.544200  0.300017  1
  N  N26  1  0.189487  0.096082  0.941586  1
  N  N27  1  0.700909  0.750000  0.378660  1
  N  N28  1  0.810513  0.596082  0.058414  1
  N  N29  1  0.611076  0.393255  0.119218  1
  N  N30  1  0.888924  0.106745  0.619218  1
  N  N31  1  0.111069  0.044200  0.199983  1
  N  N32  1  0.799091  0.750000  0.878660  1
  N  N33  1  0.689487  0.596082  0.558414  1
  N  N34  1  0.888931  0.544200  0.800017  1
  N  N35  1  0.810513  0.903918  0.058414  1
  N  N36  1  0.388931  0.044200  0.699983  1
  N  N37  1  0.200909  0.250000  0.121340  1
  N  N38  1  0.888924  0.393255  0.619218  1
  N  N39  1  0.888931  0.955800  0.800017  1
  N  N40  1  0.111076  0.606745  0.380782  1
  N  N41  1  0.299091  0.250000  0.621340  1
  N  N42  1  0.611069  0.955800  0.300017  1
  N  N43  1  0.611076  0.106745  0.119218  1
  N  N44  1  0.388931  0.455800  0.699983  1
  N  N45  1  0.189487  0.403918  0.941586  1
  N  N46  1  0.111069  0.455800  0.199983  1
  N  N47  1  0.388924  0.606745  0.880782  1
