# generated using pymatgen
data_NaEuP2O7
_symmetry_space_group_name_H-M   'P 1'
_cell_length_a   5.35532217
_cell_length_b   8.61665371
_cell_length_c   12.75289532
_cell_angle_alpha   90.00000000
_cell_angle_beta   91.37136358
_cell_angle_gamma   90.00000000
_symmetry_Int_Tables_number   1
_chemical_formula_structural   NaEuP2O7
_chemical_formula_sum   'Na4 Eu4 P8 O28'
_cell_volume   588.31324692
_cell_formula_units_Z   4
loop_
 _symmetry_equiv_pos_site_id
 _symmetry_equiv_pos_as_xyz
  1  'x, y, z'
loop_
 _atom_site_type_symbol
 _atom_site_label
 _atom_site_symmetry_multiplicity
 _atom_site_fract_x
 _atom_site_fract_y
 _atom_site_fract_z
 _atom_site_occupancy
  O  O0  1  0.247142  0.425619  0.935614  1
  O  O1  1  0.252858  0.925619  0.564386  1
  O  O2  1  0.752858  0.574381  0.064386  1
  O  O3  1  0.747142  0.074381  0.435614  1
  O  O4  1  0.489391  0.922720  0.740866  1
  O  O5  1  0.010609  0.422720  0.759134  1
  O  O6  1  0.510609  0.077280  0.259134  1
  O  O7  1  0.989391  0.577280  0.240866  1
  O  O8  1  0.192695  0.667935  0.825480  1
  O  O9  1  0.307305  0.167935  0.674520  1
  O  O10  1  0.807305  0.332065  0.174520  1
  O  O11  1  0.692695  0.832065  0.325480  1
  O  O12  1  0.491364  0.457435  0.768410  1
  O  O13  1  0.008636  0.957435  0.731590  1
  O  O14  1  0.508636  0.542565  0.231590  1
  O  O15  1  0.991364  0.042565  0.268410  1
  O  O16  1  0.544606  0.840070  0.085497  1
  O  O17  1  0.955394  0.340070  0.414503  1
  O  O18  1  0.455394  0.159930  0.914503  1
  O  O19  1  0.044606  0.659930  0.585497  1
  O  O20  1  0.225482  0.739832  0.414032  1
  O  O21  1  0.274518  0.239832  0.085968  1
  O  O22  1  0.774518  0.260168  0.585968  1
  O  O23  1  0.725482  0.760168  0.914032  1
  O  O24  1  0.014148  0.823277  0.070739  1
  O  O25  1  0.485852  0.323277  0.429261  1
  O  O26  1  0.985852  0.176723  0.929261  1
  O  O27  1  0.514148  0.676723  0.570739  1
  Na  Na28  1  0.280844  0.884542  0.921691  1
  Na  Na29  1  0.219156  0.384542  0.578309  1
  Na  Na30  1  0.719156  0.115458  0.078309  1
  Na  Na31  1  0.780844  0.615458  0.421691  1
  P  P32  1  0.238005  0.494013  0.817576  1
  P  P33  1  0.261995  0.994013  0.682424  1
  P  P34  1  0.761995  0.505987  0.182424  1
  P  P35  1  0.738005  0.005987  0.317576  1
  P  P36  1  0.237428  0.242877  0.967404  1
  P  P37  1  0.262572  0.742877  0.532596  1
  P  P38  1  0.762572  0.757123  0.032596  1
  P  P39  1  0.737428  0.257123  0.467404  1
  Eu  Eu40  1  0.771317  0.694850  0.733206  1
  Eu  Eu41  1  0.728683  0.194850  0.766794  1
  Eu  Eu42  1  0.228683  0.305150  0.266794  1
  Eu  Eu43  1  0.271317  0.805150  0.233206  1
