# generated using pymatgen
data_CaSmMnSnO6
_symmetry_space_group_name_H-M   'P 1'
_cell_length_a   5.51119789
_cell_length_b   5.85179729
_cell_length_c   7.77473514
_cell_angle_alpha   90.00000000
_cell_angle_beta   89.64382376
_cell_angle_gamma   90.00000000
_symmetry_Int_Tables_number   1
_chemical_formula_structural   CaSmMnSnO6
_chemical_formula_sum   'Ca2 Sm2 Mn2 Sn2 O12'
_cell_volume   250.73357336
_cell_formula_units_Z   2
loop_
 _symmetry_equiv_pos_site_id
 _symmetry_equiv_pos_as_xyz
  1  'x, y, z'
loop_
 _atom_site_type_symbol
 _atom_site_label
 _atom_site_symmetry_multiplicity
 _atom_site_fract_x
 _atom_site_fract_y
 _atom_site_fract_z
 _atom_site_occupancy
  Ca  Ca0  1  0.486450  0.440984  0.748090  1
  Ca  Ca1  1  0.986450  0.059016  0.248090  1
  Sm  Sm2  1  0.018440  0.928562  0.751588  1
  Sm  Sm3  1  0.518440  0.571438  0.251588  1
  Mn  Mn4  1  0.002471  0.495955  0.500244  1
  Mn  Mn5  1  0.502471  0.004045  0.000244  1
  Sn  Sn6  1  0.001845  0.490689  0.999077  1
  Sn  Sn7  1  0.501845  0.009311  0.499077  1
  O  O8  1  0.109895  0.462913  0.258305  1
  O  O9  1  0.197344  0.185664  0.558886  1
  O  O10  1  0.198890  0.185423  0.949346  1
  O  O11  1  0.292439  0.697036  0.548611  1
  O  O12  1  0.293117  0.690858  0.944604  1
  O  O13  1  0.399110  0.965648  0.241249  1
  O  O14  1  0.609895  0.037087  0.758305  1
  O  O15  1  0.697344  0.314336  0.058886  1
  O  O16  1  0.698890  0.314577  0.449346  1
  O  O17  1  0.792439  0.802964  0.048611  1
  O  O18  1  0.793117  0.809142  0.444604  1
  O  O19  1  0.899110  0.534352  0.741249  1
