# generated using pymatgen
data_KBiO3
_symmetry_space_group_name_H-M   'P 1'
_cell_length_a   8.99007991
_cell_length_b   8.75448170
_cell_length_c   26.22768654
_cell_angle_alpha   107.95279736
_cell_angle_beta   109.59581102
_cell_angle_gamma   109.95299769
_symmetry_Int_Tables_number   1
_chemical_formula_structural   KBiO3
_chemical_formula_sum   'K18 Bi18 O54'
_cell_volume   1606.24971076
_cell_formula_units_Z   18
loop_
 _symmetry_equiv_pos_site_id
 _symmetry_equiv_pos_as_xyz
  1  'x, y, z'
loop_
 _atom_site_type_symbol
 _atom_site_label
 _atom_site_symmetry_multiplicity
 _atom_site_fract_x
 _atom_site_fract_y
 _atom_site_fract_z
 _atom_site_occupancy
  K  K0  1  0.355116  0.362996  0.783219  1
  K  K1  1  0.731865  0.703410  0.903940  1
  K  K2  1  0.328710  0.017180  0.658535  1
  K  K3  1  0.232640  0.263944  0.428755  1
  K  K4  1  0.997690  0.001992  0.842851  1
  K  K5  1  0.997543  0.497744  0.999063  1
  K  K6  1  0.622943  0.617730  0.538681  1
  K  K7  1  0.315365  0.988489  0.328787  1
  K  K8  1  0.678922  0.997683  0.665314  1
  K  K9  1  0.314658  0.330778  0.108415  1
  K  K10  1  0.993659  0.411688  0.663348  1
  K  K11  1  0.702997  0.675555  0.230732  1
  K  K12  1  0.315803  0.995833  0.996922  1
  K  K13  1  0.996781  0.800466  0.687948  1
  K  K14  1  0.691268  0.996067  0.340129  1
  K  K15  1  0.001181  0.997549  0.165198  1
  K  K16  1  0.003445  0.477610  0.334361  1
  K  K17  1  0.693552  0.015868  0.007644  1
  Bi  Bi18  1  0.161198  0.661297  0.832513  1
  Bi  Bi19  1  0.342023  0.500232  0.947047  1
  Bi  Bi20  1  0.152628  0.664940  0.498547  1
  Bi  Bi21  1  0.498042  0.841050  0.778163  1
  Bi  Bi22  1  0.336628  0.496783  0.611308  1
  Bi  Bi23  1  0.497124  0.159426  0.884822  1
  Bi  Bi24  1  0.156254  0.655122  0.165270  1
  Bi  Bi25  1  0.661864  0.506085  0.719246  1
  Bi  Bi26  1  0.506202  0.841885  0.448062  1
  Bi  Bi27  1  0.340019  0.493932  0.280586  1
  Bi  Bi28  1  0.498592  0.159233  0.551120  1
  Bi  Bi29  1  0.843555  0.340569  0.832939  1
  Bi  Bi30  1  0.663071  0.502838  0.388203  1
  Bi  Bi31  1  0.499779  0.839533  0.114328  1
  Bi  Bi32  1  0.500767  0.155946  0.220782  1
  Bi  Bi33  1  0.846724  0.338709  0.501851  1
  Bi  Bi34  1  0.659906  0.499554  0.053072  1
  Bi  Bi35  1  0.842994  0.337531  0.168122  1
  O  O36  1  0.001943  0.642236  0.879379  1
  O  O37  1  0.051025  0.338697  0.905240  1
  O  O38  1  0.284870  0.951182  0.887013  1
  O  O39  1  0.381047  0.664012  0.901707  1
  O  O40  1  0.281283  0.625663  0.776036  1
  O  O41  1  0.332989  0.286948  0.873038  1
  O  O42  1  0.053819  0.329287  0.571365  1
  O  O43  1  0.335062  0.717800  0.681676  1
  O  O44  1  0.284674  0.956390  0.552321  1
  O  O45  1  0.999431  0.362680  0.453105  1
  O  O46  1  0.628317  0.992748  0.877946  1
  O  O47  1  0.362762  0.008378  0.784171  1
  O  O48  1  0.368652  0.367688  0.669751  1
  O  O49  1  0.373640  0.675596  0.572299  1
  O  O50  1  0.654220  0.278699  0.982375  1
  O  O51  1  0.293713  0.621418  0.447995  1
  O  O52  1  0.654966  0.704011  0.793232  1
  O  O53  1  0.368586  0.319825  0.542179  1
  O  O54  1  0.051301  0.328931  0.237809  1
  O  O55  1  0.710869  0.378414  0.886337  1
  O  O56  1  0.628407  0.337689  0.763049  1
  O  O57  1  0.278686  0.945613  0.218745  1
  O  O58  1  0.342045  0.713197  0.349402  1
  O  O59  1  0.641385  0.653796  0.667137  1
  O  O60  1  0.995849  0.355417  0.118758  1
  O  O61  1  0.630626  0.992728  0.548205  1
  O  O62  1  0.373067  0.009366  0.452235  1
  O  O63  1  0.364028  0.353960  0.335344  1
  O  O64  1  0.718090  0.048861  0.778294  1
  O  O65  1  0.649977  0.280088  0.650599  1
  O  O66  1  0.374370  0.659691  0.235404  1
  O  O67  1  0.661432  0.708717  0.458178  1
  O  O68  1  0.278207  0.619041  0.108670  1
  O  O69  1  0.952961  0.669747  0.760233  1
  O  O70  1  0.343774  0.290534  0.207563  1
  O  O71  1  0.734280  0.381001  0.561930  1
  O  O72  1  0.624628  0.341850  0.434351  1
  O  O73  1  0.345614  0.720141  0.015711  1
  O  O74  1  0.000638  0.362440  0.785267  1
  O  O75  1  0.627336  0.983655  0.213764  1
  O  O76  1  0.633557  0.633423  0.329515  1
  O  O77  1  0.374652  0.011423  0.120597  1
  O  O78  1  0.363593  0.356440  0.001109  1
  O  O79  1  0.003618  0.639464  0.548055  1
  O  O80  1  0.710669  0.049007  0.444890  1
  O  O81  1  0.650118  0.269554  0.318243  1
  O  O82  1  0.947653  0.656417  0.423791  1
  O  O83  1  0.654537  0.700821  0.125438  1
  O  O84  1  0.721099  0.374723  0.224609  1
  O  O85  1  0.622490  0.328930  0.096066  1
  O  O86  1  0.636251  0.638828  0.997245  1
  O  O87  1  0.997652  0.636721  0.212527  1
  O  O88  1  0.716829  0.045994  0.113467  1
  O  O89  1  0.947206  0.661269  0.093480  1
