# generated using pymatgen
data_Mn2HO4
_symmetry_space_group_name_H-M   'P 1'
_cell_length_a   9.90909562
_cell_length_b   2.96128855
_cell_length_c   4.74871858
_cell_angle_alpha   90.00000000
_cell_angle_beta   90.00000000
_cell_angle_gamma   90.00000000
_symmetry_Int_Tables_number   1
_chemical_formula_structural   Mn2HO4
_chemical_formula_sum   'Mn4 H2 O8'
_cell_volume   139.34493256
_cell_formula_units_Z   2
loop_
 _symmetry_equiv_pos_site_id
 _symmetry_equiv_pos_as_xyz
  1  'x, y, z'
loop_
 _atom_site_type_symbol
 _atom_site_label
 _atom_site_symmetry_multiplicity
 _atom_site_fract_x
 _atom_site_fract_y
 _atom_site_fract_z
 _atom_site_occupancy
  Mn  Mn0  1  0.638152  0.250000  0.472161  1
  Mn  Mn1  1  0.138152  0.250000  0.027839  1
  Mn  Mn2  1  0.359984  0.750000  0.543816  1
  Mn  Mn3  1  0.859984  0.750000  0.956184  1
  H  H4  1  0.460039  0.250000  0.952205  1
  H  H5  1  0.960039  0.250000  0.547795  1
  O  O6  1  0.457957  0.250000  0.743319  1
  O  O7  1  0.957957  0.250000  0.756681  1
  O  O8  1  0.526598  0.750000  0.309829  1
  O  O9  1  0.026598  0.750000  0.190171  1
  O  O10  1  0.783166  0.250000  0.156614  1
  O  O11  1  0.283166  0.250000  0.343386  1
  O  O12  1  0.223924  0.750000  0.834759  1
  O  O13  1  0.723924  0.750000  0.665241  1
