# generated using pymatgen
data_TaAg7S6
_symmetry_space_group_name_H-M   'P 1'
_cell_length_a   7.76273800
_cell_length_b   7.53614210
_cell_length_c   7.61987242
_cell_angle_alpha   62.09837459
_cell_angle_beta   60.06999205
_cell_angle_gamma   59.68617140
_symmetry_Int_Tables_number   1
_chemical_formula_structural   TaAg7S6
_chemical_formula_sum   'Ta1 Ag7 S6'
_cell_volume   319.28236478
_cell_formula_units_Z   1
loop_
 _symmetry_equiv_pos_site_id
 _symmetry_equiv_pos_as_xyz
  1  'x, y, z'
loop_
 _atom_site_type_symbol
 _atom_site_label
 _atom_site_symmetry_multiplicity
 _atom_site_fract_x
 _atom_site_fract_y
 _atom_site_fract_z
 _atom_site_occupancy
  Ta  Ta0  1  0.486238  0.497411  0.494590  1
  Ag  Ag1  1  0.262188  0.623390  0.116944  1
  Ag  Ag2  1  0.194503  0.259241  0.912306  1
  Ag  Ag3  1  0.718279  0.345307  0.935325  1
  Ag  Ag4  1  0.619389  0.997072  0.324398  1
  Ag  Ag5  1  0.184342  0.899825  0.698364  1
  Ag  Ag6  1  0.971182  0.121433  0.380481  1
  Ag  Ag7  1  0.017425  0.402124  0.514457  1
  S  S8  1  0.003480  0.002557  0.036343  1
  S  S9  1  0.285883  0.235507  0.221396  1
  S  S10  1  0.114041  0.634333  0.630162  1
  S  S11  1  0.600177  0.128998  0.613928  1
  S  S12  1  0.597956  0.617740  0.135286  1
  S  S13  1  0.612916  0.629062  0.614019  1
