# generated using pymatgen
data_Dy2Fe3Si5
_symmetry_space_group_name_H-M   'P 1'
_cell_length_a   5.48954130
_cell_length_b   10.38521884
_cell_length_c   10.38521884
_cell_angle_alpha   90.00000000
_cell_angle_beta   90.00000000
_cell_angle_gamma   90.00000000
_symmetry_Int_Tables_number   1
_chemical_formula_structural   Dy2Fe3Si5
_chemical_formula_sum   'Dy8 Fe12 Si20'
_cell_volume   592.06223718
_cell_formula_units_Z   4
loop_
 _symmetry_equiv_pos_site_id
 _symmetry_equiv_pos_as_xyz
  1  'x, y, z'
loop_
 _atom_site_type_symbol
 _atom_site_label
 _atom_site_symmetry_multiplicity
 _atom_site_fract_x
 _atom_site_fract_y
 _atom_site_fract_z
 _atom_site_occupancy
  Dy  Dy0  1  0.000000  0.237237  0.932235  1
  Dy  Dy1  1  0.500000  0.262763  0.432235  1
  Dy  Dy2  1  0.000000  0.067765  0.237237  1
  Dy  Dy3  1  0.000000  0.932235  0.762763  1
  Dy  Dy4  1  0.500000  0.567765  0.262763  1
  Dy  Dy5  1  0.500000  0.737237  0.567765  1
  Dy  Dy6  1  0.000000  0.762763  0.067765  1
  Dy  Dy7  1  0.500000  0.432235  0.737237  1
  Fe  Fe8  1  0.000000  0.375847  0.356728  1
  Fe  Fe9  1  0.000000  0.624153  0.643272  1
  Fe  Fe10  1  0.000000  0.356728  0.624153  1
  Fe  Fe11  1  0.500000  0.143272  0.124153  1
  Fe  Fe12  1  0.000000  0.643272  0.375847  1
  Fe  Fe13  1  0.750000  0.000000  0.500000  1
  Fe  Fe14  1  0.500000  0.875847  0.143272  1
  Fe  Fe15  1  0.500000  0.124153  0.856728  1
  Fe  Fe16  1  0.500000  0.856728  0.875847  1
  Fe  Fe17  1  0.250000  0.000000  0.500000  1
  Fe  Fe18  1  0.750000  0.500000  0.000000  1
  Fe  Fe19  1  0.250000  0.500000  0.000000  1
  Si  Si20  1  0.232666  0.500000  0.500000  1
  Si  Si21  1  0.750000  0.179608  0.679608  1
  Si  Si22  1  0.750000  0.820392  0.320392  1
  Si  Si23  1  0.000000  0.479703  0.819742  1
  Si  Si24  1  0.500000  0.020297  0.319742  1
  Si  Si25  1  0.750000  0.320392  0.179608  1
  Si  Si26  1  0.250000  0.179608  0.679608  1
  Si  Si27  1  0.000000  0.819742  0.520297  1
  Si  Si28  1  0.250000  0.820392  0.320392  1
  Si  Si29  1  0.250000  0.320392  0.179608  1
  Si  Si30  1  0.000000  0.520297  0.180258  1
  Si  Si31  1  0.000000  0.180258  0.479703  1
  Si  Si32  1  0.250000  0.679608  0.820392  1
  Si  Si33  1  0.500000  0.319742  0.979703  1
  Si  Si34  1  0.732666  0.000000  0.000000  1
  Si  Si35  1  0.767334  0.500000  0.500000  1
  Si  Si36  1  0.500000  0.680258  0.020297  1
  Si  Si37  1  0.750000  0.679608  0.820392  1
  Si  Si38  1  0.267334  0.000000  0.000000  1
  Si  Si39  1  0.500000  0.979703  0.680258  1
