# generated using pymatgen
data_K3B12H12Br
_symmetry_space_group_name_H-M   'P 1'
_cell_length_a   8.63121919
_cell_length_b   8.42390101
_cell_length_c   8.73999298
_cell_angle_alpha   91.25153135
_cell_angle_beta   119.58915006
_cell_angle_gamma   87.46480191
_symmetry_Int_Tables_number   1
_chemical_formula_structural   K3B12H12Br
_chemical_formula_sum   'K3 B12 H12 Br1'
_cell_volume   552.05833049
_cell_formula_units_Z   1
loop_
 _symmetry_equiv_pos_site_id
 _symmetry_equiv_pos_as_xyz
  1  'x, y, z'
loop_
 _atom_site_type_symbol
 _atom_site_label
 _atom_site_symmetry_multiplicity
 _atom_site_fract_x
 _atom_site_fract_y
 _atom_site_fract_z
 _atom_site_occupancy
  K  K0  1  0.500000  0.500000  0.500000  1
  K  K1  1  0.000000  0.500000  0.500000  1
  K  K2  1  0.500000  0.500000  0.000000  1
  B  B3  1  0.819964  0.609127  0.000000  1
  B  B4  1  0.085212  0.563843  0.879166  1
  B  B5  1  0.206046  0.563843  0.120834  1
  B  B6  1  0.180036  0.390873  1.000000  1
  B  B7  1  0.914788  0.436157  0.120834  1
  B  B8  1  0.793954  0.436157  0.879166  1
  B  B9  1  0.058884  0.597360  0.196348  1
  B  B10  1  0.862535  0.597360  0.803652  1
  B  B11  1  0.162030  0.204422  0.000000  1
  B  B12  1  0.941116  0.402640  0.803652  1
  B  B13  1  0.137465  0.402640  0.196348  1
  B  B14  1  0.837970  0.795578  1.000000  1
  H  H15  1  0.813677  0.322831  1.000000  1
  H  H16  1  0.166670  0.909009  0.656177  1
  H  H17  1  0.510493  0.909010  0.343823  1
  H  H18  1  0.186323  0.677169  0.000000  1
  H  H19  1  0.833330  0.090991  0.343823  1
  H  H20  1  0.489507  0.090990  0.656177  1
  H  H21  1  0.153380  0.908319  0.564508  1
  H  H22  1  0.588872  0.908319  0.435492  1
  H  H23  1  -0.020828  0.665373  0.000000  1
  H  H24  1  0.846620  0.091681  0.435492  1
  H  H25  1  0.411128  0.091681  0.564508  1
  H  H26  1  0.020828  0.334627  1.000000  1
  Br  Br27  1  0.000000  0.000000  0.000000  1
