# generated using pymatgen
data_Tm(HO)3
_symmetry_space_group_name_H-M   'P 1'
_cell_length_a   6.32432771
_cell_length_b   6.32429839
_cell_length_c   3.44360312
_cell_angle_alpha   90.00000000
_cell_angle_beta   90.00000000
_cell_angle_gamma   119.99917449
_symmetry_Int_Tables_number   1
_chemical_formula_structural   Tm(HO)3
_chemical_formula_sum   'Tm2 H6 O6'
_cell_volume   119.28176454
_cell_formula_units_Z   2
loop_
 _symmetry_equiv_pos_site_id
 _symmetry_equiv_pos_as_xyz
  1  'x, y, z'
loop_
 _atom_site_type_symbol
 _atom_site_label
 _atom_site_symmetry_multiplicity
 _atom_site_fract_x
 _atom_site_fract_y
 _atom_site_fract_z
 _atom_site_occupancy
  Tm  Tm0  1  0.333335  0.666666  0.250000  1
  Tm  Tm1  1  0.666665  0.333334  0.750000  1
  H  H2  1  0.858690  0.720922  0.250000  1
  H  H3  1  0.862225  0.141308  0.250000  1
  H  H4  1  0.279085  0.137770  0.250000  1
  H  H5  1  0.141310  0.279078  0.750000  1
  H  H6  1  0.137775  0.858692  0.750000  1
  H  H7  1  0.720915  0.862230  0.750000  1
  O  O8  1  0.912432  0.600463  0.250000  1
  O  O9  1  0.688023  0.087564  0.250000  1
  O  O10  1  0.399545  0.311981  0.250000  1
  O  O11  1  0.087568  0.399537  0.750000  1
  O  O12  1  0.311977  0.912436  0.750000  1
  O  O13  1  0.600455  0.688019  0.750000  1
