# generated using pymatgen
data_Nb32N27
_symmetry_space_group_name_H-M   'P 1'
_cell_length_a   3.12698219
_cell_length_b   3.12698230
_cell_length_c   100.53569953
_cell_angle_alpha   60.15527236
_cell_angle_beta   60.15527118
_cell_angle_gamma   60.00000061
_symmetry_Int_Tables_number   1
_chemical_formula_structural   Nb32N27
_chemical_formula_sum   'Nb32 N27'
_cell_volume   696.74108574
_cell_formula_units_Z   1
loop_
 _symmetry_equiv_pos_site_id
 _symmetry_equiv_pos_as_xyz
  1  'x, y, z'
loop_
 _atom_site_type_symbol
 _atom_site_label
 _atom_site_symmetry_multiplicity
 _atom_site_fract_x
 _atom_site_fract_y
 _atom_site_fract_z
 _atom_site_occupancy
  Nb  Nb0  1  0.504468  0.504468  0.015206  1
  Nb  Nb1  1  0.500098  0.500098  0.046866  1
  Nb  Nb2  1  0.499927  0.499927  0.078132  1
  Nb  Nb3  1  0.495184  0.495184  0.109827  1
  Nb  Nb4  1  0.498868  0.498868  0.140731  1
  Nb  Nb5  1  0.500463  0.500463  0.171832  1
  Nb  Nb6  1  0.499323  0.499323  0.203188  1
  Nb  Nb7  1  0.500677  0.500677  0.234312  1
  Nb  Nb8  1  0.499537  0.499537  0.265668  1
  Nb  Nb9  1  0.501132  0.501132  0.296769  1
  Nb  Nb10  1  0.504816  0.504816  0.327673  1
  Nb  Nb11  1  0.500073  0.500073  0.359368  1
  Nb  Nb12  1  0.499902  0.499902  0.390634  1
  Nb  Nb13  1  0.495532  0.495532  0.422294  1
  Nb  Nb14  1  0.501373  0.501373  0.452996  1
  Nb  Nb15  1  0.503583  0.503583  0.484039  1
  Nb  Nb16  1  0.502571  0.502571  0.515384  1
  Nb  Nb17  1  0.498621  0.498621  0.547004  1
  Nb  Nb18  1  0.499922  0.499922  0.578132  1
  Nb  Nb19  1  0.500883  0.500883  0.609292  1
  Nb  Nb20  1  0.499439  0.499439  0.640678  1
  Nb  Nb21  1  0.499952  0.499952  0.671879  1
  Nb  Nb22  1  0.500173  0.500173  0.703109  1
  Nb  Nb23  1  0.499827  0.499827  0.734391  1
  Nb  Nb24  1  0.500048  0.500048  0.765621  1
  Nb  Nb25  1  0.500561  0.500561  0.796822  1
  Nb  Nb26  1  0.499117  0.499117  0.828208  1
  Nb  Nb27  1  0.500078  0.500078  0.859368  1
  Nb  Nb28  1  0.501379  0.501379  0.890496  1
  Nb  Nb29  1  0.497429  0.497429  0.922116  1
  Nb  Nb30  1  0.496416  0.496416  0.953461  1
  Nb  Nb31  1  0.498627  0.498627  0.984504  1
  N  N32  1  0.005984  0.005984  0.030689  1
  N  N33  1  0.999937  0.999937  0.062506  1
  N  N34  1  0.993629  0.993629  0.094347  1
  N  N35  1  0.002755  0.002755  0.155992  1
  N  N36  1  0.996729  0.996729  0.187807  1
  N  N37  1  0.003271  0.003271  0.249693  1
  N  N38  1  0.997245  0.997245  0.281508  1
  N  N39  1  0.006371  0.006371  0.343153  1
  N  N40  1  0.000063  0.000063  0.374994  1
  N  N41  1  0.994016  0.994016  0.406811  1
  N  N42  1  0.005982  0.005982  0.468189  1
  N  N43  1  0.004362  0.004362  0.499591  1
  N  N44  1  0.999715  0.999715  0.531277  1
  N  N45  1  0.999396  0.999396  0.562557  1
  N  N46  1  0.000178  0.000178  0.593733  1
  N  N47  1  0.000109  0.000109  0.624990  1
  N  N48  1  0.999520  0.999520  0.656295  1
  N  N49  1  0.000163  0.000163  0.687485  1
  N  N50  1  0.999837  0.999837  0.750015  1
  N  N51  1  0.000000  0.000000  0.718750  1
  N  N52  1  0.000480  0.000480  0.781205  1
  N  N53  1  0.999891  0.999891  0.812510  1
  N  N54  1  0.999822  0.999822  0.843767  1
  N  N55  1  0.000604  0.000604  0.874943  1
  N  N56  1  0.000285  0.000285  0.906223  1
  N  N57  1  0.995638  0.995638  0.937909  1
  N  N58  1  0.994018  0.994018  0.969311  1
