# generated using pymatgen
data_K6U4O15
_symmetry_space_group_name_H-M   'P 1'
_cell_length_a   7.67596971
_cell_length_b   7.67596981
_cell_length_c   30.70284832
_cell_angle_alpha   109.68449304
_cell_angle_beta   109.68449330
_cell_angle_gamma   109.04689015
_symmetry_Int_Tables_number   1
_chemical_formula_structural   K6U4O15
_chemical_formula_sum   'K18 U12 O45'
_cell_volume   1392.50894677
_cell_formula_units_Z   3
loop_
 _symmetry_equiv_pos_site_id
 _symmetry_equiv_pos_as_xyz
  1  'x, y, z'
loop_
 _atom_site_type_symbol
 _atom_site_label
 _atom_site_symmetry_multiplicity
 _atom_site_fract_x
 _atom_site_fract_y
 _atom_site_fract_z
 _atom_site_occupancy
  K  K0  1  0.000128  0.999872  0.875000  1
  K  K1  1  0.010445  0.510445  0.755223  1
  K  K2  1  0.999859  0.999859  0.749930  1
  K  K3  1  0.499872  0.500128  0.875000  1
  K  K4  1  0.993824  0.011587  0.621939  1
  K  K5  1  0.991238  0.491238  0.495619  1
  K  K6  1  0.493934  0.476170  0.621939  1
  K  K7  1  0.518638  0.018638  0.759319  1
  K  K8  1  0.991201  0.008799  0.375000  1
  K  K9  1  0.991295  0.491295  0.245648  1
  K  K10  1  0.508799  0.491201  0.375000  1
  K  K11  1  0.508705  0.008705  0.504352  1
  K  K12  1  0.981362  0.481362  0.990681  1
  K  K13  1  0.988413  0.006176  0.128061  1
  K  K14  1  0.000141  0.000141  0.000070  1
  K  K15  1  0.508762  0.008762  0.254381  1
  K  K16  1  0.523830  0.506066  0.128061  1
  K  K17  1  0.489555  0.989555  0.994777  1
  U  U18  1  0.992315  0.490406  0.624302  1
  U  U19  1  0.499497  0.999497  0.875000  1
  U  U20  1  0.500205  0.500205  0.750102  1
  U  U21  1  0.993158  0.493158  0.375000  1
  U  U22  1  0.504891  0.006801  0.624302  1
  U  U23  1  0.000503  0.500503  0.875000  1
  U  U24  1  0.499841  0.499841  0.499921  1
  U  U25  1  0.506842  0.006842  0.375000  1
  U  U26  1  0.500159  0.500159  0.250079  1
  U  U27  1  0.509594  0.007685  0.125698  1
  U  U28  1  0.499795  0.499795  -0.000102  1
  U  U29  1  0.993199  0.495109  0.125698  1
  O  O30  1  0.997828  0.285105  0.820816  1
  O  O31  1  0.253045  0.502337  0.939026  1
  O  O32  1  0.250000  0.750000  0.875000  1
  O  O33  1  0.009168  0.720556  0.676830  1
  O  O34  1  0.714895  0.002172  0.929184  1
  O  O35  1  0.009129  0.296380  0.571344  1
  O  O36  1  0.497663  0.746955  0.810974  1
  O  O37  1  0.249909  0.507502  0.683693  1
  O  O38  1  0.503057  0.253766  0.939026  1
  O  O39  1  0.285436  0.998159  0.820816  1
  O  O40  1  0.010429  0.720764  0.427560  1
  O  O41  1  0.280396  0.283785  0.747359  1
  O  O42  1  0.709041  0.705652  0.747359  1
  O  O43  1  0.010524  0.300190  0.322440  1
  O  O44  1  0.750000  0.250000  0.875000  1
  O  O45  1  0.746234  0.496943  0.810974  1
  O  O46  1  0.253591  0.510453  0.435795  1
  O  O47  1  0.488163  0.745830  0.563714  1
  O  O48  1  0.484864  0.227271  0.683693  1
  O  O49  1  0.276248  0.988997  0.571344  1
  O  O50  1  0.001841  0.714564  0.929184  1
  O  O51  1  0.290776  0.290803  0.500201  1
  O  O52  1  0.013236  0.301849  0.073170  1
  O  O53  1  0.710029  0.710002  0.500201  1
  O  O54  1  0.698151  0.986764  0.676830  1
  O  O55  1  0.489547  0.746409  0.314205  1
  O  O56  1  0.747547  0.247547  0.623773  1
  O  O57  1  0.766692  0.509024  0.563714  1
  O  O58  1  0.254170  0.511837  0.186286  1
  O  O59  1  0.489591  0.232729  0.435795  1
  O  O60  1  0.279236  0.989571  0.322440  1
  O  O61  1  0.289998  0.289971  0.249799  1
  O  O62  1  0.709197  0.709224  0.249799  1
  O  O63  1  0.703620  0.990871  0.178656  1
  O  O64  1  0.699810  0.989476  0.427560  1
  O  O65  1  0.767271  0.510409  0.314205  1
  O  O66  1  0.492498  0.750091  0.066307  1
  O  O67  1  0.750000  0.250000  0.375000  1
  O  O68  1  0.490976  0.233308  0.186286  1
  O  O69  1  0.279444  0.990832  0.073170  1
  O  O70  1  0.294348  0.290959  0.002641  1
  O  O71  1  0.716215  0.719604  0.002641  1
  O  O72  1  0.772729  0.515136  0.066307  1
  O  O73  1  0.752453  0.252453  0.126227  1
  O  O74  1  0.011003  0.723752  0.178656  1
