# generated using pymatgen
data_Lu2FeS4
_symmetry_space_group_name_H-M   'P 1'
_cell_length_a   7.68211020
_cell_length_b   7.56059606
_cell_length_c   37.61642062
_cell_angle_alpha   60.07302841
_cell_angle_beta   60.40238393
_cell_angle_gamma   60.68592034
_symmetry_Int_Tables_number   1
_chemical_formula_structural   Lu2FeS4
_chemical_formula_sum   'Lu20 Fe10 S40'
_cell_volume   1558.33269831
_cell_formula_units_Z   10
loop_
 _symmetry_equiv_pos_site_id
 _symmetry_equiv_pos_as_xyz
  1  'x, y, z'
loop_
 _atom_site_type_symbol
 _atom_site_label
 _atom_site_symmetry_multiplicity
 _atom_site_fract_x
 _atom_site_fract_y
 _atom_site_fract_z
 _atom_site_occupancy
  Lu  Lu0  1  0.120258  0.632806  0.122942  1
  Lu  Lu1  1  0.630860  0.625598  0.021314  1
  Lu  Lu2  1  0.628638  0.114911  0.122925  1
  Lu  Lu3  1  0.628735  0.641734  0.122620  1
  Lu  Lu4  1  0.667156  0.113237  0.221411  1
  Lu  Lu5  1  0.115595  0.624035  0.327293  1
  Lu  Lu6  1  0.619626  0.633124  0.222848  1
  Lu  Lu7  1  0.620070  0.110766  0.328074  1
  Lu  Lu8  1  0.620004  0.628677  0.328059  1
  Lu  Lu9  1  0.123279  0.623185  0.525826  1
  Lu  Lu10  1  0.664180  0.111549  0.422604  1
  Lu  Lu11  1  0.625708  0.120934  0.526149  1
  Lu  Lu12  1  0.625697  0.621441  0.526392  1
  Lu  Lu13  1  0.621200  0.114816  0.626924  1
  Lu  Lu14  1  0.137036  0.628626  0.721464  1
  Lu  Lu15  1  0.627269  0.138139  0.722170  1
  Lu  Lu16  1  0.626655  0.126819  0.824553  1
  Lu  Lu17  1  0.113202  0.625760  0.927770  1
  Lu  Lu18  1  0.623535  0.625394  0.825062  1
  Lu  Lu19  1  0.626135  0.117577  0.928469  1
  Fe  Fe20  1  0.242834  0.254525  0.049658  1
  Fe  Fe21  1  0.209909  0.264762  0.252001  1
  Fe  Fe22  1  0.206538  0.255877  0.456185  1
  Fe  Fe23  1  0.625503  0.636683  0.420296  1
  Fe  Fe24  1  0.186288  0.252236  0.659542  1
  Fe  Fe25  1  0.055096  0.989356  0.593617  1
  Fe  Fe26  1  0.059332  0.987402  0.796376  1
  Fe  Fe27  1  0.193131  0.261491  0.853686  1
  Fe  Fe28  1  0.623767  0.627137  0.722296  1
  Fe  Fe29  1  0.628046  0.613617  0.932873  1
  S  S30  1  0.373265  0.378437  0.075147  1
  S  S31  1  0.388749  0.364097  0.176547  1
  S  S32  1  0.374829  0.871368  0.074136  1
  S  S33  1  0.869526  0.376654  0.074678  1
  S  S34  1  0.391142  0.869192  0.173834  1
  S  S35  1  0.379304  0.363815  0.275377  1
  S  S36  1  0.379389  0.365968  0.377695  1
  S  S37  1  0.379079  0.880304  0.275357  1
  S  S38  1  0.873210  0.382928  0.174900  1
  S  S39  1  0.878983  0.868246  0.076754  1
  S  S40  1  0.873526  0.868895  0.175072  1
  S  S41  1  0.846269  0.381470  0.278090  1
  S  S42  1  0.397001  0.853340  0.379264  1
  S  S43  1  0.385857  0.374211  0.473039  1
  S  S44  1  0.368712  0.371344  0.577386  1
  S  S45  1  0.385731  0.874364  0.473113  1
  S  S46  1  0.871397  0.385981  0.375916  1
  S  S47  1  0.875158  0.868045  0.277704  1
  S  S48  1  0.871572  0.863285  0.375953  1
  S  S49  1  0.840064  0.399799  0.472006  1
  S  S50  1  0.367762  0.366601  0.675322  1
  S  S51  1  0.402313  0.863566  0.574120  1
  S  S52  1  0.372316  0.378601  0.775190  1
  S  S53  1  0.367794  0.883111  0.677286  1
  S  S54  1  0.883619  0.361031  0.574220  1
  S  S55  1  0.873447  0.867076  0.478304  1
  S  S56  1  0.884990  0.883499  0.573688  1
  S  S57  1  0.835851  0.407257  0.679832  1
  S  S58  1  0.418765  0.850685  0.768925  1
  S  S59  1  0.374065  0.372626  0.874011  1
  S  S60  1  0.379337  0.388833  0.972906  1
  S  S61  1  0.878428  0.374312  0.774238  1
  S  S62  1  0.373150  0.885053  0.873269  1
  S  S63  1  0.877294  0.874527  0.673723  1
  S  S64  1  0.877430  0.877411  0.774153  1
  S  S65  1  0.834938  0.404235  0.879274  1
  S  S66  1  0.406255  0.857405  0.968390  1
  S  S67  1  0.865100  0.394190  0.969639  1
  S  S68  1  0.881228  0.881259  0.871577  1
  S  S69  1  0.872872  0.869766  0.973567  1
