# generated using pymatgen
data_TbAl9(Fe2Si3)2
_symmetry_space_group_name_H-M   'P 1'
_cell_length_a   8.66952016
_cell_length_b   8.66952016
_cell_length_c   15.18435939
_cell_angle_alpha   90.00000000
_cell_angle_beta   90.00000000
_cell_angle_gamma   90.00000000
_symmetry_Int_Tables_number   1
_chemical_formula_structural   TbAl9(Fe2Si3)2
_chemical_formula_sum   'Tb4 Al36 Fe16 Si24'
_cell_volume   1141.26525571
_cell_formula_units_Z   4
loop_
 _symmetry_equiv_pos_site_id
 _symmetry_equiv_pos_as_xyz
  1  'x, y, z'
loop_
 _atom_site_type_symbol
 _atom_site_label
 _atom_site_symmetry_multiplicity
 _atom_site_fract_x
 _atom_site_fract_y
 _atom_site_fract_z
 _atom_site_occupancy
  Al  Al0  1  0.066868  0.250000  0.339066  1
  Al  Al1  1  0.250000  0.750000  0.522963  1
  Al  Al2  1  0.750000  0.250000  0.022963  1
  Al  Al3  1  0.750000  0.250000  0.477037  1
  Al  Al4  1  0.250000  0.750000  0.977037  1
  Al  Al5  1  0.250000  0.905353  0.147399  1
  Al  Al6  1  0.250000  0.594647  0.147399  1
  Al  Al7  1  0.405353  0.750000  0.352601  1
  Al  Al8  1  0.905353  0.250000  0.647399  1
  Al  Al9  1  0.594647  0.250000  0.647399  1
  Al  Al10  1  0.750000  0.405353  0.852601  1
  Al  Al11  1  0.750000  0.094647  0.852601  1
  Al  Al12  1  0.094647  0.750000  0.352601  1
  Al  Al13  1  0.452619  0.504414  0.580797  1
  Al  Al14  1  0.047381  0.995586  0.580797  1
  Al  Al15  1  0.004414  0.952619  0.919203  1
  Al  Al16  1  0.504414  0.047381  0.080797  1
  Al  Al17  1  0.995586  0.452619  0.080797  1
  Al  Al18  1  0.547381  0.004414  0.419203  1
  Al  Al19  1  0.952619  0.495586  0.419203  1
  Al  Al20  1  0.495586  0.547381  0.919203  1
  Al  Al21  1  0.250000  0.066868  0.839066  1
  Al  Al22  1  0.250000  0.433132  0.839066  1
  Al  Al23  1  0.566868  0.750000  0.660934  1
  Al  Al24  1  0.933132  0.750000  0.660934  1
  Al  Al25  1  0.433132  0.250000  0.339066  1
  Al  Al26  1  0.750000  0.566868  0.160934  1
  Al  Al27  1  0.750000  0.933132  0.160934  1
  Al  Al28  1  0.504414  0.452619  0.080797  1
  Al  Al29  1  0.547381  0.495586  0.419203  1
  Al  Al30  1  0.452619  0.995586  0.580797  1
  Al  Al31  1  0.004414  0.547381  0.919203  1
  Al  Al32  1  0.495586  0.952619  0.919203  1
  Al  Al33  1  0.995586  0.047381  0.080797  1
  Al  Al34  1  0.952619  0.004414  0.419203  1
  Al  Al35  1  0.047381  0.504414  0.580797  1
  Si  Si36  1  0.092740  0.750000  0.806331  1
  Si  Si37  1  0.407260  0.750000  0.806331  1
  Si  Si38  1  0.907260  0.250000  0.193669  1
  Si  Si39  1  0.750000  0.092740  0.306331  1
  Si  Si40  1  0.750000  0.407260  0.306331  1
  Si  Si41  1  0.250000  0.488989  0.311468  1
  Si  Si42  1  0.011011  0.250000  0.811468  1
  Si  Si43  1  0.488989  0.250000  0.811468  1
  Si  Si44  1  0.750000  0.511011  0.688532  1
  Si  Si45  1  0.750000  0.988989  0.688532  1
  Si  Si46  1  0.250000  0.011011  0.311468  1
  Si  Si47  1  0.988989  0.750000  0.188532  1
  Si  Si48  1  0.511011  0.750000  0.188532  1
  Si  Si49  1  0.387771  0.250000  0.970230  1
  Si  Si50  1  0.250000  0.387771  0.470230  1
  Si  Si51  1  0.250000  0.112229  0.470230  1
  Si  Si52  1  0.887771  0.750000  0.029770  1
  Si  Si53  1  0.612229  0.750000  0.029770  1
  Si  Si54  1  0.112229  0.250000  0.970230  1
  Si  Si55  1  0.750000  0.887771  0.529770  1
  Si  Si56  1  0.592740  0.250000  0.193669  1
  Si  Si57  1  0.250000  0.592740  0.693669  1
  Si  Si58  1  0.250000  0.907260  0.693669  1
  Si  Si59  1  0.750000  0.612229  0.529770  1
  Fe  Fe60  1  0.005292  0.994708  0.750000  1
  Fe  Fe61  1  0.505292  0.005292  0.250000  1
  Fe  Fe62  1  0.994708  0.494708  0.250000  1
  Fe  Fe63  1  0.494708  0.505292  0.750000  1
  Fe  Fe64  1  0.994708  0.005292  0.250000  1
  Fe  Fe65  1  0.494708  0.994708  0.750000  1
  Fe  Fe66  1  0.005292  0.505292  0.750000  1
  Fe  Fe67  1  0.505292  0.494708  0.250000  1
  Fe  Fe68  1  0.527634  0.750000  0.500559  1
  Fe  Fe69  1  0.972366  0.750000  0.500559  1
  Fe  Fe70  1  0.250000  0.472366  0.999441  1
  Fe  Fe71  1  0.750000  0.972366  0.000559  1
  Fe  Fe72  1  0.750000  0.527634  0.000559  1
  Fe  Fe73  1  0.472366  0.250000  0.499441  1
  Fe  Fe74  1  0.027634  0.250000  0.499441  1
  Fe  Fe75  1  0.250000  0.027634  0.999441  1
  Tb  Tb76  1  0.750000  0.750000  0.335842  1
  Tb  Tb77  1  0.750000  0.750000  0.835842  1
  Tb  Tb78  1  0.250000  0.250000  0.664158  1
  Tb  Tb79  1  0.250000  0.250000  0.164158  1
