# generated using pymatgen
data_CdH20C2S2(NO2)6
_symmetry_space_group_name_H-M   'P 1'
_cell_length_a   7.35089099
_cell_length_b   7.40722041
_cell_length_c   11.54771237
_cell_angle_alpha   82.23769705
_cell_angle_beta   96.32133887
_cell_angle_gamma   113.59478169
_symmetry_Int_Tables_number   1
_chemical_formula_structural   CdH20C2S2(NO2)6
_chemical_formula_sum   'Cd1 H20 C2 S2 N6 O12'
_cell_volume   569.83520341
_cell_formula_units_Z   1
loop_
 _symmetry_equiv_pos_site_id
 _symmetry_equiv_pos_as_xyz
  1  'x, y, z'
loop_
 _atom_site_type_symbol
 _atom_site_label
 _atom_site_symmetry_multiplicity
 _atom_site_fract_x
 _atom_site_fract_y
 _atom_site_fract_z
 _atom_site_occupancy
  Cd  Cd0  1  0.500000  0.500000  0.500000  1
  H  H1  1  0.164657  0.342799  0.622055  1
  H  H2  1  0.835343  0.657201  0.377945  1
  H  H3  1  0.586193  0.220267  0.792887  1
  H  H4  1  0.413807  0.779733  0.207113  1
  H  H5  1  0.896204  0.256314  0.770010  1
  H  H6  1  0.103796  0.743686  0.229990  1
  H  H7  1  0.170171  0.873457  0.659558  1
  H  H8  1  0.829829  0.126543  0.340442  1
  H  H9  1  0.717742  0.278889  0.529697  1
  H  H10  1  0.282258  0.721111  0.470303  1
  H  H11  1  0.806896  0.399464  0.287228  1
  H  H12  1  0.193104  0.600536  0.712772  1
  H  H13  1  0.447777  0.846788  0.255036  1
  H  H14  1  0.552223  0.153212  0.744964  1
  H  H15  1  0.860208  0.424648  0.346480  1
  H  H16  1  0.139792  0.575352  0.653520  1
  H  H17  1  0.760017  0.494866  0.084335  1
  H  H18  1  0.239983  0.505134  0.915665  1
  H  H19  1  0.630354  0.847713  0.982899  1
  H  H20  1  0.369646  0.152287  0.017101  1
  C  C21  1  0.643389  0.367638  0.047026  1
  C  C22  1  0.356611  0.632362  0.952974  1
  S  S23  1  0.915239  0.922452  0.256483  1
  S  S24  1  0.084761  0.077548  0.743517  1
  N  N25  1  0.526077  0.742276  0.934961  1
  N  N26  1  0.473923  0.257724  0.065039  1
  N  N27  1  0.776764  0.732032  0.802105  1
  N  N28  1  0.223236  0.267968  0.197895  1
  N  N29  1  0.748439  0.428183  0.506339  1
  N  N30  1  0.251561  0.571817  0.493661  1
  O  O31  1  0.052954  0.061048  0.461170  1
  O  O32  1  0.947046  0.938952  0.538830  1
  O  O33  1  0.696842  0.617370  0.733773  1
  O  O34  1  0.303158  0.382630  0.266227  1
  O  O35  1  0.857462  0.879068  0.134181  1
  O  O36  1  0.142538  0.120932  0.865819  1
  O  O37  1  0.780282  0.066924  0.266114  1
  O  O38  1  0.219718  0.933076  0.733886  1
  O  O39  1  0.763851  0.742495  0.342054  1
  O  O40  1  0.236149  0.257505  0.657946  1
  O  O41  1  0.105849  0.818177  0.294243  1
  O  O42  1  0.894151  0.181823  0.705757  1
