# generated using pymatgen
data_BH6N
_symmetry_space_group_name_H-M   'P 1'
_cell_length_a   4.30568774
_cell_length_b   4.43995601
_cell_length_c   13.12107015
_cell_angle_alpha   112.58778115
_cell_angle_beta   101.58181489
_cell_angle_gamma   109.27519037
_symmetry_Int_Tables_number   1
_chemical_formula_structural   BH6N
_chemical_formula_sum   'B3 H18 N3'
_cell_volume   202.58501745
_cell_formula_units_Z   3
loop_
 _symmetry_equiv_pos_site_id
 _symmetry_equiv_pos_as_xyz
  1  'x, y, z'
loop_
 _atom_site_type_symbol
 _atom_site_label
 _atom_site_symmetry_multiplicity
 _atom_site_fract_x
 _atom_site_fract_y
 _atom_site_fract_z
 _atom_site_occupancy
  B  B0  1  0.057930  0.904919  0.644510  1
  B  B1  1  0.066041  0.923278  0.321555  1
  B  B2  1  0.019947  0.942728  0.983866  1
  H  H3  1  0.158934  0.777134  0.926823  1
  H  H4  1  0.622193  0.416241  0.952445  1
  H  H5  1  0.330316  0.117956  0.733615  1
  H  H6  1  0.113932  0.694734  0.566172  1
  H  H7  1  0.627344  0.800059  0.712387  1
  H  H8  1  0.891552  0.628571  0.747254  1
  H  H9  1  0.593897  0.419543  0.611654  1
  H  H10  1  0.313591  0.155018  0.416149  1
  H  H11  1  0.239705  0.219354  0.075837  1
  H  H12  1  0.840537  0.018804  0.922664  1
  H  H13  1  0.165701  0.736820  0.252626  1
  H  H14  1  0.628773  0.790746  0.383881  1
  H  H15  1  0.871334  0.585840  0.404520  1
  H  H16  1  0.587277  0.429116  0.269968  1
  H  H17  1  0.935130  0.071735  0.608016  1
  H  H18  1  0.572366  0.763964  0.038363  1
  H  H19  1  0.890655  0.676471  0.092919  1
  H  H20  1  0.928411  0.066753  0.277423  1
  N  N21  1  0.774454  0.671992  0.681302  1
  N  N22  1  0.769721  0.663466  0.346761  1
  N  N23  1  0.761120  0.682410  0.019545  1
