# generated using pymatgen
data_SiO2
_symmetry_space_group_name_H-M   'P 1'
_cell_length_a   22.50310788
_cell_length_b   13.69639430
_cell_length_c   7.03370501
_cell_angle_alpha   90.00000000
_cell_angle_beta   90.00000000
_cell_angle_gamma   90.00000000
_symmetry_Int_Tables_number   1
_chemical_formula_structural   SiO2
_chemical_formula_sum   'Si32 O64'
_cell_volume   2167.86833912
_cell_formula_units_Z   32
loop_
 _symmetry_equiv_pos_site_id
 _symmetry_equiv_pos_as_xyz
  1  'x, y, z'
loop_
 _atom_site_type_symbol
 _atom_site_label
 _atom_site_symmetry_multiplicity
 _atom_site_fract_x
 _atom_site_fract_y
 _atom_site_fract_z
 _atom_site_occupancy
  Si  Si0  1  0.088756  0.137352  0.441709  1
  Si  Si1  1  0.588756  0.862648  0.558291  1
  Si  Si2  1  0.911244  0.637352  0.558291  1
  Si  Si3  1  0.411244  0.362648  0.441709  1
  Si  Si4  1  0.911244  0.862648  0.558291  1
  Si  Si5  1  0.411244  0.137352  0.441709  1
  Si  Si6  1  0.088756  0.362648  0.441709  1
  Si  Si7  1  0.588756  0.637352  0.558291  1
  Si  Si8  1  0.180970  0.135850  0.109633  1
  Si  Si9  1  0.680970  0.864150  0.890367  1
  Si  Si10  1  0.819030  0.635850  0.890367  1
  Si  Si11  1  0.319030  0.364150  0.109633  1
  Si  Si12  1  0.819030  0.864150  0.890367  1
  Si  Si13  1  0.319030  0.135850  0.109633  1
  Si  Si14  1  0.180970  0.364150  0.109633  1
  Si  Si15  1  0.680970  0.635850  0.890367  1
  Si  Si16  1  0.992434  0.137134  0.121819  1
  Si  Si17  1  0.492434  0.862866  0.878181  1
  Si  Si18  1  0.007566  0.637134  0.878181  1
  Si  Si19  1  0.507566  0.362866  0.121819  1
  Si  Si20  1  0.007566  0.862866  0.878181  1
  Si  Si21  1  0.507566  0.137134  0.121819  1
  Si  Si22  1  0.992434  0.362866  0.121819  1
  Si  Si23  1  0.492434  0.637134  0.878181  1
  Si  Si24  1  0.084523  0.047091  0.849319  1
  Si  Si25  1  0.584523  0.952909  0.150681  1
  Si  Si26  1  0.915477  0.547091  0.150681  1
  Si  Si27  1  0.415477  0.452909  0.849319  1
  Si  Si28  1  0.915477  0.952909  0.150681  1
  Si  Si29  1  0.415477  0.047091  0.849319  1
  Si  Si30  1  0.084523  0.452909  0.849319  1
  Si  Si31  1  0.584523  0.547091  0.150681  1
  O  O32  1  0.148990  0.123036  0.315938  1
  O  O33  1  0.648990  0.876964  0.684062  1
  O  O34  1  0.851010  0.623036  0.684062  1
  O  O35  1  0.351010  0.376964  0.315938  1
  O  O36  1  0.851010  0.876964  0.684062  1
  O  O37  1  0.351010  0.123036  0.315938  1
  O  O38  1  0.148990  0.376964  0.315938  1
  O  O39  1  0.648990  0.623036  0.684062  1
  O  O40  1  0.030621  0.111379  0.312924  1
  O  O41  1  0.530621  0.888621  0.687076  1
  O  O42  1  0.969379  0.611379  0.687076  1
  O  O43  1  0.469379  0.388621  0.312924  1
  O  O44  1  0.969379  0.888621  0.687076  1
  O  O45  1  0.469379  0.111379  0.312924  1
  O  O46  1  0.030621  0.388621  0.312924  1
  O  O47  1  0.530621  0.611379  0.687076  1
  O  O48  1  0.090972  0.064429  0.621807  1
  O  O49  1  0.590972  0.935571  0.378193  1
  O  O50  1  0.909028  0.564429  0.378193  1
  O  O51  1  0.409028  0.435571  0.621807  1
  O  O52  1  0.909028  0.935571  0.378193  1
  O  O53  1  0.409028  0.064429  0.621807  1
  O  O54  1  0.090972  0.435571  0.621807  1
  O  O55  1  0.590972  0.564429  0.378193  1
  O  O56  1  0.084527  0.250000  0.515936  1
  O  O57  1  0.584527  0.750000  0.484064  1
  O  O58  1  0.915473  0.750000  0.484064  1
  O  O59  1  0.415473  0.250000  0.515936  1
  O  O60  1  0.148109  0.067784  0.952561  1
  O  O61  1  0.648109  0.932216  0.047439  1
  O  O62  1  0.851891  0.567784  0.047439  1
  O  O63  1  0.351891  0.432216  0.952561  1
  O  O64  1  0.851891  0.932216  0.047439  1
  O  O65  1  0.351891  0.067784  0.952561  1
  O  O66  1  0.148109  0.432216  0.952561  1
  O  O67  1  0.648109  0.567784  0.047439  1
  O  O68  1  0.177197  0.250000  0.042226  1
  O  O69  1  0.677197  0.750000  0.957774  1
  O  O70  1  0.822803  0.750000  0.957774  1
  O  O71  1  0.322803  0.250000  0.042226  1
  O  O72  1  0.250000  0.102414  0.127483  1
  O  O73  1  0.750000  0.897586  0.872517  1
  O  O74  1  0.750000  0.602414  0.872517  1
  O  O75  1  0.250000  0.397586  0.127483  1
  O  O76  1  0.970124  0.250000  0.127487  1
  O  O77  1  0.470124  0.750000  0.872513  1
  O  O78  1  0.029876  0.750000  0.872513  1
  O  O79  1  0.529876  0.250000  0.127487  1
  O  O80  1  0.034044  0.121231  0.934163  1
  O  O81  1  0.534044  0.878769  0.065837  1
  O  O82  1  0.965956  0.621231  0.065837  1
  O  O83  1  0.465956  0.378769  0.934163  1
  O  O84  1  0.965956  0.878769  0.065837  1
  O  O85  1  0.465956  0.121231  0.934163  1
  O  O86  1  0.034044  0.378769  0.934163  1
  O  O87  1  0.534044  0.621231  0.065837  1
  O  O88  1  0.934815  0.065918  0.111220  1
  O  O89  1  0.434815  0.934082  0.888780  1
  O  O90  1  0.065185  0.565918  0.888780  1
  O  O91  1  0.565185  0.434082  0.111220  1
  O  O92  1  0.065185  0.934082  0.888780  1
  O  O93  1  0.565185  0.065918  0.111220  1
  O  O94  1  0.934815  0.434082  0.111220  1
  O  O95  1  0.434815  0.565918  0.888780  1
