# generated using pymatgen
data_Fe4H14O13
_symmetry_space_group_name_H-M   'P 1'
_cell_length_a   6.71244064
_cell_length_b   6.75158357
_cell_length_c   6.75312286
_cell_angle_alpha   108.18254684
_cell_angle_beta   110.26324081
_cell_angle_gamma   110.80895636
_symmetry_Int_Tables_number   1
_chemical_formula_structural   Fe4H14O13
_chemical_formula_sum   'Fe4 H14 O13'
_cell_volume   233.01754848
_cell_formula_units_Z   1
loop_
 _symmetry_equiv_pos_site_id
 _symmetry_equiv_pos_as_xyz
  1  'x, y, z'
loop_
 _atom_site_type_symbol
 _atom_site_label
 _atom_site_symmetry_multiplicity
 _atom_site_fract_x
 _atom_site_fract_y
 _atom_site_fract_z
 _atom_site_occupancy
  Fe  Fe0  1  0.000000  0.000000  0.500000  1
  Fe  Fe1  1  0.000000  0.500000  0.000000  1
  Fe  Fe2  1  0.500000  0.000000  0.000000  1
  Fe  Fe3  1  0.500000  0.500000  0.500000  1
  H  H4  1  0.739286  0.181643  0.555072  1
  H  H5  1  0.260714  0.818357  0.444928  1
  H  H6  1  0.618493  0.942496  0.681221  1
  H  H7  1  0.381507  0.057504  0.318779  1
  H  H8  1  0.542056  0.675066  0.232796  1
  H  H9  1  0.262346  0.549672  0.833258  1
  H  H10  1  0.737654  0.450328  0.166742  1
  H  H11  1  0.457944  0.324934  0.767204  1
  H  H12  1  0.187513  0.139238  0.947693  1
  H  H13  1  0.952067  0.758353  0.802235  1
  H  H14  1  0.812487  0.860762  0.052307  1
  H  H15  1  0.047933  0.241647  0.197765  1
  H  H16  1  0.832846  0.393131  0.455598  1
  H  H17  1  0.167154  0.606869  0.544402  1
  O  O18  1  0.863533  0.179813  0.686995  1
  O  O19  1  0.136467  0.820187  0.313005  1
  O  O20  1  0.481346  0.816246  0.680926  1
  O  O21  1  0.518654  0.183754  0.319074  1
  O  O22  1  0.674826  0.686612  0.370707  1
  O  O23  1  0.309648  0.677947  0.991482  1
  O  O24  1  0.690352  0.322053  0.008518  1
  O  O25  1  0.325174  0.313388  0.629293  1
  O  O26  1  0.178883  0.005589  0.820942  1
  O  O27  1  0.820109  0.636152  0.810347  1
  O  O28  1  0.821117  0.994411  0.179058  1
  O  O29  1  0.179891  0.363848  0.189653  1
  O  O30  1  0.000000  0.500000  0.500000  1
