# generated using pymatgen
data_Fe4H14O13
_symmetry_space_group_name_H-M   'P 1'
_cell_length_a   6.76098300
_cell_length_b   6.73278343
_cell_length_c   6.69491234
_cell_angle_alpha   109.57336762
_cell_angle_beta   109.24524677
_cell_angle_gamma   109.63867409
_symmetry_Int_Tables_number   1
_chemical_formula_structural   Fe4H14O13
_chemical_formula_sum   'Fe4 H14 O13'
_cell_volume   234.47094725
_cell_formula_units_Z   1
loop_
 _symmetry_equiv_pos_site_id
 _symmetry_equiv_pos_as_xyz
  1  'x, y, z'
loop_
 _atom_site_type_symbol
 _atom_site_label
 _atom_site_symmetry_multiplicity
 _atom_site_fract_x
 _atom_site_fract_y
 _atom_site_fract_z
 _atom_site_occupancy
  Fe  Fe0  1  0.008577  0.006022  0.508546  1
  Fe  Fe1  1  0.998716  0.502427  0.004657  1
  Fe  Fe2  1  0.493698  0.999493  0.998244  1
  Fe  Fe3  1  0.499600  0.498837  0.507236  1
  H  H4  1  0.736503  0.183344  0.547151  1
  H  H5  1  0.258515  0.810738  0.458482  1
  H  H6  1  0.633059  0.945979  0.686698  1
  H  H7  1  0.364336  0.046034  0.318544  1
  H  H8  1  0.578152  0.664475  0.238155  1
  H  H9  1  0.576559  0.352058  0.928292  1
  H  H10  1  0.312193  0.453948  0.765227  1
  H  H11  1  0.192317  0.149481  0.951700  1
  H  H12  1  0.944178  0.767756  0.824526  1
  H  H13  1  0.811629  0.868539  0.057771  1
  H  H14  1  0.062947  0.241854  0.180079  1
  H  H15  1  0.932802  0.333505  0.390217  1
  H  H16  1  0.870549  0.541685  0.410117  1
  H  H17  1  0.150269  0.605564  0.759717  1
  O  O18  1  0.867455  0.187355  0.677180  1
  O  O19  1  0.143844  0.823028  0.328129  1
  O  O20  1  0.497619  0.818651  0.680274  1
  O  O21  1  0.497513  0.175227  0.323266  1
  O  O22  1  0.697826  0.684597  0.387304  1
  O  O23  1  0.270328  0.668975  0.940560  1
  O  O24  1  0.694859  0.309661  0.006863  1
  O  O25  1  0.311395  0.326071  0.633854  1
  O  O26  1  0.183088  0.010091  0.822857  1
  O  O27  1  0.816560  0.644314  0.829495  1
  O  O28  1  0.810705  0.997185  0.188328  1
  O  O29  1  0.189340  0.368541  0.177232  1
  O  O30  1  0.995745  0.507696  0.492183  1
