# generated using pymatgen
data_Mo3(HO5)2
_symmetry_space_group_name_H-M   'P 1'
_cell_length_a   10.80089399
_cell_length_b   10.68315157
_cell_length_c   3.89716001
_cell_angle_alpha   90.03993681
_cell_angle_beta   90.97198755
_cell_angle_gamma   119.63109528
_symmetry_Int_Tables_number   1
_chemical_formula_structural   Mo3(HO5)2
_chemical_formula_sum   'Mo6 H4 O20'
_cell_volume   390.79966651
_cell_formula_units_Z   2
loop_
 _symmetry_equiv_pos_site_id
 _symmetry_equiv_pos_as_xyz
  1  'x, y, z'
loop_
 _atom_site_type_symbol
 _atom_site_label
 _atom_site_symmetry_multiplicity
 _atom_site_fract_x
 _atom_site_fract_y
 _atom_site_fract_z
 _atom_site_occupancy
  Mo  Mo0  1  0.537559  0.894087  0.750964  1
  Mo  Mo1  1  0.358914  0.466099  0.747018  1
  Mo  Mo2  1  0.105992  0.642397  0.752542  1
  Mo  Mo3  1  0.462441  0.105913  0.249036  1
  Mo  Mo4  1  0.641086  0.533901  0.252982  1
  Mo  Mo5  1  0.894008  0.357603  0.247458  1
  H  H6  1  0.922057  0.907944  0.710213  1
  H  H7  1  0.082711  0.992800  0.789977  1
  H  H8  1  0.917289  0.007200  0.210023  1
  H  H9  1  0.077943  0.092056  0.289787  1
  O  O10  1  0.497334  0.076104  0.748951  1
  O  O11  1  0.580944  0.503351  0.752985  1
  O  O12  1  0.922948  0.419203  0.748392  1
  O  O13  1  0.502666  0.923896  0.251049  1
  O  O14  1  0.419056  0.496649  0.247015  1
  O  O15  1  0.077052  0.580797  0.251608  1
  O  O16  1  0.721142  0.988344  0.763407  1
  O  O17  1  0.272302  0.280600  0.737334  1
  O  O18  1  0.010942  0.732312  0.748853  1
  O  O19  1  0.278858  0.011656  0.236593  1
  O  O20  1  0.727698  0.719400  0.262666  1
  O  O21  1  0.989058  0.267688  0.251147  1
  O  O22  1  0.283393  0.783018  0.752858  1
  O  O23  1  0.494094  0.710399  0.748800  1
  O  O24  1  0.215473  0.500666  0.748181  1
  O  O25  1  0.716607  0.216982  0.247142  1
  O  O26  1  0.505906  0.289602  0.251200  1
  O  O27  1  0.784527  0.499334  0.251819  1
  O  O28  1  0.000288  0.006658  0.750127  1
  O  O29  1  0.999712  0.993342  0.249873  1
