# generated using pymatgen
data_Ru(CO)4
_symmetry_space_group_name_H-M   'P 1'
_cell_length_a   8.23148925
_cell_length_b   14.75046663
_cell_length_c   15.05497937
_cell_angle_alpha   90.00000000
_cell_angle_beta   90.00000000
_cell_angle_gamma   101.04732993
_symmetry_Int_Tables_number   1
_chemical_formula_structural   Ru(CO)4
_chemical_formula_sum   'Ru12 C48 O48'
_cell_volume   1794.07678741
_cell_formula_units_Z   12
loop_
 _symmetry_equiv_pos_site_id
 _symmetry_equiv_pos_as_xyz
  1  'x, y, z'
loop_
 _atom_site_type_symbol
 _atom_site_label
 _atom_site_symmetry_multiplicity
 _atom_site_fract_x
 _atom_site_fract_y
 _atom_site_fract_z
 _atom_site_occupancy
  Ru  Ru0  1  0.440465  0.221647  0.474649  1
  Ru  Ru1  1  0.197443  0.840319  0.919264  1
  Ru  Ru2  1  0.940465  0.721647  0.025351  1
  Ru  Ru3  1  0.059535  0.278353  0.974649  1
  Ru  Ru4  1  0.697443  0.340319  0.580736  1
  Ru  Ru5  1  0.061296  0.295637  0.168459  1
  Ru  Ru6  1  0.302557  0.659681  0.419264  1
  Ru  Ru7  1  0.802557  0.159681  0.080736  1
  Ru  Ru8  1  0.559535  0.778353  0.525351  1
  Ru  Ru9  1  0.561296  0.795637  0.331541  1
  Ru  Ru10  1  0.938704  0.704363  0.831541  1
  Ru  Ru11  1  0.438704  0.204363  0.668459  1
  C  C12  1  0.085171  0.615409  0.841912  1
  C  C13  1  0.748920  0.606046  0.817978  1
  C  C14  1  0.304013  0.314981  0.486747  1
  C  C15  1  0.253002  0.371593  0.950577  1
  C  C16  1  0.306388  0.906016  0.019737  1
  C  C17  1  0.804013  0.814981  0.013253  1
  C  C18  1  0.200229  0.202582  0.174933  1
  C  C19  1  0.518870  0.235005  0.785500  1
  C  C20  1  0.018689  0.767953  0.139307  1
  C  C21  1  0.418039  0.869999  0.529802  1
  C  C22  1  0.248920  0.106046  0.682022  1
  C  C23  1  0.666255  0.254083  0.072055  1
  C  C24  1  0.414829  0.884591  0.341912  1
  C  C25  1  0.447333  0.571064  0.404290  1
  C  C26  1  0.746998  0.628407  0.049423  1
  C  C27  1  0.481130  0.764995  0.214500  1
  C  C28  1  0.981311  0.232047  0.860693  1
  C  C29  1  0.481311  0.732047  0.639307  1
  C  C30  1  0.195987  0.185019  0.986747  1
  C  C31  1  0.700229  0.702582  0.325067  1
  C  C32  1  0.806388  0.406016  0.480263  1
  C  C33  1  0.081961  0.630001  0.029802  1
  C  C34  1  0.581961  0.130001  0.470198  1
  C  C35  1  0.251080  0.393954  0.182022  1
  C  C36  1  0.176683  0.607739  0.318161  1
  C  C37  1  0.166255  0.754083  0.427945  1
  C  C38  1  0.246998  0.128407  0.450577  1
  C  C39  1  0.323317  0.892261  0.818161  1
  C  C40  1  0.193612  0.593984  0.519737  1
  C  C41  1  0.018870  0.735005  0.714500  1
  C  C42  1  0.914829  0.384591  0.158088  1
  C  C43  1  0.299771  0.297418  0.674933  1
  C  C44  1  0.947333  0.071064  0.095710  1
  C  C45  1  0.695987  0.685019  0.513253  1
  C  C46  1  0.833745  0.245917  0.572055  1
  C  C47  1  0.799771  0.797418  0.825067  1
  C  C48  1  0.052667  0.928936  0.904290  1
  C  C49  1  0.333745  0.745917  0.927945  1
  C  C50  1  0.518689  0.267953  0.360693  1
  C  C51  1  0.981130  0.264995  0.285500  1
  C  C52  1  0.918039  0.369999  0.970198  1
  C  C53  1  0.823317  0.392261  0.681839  1
  C  C54  1  0.552667  0.428936  0.595710  1
  C  C55  1  0.751080  0.893954  0.317978  1
  C  C56  1  0.693612  0.093984  0.980263  1
  C  C57  1  0.753002  0.871593  0.549423  1
  C  C58  1  0.585171  0.115409  0.658088  1
  C  C59  1  0.676683  0.107739  0.181839  1
  O  O60  1  0.286973  0.150628  0.187959  1
  O  O61  1  0.716557  0.868099  0.015103  1
  O  O62  1  0.070626  0.802305  0.431879  1
  O  O63  1  0.213027  0.349372  0.687959  1
  O  O64  1  0.871840  0.924735  0.565668  1
  O  O65  1  0.603605  0.076767  0.244177  1
  O  O66  1  0.016677  0.010281  0.105832  1
  O  O67  1  0.128160  0.075265  0.434332  1
  O  O68  1  0.126485  0.554803  0.580326  1
  O  O69  1  0.216557  0.368099  0.484897  1
  O  O70  1  0.068945  0.756487  0.644008  1
  O  O71  1  0.396395  0.923233  0.755823  1
  O  O72  1  0.873515  0.445197  0.419674  1
  O  O73  1  0.166235  0.559769  0.837156  1
  O  O74  1  0.068768  0.795975  0.208149  1
  O  O75  1  0.103605  0.576767  0.255823  1
  O  O76  1  0.636034  0.546964  0.806509  1
  O  O77  1  0.931232  0.204025  0.791851  1
  O  O78  1  0.283443  0.131901  0.984897  1
  O  O79  1  0.863966  0.953036  0.306509  1
  O  O80  1  0.713027  0.849372  0.812041  1
  O  O81  1  0.429374  0.697695  0.931879  1
  O  O82  1  0.333765  0.940231  0.337156  1
  O  O83  1  0.516677  0.510281  0.394168  1
  O  O84  1  0.136034  0.046964  0.693491  1
  O  O85  1  0.342334  0.927443  0.541555  1
  O  O86  1  0.628160  0.575265  0.065668  1
  O  O87  1  0.833765  0.440231  0.162844  1
  O  O88  1  0.568768  0.295975  0.291851  1
  O  O89  1  0.431232  0.704025  0.708149  1
  O  O90  1  0.157666  0.572557  0.041555  1
  O  O91  1  0.786973  0.650628  0.312041  1
  O  O92  1  0.568945  0.256487  0.855992  1
  O  O93  1  0.570626  0.302305  0.068121  1
  O  O94  1  0.929374  0.197695  0.568121  1
  O  O95  1  0.783443  0.631901  0.515103  1
  O  O96  1  0.431055  0.743513  0.144008  1
  O  O97  1  0.666235  0.059769  0.662844  1
  O  O98  1  0.896395  0.423233  0.744177  1
  O  O99  1  0.373515  0.945197  0.080326  1
  O  O100  1  0.363966  0.453036  0.193491  1
  O  O101  1  0.626485  0.054803  0.919674  1
  O  O102  1  0.842334  0.427443  0.958445  1
  O  O103  1  0.371840  0.424735  0.934332  1
  O  O104  1  0.983323  0.989719  0.894168  1
  O  O105  1  0.931055  0.243513  0.355992  1
  O  O106  1  0.483323  0.489719  0.605832  1
  O  O107  1  0.657666  0.072557  0.458445  1
