# generated using pymatgen
data_As(CN)3
_symmetry_space_group_name_H-M   'P 1'
_cell_length_a   7.19461340
_cell_length_b   7.19461231
_cell_length_c   7.69039079
_cell_angle_alpha   81.64495903
_cell_angle_beta   81.64495975
_cell_angle_gamma   81.17423564
_symmetry_Int_Tables_number   1
_chemical_formula_structural   As(CN)3
_chemical_formula_sum   'As2 C6 N6'
_cell_volume   386.09233880
_cell_formula_units_Z   2
loop_
 _symmetry_equiv_pos_site_id
 _symmetry_equiv_pos_as_xyz
  1  'x, y, z'
loop_
 _atom_site_type_symbol
 _atom_site_label
 _atom_site_symmetry_multiplicity
 _atom_site_fract_x
 _atom_site_fract_y
 _atom_site_fract_z
 _atom_site_occupancy
  As  As0  1  0.517367  0.050652  0.951002  1
  As  As1  1  0.949348  0.482633  0.048998  1
  C  C2  1  0.855988  0.710325  0.161233  1
  C  C3  1  0.370535  0.880877  0.114118  1
  C  C4  1  0.119123  0.629465  0.885882  1
  C  C5  1  0.289675  0.144012  0.838767  1
  C  C6  1  0.141634  0.384308  0.206617  1
  C  C7  1  0.615692  0.858366  0.793383  1
  N  N8  1  0.209691  0.726391  0.782988  1
  N  N9  1  0.144188  0.224184  0.800708  1
  N  N10  1  0.273609  0.790309  0.217012  1
  N  N11  1  0.250767  0.301433  0.298557  1
  N  N12  1  0.775816  0.855812  0.199292  1
  N  N13  1  0.698567  0.749233  0.701443  1
