# generated using pymatgen
data_SrTi2O5
_symmetry_space_group_name_H-M   'P 1'
_cell_length_a   7.98284748
_cell_length_b   11.55570503
_cell_length_c   16.39812569
_cell_angle_alpha   90.00399205
_cell_angle_beta   90.00000591
_cell_angle_gamma   90.00000496
_symmetry_Int_Tables_number   1
_chemical_formula_structural   SrTi2O5
_chemical_formula_sum   'Sr8 Ti16 O40'
_cell_volume   1512.68496042
_cell_formula_units_Z   8
loop_
 _symmetry_equiv_pos_site_id
 _symmetry_equiv_pos_as_xyz
  1  'x, y, z'
loop_
 _atom_site_type_symbol
 _atom_site_label
 _atom_site_symmetry_multiplicity
 _atom_site_fract_x
 _atom_site_fract_y
 _atom_site_fract_z
 _atom_site_occupancy
  Sr  Sr0  1  0.500000  0.612353  0.499975  1
  Sr  Sr1  1  0.000000  0.604165  0.730626  1
  Sr  Sr2  1  0.000000  0.612417  0.999972  1
  Sr  Sr3  1  -0.000000  0.604182  0.269375  1
  Sr  Sr4  1  0.500000  0.636763  0.999987  1
  Sr  Sr5  1  0.000000  0.636708  0.499996  1
  Sr  Sr6  1  0.500000  0.604147  0.769416  1
  Sr  Sr7  1  0.500000  0.604185  0.230558  1
  Ti  Ti8  1  0.737903  0.753120  0.635184  1
  Ti  Ti9  1  0.262079  0.753136  0.364796  1
  Ti  Ti10  1  0.762075  0.753220  0.135137  1
  Ti  Ti11  1  0.737922  0.753136  0.364796  1
  Ti  Ti12  1  0.262097  0.753120  0.635184  1
  Ti  Ti13  1  0.285643  0.931307  0.499989  1
  Ti  Ti14  1  0.237949  0.753200  0.864845  1
  Ti  Ti15  1  0.237925  0.753220  0.135137  1
  Ti  Ti16  1  0.214433  0.931385  -0.000000  1
  Ti  Ti17  1  0.785567  0.931385  -0.000000  1
  Ti  Ti18  1  0.000000  0.957703  0.623311  1
  Ti  Ti19  1  -0.000000  0.957695  0.376766  1
  Ti  Ti20  1  0.500000  0.957495  0.123128  1
  Ti  Ti21  1  0.714357  0.931307  0.499989  1
  Ti  Ti22  1  0.762051  0.753200  0.864845  1
  Ti  Ti23  1  0.500000  0.957451  0.876891  1
  O  O24  1  0.000000  0.066826  0.312051  1
  O  O25  1  0.284975  0.771533  0.499995  1
  O  O26  1  0.283056  0.600212  0.111075  1
  O  O27  1  0.783095  0.600137  0.611100  1
  O  O28  1  -0.000000  0.731674  0.865171  1
  O  O29  1  0.500000  0.778137  0.863529  1
  O  O30  1  0.755670  0.923574  0.613554  1
  O  O31  1  0.500000  0.731623  0.365165  1
  O  O32  1  0.250004  0.732752  0.249994  1
  O  O33  1  0.255716  0.923681  0.886431  1
  O  O34  1  0.244319  0.923592  0.386449  1
  O  O35  1  0.216905  0.600137  0.611100  1
  O  O36  1  0.000000  0.731671  0.134821  1
  O  O37  1  0.250013  0.732741  0.749993  1
  O  O38  1  0.500000  0.778161  0.136498  1
  O  O39  1  -0.000000  0.066658  0.688120  1
  O  O40  1  0.783059  0.600154  0.388909  1
  O  O41  1  0.716944  0.600212  0.111075  1
  O  O42  1  0.749996  0.732752  0.249994  1
  O  O43  1  0.755681  0.923592  0.386449  1
  O  O44  1  0.215031  0.771593  -0.000003  1
  O  O45  1  0.500000  0.731543  0.634843  1
  O  O46  1  0.715025  0.771533  0.499995  1
  O  O47  1  0.216941  0.600154  0.388909  1
  O  O48  1  0.500000  0.067163  0.811681  1
  O  O49  1  0.749987  0.732741  0.749993  1
  O  O50  1  0.000000  0.778103  0.363500  1
  O  O51  1  0.000000  0.985983  -0.000004  1
  O  O52  1  0.500000  0.984500  0.000008  1
  O  O53  1  0.255712  0.923663  0.113565  1
  O  O54  1  0.744288  0.923663  0.113565  1
  O  O55  1  0.500000  0.067096  0.188243  1
  O  O56  1  0.000000  0.984351  0.500017  1
  O  O57  1  0.716976  0.600174  0.888915  1
  O  O58  1  0.000000  0.778085  0.636500  1
  O  O59  1  0.744284  0.923681  0.886431  1
  O  O60  1  0.500000  0.985908  0.499997  1
  O  O61  1  0.784969  0.771593  -0.000003  1
  O  O62  1  0.244330  0.923574  0.613554  1
  O  O63  1  0.283024  0.600174  0.888915  1
