# generated using pymatgen
data_NaHO
_symmetry_space_group_name_H-M   'P 1'
_cell_length_a   3.33554970
_cell_length_b   3.78364116
_cell_length_c   3.78364116
_cell_angle_alpha   60.00000000
_cell_angle_beta   55.44694950
_cell_angle_gamma   55.44694950
_symmetry_Int_Tables_number   1
_chemical_formula_structural   NaHO
_chemical_formula_sum   'Na1 H1 O1'
_cell_volume   31.25151674
_cell_formula_units_Z   1
loop_
 _symmetry_equiv_pos_site_id
 _symmetry_equiv_pos_as_xyz
  1  'x, y, z'
loop_
 _atom_site_type_symbol
 _atom_site_label
 _atom_site_symmetry_multiplicity
 _atom_site_fract_x
 _atom_site_fract_y
 _atom_site_fract_z
 _atom_site_occupancy
  Na  Na0  1  0.961236  0.012921  0.012921  1
  H  H1  1  0.156233  0.614589  0.614589  1
  O  O2  1  0.542913  0.485696  0.485696  1
