# generated using pymatgen
data_In2(PSe3)3
_symmetry_space_group_name_H-M   'P 1'
_cell_length_a   8.16913820
_cell_length_b   24.59270659
_cell_length_c   30.03395775
_cell_angle_alpha   23.43788375
_cell_angle_beta   41.96453467
_cell_angle_gamma   46.98502098
_symmetry_Int_Tables_number   1
_chemical_formula_structural   In2(PSe3)3
_chemical_formula_sum   'In8 P12 Se36'
_cell_volume   1604.80592789
_cell_formula_units_Z   4
loop_
 _symmetry_equiv_pos_site_id
 _symmetry_equiv_pos_as_xyz
  1  'x, y, z'
loop_
 _atom_site_type_symbol
 _atom_site_label
 _atom_site_symmetry_multiplicity
 _atom_site_fract_x
 _atom_site_fract_y
 _atom_site_fract_z
 _atom_site_occupancy
  In  In0  1  0.125889  0.330829  0.095076  1
  In  In1  1  0.182065  0.979251  0.593795  1
  In  In2  1  0.201825  0.670113  0.070391  1
  In  In3  1  0.798175  0.329887  0.429609  1
  In  In4  1  0.149984  0.686748  0.570005  1
  In  In5  1  0.874111  0.669171  0.404924  1
  In  In6  1  0.850016  0.313252  0.929995  1
  In  In7  1  0.817935  0.020749  0.906205  1
  P  P8  1  0.547788  0.006572  0.272310  1
  P  P9  1  0.437632  0.331714  0.226646  1
  P  P10  1  0.543335  0.324136  0.284332  1
  P  P11  1  0.456665  0.675864  0.215668  1
  P  P12  1  0.537876  0.996804  0.782073  1
  P  P13  1  0.562368  0.668286  0.273354  1
  P  P14  1  0.442983  0.337537  0.722726  1
  P  P15  1  0.452212  0.993428  0.227690  1
  P  P16  1  0.559266  0.340909  0.769465  1
  P  P17  1  0.440734  0.659091  0.730535  1
  P  P18  1  0.557017  0.662463  0.777274  1
  P  P19  1  0.462124  0.003196  0.717927  1
  Se  Se20  1  0.416692  0.214560  0.049905  1
  Se  Se21  1  0.244470  0.105730  0.294198  1
  Se  Se22  1  0.080054  0.217737  0.382500  1
  Se  Se23  1  0.917129  0.095874  0.135314  1
  Se  Se24  1  0.416638  0.546447  0.048301  1
  Se  Se25  1  0.721305  0.220649  0.216121  1
  Se  Se26  1  0.244876  0.441996  0.290954  1
  Se  Se27  1  0.562551  0.109925  0.462458  1
  Se  Se28  1  0.112246  0.563572  0.362223  1
  Se  Se29  1  0.887754  0.436428  0.137777  1
  Se  Se30  1  0.404386  0.218672  0.549822  1
  Se  Se31  1  0.437449  0.890075  0.037542  1
  Se  Se32  1  0.755124  0.558004  0.209046  1
  Se  Se33  1  0.253443  0.114780  0.785340  1
  Se  Se34  1  0.278695  0.779351  0.283879  1
  Se  Se35  1  0.583362  0.453553  0.451699  1
  Se  Se36  1  0.092417  0.229085  0.869379  1
  Se  Se37  1  0.082871  0.904126  0.364686  1
  Se  Se38  1  0.903366  0.100973  0.634507  1
  Se  Se39  1  0.919946  0.782263  0.117500  1
  Se  Se40  1  0.429888  0.559724  0.538762  1
  Se  Se41  1  0.736127  0.236505  0.702162  1
  Se  Se42  1  0.755530  0.894270  0.205802  1
  Se  Se43  1  0.250699  0.450021  0.784594  1
  Se  Se44  1  0.575977  0.127542  0.948507  1
  Se  Se45  1  0.583308  0.785440  0.450095  1
  Se  Se46  1  0.092005  0.549040  0.878931  1
  Se  Se47  1  0.907995  0.450960  0.621069  1
  Se  Se48  1  0.424023  0.872458  0.551493  1
  Se  Se49  1  0.749301  0.549979  0.715406  1
  Se  Se50  1  0.263873  0.763495  0.797838  1
  Se  Se51  1  0.570112  0.440276  0.961238  1
  Se  Se52  1  0.096634  0.899027  0.865493  1
  Se  Se53  1  0.907583  0.770915  0.630621  1
  Se  Se54  1  0.746557  0.885220  0.714660  1
  Se  Se55  1  0.595614  0.781328  0.950178  1
