# generated using pymatgen
data_Cd3H2CSeO8
_symmetry_space_group_name_H-M   'P 1'
_cell_length_a   6.68934242
_cell_length_b   10.65092034
_cell_length_c   10.57444066
_cell_angle_alpha   90.00000000
_cell_angle_beta   90.00000000
_cell_angle_gamma   90.00000000
_symmetry_Int_Tables_number   1
_chemical_formula_structural   Cd3H2CSeO8
_chemical_formula_sum   'Cd12 H8 C4 Se4 O32'
_cell_volume   753.40408138
_cell_formula_units_Z   4
loop_
 _symmetry_equiv_pos_site_id
 _symmetry_equiv_pos_as_xyz
  1  'x, y, z'
loop_
 _atom_site_type_symbol
 _atom_site_label
 _atom_site_symmetry_multiplicity
 _atom_site_fract_x
 _atom_site_fract_y
 _atom_site_fract_z
 _atom_site_occupancy
  Cd  Cd0  1  0.529538  0.545495  0.332571  1
  Cd  Cd1  1  0.029538  0.954505  0.167429  1
  Cd  Cd2  1  0.470462  0.045495  0.667429  1
  Cd  Cd3  1  0.970462  0.454505  0.832571  1
  Cd  Cd4  1  0.470462  0.454505  0.667429  1
  Cd  Cd5  1  0.970462  0.045495  0.832571  1
  Cd  Cd6  1  0.529538  0.954505  0.332571  1
  Cd  Cd7  1  0.029538  0.545495  0.167429  1
  Cd  Cd8  1  0.748798  0.250000  0.126487  1
  Cd  Cd9  1  0.248798  0.250000  0.373513  1
  Cd  Cd10  1  0.251202  0.750000  0.873513  1
  Cd  Cd11  1  0.751202  0.750000  0.626487  1
  H  H12  1  0.642140  0.489878  0.096475  1
  H  H13  1  0.142140  0.010122  0.403525  1
  H  H14  1  0.357860  0.989878  0.903525  1
  H  H15  1  0.857860  0.510122  0.596475  1
  H  H16  1  0.357860  0.510122  0.903525  1
  H  H17  1  0.857860  0.989878  0.596475  1
  H  H18  1  0.642140  0.010122  0.096475  1
  H  H19  1  0.142140  0.489878  0.403525  1
  C  C20  1  0.374529  0.750000  0.148244  1
  C  C21  1  0.874529  0.750000  0.351756  1
  C  C22  1  0.625471  0.250000  0.851756  1
  C  C23  1  0.125471  0.250000  0.648244  1
  Se  Se24  1  0.247622  0.250000  0.025593  1
  Se  Se25  1  0.747622  0.250000  0.474407  1
  Se  Se26  1  0.752378  0.750000  0.974407  1
  Se  Se27  1  0.252378  0.750000  0.525593  1
  O  O28  1  0.381007  0.250000  0.164409  1
  O  O29  1  0.881007  0.250000  0.335591  1
  O  O30  1  0.618993  0.750000  0.835591  1
  O  O31  1  0.118993  0.750000  0.664409  1
  O  O32  1  0.073846  0.128881  0.039917  1
  O  O33  1  0.573847  0.371119  0.460083  1
  O  O34  1  0.926153  0.628881  0.960083  1
  O  O35  1  0.426154  0.871119  0.539917  1
  O  O36  1  0.926153  0.871119  0.960083  1
  O  O37  1  0.426154  0.628881  0.539917  1
  O  O38  1  0.073846  0.371119  0.039917  1
  O  O39  1  0.573847  0.128881  0.460083  1
  O  O40  1  0.452841  0.750000  0.261745  1
  O  O41  1  0.952841  0.750000  0.238255  1
  O  O42  1  0.547159  0.250000  0.738255  1
  O  O43  1  0.047159  0.250000  0.761745  1
  O  O44  1  0.710588  0.462821  0.173490  1
  O  O45  1  0.210588  0.037179  0.326510  1
  O  O46  1  0.289412  0.962821  0.826510  1
  O  O47  1  0.789412  0.537179  0.673490  1
  O  O48  1  0.289412  0.537179  0.826510  1
  O  O49  1  0.789412  0.962821  0.673490  1
  O  O50  1  0.710588  0.037179  0.173490  1
  O  O51  1  0.210588  0.462821  0.326510  1
  O  O52  1  0.338047  0.644121  0.091779  1
  O  O53  1  0.838047  0.855879  0.408221  1
  O  O54  1  0.661953  0.144121  0.908221  1
  O  O55  1  0.161953  0.355879  0.591779  1
  O  O56  1  0.661953  0.355879  0.908221  1
  O  O57  1  0.161953  0.144121  0.591779  1
  O  O58  1  0.338047  0.855879  0.091779  1
  O  O59  1  0.838047  0.644121  0.408221  1
