# generated using pymatgen
data_SbH2(NF2)3
_symmetry_space_group_name_H-M   'P 1'
_cell_length_a   6.52760495
_cell_length_b   5.34880849
_cell_length_c   10.27434582
_cell_angle_alpha   90.00000000
_cell_angle_beta   90.00000000
_cell_angle_gamma   90.00000000
_symmetry_Int_Tables_number   1
_chemical_formula_structural   SbH2(NF2)3
_chemical_formula_sum   'Sb2 H4 N6 F12'
_cell_volume   358.72784704
_cell_formula_units_Z   2
loop_
 _symmetry_equiv_pos_site_id
 _symmetry_equiv_pos_as_xyz
  1  'x, y, z'
loop_
 _atom_site_type_symbol
 _atom_site_label
 _atom_site_symmetry_multiplicity
 _atom_site_fract_x
 _atom_site_fract_y
 _atom_site_fract_z
 _atom_site_occupancy
  Sb  Sb0  1  0.000000  0.834661  0.690196  1
  Sb  Sb1  1  0.000000  0.165339  0.190196  1
  H  H2  1  0.159882  0.290564  0.555873  1
  H  H3  1  0.840118  0.290564  0.555873  1
  H  H4  1  0.840118  0.709436  0.055873  1
  H  H5  1  0.159882  0.709436  0.055873  1
  N  N6  1  0.500000  0.784569  0.379867  1
  N  N7  1  0.500000  0.215431  0.879867  1
  N  N8  1  0.500000  0.531310  0.406607  1
  N  N9  1  0.500000  0.468690  0.906607  1
  N  N10  1  0.500000  0.725956  0.500266  1
  N  N11  1  0.500000  0.274044  0.000266  1
  F  F12  1  0.749451  0.140827  0.567549  1
  F  F13  1  0.250549  0.140827  0.567549  1
  F  F14  1  0.250549  0.859173  0.067549  1
  F  F15  1  0.749451  0.859173  0.067549  1
  F  F16  1  0.223339  0.662846  0.778811  1
  F  F17  1  0.776660  0.662846  0.778811  1
  F  F18  1  0.776660  0.337154  0.278811  1
  F  F19  1  0.223339  0.337154  0.278811  1
  F  F20  1  0.000000  0.471685  0.551485  1
  F  F21  1  0.000000  0.528315  0.051485  1
  F  F22  1  0.000000  0.104076  0.818413  1
  F  F23  1  0.000000  0.895924  0.318413  1
