# generated using pymatgen
data_CaLaMnRuO6
_symmetry_space_group_name_H-M   'P 1'
_cell_length_a   5.55904645
_cell_length_b   5.71624763
_cell_length_c   7.92145718
_cell_angle_alpha   90.00000000
_cell_angle_beta   90.17523302
_cell_angle_gamma   90.00000000
_symmetry_Int_Tables_number   1
_chemical_formula_structural   CaLaMnRuO6
_chemical_formula_sum   'Ca2 La2 Mn2 Ru2 O12'
_cell_volume   251.71806530
_cell_formula_units_Z   2
loop_
 _symmetry_equiv_pos_site_id
 _symmetry_equiv_pos_as_xyz
  1  'x, y, z'
loop_
 _atom_site_type_symbol
 _atom_site_label
 _atom_site_symmetry_multiplicity
 _atom_site_fract_x
 _atom_site_fract_y
 _atom_site_fract_z
 _atom_site_occupancy
  Ca  Ca0  1  0.484636  0.555665  0.250358  1
  Ca  Ca1  1  0.984636  0.944335  0.750358  1
  La  La2  1  0.011441  0.046832  0.250735  1
  La  La3  1  0.511441  0.453168  0.750735  1
  Mn  Mn4  1  0.000370  0.501610  0.499487  1
  Mn  Mn5  1  0.500370  -0.001610  0.999487  1
  Ru  Ru6  1  0.000164  0.500753  0.000804  1
  Ru  Ru7  1  0.500164  -0.000753  0.500804  1
  O  O8  1  0.093839  0.533439  0.759612  1
  O  O9  1  0.196264  0.785322  0.052854  1
  O  O10  1  0.216564  0.798612  0.449822  1
  O  O11  1  0.288876  0.305935  0.050888  1
  O  O12  1  0.309562  0.286828  0.445884  1
  O  O13  1  0.398284  0.030477  0.739555  1
  O  O14  1  0.593839  0.966561  0.259612  1
  O  O15  1  0.696264  0.714678  0.552854  1
  O  O16  1  0.716564  0.701388  0.949822  1
  O  O17  1  0.788876  0.194065  0.550888  1
  O  O18  1  0.809562  0.213172  0.945884  1
  O  O19  1  0.898284  0.469523  0.239555  1
