# generated using pymatgen
data_Al22CdO34
_symmetry_space_group_name_H-M   'P 1'
_cell_length_a   11.81072355
_cell_length_b   47.31597349
_cell_length_c   22.97337757
_cell_angle_alpha   13.81729361
_cell_angle_beta   24.17560093
_cell_angle_gamma   27.63815821
_symmetry_Int_Tables_number   1
_chemical_formula_structural   Al22CdO34
_chemical_formula_sum   'Al44 Cd2 O68'
_cell_volume   1255.68972245
_cell_formula_units_Z   2
loop_
 _symmetry_equiv_pos_site_id
 _symmetry_equiv_pos_as_xyz
  1  'x, y, z'
loop_
 _atom_site_type_symbol
 _atom_site_label
 _atom_site_symmetry_multiplicity
 _atom_site_fract_x
 _atom_site_fract_y
 _atom_site_fract_z
 _atom_site_occupancy
  Al  Al0  1  0.000000  0.000000  0.000000  1
  Al  Al1  1  0.099222  0.125020  0.092886  1
  Al  Al2  1  0.592347  0.001361  0.093741  1
  Al  Al3  1  0.995982  0.250000  0.002114  1
  Al  Al4  1  0.348281  0.001953  0.347464  1
  Al  Al5  1  0.450441  0.000234  0.449859  1
  Al  Al6  1  0.549559  0.999766  0.550141  1
  Al  Al7  1  0.099595  0.376327  0.093811  1
  Al  Al8  1  0.099595  0.123673  0.599119  1
  Al  Al9  1  0.595491  0.250000  0.096123  1
  Al  Al10  1  0.000000  0.500000  0.000000  1
  Al  Al11  1  0.651719  0.998047  0.652536  1
  Al  Al12  1  0.352182  0.250000  0.349994  1
  Al  Al13  1  0.407653  0.998639  0.906259  1
  Al  Al14  1  0.904256  0.122598  0.409442  1
  Al  Al15  1  0.465959  0.250000  0.442513  1
  Al  Al16  1  0.554340  0.250000  0.546219  1
  Al  Al17  1  0.095744  0.622598  0.100167  1
  Al  Al18  1  0.099222  0.374980  0.592968  1
  Al  Al19  1  0.592347  0.498639  0.099186  1
  Al  Al20  1  0.004018  0.750000  0.997886  1
  Al  Al21  1  0.649357  0.250000  0.650900  1
  Al  Al22  1  0.348281  0.498047  0.355277  1
  Al  Al23  1  0.409090  0.250000  0.903117  1
  Al  Al24  1  0.908925  0.373003  0.408005  1
  Al  Al25  1  0.908925  0.126997  0.900015  1
  Al  Al26  1  0.450441  0.499766  0.450796  1
  Al  Al27  1  0.549559  0.500234  0.549204  1
  Al  Al28  1  0.091075  0.873003  0.099985  1
  Al  Al29  1  0.091075  0.626997  0.591995  1
  Al  Al30  1  0.590910  0.750000  0.096883  1
  Al  Al31  1  0.651719  0.501953  0.644723  1
  Al  Al32  1  0.350643  0.750000  0.349100  1
  Al  Al33  1  0.407653  0.501361  0.900814  1
  Al  Al34  1  0.900778  0.625020  0.407032  1
  Al  Al35  1  0.904256  0.377402  0.899833  1
  Al  Al36  1  0.445660  0.750000  0.453781  1
  Al  Al37  1  0.534041  0.750000  0.557487  1
  Al  Al38  1  0.095744  0.877402  0.590558  1
  Al  Al39  1  0.647818  0.750000  0.650006  1
  Al  Al40  1  0.404509  0.750000  0.903877  1
  Al  Al41  1  0.900405  0.623673  0.906189  1
  Al  Al42  1  0.900405  0.876327  0.400881  1
  Al  Al43  1  0.900778  0.874980  0.907114  1
  Cd  Cd44  1  0.099928  0.250000  0.216911  1
  Cd  Cd45  1  0.900072  0.750000  0.783089  1
  O  O46  1  0.093966  0.998444  0.097018  1
  O  O47  1  0.297057  0.003005  0.290678  1
  O  O48  1  0.185474  0.133771  0.190473  1
  O  O49  1  0.717684  0.998576  0.193727  1
  O  O50  1  0.096032  0.250000  0.098360  1
  O  O51  1  0.095891  0.998837  0.597902  1
  O  O52  1  0.597289  0.124622  0.095769  1
  O  O53  1  0.389044  0.130692  0.395248  1
  O  O54  1  0.904109  0.001163  0.402098  1
  O  O55  1  0.299633  0.250000  0.295316  1
  O  O56  1  0.802966  0.132583  0.283787  1
  O  O57  1  0.189064  0.117624  0.719645  1
  O  O58  1  0.189064  0.382376  0.190141  1
  O  O59  1  0.722522  0.250000  0.189570  1
  O  O60  1  0.093966  0.501556  0.090794  1
  O  O61  1  0.104623  0.250000  0.594857  1
  O  O62  1  0.598778  0.122816  0.598350  1
  O  O63  1  0.598778  0.377184  0.089612  1
  O  O64  1  0.619357  0.250000  0.440431  1
  O  O65  1  0.404535  0.373726  0.404888  1
  O  O66  1  0.404535  0.126274  0.899792  1
  O  O67  1  0.915156  0.250000  0.398528  1
  O  O68  1  0.906034  0.001556  0.902982  1
  O  O69  1  0.297057  0.496995  0.302696  1
  O  O70  1  0.279416  0.250000  0.811616  1
  O  O71  1  0.811052  0.381411  0.282234  1
  O  O72  1  0.811052  0.118589  0.807876  1
  O  O73  1  0.197034  0.632583  0.185882  1
  O  O74  1  0.185474  0.366229  0.725558  1
  O  O75  1  0.717684  0.501424  0.188033  1
  O  O76  1  0.706600  0.250000  0.702538  1
  O  O77  1  0.095835  0.750000  0.092922  1
  O  O78  1  0.095891  0.501163  0.593250  1
  O  O79  1  0.597289  0.375378  0.594257  1
  O  O80  1  0.610956  0.630692  0.081985  1
  O  O81  1  0.500000  0.500000  0.500000  1
  O  O82  1  0.389044  0.369308  0.918015  1
  O  O83  1  0.402711  0.624622  0.405743  1
  O  O84  1  0.904109  0.498837  0.406750  1
  O  O85  1  0.904165  0.250000  0.907078  1
  O  O86  1  0.293400  0.750000  0.297462  1
  O  O87  1  0.282316  0.498576  0.811967  1
  O  O88  1  0.802966  0.367417  0.814118  1
  O  O89  1  0.814526  0.633771  0.274442  1
  O  O90  1  0.188948  0.618589  0.717766  1
  O  O91  1  0.188948  0.881411  0.192124  1
  O  O92  1  0.720584  0.750000  0.188384  1
  O  O93  1  0.702943  0.503005  0.697304  1
  O  O94  1  0.084844  0.750000  0.601472  1
  O  O95  1  0.595465  0.873726  0.100208  1
  O  O96  1  0.595465  0.626274  0.595112  1
  O  O97  1  0.380643  0.750000  0.559569  1
  O  O98  1  0.401222  0.622816  0.910388  1
  O  O99  1  0.401222  0.877184  0.401650  1
  O  O100  1  0.895377  0.750000  0.405143  1
  O  O101  1  0.906034  0.498444  0.909206  1
  O  O102  1  0.277478  0.750000  0.810430  1
  O  O103  1  0.810936  0.617624  0.809859  1
  O  O104  1  0.810936  0.882376  0.280355  1
  O  O105  1  0.197034  0.867417  0.716213  1
  O  O106  1  0.700367  0.750000  0.704684  1
  O  O107  1  0.610956  0.869308  0.604752  1
  O  O108  1  0.500000  0.000000  0.500000  1
  O  O109  1  0.402711  0.875378  0.904231  1
  O  O110  1  0.903968  0.750000  0.901640  1
  O  O111  1  0.282316  0.001424  0.806273  1
  O  O112  1  0.814526  0.866229  0.809527  1
  O  O113  1  0.702943  0.996995  0.709322  1
