# generated using pymatgen
data_GdAl4Ge2Au
_symmetry_space_group_name_H-M   'P 1'
_cell_length_a   11.50944365
_cell_length_b   11.50944384
_cell_length_c   11.50944401
_cell_angle_alpha   22.64243369
_cell_angle_beta   22.64243145
_cell_angle_gamma   22.64243188
_symmetry_Int_Tables_number   1
_chemical_formula_structural   GdAl4Ge2Au
_chemical_formula_sum   'Gd1 Al4 Ge2 Au1'
_cell_volume   198.23510747
_cell_formula_units_Z   1
loop_
 _symmetry_equiv_pos_site_id
 _symmetry_equiv_pos_as_xyz
  1  'x, y, z'
loop_
 _atom_site_type_symbol
 _atom_site_label
 _atom_site_symmetry_multiplicity
 _atom_site_fract_x
 _atom_site_fract_y
 _atom_site_fract_z
 _atom_site_occupancy
  Gd  Gd0  1  0.500000  0.500000  0.500000  1
  Al  Al1  1  0.692963  0.692963  0.692963  1
  Al  Al2  1  0.083519  0.083519  0.083519  1
  Al  Al3  1  0.307037  0.307037  0.307037  1
  Al  Al4  1  0.916481  0.916481  0.916481  1
  Ge  Ge5  1  0.776698  0.776698  0.776698  1
  Ge  Ge6  1  0.223302  0.223302  0.223302  1
  Au  Au7  1  0.000000  0.000000  0.000000  1
