# generated using pymatgen
data_Pr7FeI12
_symmetry_space_group_name_H-M   'P 1'
_cell_length_a   10.02342229
_cell_length_b   10.02352550
_cell_length_c   10.02339971
_cell_angle_alpha   107.26693483
_cell_angle_beta   107.26672957
_cell_angle_gamma   107.26703744
_symmetry_Int_Tables_number   1
_chemical_formula_structural   Pr7FeI12
_chemical_formula_sum   'Pr7 Fe1 I12'
_cell_volume   832.50021686
_cell_formula_units_Z   1
loop_
 _symmetry_equiv_pos_site_id
 _symmetry_equiv_pos_as_xyz
  1  'x, y, z'
loop_
 _atom_site_type_symbol
 _atom_site_label
 _atom_site_symmetry_multiplicity
 _atom_site_fract_x
 _atom_site_fract_y
 _atom_site_fract_z
 _atom_site_occupancy
  Pr  Pr0  1  0.529819  0.800825  0.598936  1
  Pr  Pr1  1  0.598931  0.529815  0.800818  1
  Pr  Pr2  1  0.470179  0.199177  0.401068  1
  Pr  Pr3  1  0.401073  0.470187  0.199186  1
  Pr  Pr4  1  0.000002  0.999996  0.000000  1
  Pr  Pr5  1  0.800826  0.598933  0.529818  1
  Pr  Pr6  1  0.199180  0.401070  0.470181  1
  Fe  Fe7  1  0.500006  0.500004  0.500001  1
  I  I8  1  0.184972  0.729620  0.575621  1
  I  I9  1  0.891626  0.972043  0.656672  1
  I  I10  1  0.729617  0.575621  0.184972  1
  I  I11  1  0.343328  0.108375  0.027958  1
  I  I12  1  0.972042  0.656671  0.891626  1
  I  I13  1  0.656670  0.891626  0.972041  1
  I  I14  1  0.108372  0.027958  0.343330  1
  I  I15  1  0.424377  0.815026  0.270380  1
  I  I16  1  0.027957  0.343326  0.108372  1
  I  I17  1  0.815026  0.270379  0.424378  1
  I  I18  1  0.575620  0.184971  0.729618  1
  I  I19  1  0.270377  0.424377  0.815025  1
