# generated using pymatgen
data_ZnH4SeO6
_symmetry_space_group_name_H-M   'P 1'
_cell_length_a   9.09415954
_cell_length_b   10.53141653
_cell_length_c   10.33076091
_cell_angle_alpha   90.00000000
_cell_angle_beta   90.00000000
_cell_angle_gamma   90.00000000
_symmetry_Int_Tables_number   1
_chemical_formula_structural   ZnH4SeO6
_chemical_formula_sum   'Zn8 H32 Se8 O48'
_cell_volume   989.42224284
_cell_formula_units_Z   8
loop_
 _symmetry_equiv_pos_site_id
 _symmetry_equiv_pos_as_xyz
  1  'x, y, z'
loop_
 _atom_site_type_symbol
 _atom_site_label
 _atom_site_symmetry_multiplicity
 _atom_site_fract_x
 _atom_site_fract_y
 _atom_site_fract_z
 _atom_site_occupancy
  Zn  Zn0  1  0.835699  0.668893  0.872048  1
  Zn  Zn1  1  0.664301  0.168893  0.872048  1
  Zn  Zn2  1  0.164301  0.168893  0.627952  1
  Zn  Zn3  1  0.335699  0.668893  0.627952  1
  Zn  Zn4  1  0.164301  0.331107  0.127952  1
  Zn  Zn5  1  0.664301  0.331107  0.372048  1
  Zn  Zn6  1  0.835699  0.831107  0.372048  1
  Zn  Zn7  1  0.335699  0.831107  0.127952  1
  H  H8  1  0.331072  0.087503  0.824533  1
  H  H9  1  0.852299  0.516561  0.438824  1
  H  H10  1  0.381826  0.095225  0.461014  1
  H  H11  1  0.308120  0.673918  0.870403  1
  H  H12  1  0.668928  0.912497  0.175467  1
  H  H13  1  0.831072  0.087503  0.675467  1
  H  H14  1  0.168928  0.587503  0.824533  1
  H  H15  1  0.352299  0.516561  0.061176  1
  H  H16  1  0.647701  0.483439  0.938824  1
  H  H17  1  0.331072  0.412497  0.324533  1
  H  H18  1  0.808120  0.826082  0.129597  1
  H  H19  1  0.191880  0.173918  0.870403  1
  H  H20  1  0.881826  0.404775  0.538986  1
  H  H21  1  0.831072  0.412497  0.175467  1
  H  H22  1  0.147701  0.483439  0.561176  1
  H  H23  1  0.381826  0.404775  0.961014  1
  H  H24  1  0.308120  0.826082  0.370403  1
  H  H25  1  0.668928  0.587503  0.675467  1
  H  H26  1  0.647701  0.016561  0.438824  1
  H  H27  1  0.808120  0.673918  0.629597  1
  H  H28  1  0.191880  0.326082  0.370403  1
  H  H29  1  0.618174  0.595225  0.038986  1
  H  H30  1  0.691880  0.326082  0.129597  1
  H  H31  1  0.691880  0.173918  0.629597  1
  H  H32  1  0.147701  0.016561  0.061176  1
  H  H33  1  0.168928  0.912497  0.324533  1
  H  H34  1  0.352299  0.983439  0.561176  1
  H  H35  1  0.118174  0.595225  0.461014  1
  H  H36  1  0.852299  0.983439  0.938824  1
  H  H37  1  0.118174  0.904775  0.961014  1
  H  H38  1  0.881826  0.095225  0.038986  1
  H  H39  1  0.618174  0.904775  0.538986  1
  Se  Se40  1  0.968396  0.135225  0.345785  1
  Se  Se41  1  0.468396  0.135225  0.154215  1
  Se  Se42  1  0.031604  0.864775  0.654215  1
  Se  Se43  1  0.531604  0.635225  0.345785  1
  Se  Se44  1  0.031604  0.635225  0.154215  1
  Se  Se45  1  0.468396  0.364775  0.654215  1
  Se  Se46  1  0.531604  0.864775  0.845785  1
  Se  Se47  1  0.968396  0.364775  0.845785  1
  O  O48  1  0.855363  0.424049  0.448753  1
  O  O49  1  0.355363  0.424049  0.051247  1
  O  O50  1  0.503034  0.811031  0.695133  1
  O  O51  1  0.911311  0.789359  0.555759  1
  O  O52  1  0.088689  0.210641  0.444241  1
  O  O53  1  0.996966  0.311031  0.695133  1
  O  O54  1  0.144637  0.924049  0.051247  1
  O  O55  1  0.773737  0.891453  0.192005  1
  O  O56  1  0.499590  0.478100  0.355641  1
  O  O57  1  0.411311  0.789359  0.944241  1
  O  O58  1  0.273737  0.891453  0.307995  1
  O  O59  1  0.855363  0.075951  0.948753  1
  O  O60  1  0.794222  0.159973  0.391249  1
  O  O61  1  0.588689  0.210641  0.055759  1
  O  O62  1  0.411311  0.710641  0.444241  1
  O  O63  1  0.726263  0.391453  0.192005  1
  O  O64  1  0.003034  0.811031  0.804867  1
  O  O65  1  0.294222  0.340027  0.608751  1
  O  O66  1  0.773737  0.608547  0.692005  1
  O  O67  1  0.355363  0.075951  0.551247  1
  O  O68  1  0.205778  0.840027  0.608751  1
  O  O69  1  0.205778  0.659973  0.108751  1
  O  O70  1  0.500410  0.521900  0.644359  1
  O  O71  1  0.294222  0.159973  0.108751  1
  O  O72  1  0.499590  0.021900  0.855641  1
  O  O73  1  0.911311  0.710641  0.055759  1
  O  O74  1  0.496966  0.188969  0.304867  1
  O  O75  1  0.705778  0.840027  0.891249  1
  O  O76  1  0.644637  0.924049  0.448753  1
  O  O77  1  0.226263  0.391453  0.307995  1
  O  O78  1  0.726263  0.108547  0.692005  1
  O  O79  1  0.503034  0.688969  0.195133  1
  O  O80  1  0.000410  0.521900  0.855641  1
  O  O81  1  0.003034  0.688969  0.304867  1
  O  O82  1  0.644637  0.575951  0.948753  1
  O  O83  1  0.500410  0.978100  0.144359  1
  O  O84  1  0.705778  0.659973  0.391249  1
  O  O85  1  0.273737  0.608547  0.807995  1
  O  O86  1  0.088689  0.289359  0.944241  1
  O  O87  1  0.226263  0.108547  0.807995  1
  O  O88  1  0.794222  0.340027  0.891249  1
  O  O89  1  0.496966  0.311031  0.804867  1
  O  O90  1  0.144637  0.575951  0.551247  1
  O  O91  1  0.999590  0.478100  0.144359  1
  O  O92  1  0.996966  0.188969  0.195133  1
  O  O93  1  0.000410  0.978100  0.355641  1
  O  O94  1  0.588689  0.289359  0.555759  1
  O  O95  1  0.999590  0.021900  0.644359  1
