# generated using pymatgen
data_Ru(CO)4
_symmetry_space_group_name_H-M   'P 1'
_cell_length_a   5.85656397
_cell_length_b   7.10120411
_cell_length_c   8.46814436
_cell_angle_alpha   114.80799949
_cell_angle_beta   110.32098484
_cell_angle_gamma   89.97809362
_symmetry_Int_Tables_number   1
_chemical_formula_structural   Ru(CO)4
_chemical_formula_sum   'Ru2 C8 O8'
_cell_volume   295.38163442
_cell_formula_units_Z   2
loop_
 _symmetry_equiv_pos_site_id
 _symmetry_equiv_pos_as_xyz
  1  'x, y, z'
loop_
 _atom_site_type_symbol
 _atom_site_label
 _atom_site_symmetry_multiplicity
 _atom_site_fract_x
 _atom_site_fract_y
 _atom_site_fract_z
 _atom_site_occupancy
  Ru  Ru0  1  0.000963  0.000426  -0.000471  1
  Ru  Ru1  1  0.501449  0.001180  0.000648  1
  C  C2  1  0.372771  0.763416  0.750756  1
  C  C3  1  0.441161  0.191029  0.884865  1
  C  C4  1  0.940671  0.695056  0.884921  1
  C  C5  1  0.561094  0.810705  0.117119  1
  C  C6  1  0.060241  0.307442  0.116460  1
  C  C7  1  0.874550  0.989701  0.750370  1
  C  C8  1  0.626183  0.238881  0.251327  1
  C  C9  1  0.129351  0.010729  0.249052  1
  O  O10  1  0.700320  0.379631  0.400380  1
  O  O11  1  0.597330  0.698674  0.187407  1
  O  O12  1  0.096235  0.489785  0.186300  1
  O  O13  1  0.403552  0.303039  0.814582  1
  O  O14  1  0.205716  0.014112  0.396233  1
  O  O15  1  0.904911  0.512782  0.816202  1
  O  O16  1  0.800136  0.981258  0.601318  1
  O  O17  1  0.294476  0.623553  0.601269  1
