# generated using pymatgen
data_U2Bi2O7
_symmetry_space_group_name_H-M   'P 1'
_cell_length_a   3.82732641
_cell_length_b   15.55848195
_cell_length_c   13.56375310
_cell_angle_alpha   29.33249871
_cell_angle_beta   55.64310712
_cell_angle_gamma   60.52839743
_symmetry_Int_Tables_number   1
_chemical_formula_structural   U2Bi2O7
_chemical_formula_sum   'U4 Bi4 O14'
_cell_volume   326.63814767
_cell_formula_units_Z   2
loop_
 _symmetry_equiv_pos_site_id
 _symmetry_equiv_pos_as_xyz
  1  'x, y, z'
loop_
 _atom_site_type_symbol
 _atom_site_label
 _atom_site_symmetry_multiplicity
 _atom_site_fract_x
 _atom_site_fract_y
 _atom_site_fract_z
 _atom_site_occupancy
  U  U0  1  0.010766  0.000000  0.994617  1
  U  U1  1  0.989234  0.500000  0.005383  1
  U  U2  1  0.000000  0.250000  0.500000  1
  U  U3  1  0.000000  0.750000  0.000000  1
  Bi  Bi4  1  0.000000  0.250000  0.000000  1
  Bi  Bi5  1  0.023827  0.000000  0.488086  1
  Bi  Bi6  1  0.000000  0.750000  0.500000  1
  Bi  Bi7  1  0.976173  0.500000  0.511914  1
  O  O8  1  0.305428  0.000000  0.097286  1
  O  O9  1  0.234140  0.262773  0.120157  1
  O  O10  1  0.243654  0.500000  0.128173  1
  O  O11  1  0.735488  0.265274  0.366982  1
  O  O12  1  0.264512  0.234726  0.633018  1
  O  O13  1  0.264512  0.765274  0.102470  1
  O  O14  1  0.788486  0.500000  0.355757  1
  O  O15  1  0.756346  0.000000  0.871827  1
  O  O16  1  0.765860  0.237227  0.879843  1
  O  O17  1  0.234140  0.737227  0.645703  1
  O  O18  1  0.765860  0.762773  0.354297  1
  O  O19  1  0.694572  0.500000  0.902714  1
  O  O20  1  0.211514  0.000000  0.644243  1
  O  O21  1  0.735488  0.734726  0.897530  1
