# generated using pymatgen
data_Ce3B2(ClO2)3
_symmetry_space_group_name_H-M   'P 1'
_cell_length_a   9.22250446
_cell_length_b   9.22250487
_cell_length_c   5.85296493
_cell_angle_alpha   90.00000000
_cell_angle_beta   90.00000000
_cell_angle_gamma   119.99999858
_symmetry_Int_Tables_number   1
_chemical_formula_structural   Ce3B2(ClO2)3
_chemical_formula_sum   'Ce6 B4 Cl6 O12'
_cell_volume   431.12611125
_cell_formula_units_Z   2
loop_
 _symmetry_equiv_pos_site_id
 _symmetry_equiv_pos_as_xyz
  1  'x, y, z'
loop_
 _atom_site_type_symbol
 _atom_site_label
 _atom_site_symmetry_multiplicity
 _atom_site_fract_x
 _atom_site_fract_y
 _atom_site_fract_z
 _atom_site_occupancy
  Ce  Ce0  1  0.336578  0.386415  0.750000  1
  Ce  Ce1  1  0.049837  0.663422  0.750000  1
  Ce  Ce2  1  0.663422  0.613585  0.250000  1
  Ce  Ce3  1  0.386415  0.049837  0.250000  1
  Ce  Ce4  1  0.613585  0.950163  0.750000  1
  Ce  Ce5  1  0.950163  0.336578  0.250000  1
  B  B6  1  0.666667  0.333333  0.513394  1
  B  B7  1  0.666667  0.333333  0.986606  1
  B  B8  1  0.333333  0.666667  0.013394  1
  B  B9  1  0.333333  0.666667  0.486606  1
  Cl  Cl10  1  0.036892  0.797780  0.250000  1
  Cl  Cl11  1  0.239112  0.036892  0.750000  1
  Cl  Cl12  1  0.760888  0.963108  0.250000  1
  Cl  Cl13  1  0.963108  0.202220  0.750000  1
  Cl  Cl14  1  0.797780  0.760888  0.750000  1
  Cl  Cl15  1  0.202220  0.239112  0.250000  1
  O  O16  1  0.170836  0.536548  0.500859  1
  O  O17  1  0.829164  0.463452  0.000859  1
  O  O18  1  0.365712  0.829164  0.500859  1
  O  O19  1  0.536548  0.365712  0.000859  1
  O  O20  1  0.634288  0.170836  0.000859  1
  O  O21  1  0.463452  0.634288  0.999141  1
  O  O22  1  0.463452  0.634288  0.500859  1
  O  O23  1  0.536548  0.365712  0.499141  1
  O  O24  1  0.365712  0.829164  0.999141  1
  O  O25  1  0.634288  0.170836  0.499141  1
  O  O26  1  0.170836  0.536548  0.999141  1
  O  O27  1  0.829164  0.463452  0.499141  1
