# generated using pymatgen
data_K3Ga2(PO4)3
_symmetry_space_group_name_H-M   'P 1'
_cell_length_a   8.55270375
_cell_length_b   8.87904249
_cell_length_c   17.24774842
_cell_angle_alpha   90.00000000
_cell_angle_beta   90.00000000
_cell_angle_gamma   90.00000000
_symmetry_Int_Tables_number   1
_chemical_formula_structural   K3Ga2(PO4)3
_chemical_formula_sum   'K12 Ga8 P12 O48'
_cell_volume   1309.79091043
_cell_formula_units_Z   4
loop_
 _symmetry_equiv_pos_site_id
 _symmetry_equiv_pos_as_xyz
  1  'x, y, z'
loop_
 _atom_site_type_symbol
 _atom_site_label
 _atom_site_symmetry_multiplicity
 _atom_site_fract_x
 _atom_site_fract_y
 _atom_site_fract_z
 _atom_site_occupancy
  O  O0  1  0.695273  0.768300  0.972520  1
  O  O1  1  0.195273  0.231700  0.027480  1
  O  O2  1  0.195273  0.731700  0.472520  1
  O  O3  1  0.695273  0.268300  0.527480  1
  O  O4  1  0.891606  0.623668  0.056084  1
  O  O5  1  0.391606  0.376332  0.943916  1
  O  O6  1  0.391606  0.876332  0.556084  1
  O  O7  1  0.891606  0.123668  0.443916  1
  O  O8  1  0.929223  0.906491  0.033787  1
  O  O9  1  0.429223  0.093509  0.966213  1
  O  O10  1  0.429223  0.593509  0.533787  1
  O  O11  1  0.929223  0.406491  0.466213  1
  O  O12  1  0.976631  0.719002  0.926516  1
  O  O13  1  0.476631  0.280998  0.073484  1
  O  O14  1  0.476631  0.780998  0.426516  1
  O  O15  1  0.976631  0.219002  0.573484  1
  O  O16  1  0.810452  0.967121  0.659679  1
  O  O17  1  0.310452  0.032879  0.340321  1
  O  O18  1  0.310452  0.532879  0.159679  1
  O  O19  1  0.129267  0.564626  0.795565  1
  O  O20  1  0.810452  0.467121  0.840321  1
  O  O21  1  0.356156  0.209611  0.227261  1
  O  O22  1  0.356156  0.709611  0.272739  1
  O  O23  1  0.856156  0.290389  0.727261  1
  O  O24  1  0.616306  0.765581  0.691282  1
  O  O25  1  0.116306  0.234419  0.308718  1
  O  O26  1  0.116306  0.734419  0.191282  1
  O  O27  1  0.616306  0.265581  0.808718  1
  O  O28  1  0.875077  0.689535  0.632412  1
  O  O29  1  0.375077  0.310465  0.367588  1
  O  O30  1  0.375077  0.810465  0.132412  1
  O  O31  1  0.875077  0.189535  0.867588  1
  O  O32  1  0.285910  0.210109  0.799533  1
  O  O33  1  0.785910  0.789891  0.200467  1
  O  O34  1  0.785910  0.289891  0.299533  1
  O  O35  1  0.285910  0.710109  0.700467  1
  O  O36  1  0.420197  0.030142  0.709696  1
  O  O37  1  0.920197  0.969858  0.290304  1
  O  O38  1  0.920197  0.469858  0.209696  1
  O  O39  1  0.420197  0.530142  0.790304  1
  O  O40  1  0.313485  0.275507  0.654416  1
  O  O41  1  0.813485  0.724493  0.345584  1
  O  O42  1  0.813485  0.224493  0.154416  1
  O  O43  1  0.313485  0.775507  0.845584  1
  O  O44  1  0.129267  0.064626  0.704435  1
  O  O45  1  0.629267  0.935374  0.295565  1
  O  O46  1  0.629267  0.435374  0.204435  1
  O  O47  1  0.856156  0.790389  0.772739  1
  P  P48  1  0.287652  0.152302  0.713377  1
  P  P49  1  0.787652  0.847698  0.286623  1
  P  P50  1  0.787652  0.347698  0.213377  1
  P  P51  1  0.287652  0.652302  0.786623  1
  P  P52  1  0.796108  0.298869  0.813538  1
  P  P53  1  0.296108  0.701131  0.186462  1
  P  P54  1  0.296108  0.201131  0.313538  1
  P  P55  1  0.796108  0.798869  0.686462  1
  P  P56  1  0.865826  0.262861  0.502735  1
  P  P57  1  0.365826  0.737139  0.497265  1
  P  P58  1  0.365826  0.237139  0.002735  1
  P  P59  1  0.865826  0.762861  0.997265  1
  K  K60  1  0.595739  0.454762  0.644792  1
  K  K61  1  0.095739  0.545238  0.355208  1
  K  K62  1  0.095739  0.045238  0.144792  1
  K  K63  1  0.595739  0.954762  0.855208  1
  K  K64  1  0.123301  0.009088  0.900783  1
  K  K65  1  0.623301  0.990912  0.099217  1
  K  K66  1  0.623301  0.490912  0.400783  1
  K  K67  1  0.123301  0.509088  0.599217  1
  K  K68  1  0.403031  0.173107  0.509476  1
  K  K69  1  0.903031  0.826893  0.490524  1
  K  K70  1  0.903031  0.326893  0.009476  1
  K  K71  1  0.403031  0.673107  0.990524  1
  Ga  Ga72  1  0.939019  0.133414  0.668557  1
  Ga  Ga73  1  0.439019  0.866586  0.331443  1
  Ga  Ga74  1  0.439019  0.366586  0.168557  1
  Ga  Ga75  1  0.939019  0.633414  0.831443  1
  Ga  Ga76  1  0.427081  0.346747  0.840222  1
  Ga  Ga77  1  0.927081  0.653253  0.159778  1
  Ga  Ga78  1  0.927081  0.153253  0.340222  1
  Ga  Ga79  1  0.427081  0.846747  0.659778  1
