# generated using pymatgen
data_MnIn2W
_symmetry_space_group_name_H-M   'P 1'
_cell_length_a   4.67008503
_cell_length_b   4.67816261
_cell_length_c   4.70248821
_cell_angle_alpha   59.76853163
_cell_angle_beta   59.85077392
_cell_angle_gamma   60.19946100
_symmetry_Int_Tables_number   1
_chemical_formula_structural   MnIn2W
_chemical_formula_sum   'Mn1 In2 W1'
_cell_volume   72.54432402
_cell_formula_units_Z   1
loop_
 _symmetry_equiv_pos_site_id
 _symmetry_equiv_pos_as_xyz
  1  'x, y, z'
loop_
 _atom_site_type_symbol
 _atom_site_label
 _atom_site_symmetry_multiplicity
 _atom_site_fract_x
 _atom_site_fract_y
 _atom_site_fract_z
 _atom_site_occupancy
  Mn  Mn0  1  0.500280  0.499898  0.499254  1
  In  In1  1  0.000264  -0.000126  0.999987  1
  In  In2  1  0.249888  0.249866  0.249435  1
  W  W3  1  0.749568  0.750362  0.751323  1
