# generated using pymatgen
data_Y3NbO7
_symmetry_space_group_name_H-M   'P 1'
_cell_length_a   7.62025032
_cell_length_b   17.29418538
_cell_length_c   9.33013973
_cell_angle_alpha   26.02100405
_cell_angle_beta   35.14838204
_cell_angle_gamma   48.54410062
_symmetry_Int_Tables_number   1
_chemical_formula_structural   Y3NbO7
_chemical_formula_sum   'Y6 Nb2 O14'
_cell_volume   297.38351294
_cell_formula_units_Z   2
loop_
 _symmetry_equiv_pos_site_id
 _symmetry_equiv_pos_as_xyz
  1  'x, y, z'
loop_
 _atom_site_type_symbol
 _atom_site_label
 _atom_site_symmetry_multiplicity
 _atom_site_fract_x
 _atom_site_fract_y
 _atom_site_fract_z
 _atom_site_occupancy
  Y  Y0  1  0.000504  0.998391  0.004751  1
  Y  Y1  1  0.498811  0.998672  0.005955  1
  Y  Y2  1  0.410153  0.260171  0.951460  1
  Y  Y3  1  0.151480  0.737096  0.995272  1
  Y  Y4  1  0.856202  0.256753  0.009409  1
  Y  Y5  1  0.597007  0.740898  0.043197  1
  Nb  Nb6  1  0.221958  0.498816  0.998409  1
  Nb  Nb7  1  0.728011  0.498553  0.993684  1
  O  O8  1  0.511156  0.998710  0.243732  1
  O  O9  1  0.335659  0.255699  0.251183  1
  O  O10  1  0.493804  0.999695  0.760106  1
  O  O11  1  0.307486  0.518114  0.172184  1
  O  O12  1  0.893719  0.263412  0.242731  1
  O  O13  1  0.353207  0.252823  0.739336  1
  O  O14  1  0.083376  0.744971  0.269466  1
  O  O15  1  0.241787  0.519037  0.737204  1
  O  O16  1  0.787360  0.479024  0.255274  1
  O  O17  1  0.921130  0.259053  0.721005  1
  O  O18  1  0.100492  0.746700  0.750499  1
  O  O19  1  0.630492  0.733332  0.301179  1
  O  O20  1  0.732561  0.480929  0.807523  1
  O  O21  1  0.663496  0.736275  0.763672  1
