# generated using pymatgen
data_AgSbC6N4(OF3)2
_symmetry_space_group_name_H-M   'P 1'
_cell_length_a   7.90876552
_cell_length_b   7.90876488
_cell_length_c   10.68878724
_cell_angle_alpha   89.80517075
_cell_angle_beta   89.80517075
_cell_angle_gamma   81.66967849
_symmetry_Int_Tables_number   1
_chemical_formula_structural   AgSbC6N4(OF3)2
_chemical_formula_sum   'Ag2 Sb2 C12 N8 O4 F12'
_cell_volume   661.50775080
_cell_formula_units_Z   2
loop_
 _symmetry_equiv_pos_site_id
 _symmetry_equiv_pos_as_xyz
  1  'x, y, z'
loop_
 _atom_site_type_symbol
 _atom_site_label
 _atom_site_symmetry_multiplicity
 _atom_site_fract_x
 _atom_site_fract_y
 _atom_site_fract_z
 _atom_site_occupancy
  Ag  Ag0  1  0.696935  0.303065  0.250000  1
  Ag  Ag1  1  0.303065  0.696935  0.750000  1
  Sb  Sb2  1  0.297627  0.702373  0.250000  1
  Sb  Sb3  1  0.702373  0.297627  0.750000  1
  C  C4  1  0.773986  0.947368  0.058320  1
  C  C5  1  0.815563  0.784111  0.992045  1
  C  C6  1  0.207473  0.364933  0.930470  1
  C  C7  1  0.184437  0.215889  0.007955  1
  C  C8  1  0.784111  0.815563  0.492045  1
  C  C9  1  0.947368  0.773986  0.558320  1
  C  C10  1  0.635067  0.792527  0.569530  1
  C  C11  1  0.215889  0.184437  0.507955  1
  C  C12  1  0.364933  0.207473  0.430470  1
  C  C13  1  0.052632  0.226014  0.441680  1
  C  C14  1  0.792527  0.635067  0.069530  1
  C  C15  1  0.226014  0.052632  0.941680  1
  N  N16  1  0.743570  0.076203  0.111311  1
  N  N17  1  0.227767  0.479482  0.866811  1
  N  N18  1  0.479482  0.227767  0.366811  1
  N  N19  1  0.923797  0.256430  0.388689  1
  N  N20  1  0.076203  0.743570  0.611311  1
  N  N21  1  0.256430  0.923797  0.888689  1
  N  N22  1  0.772233  0.520518  0.133189  1
  N  N23  1  0.520518  0.772233  0.633189  1
  O  O24  1  0.774028  0.864313  0.383968  1
  O  O25  1  0.864313  0.774028  0.883968  1
  O  O26  1  0.225972  0.135687  0.616032  1
  O  O27  1  0.135687  0.225972  0.116032  1
  F  F28  1  0.104734  0.771575  0.142523  1
  F  F29  1  0.895266  0.228425  0.857477  1
  F  F30  1  0.369081  0.508641  0.144700  1
  F  F31  1  0.771575  0.104734  0.642523  1
  F  F32  1  0.508641  0.369081  0.644700  1
  F  F33  1  0.491359  0.630919  0.355300  1
  F  F34  1  0.161982  0.568492  0.347823  1
  F  F35  1  0.838018  0.431508  0.652177  1
  F  F36  1  0.630919  0.491359  0.855300  1
  F  F37  1  0.431508  0.838018  0.152177  1
  F  F38  1  0.228425  0.895266  0.357477  1
  F  F39  1  0.568492  0.161982  0.847823  1
