# generated using pymatgen
data_Bi8(P2O9)3
_symmetry_space_group_name_H-M   'P 1'
_cell_length_a   7.58198302
_cell_length_b   8.66650324
_cell_length_c   25.14880896
_cell_angle_alpha   110.85064187
_cell_angle_beta   97.54841561
_cell_angle_gamma   109.46304252
_symmetry_Int_Tables_number   1
_chemical_formula_structural   Bi8(P2O9)3
_chemical_formula_sum   'Bi16 P12 O54'
_cell_volume   1396.22453529
_cell_formula_units_Z   2
loop_
 _symmetry_equiv_pos_site_id
 _symmetry_equiv_pos_as_xyz
  1  'x, y, z'
loop_
 _atom_site_type_symbol
 _atom_site_label
 _atom_site_symmetry_multiplicity
 _atom_site_fract_x
 _atom_site_fract_y
 _atom_site_fract_z
 _atom_site_occupancy
  Bi  Bi0  1  0.216120  0.741074  0.710183  1
  Bi  Bi1  1  0.202671  0.786008  0.430150  1
  Bi  Bi2  1  0.457153  0.828801  0.187715  1
  Bi  Bi3  1  0.664904  0.946803  0.000966  1
  Bi  Bi4  1  0.316380  0.051751  0.597959  1
  Bi  Bi5  1  0.686435  0.888726  0.660441  1
  Bi  Bi6  1  0.241713  0.008551  0.321484  1
  Bi  Bi7  1  0.710253  0.908413  0.343261  1
  Bi  Bi8  1  0.308469  0.108886  0.991737  1
  Bi  Bi9  1  0.572216  0.192836  0.796019  1
  Bi  Bi10  1  0.607034  0.261720  0.486571  1
  Bi  Bi11  1  0.548593  0.215157  0.148768  1
  Bi  Bi12  1  0.794622  0.288984  0.945783  1
  Bi  Bi13  1  0.843905  0.261743  0.613514  1
  Bi  Bi14  1  0.857534  0.234029  0.287427  1
  Bi  Bi15  1  0.051580  0.069281  0.830589  1
  P  P16  1  0.048855  0.274233  0.738846  1
  P  P17  1  0.047446  0.336864  0.447476  1
  P  P18  1  0.029896  0.319244  0.075812  1
  P  P19  1  0.318163  0.520613  0.958275  1
  P  P20  1  0.420601  0.460362  0.632358  1
  P  P21  1  0.366749  0.488424  0.306830  1
  P  P22  1  0.724738  0.563467  0.738899  1
  P  P23  1  0.626729  0.517083  0.382160  1
  P  P24  1  0.575206  0.566224  0.037186  1
  P  P25  1  0.848776  0.721094  0.874673  1
  P  P26  1  0.013350  0.672714  0.589303  1
  P  P27  1  0.968199  0.672837  0.263377  1
  O  O28  1  0.059978  0.862374  0.890657  1
  O  O29  1  0.138688  0.746435  0.552136  1
  O  O30  1  0.089460  0.750446  0.225942  1
  O  O31  1  0.269393  0.969553  0.789130  1
  O  O32  1  0.145677  0.338461  0.924537  1
  O  O33  1  0.286886  0.014655  0.507940  1
  O  O34  1  0.218271  0.330008  0.626006  1
  O  O35  1  0.479429  0.949804  0.709976  1
  O  O36  1  0.326291  0.679296  0.947043  1
  O  O37  1  0.358461  0.007388  0.166993  1
  O  O38  1  0.181729  0.321968  0.285415  1
  O  O39  1  0.256524  0.252664  0.764755  1
  O  O40  1  0.376319  0.961385  0.397844  1
  O  O41  1  0.417699  0.611147  0.615345  1
  O  O42  1  0.293906  0.310369  0.829995  1
  O  O43  1  0.160461  0.196582  0.432886  1
  O  O44  1  0.443784  0.028733  0.049267  1
  O  O45  1  0.383919  0.632910  0.286336  1
  O  O46  1  0.533725  0.571623  0.705074  1
  O  O47  1  0.179678  0.309902  0.499179  1
  O  O48  1  0.185701  0.211427  0.077328  1
  O  O49  1  0.448638  0.588552  0.382294  1
  O  O50  1  0.525211  0.495833  0.962158  1
  O  O51  1  0.326578  0.323409  0.137686  1
  O  O52  1  0.751782  0.696849  0.804559  1
  O  O53  1  0.355070  0.566393  0.029994  1
  O  O54  1  0.541214  0.355607  0.605545  1
  O  O55  1  0.722025  0.797041  0.907846  1
  O  O56  1  0.676379  0.575749  0.519437  1
  O  O57  1  0.552556  0.432203  0.307653  1
  O  O58  1  0.681773  0.370462  0.728390  1
  O  O59  1  0.551815  0.080687  0.952573  1
  O  O60  1  0.812020  0.708811  0.579238  1
  O  O61  1  0.610284  0.591019  0.199702  1
  O  O62  1  0.579342  0.361636  0.398381  1
  O  O63  1  0.593388  0.023628  0.613004  1
  O  O64  1  0.764464  0.708266  0.257909  1
  O  O65  1  0.888261  0.654948  0.716168  1
  O  O66  1  0.741752  0.117437  0.856163  1
  O  O67  1  0.578275  0.406902  0.048897  1
  O  O68  1  0.548143  -0.008718  0.289833  1
  O  O69  1  0.832505  0.537558  0.869725  1
  O  O70  1  0.825065  0.671714  0.404732  1
  O  O71  1  0.717685  0.108691  0.524008  1
  O  O72  1  0.937456  0.463183  0.561889  1
  O  O73  1  0.731232  0.750579  0.069340  1
  O  O74  1  0.742415  0.035502  0.201611  1
  O  O75  1  0.907676  0.470941  0.246667  1
  O  O76  1  0.900857  0.145863  0.763646  1
  O  O77  1  0.991904  0.128871  0.670784  1
  O  O78  1  0.825264  0.206877  0.430144  1
  O  O79  1  0.963267  0.077362  0.326544  1
  O  O80  1  0.850808  0.206340  0.090585  1
  O  O81  1  0.954231  0.196856  0.000385  1
