# generated using pymatgen
data_LiGa(SiO3)2
_symmetry_space_group_name_H-M   'P 1'
_cell_length_a   5.34004535
_cell_length_b   6.53237565
_cell_length_c   6.53237565
_cell_angle_alpha   83.62432121
_cell_angle_beta   74.63781392
_cell_angle_gamma   74.63781393
_symmetry_Int_Tables_number   1
_chemical_formula_structural   LiGa(SiO3)2
_chemical_formula_sum   'Li2 Ga2 Si4 O12'
_cell_volume   211.67284151
_cell_formula_units_Z   2
loop_
 _symmetry_equiv_pos_site_id
 _symmetry_equiv_pos_as_xyz
  1  'x, y, z'
loop_
 _atom_site_type_symbol
 _atom_site_label
 _atom_site_symmetry_multiplicity
 _atom_site_fract_x
 _atom_site_fract_y
 _atom_site_fract_z
 _atom_site_occupancy
  Li  Li0  1  0.750000  0.258479  0.741521  1
  Li  Li1  1  0.250000  0.741521  0.258479  1
  O  O2  1  0.948594  0.354879  0.355821  1
  O  O3  1  0.448594  0.355821  0.354879  1
  O  O4  1  0.051406  0.645121  0.644179  1
  O  O5  1  0.551406  0.644179  0.645121  1
  O  O6  1  0.144032  0.801702  0.970424  1
  O  O7  1  0.171489  0.107755  0.627262  1
  O  O8  1  0.855968  0.198298  0.029576  1
  O  O9  1  0.644032  0.970424  0.801702  1
  O  O10  1  0.355968  0.029576  0.198298  1
  O  O11  1  0.828511  0.892245  0.372738  1
  O  O12  1  0.671489  0.627262  0.107755  1
  O  O13  1  0.328511  0.372738  0.892245  1
  Si  Si14  1  0.762372  0.794100  0.612873  1
  Si  Si15  1  0.237628  0.205900  0.387127  1
  Si  Si16  1  0.262372  0.612873  0.794100  1
  Si  Si17  1  0.737628  0.387127  0.205900  1
  Ga  Ga18  1  0.750000  0.898556  0.101444  1
  Ga  Ga19  1  0.250000  0.101444  0.898556  1
