# generated using pymatgen
data_LaHO2
_symmetry_space_group_name_H-M   'P 1'
_cell_length_a   4.49384255
_cell_length_b   3.97034209
_cell_length_c   6.54455178
_cell_angle_alpha   90.00000000
_cell_angle_beta   110.36727556
_cell_angle_gamma   90.00000000
_symmetry_Int_Tables_number   1
_chemical_formula_structural   LaHO2
_chemical_formula_sum   'La2 H2 O4'
_cell_volume   109.46823774
_cell_formula_units_Z   2
loop_
 _symmetry_equiv_pos_site_id
 _symmetry_equiv_pos_as_xyz
  1  'x, y, z'
loop_
 _atom_site_type_symbol
 _atom_site_label
 _atom_site_symmetry_multiplicity
 _atom_site_fract_x
 _atom_site_fract_y
 _atom_site_fract_z
 _atom_site_occupancy
  La  La0  1  0.653038  0.250000  0.308805  1
  La  La1  1  0.354328  0.750000  0.693624  1
  H  H2  1  0.140463  0.750000  0.120922  1
  H  H3  1  0.873840  0.250000  0.893291  1
  O  O4  1  0.782896  0.750000  0.544431  1
  O  O5  1  0.224111  0.250000  0.456911  1
  O  O6  1  0.325586  0.750000  0.077084  1
  O  O7  1  0.677784  0.250000  0.925585  1
