# generated using pymatgen
data_KCaF3
_symmetry_space_group_name_H-M   'P 1'
_cell_length_a   6.27264579
_cell_length_b   8.87409947
_cell_length_c   6.22474280
_cell_angle_alpha   90.00000000
_cell_angle_beta   90.39219005
_cell_angle_gamma   90.00000000
_symmetry_Int_Tables_number   1
_chemical_formula_structural   KCaF3
_chemical_formula_sum   'K4 Ca4 F12'
_cell_volume   346.48648056
_cell_formula_units_Z   4
loop_
 _symmetry_equiv_pos_site_id
 _symmetry_equiv_pos_as_xyz
  1  'x, y, z'
loop_
 _atom_site_type_symbol
 _atom_site_label
 _atom_site_symmetry_multiplicity
 _atom_site_fract_x
 _atom_site_fract_y
 _atom_site_fract_z
 _atom_site_occupancy
  K  K0  1  0.530246  0.250000  0.999592  1
  K  K1  1  0.469754  0.750000  0.000408  1
  K  K2  1  0.024532  0.250000  0.497347  1
  K  K3  1  0.975468  0.750000  0.502653  1
  Ca  Ca4  1  0.000000  0.500000  0.000000  1
  Ca  Ca5  1  0.000000  0.000000  0.000000  1
  Ca  Ca6  1  0.500000  0.500000  0.500000  1
  Ca  Ca7  1  0.500000  0.000000  0.500000  1
  F  F8  1  0.961942  0.250000  0.935262  1
  F  F9  1  0.038058  0.750000  0.064738  1
  F  F10  1  0.503343  0.250000  0.568962  1
  F  F11  1  0.496657  0.750000  0.431038  1
  F  F12  1  0.200778  0.523217  0.699759  1
  F  F13  1  0.799222  0.476783  0.300241  1
  F  F14  1  0.799222  0.023217  0.300241  1
  F  F15  1  0.200778  0.976783  0.699759  1
  F  F16  1  0.297276  0.457580  0.202390  1
  F  F17  1  0.702724  0.542420  0.797610  1
  F  F18  1  0.702724  0.957580  0.797610  1
  F  F19  1  0.297276  0.042420  0.202390  1
