# generated using pymatgen
data_Ba8Ce7YHO24
_symmetry_space_group_name_H-M   'P 1'
_cell_length_a   6.32794840
_cell_length_b   6.33463882
_cell_length_c   17.57433712
_cell_angle_alpha   90.04792052
_cell_angle_beta   89.87390906
_cell_angle_gamma   89.29023397
_symmetry_Int_Tables_number   1
_chemical_formula_structural   Ba8Ce7YHO24
_chemical_formula_sum   'Ba8 Ce7 Y1 H1 O24'
_cell_volume   704.41598516
_cell_formula_units_Z   1
loop_
 _symmetry_equiv_pos_site_id
 _symmetry_equiv_pos_as_xyz
  1  'x, y, z'
loop_
 _atom_site_type_symbol
 _atom_site_label
 _atom_site_symmetry_multiplicity
 _atom_site_fract_x
 _atom_site_fract_y
 _atom_site_fract_z
 _atom_site_occupancy
  Ba  Ba0  1  0.021567  0.991558  0.125616  1
  Ba  Ba1  1  0.040869  0.011630  0.635915  1
  Ba  Ba2  1  0.476872  0.485471  0.873949  1
  Ba  Ba3  1  0.498865  0.488628  0.375763  1
  Ba  Ba4  1  0.469672  0.490275  0.635299  1
  Ba  Ba5  1  0.519840  0.509678  0.125521  1
  Ba  Ba6  1  0.988455  0.008571  0.373651  1
  Ba  Ba7  1  0.990401  0.017500  0.874031  1
  Ce  Ce8  1  0.000163  0.503609  -0.000177  1
  Ce  Ce9  1  0.001492  0.499230  0.251665  1
  Ce  Ce10  1  0.006495  0.490838  0.502841  1
  Ce  Ce11  1  0.504714  0.999280  0.251485  1
  Ce  Ce12  1  0.506880  0.995908  0.751725  1
  Ce  Ce13  1  0.504652  0.999091  0.001007  1
  Ce  Ce14  1  0.495874  0.002505  0.501006  1
  Y  Y15  1  0.994110  0.506899  0.751685  1
  H  H16  1  0.752673  0.757240  0.607675  1
  O  O17  1  0.971686  0.576417  0.379233  1
  O  O18  1  0.006410  0.582900  0.877853  1
  O  O19  1  0.242373  0.239294  0.277445  1
  O  O20  1  0.239730  0.234121  0.471699  1
  O  O21  1  0.235632  0.233570  0.977465  1
  O  O22  1  0.245482  0.240761  0.771234  1
  O  O23  1  0.266048  0.737424  0.237024  1
  O  O24  1  0.259676  0.749134  0.735755  1
  O  O25  1  0.269735  0.735778  0.024220  1
  O  O26  1  0.266809  0.733153  0.513698  1
  O  O27  1  0.481398  0.078397  0.128099  1
  O  O28  1  0.465067  0.071407  0.622605  1
  O  O29  1  0.536644  0.914975  0.877127  1
  O  O30  1  0.544477  0.917242  0.378901  1
  O  O31  1  0.740798  0.256187  0.483548  1
  O  O32  1  0.733219  0.267585  0.980576  1
  O  O33  1  0.741690  0.258740  0.272714  1
  O  O34  1  0.739293  0.256499  0.767385  1
  O  O35  1  0.759638  0.756471  0.549685  1
  O  O36  1  0.768850  0.767954  0.028871  1
  O  O37  1  0.766417  0.762369  0.226968  1
  O  O38  1  0.753982  0.757011  0.710258  1
  O  O39  1  0.990069  0.422432  0.127990  1
  O  O40  1  0.038485  0.427569  0.623091  1
