# generated using pymatgen
data_Co(IO3)2
_symmetry_space_group_name_H-M   'P 1'
_cell_length_a   5.31261308
_cell_length_b   10.92601311
_cell_length_c   10.97867237
_cell_angle_alpha   119.22239820
_cell_angle_beta   90.00000000
_cell_angle_gamma   90.00000000
_symmetry_Int_Tables_number   1
_chemical_formula_structural   Co(IO3)2
_chemical_formula_sum   'Co4 I8 O24'
_cell_volume   556.16067683
_cell_formula_units_Z   4
loop_
 _symmetry_equiv_pos_site_id
 _symmetry_equiv_pos_as_xyz
  1  'x, y, z'
loop_
 _atom_site_type_symbol
 _atom_site_label
 _atom_site_symmetry_multiplicity
 _atom_site_fract_x
 _atom_site_fract_y
 _atom_site_fract_z
 _atom_site_occupancy
  Co  Co0  1  0.025062  0.260153  0.006692  1
  Co  Co1  1  0.525062  0.739847  0.993308  1
  Co  Co2  1  0.528552  0.239793  0.493494  1
  Co  Co3  1  0.028552  0.760207  0.506506  1
  I  I4  1  0.600360  0.085353  0.152446  1
  I  I5  1  0.100671  0.414375  0.347839  1
  I  I6  1  0.126364  0.915167  0.314963  1
  I  I7  1  0.626046  0.585787  0.185633  1
  I  I8  1  0.626364  0.084833  0.685037  1
  I  I9  1  0.600671  0.585625  0.652161  1
  I  I10  1  0.100360  0.914647  0.847554  1
  I  I11  1  0.126046  0.414213  0.814367  1
  O  O12  1  0.312313  0.568349  0.840641  1
  O  O13  1  0.243114  0.581729  0.380330  1
  O  O14  1  0.258356  0.800182  0.679688  1
  O  O15  1  0.315099  0.068597  0.341328  1
  O  O16  1  0.255154  0.299343  0.179150  1
  O  O17  1  0.811573  0.114757  0.035243  1
  O  O18  1  0.314371  0.384204  0.463524  1
  O  O19  1  0.743114  0.418271  0.619670  1
  O  O20  1  0.237477  0.394849  0.962571  1
  O  O21  1  0.807674  0.226899  0.827556  1
  O  O22  1  0.758356  0.199818  0.320312  1
  O  O23  1  0.755154  0.700657  0.820850  1
  O  O24  1  0.307674  0.773101  0.172444  1
  O  O25  1  0.240542  0.894388  0.461943  1
  O  O26  1  0.814371  0.615796  0.536476  1
  O  O27  1  0.815099  0.931403  0.658672  1
  O  O28  1  0.812313  0.431651  0.159359  1
  O  O29  1  0.310646  0.272640  0.673019  1
  O  O30  1  0.737477  0.605151  0.037429  1
  O  O31  1  0.741727  0.917705  0.119491  1
  O  O32  1  0.810646  0.727360  0.326981  1
  O  O33  1  0.311573  0.885243  0.964757  1
  O  O34  1  0.241727  0.082295  0.880509  1
  O  O35  1  0.740542  0.105612  0.538057  1
