# generated using pymatgen
data_P(CN)3
_symmetry_space_group_name_H-M   'P 1'
_cell_length_a   10.88828551
_cell_length_b   11.36482254
_cell_length_c   11.36482213
_cell_angle_alpha   76.73495565
_cell_angle_beta   61.37766281
_cell_angle_gamma   61.37766455
_symmetry_Int_Tables_number   1
_chemical_formula_structural   P(CN)3
_chemical_formula_sum   'P8 C24 N24'
_cell_volume   1083.60821407
_cell_formula_units_Z   8
loop_
 _symmetry_equiv_pos_site_id
 _symmetry_equiv_pos_as_xyz
  1  'x, y, z'
loop_
 _atom_site_type_symbol
 _atom_site_label
 _atom_site_symmetry_multiplicity
 _atom_site_fract_x
 _atom_site_fract_y
 _atom_site_fract_z
 _atom_site_occupancy
  P  P0  1  0.339919  0.255947  0.267725  1
  P  P1  1  0.392354  0.267720  0.744044  1
  P  P2  1  0.863590  0.744056  0.732276  1
  P  P3  1  0.386410  0.767724  0.755944  1
  P  P4  1  0.857646  0.755956  0.232280  1
  P  P5  1  0.910081  0.232275  0.244053  1
  P  P6  1  0.404149  0.732265  0.255942  1
  P  P7  1  0.845851  0.244058  0.767735  1
  C  C8  1  0.929621  0.868273  0.235345  1
  C  C9  1  0.857255  0.392386  0.785513  1
  C  C10  1  0.757379  0.757998  0.912188  1
  C  C11  1  0.499670  0.107639  0.285487  1
  C  C12  1  0.835044  0.235361  0.131739  1
  C  C13  1  0.427571  0.241997  0.087809  1
  C  C14  1  0.750330  0.214513  0.392361  1
  C  C15  1  0.392745  0.714487  0.107614  1
  C  C16  1  0.414955  0.368261  0.264639  1
  C  C17  1  0.214834  0.285529  0.892382  1
  C  C18  1  0.035166  0.607618  0.214471  1
  C  C19  1  0.320379  0.264655  0.631727  1
  C  C20  1  0.047839  0.631726  0.735369  1
  C  C21  1  0.892795  0.892374  0.714491  1
  C  C22  1  0.919544  0.258018  0.587833  1
  C  C23  1  0.216825  0.735334  0.368290  1
  C  C24  1  0.765392  0.741983  0.412183  1
  C  C25  1  0.357205  0.785509  0.607626  1
  C  C26  1  0.202161  0.764631  0.868274  1
  C  C27  1  0.330456  0.912167  0.241982  1
  C  C28  1  0.033175  0.131710  0.764666  1
  C  C29  1  0.484608  0.087817  0.758017  1
  C  C30  1  0.822429  0.412191  0.258003  1
  C  C31  1  0.492621  0.587812  0.742002  1
  N  N32  1  0.574926  0.473239  0.730681  1
  N  N33  1  0.103151  0.304977  0.992788  1
  N  N34  1  0.968014  0.950021  0.229926  1
  N  N35  1  0.102082  0.729922  0.449998  1
  N  N36  1  0.694396  0.730677  0.526762  1
  N  N37  1  0.147918  0.050002  0.770078  1
  N  N38  1  0.167998  0.550000  0.729929  1
  N  N39  1  0.555604  0.973238  0.769323  1
  N  N40  1  0.400919  0.695017  0.007206  1
  N  N41  1  0.082002  0.770071  0.950000  1
  N  N42  1  0.778847  0.526755  0.269322  1
  N  N43  1  0.447930  0.450006  0.270079  1
  N  N44  1  0.658131  0.195019  0.492786  1
  N  N45  1  0.675074  0.769319  0.026761  1
  N  N46  1  0.849081  0.492794  0.804983  1
  N  N47  1  0.591869  0.007214  0.304981  1
  N  N48  1  0.281986  0.270074  0.549979  1
  N  N49  1  0.345933  0.804981  0.507191  1
  N  N50  1  0.802070  0.229921  0.049994  1
  N  N51  1  0.904067  0.992809  0.695019  1
  N  N52  1  0.146849  0.507212  0.195023  1
  N  N53  1  0.471153  0.230678  0.973245  1
  N  N54  1  0.951832  0.269319  0.473256  1
  N  N55  1  0.298168  0.026744  0.230681  1
