# generated using pymatgen
data_C17F5
_symmetry_space_group_name_H-M   'P 1'
_cell_length_a   9.95192050
_cell_length_b   10.40141151
_cell_length_c   19.97094344
_cell_angle_alpha   90.00000000
_cell_angle_beta   90.00000000
_cell_angle_gamma   109.17222093
_symmetry_Int_Tables_number   1
_chemical_formula_structural   C17F5
_chemical_formula_sum   'C136 F40'
_cell_volume   1952.61282914
_cell_formula_units_Z   8
loop_
 _symmetry_equiv_pos_site_id
 _symmetry_equiv_pos_as_xyz
  1  'x, y, z'
loop_
 _atom_site_type_symbol
 _atom_site_label
 _atom_site_symmetry_multiplicity
 _atom_site_fract_x
 _atom_site_fract_y
 _atom_site_fract_z
 _atom_site_occupancy
  C  C0  1  0.429474  0.789924  0.286971  1
  C  C1  1  0.742868  0.913738  0.786326  1
  C  C2  1  0.676752  0.617538  0.320133  1
  C  C3  1  0.010639  0.261231  0.321487  1
  C  C4  1  0.150747  0.119071  0.321515  1
  C  C5  1  0.587032  0.584913  0.379094  1
  C  C6  1  0.710542  0.514430  0.213932  1
  C  C7  1  0.243448  0.674560  0.122908  1
  C  C8  1  0.494174  0.172228  0.250000  1
  C  C9  1  0.899148  0.706098  0.879871  1
  C  C10  1  0.412968  0.415087  0.620906  1
  C  C11  1  0.596225  0.860516  0.808748  1
  C  C12  1  0.695256  0.517069  0.576503  1
  C  C13  1  0.016422  0.633342  0.786448  1
  C  C14  1  0.079147  0.592144  0.250000  1
  C  C15  1  0.555310  0.785026  0.171942  1
  C  C16  1  0.636780  0.376608  0.596197  1
  C  C17  1  0.243448  0.674560  0.377092  1
  C  C18  1  0.356322  0.078860  0.861122  1
  C  C19  1  0.742868  0.913738  0.713674  1
  C  C20  1  0.533540  0.449815  0.098303  1
  C  C21  1  0.812343  0.793811  0.880257  1
  C  C22  1  0.983578  0.366658  0.213552  1
  C  C23  1  0.388227  0.397499  0.075653  1
  C  C24  1  0.444690  0.214975  0.828058  1
  C  C25  1  0.560825  0.776734  0.634451  1
  C  C26  1  0.041017  0.505306  0.309627  1
  C  C27  1  0.225230  0.751500  0.998718  1
  C  C28  1  0.497569  0.327092  0.881681  1
  C  C29  1  0.434299  0.657301  0.865310  1
  C  C30  1  0.959188  0.847171  0.714909  1
  C  C31  1  0.041017  0.505306  0.190373  1
  C  C32  1  0.709628  0.260226  0.809100  1
  C  C33  1  0.570526  0.210076  0.713029  1
  C  C34  1  0.570526  0.210076  0.786971  1
  C  C35  1  0.709628  0.260226  0.690900  1
  C  C36  1  0.388227  0.397499  0.424347  1
  C  C37  1  0.187657  0.206189  0.380257  1
  C  C38  1  0.010639  0.261231  0.178513  1
  C  C39  1  0.565701  0.342699  0.365310  1
  C  C40  1  0.434299  0.657301  0.634690  1
  C  C41  1  0.497569  0.327092  0.618319  1
  C  C42  1  0.920853  0.407856  0.750000  1
  C  C43  1  0.502431  0.672908  0.381681  1
  C  C44  1  0.560825  0.776734  0.865549  1
  C  C45  1  0.257132  0.086262  0.213674  1
  C  C46  1  0.954298  0.222584  0.584945  1
  C  C47  1  0.676752  0.617538  0.179867  1
  C  C48  1  0.812343  0.793811  0.619743  1
  C  C49  1  0.123138  0.536196  0.132556  1
  C  C50  1  0.439175  0.223266  0.365549  1
  C  C51  1  0.356322  0.078860  0.638878  1
  C  C52  1  0.533540  0.449815  0.401697  1
  C  C53  1  0.323248  0.382462  0.679867  1
  C  C54  1  0.636780  0.376608  0.903803  1
  C  C55  1  0.016422  0.633342  0.713552  1
  C  C56  1  0.774770  0.248500  0.001282  1
  C  C57  1  0.596225  0.860516  0.691252  1
  C  C58  1  0.412968  0.415087  0.879094  1
  C  C59  1  0.899148  0.706098  0.620129  1
  C  C60  1  0.565701  0.342699  0.134690  1
  C  C61  1  0.403775  0.139484  0.308748  1
  C  C62  1  0.643678  0.921140  0.361122  1
  C  C63  1  0.187657  0.206189  0.119743  1
  C  C64  1  0.329204  0.256962  0.097921  1
  C  C65  1  0.502431  0.672908  0.118319  1
  C  C66  1  0.363220  0.623392  0.403803  1
  C  C67  1  0.257132  0.086262  0.286326  1
  C  C68  1  0.346943  0.625687  0.808726  1
  C  C69  1  0.670796  0.743038  0.902079  1
  C  C70  1  0.200532  0.775414  0.074006  1
  C  C71  1  0.304744  0.482931  0.076503  1
  C  C72  1  0.045702  0.777416  0.084945  1
  C  C73  1  0.653057  0.374313  0.191274  1
  C  C74  1  0.876862  0.463804  0.867444  1
  C  C75  1  0.439175  0.223266  0.134451  1
  C  C76  1  0.157768  0.430093  0.098774  1
  C  C77  1  0.653057  0.374313  0.308726  1
  C  C78  1  0.799468  0.224586  0.574006  1
  C  C79  1  0.123138  0.536196  0.367444  1
  C  C80  1  0.649239  0.726315  0.215355  1
  C  C81  1  0.958983  0.494694  0.690373  1
  C  C82  1  0.710542  0.514430  0.286068  1
  C  C83  1  0.323248  0.382462  0.820133  1
  C  C84  1  0.954298  0.222584  0.915055  1
  C  C85  1  0.466460  0.550185  0.901697  1
  C  C86  1  0.444690  0.214975  0.671942  1
  C  C87  1  0.350761  0.273685  0.715355  1
  C  C88  1  0.611773  0.602501  0.924346  1
  C  C89  1  0.849253  0.880929  0.678485  1
  C  C90  1  0.290372  0.739774  0.309100  1
  C  C91  1  0.983578  0.366658  0.286448  1
  C  C92  1  0.989361  0.738769  0.821487  1
  C  C93  1  0.290372  0.739774  0.190900  1
  C  C94  1  0.959188  0.847171  0.785091  1
  C  C95  1  0.329204  0.256962  0.402079  1
  C  C96  1  0.842232  0.569907  0.901226  1
  C  C97  1  0.289458  0.485570  0.786068  1
  C  C98  1  0.756552  0.325440  0.622908  1
  C  C99  1  0.756552  0.325440  0.877092  1
  C  C100  1  0.289458  0.485570  0.713932  1
  C  C101  1  0.842232  0.569907  0.598774  1
  C  C102  1  0.150747  0.119071  0.178485  1
  C  C103  1  0.200462  0.704900  0.250000  1
  C  C104  1  0.989361  0.738769  0.678513  1
  C  C105  1  0.649239  0.726315  0.284645  1
  C  C106  1  0.774770  0.248500  0.498718  1
  C  C107  1  0.363220  0.623392  0.096197  1
  C  C108  1  0.225230  0.751500  0.501282  1
  C  C109  1  0.403775  0.139484  0.191252  1
  C  C110  1  0.505826  0.827772  0.750000  1
  C  C111  1  0.555310  0.785026  0.328058  1
  C  C112  1  0.429474  0.789924  0.213029  1
  C  C113  1  0.849253  0.880929  0.821515  1
  C  C114  1  0.611773  0.602501  0.575654  1
  C  C115  1  0.350761  0.273685  0.784645  1
  C  C116  1  0.799538  0.295100  0.750000  1
  C  C117  1  0.466460  0.550185  0.598303  1
  C  C118  1  0.643678  0.921140  0.138878  1
  C  C119  1  0.040812  0.152829  0.285091  1
  C  C120  1  0.045702  0.777416  0.415055  1
  C  C121  1  0.958983  0.494694  0.809627  1
  C  C122  1  0.670796  0.743038  0.597921  1
  C  C123  1  0.200532  0.775414  0.425994  1
  C  C124  1  0.587032  0.584913  0.120906  1
  C  C125  1  0.799468  0.224586  0.925994  1
  C  C126  1  0.383150  0.712302  0.750000  1
  C  C127  1  0.040812  0.152829  0.214909  1
  C  C128  1  0.876862  0.463804  0.632556  1
  C  C129  1  0.304744  0.482931  0.423497  1
  C  C130  1  0.100852  0.293902  0.379871  1
  C  C131  1  0.695256  0.517069  0.923497  1
  C  C132  1  0.346943  0.625687  0.691274  1
  C  C133  1  0.100852  0.293902  0.120129  1
  C  C134  1  0.616850  0.287698  0.250000  1
  C  C135  1  0.157768  0.430093  0.401226  1
  F  F136  1  0.839350  0.380530  0.481114  1
  F  F137  1  0.712290  0.092064  0.586521  1
  F  F138  1  0.027255  0.887413  0.055661  1
  F  F139  1  0.160650  0.619470  0.981114  1
  F  F140  1  0.366272  0.785053  0.513147  1
  F  F141  1  0.691671  0.023250  0.315786  1
  F  F142  1  0.759963  0.907773  0.392763  1
  F  F143  1  0.948122  0.664241  0.059026  1
  F  F144  1  0.287710  0.907936  0.413479  1
  F  F145  1  0.287710  0.907936  0.086521  1
  F  F146  1  0.366272  0.785053  0.986853  1
  F  F147  1  0.027255  0.887413  0.444339  1
  F  F148  1  0.160650  0.619470  0.518886  1
  F  F149  1  0.691671  0.023250  0.184214  1
  F  F150  1  0.018363  0.783308  0.151186  1
  F  F151  1  0.633728  0.214947  0.013147  1
  F  F152  1  0.981637  0.216692  0.848814  1
  F  F153  1  0.633728  0.214947  0.486853  1
  F  F154  1  0.712290  0.092064  0.913479  1
  F  F155  1  0.018363  0.783308  0.348814  1
  F  F156  1  0.839350  0.380530  0.018886  1
  F  F157  1  0.174561  0.829634  0.958449  1
  F  F158  1  0.308329  0.976750  0.684214  1
  F  F159  1  0.972745  0.112587  0.944339  1
  F  F160  1  0.051878  0.335759  0.559026  1
  F  F161  1  0.240037  0.092227  0.607237  1
  F  F162  1  0.825439  0.170366  0.458449  1
  F  F163  1  0.566811  0.961855  0.407522  1
  F  F164  1  0.825439  0.170366  0.041551  1
  F  F165  1  0.433189  0.038145  0.592478  1
  F  F166  1  0.433189  0.038145  0.907522  1
  F  F167  1  0.759963  0.907773  0.107237  1
  F  F168  1  0.240037  0.092227  0.892763  1
  F  F169  1  0.948122  0.664241  0.440974  1
  F  F170  1  0.051878  0.335759  0.940974  1
  F  F171  1  0.972745  0.112587  0.555661  1
  F  F172  1  0.308329  0.976750  0.815786  1
  F  F173  1  0.174561  0.829634  0.541551  1
  F  F174  1  0.566811  0.961855  0.092478  1
  F  F175  1  0.981637  0.216692  0.651186  1
