# generated using pymatgen
data_MoP4C5S3O5
_symmetry_space_group_name_H-M   'P 1'
_cell_length_a   6.90840222
_cell_length_b   12.83493415
_cell_length_c   35.62560404
_cell_angle_alpha   90.00000000
_cell_angle_beta   90.00000000
_cell_angle_gamma   97.30863640
_symmetry_Int_Tables_number   1
_chemical_formula_structural   MoP4C5S3O5
_chemical_formula_sum   'Mo8 P32 C40 S24 O40'
_cell_volume   3133.21763486
_cell_formula_units_Z   8
loop_
 _symmetry_equiv_pos_site_id
 _symmetry_equiv_pos_as_xyz
  1  'x, y, z'
loop_
 _atom_site_type_symbol
 _atom_site_label
 _atom_site_symmetry_multiplicity
 _atom_site_fract_x
 _atom_site_fract_y
 _atom_site_fract_z
 _atom_site_occupancy
  Mo  Mo0  1  0.735417  0.492408  0.631095  1
  Mo  Mo1  1  0.843706  0.000753  0.295305  1
  Mo  Mo2  1  0.735417  0.992408  0.868905  1
  Mo  Mo3  1  0.843706  0.500753  0.204695  1
  Mo  Mo4  1  0.264583  0.507592  0.368905  1
  Mo  Mo5  1  0.264583  0.007592  0.131095  1
  Mo  Mo6  1  0.156294  0.999247  0.704695  1
  Mo  Mo7  1  0.156294  0.499247  0.795305  1
  P  P8  1  0.747668  0.386122  0.930594  1
  P  P9  1  0.677421  0.175844  0.002603  1
  P  P10  1  0.376963  0.723577  0.508551  1
  P  P11  1  0.060413  0.918026  0.548675  1
  P  P12  1  0.607547  0.881779  0.924486  1
  P  P13  1  0.035633  0.977215  0.638091  1
  P  P14  1  0.322579  0.324156  0.502603  1
  P  P15  1  0.881130  0.553434  0.943355  1
  P  P16  1  0.118870  0.446566  0.056645  1
  P  P17  1  0.591229  0.824674  0.471051  1
  P  P18  1  0.939587  0.581974  0.048675  1
  P  P19  1  0.252332  0.613878  0.069406  1
  P  P20  1  0.118870  0.946566  0.443355  1
  P  P21  1  0.623037  0.776423  0.008551  1
  P  P22  1  0.060413  0.418026  0.951325  1
  P  P23  1  0.322579  0.824156  0.997397  1
  P  P24  1  0.623037  0.276423  0.491449  1
  P  P25  1  0.964367  0.022785  0.361909  1
  P  P26  1  0.607547  0.381779  0.575514  1
  P  P27  1  0.408771  0.675326  0.971051  1
  P  P28  1  0.591229  0.324674  0.028949  1
  P  P29  1  0.677421  0.675844  0.497397  1
  P  P30  1  0.035633  0.477215  0.861909  1
  P  P31  1  0.252332  0.113878  0.430594  1
  P  P32  1  0.964367  0.522785  0.138091  1
  P  P33  1  0.408771  0.175326  0.528949  1
  P  P34  1  0.747668  0.886122  0.569406  1
  P  P35  1  0.939587  0.081974  0.451325  1
  P  P36  1  0.881130  0.053434  0.556645  1
  P  P37  1  0.376963  0.223577  0.991449  1
  P  P38  1  0.392453  0.118221  0.075514  1
  P  P39  1  0.392453  0.618221  0.424486  1
  C  C40  1  0.977520  0.911919  0.864162  1
  C  C41  1  0.066826  0.648354  0.791069  1
  C  C42  1  0.568663  0.435495  0.186678  1
  C  C43  1  0.579196  0.885013  0.832370  1
  C  C44  1  0.903472  0.093038  0.905054  1
  C  C45  1  0.748453  0.984408  0.241010  1
  C  C46  1  0.977520  0.411919  0.635838  1
  C  C47  1  0.431337  0.064505  0.686678  1
  C  C48  1  0.933174  0.851646  0.291069  1
  C  C49  1  0.885483  0.932188  0.724948  1
  C  C50  1  0.022480  0.088081  0.135838  1
  C  C51  1  0.746555  0.647985  0.202471  1
  C  C52  1  0.885483  0.432188  0.775052  1
  C  C53  1  0.420804  0.114987  0.167630  1
  C  C54  1  0.748453  0.484408  0.258990  1
  C  C55  1  0.420804  0.614987  0.332370  1
  C  C56  1  0.114517  0.067812  0.275052  1
  C  C57  1  0.933174  0.351646  0.208931  1
  C  C58  1  0.171955  0.414200  0.324149  1
  C  C59  1  0.171955  0.914200  0.175851  1
  C  C60  1  0.114517  0.567812  0.224948  1
  C  C61  1  0.096528  0.406962  0.405054  1
  C  C62  1  0.903472  0.593038  0.594946  1
  C  C63  1  0.496494  0.919078  0.126354  1
  C  C64  1  0.431337  0.564505  0.813322  1
  C  C65  1  0.253445  0.852015  0.702471  1
  C  C66  1  0.828045  0.085800  0.824149  1
  C  C67  1  0.253445  0.352015  0.797529  1
  C  C68  1  0.251547  0.515592  0.741010  1
  C  C69  1  0.022480  0.588081  0.364162  1
  C  C70  1  0.251547  0.015592  0.758990  1
  C  C71  1  0.496494  0.419078  0.373646  1
  C  C72  1  0.066826  0.148354  0.708931  1
  C  C73  1  0.096528  0.906962  0.094946  1
  C  C74  1  0.568663  0.935495  0.313322  1
  C  C75  1  0.828045  0.585800  0.675851  1
  C  C76  1  0.503506  0.580922  0.626354  1
  C  C77  1  0.746555  0.147985  0.297529  1
  C  C78  1  0.503506  0.080922  0.873646  1
  C  C79  1  0.579196  0.385013  0.667630  1
  S  S80  1  0.494159  0.221975  0.583617  1
  S  S81  1  0.371308  0.434756  0.546061  1
  S  S82  1  0.628692  0.565244  0.453939  1
  S  S83  1  0.774671  0.080748  0.401882  1
  S  S84  1  0.223511  0.127699  0.372332  1
  S  S85  1  0.776489  0.872301  0.627668  1
  S  S86  1  0.033650  0.387082  0.109649  1
  S  S87  1  0.803299  0.366607  0.530140  1
  S  S88  1  0.966350  0.112918  0.609649  1
  S  S89  1  0.033650  0.887082  0.390351  1
  S  S90  1  0.628692  0.065244  0.046061  1
  S  S91  1  0.776489  0.372301  0.872332  1
  S  S92  1  0.225329  0.419252  0.901882  1
  S  S93  1  0.803299  0.866607  0.969860  1
  S  S94  1  0.505842  0.278025  0.083617  1
  S  S95  1  0.505842  0.778025  0.416383  1
  S  S96  1  0.494159  0.721975  0.916383  1
  S  S97  1  0.966350  0.612918  0.890351  1
  S  S98  1  0.371308  0.934756  0.953939  1
  S  S99  1  0.225329  0.919252  0.598118  1
  S  S100  1  0.774671  0.580748  0.098118  1
  S  S101  1  0.196701  0.133393  0.030140  1
  S  S102  1  0.223511  0.627699  0.127668  1
  S  S103  1  0.196701  0.633393  0.469860  1
  O  O104  1  0.379597  0.133724  0.876120  1
  O  O105  1  0.997475  0.352877  0.425327  1
  O  O106  1  0.620403  0.366276  0.376120  1
  O  O107  1  0.019095  0.231238  0.712435  1
  O  O108  1  0.997475  0.852877  0.074673  1
  O  O109  1  0.503690  0.675301  0.312011  1
  O  O110  1  0.620403  0.866276  0.123880  1
  O  O111  1  0.379597  0.633724  0.623880  1
  O  O112  1  0.411748  0.901217  0.322306  1
  O  O113  1  0.503690  0.175301  0.187989  1
  O  O114  1  0.696313  0.475051  0.289955  1
  O  O115  1  0.264260  0.604037  0.236941  1
  O  O116  1  0.588252  0.098783  0.677694  1
  O  O117  1  0.303687  0.024949  0.789955  1
  O  O118  1  0.883281  0.629754  0.362053  1
  O  O119  1  0.686760  0.228401  0.298344  1
  O  O120  1  0.735740  0.395963  0.763059  1
  O  O121  1  0.002525  0.647123  0.574673  1
  O  O122  1  0.696313  0.975051  0.210045  1
  O  O123  1  0.123964  0.860075  0.201243  1
  O  O124  1  0.002525  0.147123  0.925327  1
  O  O125  1  0.686760  0.728401  0.201656  1
  O  O126  1  0.123964  0.360075  0.298757  1
  O  O127  1  0.313240  0.771599  0.701656  1
  O  O128  1  0.496310  0.324699  0.687989  1
  O  O129  1  0.876036  0.639925  0.701243  1
  O  O130  1  0.019095  0.731238  0.787565  1
  O  O131  1  0.980905  0.768762  0.287565  1
  O  O132  1  0.116719  0.370246  0.637947  1
  O  O133  1  0.496310  0.824699  0.812011  1
  O  O134  1  0.980905  0.268762  0.212435  1
  O  O135  1  0.313240  0.271599  0.798344  1
  O  O136  1  0.411748  0.401217  0.177694  1
  O  O137  1  0.303687  0.524949  0.710045  1
  O  O138  1  0.116719  0.870246  0.862053  1
  O  O139  1  0.735740  0.895963  0.736941  1
  O  O140  1  0.588252  0.598783  0.822306  1
  O  O141  1  0.264260  0.104037  0.263059  1
  O  O142  1  0.883281  0.129754  0.137947  1
  O  O143  1  0.876036  0.139925  0.798757  1
