# generated using pymatgen
data_La7Ti27Al5(CuO4)24
_symmetry_space_group_name_H-M   'P 1'
_cell_length_a   6.46064568
_cell_length_b   6.47440089
_cell_length_c   51.69676743
_cell_angle_alpha   109.49788339
_cell_angle_beta   109.51766429
_cell_angle_gamma   109.46822082
_symmetry_Int_Tables_number   1
_chemical_formula_structural   La7Ti27Al5(CuO4)24
_chemical_formula_sum   'La7 Ti27 Al5 Cu24 O96'
_cell_volume   1663.18523724
_cell_formula_units_Z   1
loop_
 _symmetry_equiv_pos_site_id
 _symmetry_equiv_pos_as_xyz
  1  'x, y, z'
loop_
 _atom_site_type_symbol
 _atom_site_label
 _atom_site_symmetry_multiplicity
 _atom_site_fract_x
 _atom_site_fract_y
 _atom_site_fract_z
 _atom_site_occupancy
  La  La0  1  0.000525  0.001199  0.875863  1
  La  La1  1  0.006735  0.005759  0.750866  1
  La  La2  1  0.003432  0.004006  0.625781  1
  La  La3  1  0.001394  0.001607  0.500335  1
  La  La4  1  0.999742  0.999755  0.374941  1
  La  La5  1  0.997670  0.997953  0.249486  1
  La  La6  1  0.991238  0.990514  0.122821  1
  Ti  Ti7  1  0.003148  0.006251  0.940543  1
  Ti  Ti8  1  0.998358  0.502693  0.874944  1
  Ti  Ti9  1  0.522554  0.516339  0.939856  1
  Ti  Ti10  1  0.001317  0.499824  0.751233  1
  Ti  Ti11  1  0.000622  0.000503  0.812817  1
  Ti  Ti12  1  0.001765  0.502582  0.625704  1
  Ti  Ti13  1  0.001981  0.002428  0.688061  1
  Ti  Ti14  1  0.505652  0.503711  0.688489  1
  Ti  Ti15  1  0.006842  0.998278  0.563548  1
  Ti  Ti16  1  0.000011  0.500901  0.500264  1
  Ti  Ti17  1  0.502307  0.505760  0.564000  1
  Ti  Ti18  1  -0.000115  0.499699  0.374935  1
  Ti  Ti19  1  0.000586  0.999614  0.437594  1
  Ti  Ti20  1  0.503389  0.005110  0.500708  1
  Ti  Ti21  1  0.998723  0.999762  0.312224  1
  Ti  Ti22  1  0.500763  0.500402  0.437614  1
  Ti  Ti23  1  0.000019  0.498254  0.249552  1
  Ti  Ti24  1  0.498368  0.498802  0.312204  1
  Ti  Ti25  1  0.499743  0.999546  0.374934  1
  Ti  Ti26  1  0.998421  0.495559  0.123436  1
  Ti  Ti27  1  0.991869  0.999690  0.185974  1
  Ti  Ti28  1  0.496163  0.993663  0.249152  1
  Ti  Ti29  1  0.494745  0.492208  0.185557  1
  Ti  Ti30  1  0.996204  0.992954  0.059265  1
  Ti  Ti31  1  0.473544  0.481917  0.059615  1
  Ti  Ti32  1  0.499560  0.998922  0.999967  1
  Ti  Ti33  1  0.000062  0.500234  0.999863  1
  Al  Al34  1  0.502024  0.500275  0.812620  1
  Al  Al35  1  0.500005  0.996842  0.874918  1
  Al  Al36  1  0.503032  0.007830  0.750673  1
  Al  Al37  1  0.503120  0.004230  0.625619  1
  Al  Al38  1  0.494718  0.993280  0.124032  1
  Cu  Cu39  1  0.498419  0.001673  0.937214  1
  Cu  Cu40  1  0.500441  0.000133  0.812518  1
  Cu  Cu41  1  0.501096  0.500165  0.874737  1
  Cu  Cu42  1  0.998091  0.495666  0.937002  1
  Cu  Cu43  1  0.500398  0.000226  0.687514  1
  Cu  Cu44  1  0.499824  0.500144  0.750516  1
  Cu  Cu45  1  0.999755  0.500399  0.812613  1
  Cu  Cu46  1  0.499931  0.499359  0.625198  1
  Cu  Cu47  1  -0.000248  0.499932  0.687583  1
  Cu  Cu48  1  0.501714  0.001153  0.563092  1
  Cu  Cu49  1  0.499937  0.999906  0.437491  1
  Cu  Cu50  1  0.499833  0.500323  0.500098  1
  Cu  Cu51  1  0.002873  0.502458  0.562880  1
  Cu  Cu52  1  0.499774  0.999878  0.312447  1
  Cu  Cu53  1  0.499847  0.499885  0.374968  1
  Cu  Cu54  1  0.000309  0.500016  0.437527  1
  Cu  Cu55  1  0.497924  0.998754  0.186872  1
  Cu  Cu56  1  0.499907  0.499540  0.249850  1
  Cu  Cu57  1  0.999583  0.499701  0.312426  1
  Cu  Cu58  1  0.499472  0.500342  0.124665  1
  Cu  Cu59  1  0.501511  0.998434  0.062845  1
  Cu  Cu60  1  0.997336  0.497293  0.187080  1
  Cu  Cu61  1  0.499960  0.499938  0.999984  1
  Cu  Cu62  1  0.002126  0.504178  0.062873  1
  O  O63  1  0.178414  0.868046  0.960906  1
  O  O64  1  0.132187  0.312107  0.977546  1
  O  O65  1  0.174300  0.480146  0.912687  1
  O  O66  1  0.179193  0.876138  0.837314  1
  O  O67  1  0.305206  0.823917  0.890603  1
  O  O68  1  0.508025  0.687223  0.977362  1
  O  O69  1  0.304774  0.175193  0.935114  1
  O  O70  1  0.127109  0.303338  0.852834  1
  O  O71  1  0.686559  0.821443  0.938673  1
  O  O72  1  0.182425  0.480135  0.787963  1
  O  O73  1  0.481237  0.300306  0.896664  1
  O  O74  1  0.308069  0.826123  0.766038  1
  O  O75  1  0.181842  0.878705  0.712645  1
  O  O76  1  0.688219  0.180362  0.983442  1
  O  O77  1  0.518009  0.696282  0.852494  1
  O  O78  1  0.821451  0.509218  0.961281  1
  O  O79  1  0.123203  0.301022  0.727508  1
  O  O80  1  0.308637  0.179585  0.810278  1
  O  O81  1  0.871300  0.694557  0.896891  1
  O  O82  1  0.690630  0.820279  0.814616  1
  O  O83  1  0.176719  0.479014  0.662452  1
  O  O84  1  0.183192  0.879670  0.587704  1
  O  O85  1  0.480122  0.301364  0.772588  1
  O  O86  1  0.301784  0.821304  0.639857  1
  O  O87  1  0.690489  0.171534  0.858554  1
  O  O88  1  0.817975  0.123733  0.912361  1
  O  O89  1  0.518409  0.700726  0.727721  1
  O  O90  1  0.818095  0.519824  0.836863  1
  O  O91  1  0.300989  0.178166  0.684877  1
  O  O92  1  0.122629  0.299738  0.602444  1
  O  O93  1  0.176567  0.478305  0.537365  1
  O  O94  1  0.697819  0.821194  0.689865  1
  O  O95  1  0.877096  0.698068  0.772156  1
  O  O96  1  0.479086  0.297302  0.647029  1
  O  O97  1  0.300705  0.821471  0.515332  1
  O  O98  1  0.177607  0.878693  0.462307  1
  O  O99  1  0.820140  0.122282  0.787482  1
  O  O100  1  0.697973  0.177903  0.734879  1
  O  O101  1  0.518238  0.701975  0.602704  1
  O  O102  1  0.121118  0.300126  0.477565  1
  O  O103  1  0.300557  0.178697  0.559745  1
  O  O104  1  0.823060  0.520858  0.712349  1
  O  O105  1  0.876139  0.697923  0.647028  1
  O  O106  1  0.179183  0.478471  0.412463  1
  O  O107  1  0.698248  0.820718  0.564764  1
  O  O108  1  0.477406  0.298700  0.522059  1
  O  O109  1  0.299807  0.821202  0.390112  1
  O  O110  1  0.178853  0.878307  0.337531  1
  O  O111  1  0.697749  0.177226  0.609950  1
  O  O112  1  0.520461  0.699261  0.477565  1
  O  O113  1  0.817941  0.120366  0.662182  1
  O  O114  1  0.120516  0.300289  0.352719  1
  O  O115  1  0.299725  0.179466  0.434865  1
  O  O116  1  0.819985  0.520097  0.586970  1
  O  O117  1  0.179350  0.479299  0.287775  1
  O  O118  1  0.699830  0.820351  0.440042  1
  O  O119  1  0.877814  0.698690  0.522054  1
  O  O120  1  0.177202  0.874734  0.212375  1
  O  O121  1  0.300197  0.821920  0.265313  1
  O  O122  1  0.478671  0.299051  0.397329  1
  O  O123  1  0.700003  0.178482  0.484752  1
  O  O124  1  0.521441  0.701349  0.352733  1
  O  O125  1  0.822243  0.123340  0.537556  1
  O  O126  1  0.300312  0.179740  0.309986  1
  O  O127  1  0.123236  0.302236  0.228116  1
  O  O128  1  0.820119  0.520894  0.462359  1
  O  O129  1  0.879577  0.700086  0.397339  1
  O  O130  1  0.179421  0.480217  0.163392  1
  O  O131  1  0.700476  0.820777  0.315187  1
  O  O132  1  0.182063  0.877687  0.087692  1
  O  O133  1  0.303486  0.824335  0.140351  1
  O  O134  1  0.479732  0.301673  0.272447  1
  O  O135  1  0.821345  0.120517  0.412473  1
  O  O136  1  0.700353  0.179073  0.359942  1
  O  O137  1  0.523138  0.701586  0.228119  1
  O  O138  1  0.124827  0.303503  0.103158  1
  O  O139  1  0.302821  0.179045  0.185346  1
  O  O140  1  0.821998  0.521400  0.337542  1
  O  O141  1  0.699344  0.822089  0.190324  1
  O  O142  1  0.178747  0.491121  0.038653  1
  O  O143  1  0.878034  0.699830  0.272453  1
  O  O144  1  0.310124  0.818185  0.016170  1
  O  O145  1  0.482453  0.298760  0.147339  1
  O  O146  1  0.823218  0.122940  0.287823  1
  O  O147  1  0.699128  0.178507  0.234647  1
  O  O148  1  0.520833  0.702550  0.103145  1
  O  O149  1  0.824879  0.521666  0.212549  1
  O  O150  1  0.312109  0.180606  0.061417  1
  O  O151  1  0.697419  0.823334  0.065018  1
  O  O152  1  0.876839  0.700782  0.147689  1
  O  O153  1  0.492407  0.312775  0.022703  1
  O  O154  1  0.696591  0.178126  0.110005  1
  O  O155  1  0.818263  0.123327  0.162548  1
  O  O156  1  0.823770  0.519538  0.087331  1
  O  O157  1  0.868282  0.687842  0.022481  1
  O  O158  1  0.820685  0.131574  0.039059  1
