# generated using pymatgen
data_P2SN3Cl5O
_symmetry_space_group_name_H-M   'P 1'
_cell_length_a   10.60575266
_cell_length_b   10.70721861
_cell_length_c   17.39545341
_cell_angle_alpha   89.46993504
_cell_angle_beta   73.99017203
_cell_angle_gamma   60.80671169
_symmetry_Int_Tables_number   1
_chemical_formula_structural   P2SN3Cl5O
_chemical_formula_sum   'P12 S6 N18 Cl30 O6'
_cell_volume   1639.01749772
_cell_formula_units_Z   6
loop_
 _symmetry_equiv_pos_site_id
 _symmetry_equiv_pos_as_xyz
  1  'x, y, z'
loop_
 _atom_site_type_symbol
 _atom_site_label
 _atom_site_symmetry_multiplicity
 _atom_site_fract_x
 _atom_site_fract_y
 _atom_site_fract_z
 _atom_site_occupancy
  P  P0  1  0.826559  0.603585  0.879104  1
  P  P1  1  0.676551  0.876355  0.807858  1
  P  P2  1  0.712144  0.227571  0.109480  1
  P  P3  1  0.323449  0.123645  0.192142  1
  P  P4  1  0.514036  0.499948  0.784735  1
  P  P5  1  0.287856  0.772429  0.890520  1
  P  P6  1  0.173441  0.396415  0.120896  1
  P  P7  1  0.704601  0.157628  0.452601  1
  P  P8  1  0.769658  0.407725  0.427305  1
  P  P9  1  0.230342  0.592275  0.572695  1
  P  P10  1  0.485964  0.500052  0.215265  1
  P  P11  1  0.295399  0.842372  0.547399  1
  S  S12  1  0.822305  0.385555  0.791802  1
  S  S13  1  0.380530  0.281766  0.519411  1
  S  S14  1  0.630146  0.011787  0.095258  1
  S  S15  1  0.619470  0.718234  0.480589  1
  S  S16  1  0.177695  0.614445  0.208198  1
  S  S17  1  0.369854  0.988213  0.904742  1
  N  N18  1  0.352484  0.510214  0.184658  1
  N  N19  1  0.522067  0.987275  0.877188  1
  N  N20  1  0.771128  0.715522  0.820361  1
  N  N21  1  0.111525  0.562339  0.154957  1
  N  N22  1  0.477933  0.012725  0.122812  1
  N  N23  1  0.634768  0.567677  0.467983  1
  N  N24  1  0.228872  0.284478  0.179639  1
  N  N25  1  0.392800  0.844126  0.866953  1
  N  N26  1  0.888475  0.437661  0.845043  1
  N  N27  1  0.541933  0.172425  0.462776  1
  N  N28  1  0.607200  0.155874  0.133047  1
  N  N29  1  0.458067  0.827575  0.537224  1
  N  N30  1  0.365232  0.432324  0.532017  1
  N  N31  1  0.648777  0.372925  0.165448  1
  N  N32  1  0.288010  0.700816  0.550993  1
  N  N33  1  0.351223  0.627075  0.834552  1
  N  N34  1  0.647516  0.489786  0.815342  1
  N  N35  1  0.711990  0.299184  0.449007  1
  Cl  Cl36  1  0.847201  0.396177  0.306253  1
  Cl  Cl37  1  0.667147  0.658324  0.987512  1
  Cl  Cl38  1  0.955202  0.353564  0.460885  1
  Cl  Cl39  1  0.001382  0.595388  0.906983  1
  Cl  Cl40  1  0.152799  0.603823  0.693747  1
  Cl  Cl41  1  0.783817  0.056915  0.542016  1
  Cl  Cl42  1  0.332853  0.341676  0.012488  1
  Cl  Cl43  1  0.998618  0.404612  0.093017  1
  Cl  Cl44  1  0.747659  0.260010  0.992963  1
  Cl  Cl45  1  0.922569  0.092074  0.113084  1
  Cl  Cl46  1  0.044798  0.646436  0.539115  1
  Cl  Cl47  1  0.367774  0.212158  0.632864  1
  Cl  Cl48  1  0.157775  0.986682  0.648174  1
  Cl  Cl49  1  0.198404  0.027723  0.208552  1
  Cl  Cl50  1  0.639772  0.871354  0.701049  1
  Cl  Cl51  1  0.915107  0.408318  0.674210  1
  Cl  Cl52  1  0.084893  0.591682  0.325790  1
  Cl  Cl53  1  0.216183  0.943085  0.457984  1
  Cl  Cl54  1  0.493669  0.683777  0.210113  1
  Cl  Cl55  1  0.506331  0.316223  0.789887  1
  Cl  Cl56  1  0.768255  0.850539  0.151557  1
  Cl  Cl57  1  0.842225  0.013318  0.351826  1
  Cl  Cl58  1  0.632226  0.787842  0.367136  1
  Cl  Cl59  1  0.553453  0.518160  0.666352  1
  Cl  Cl60  1  0.252341  0.739990  0.007037  1
  Cl  Cl61  1  0.360228  0.128646  0.298951  1
  Cl  Cl62  1  0.077431  0.907926  0.886916  1
  Cl  Cl63  1  0.801596  0.972277  0.791448  1
  Cl  Cl64  1  0.231745  0.149461  0.848443  1
  Cl  Cl65  1  0.446547  0.481840  0.333648  1
  O  O66  1  0.736813  0.723837  0.504235  1
  O  O67  1  0.125373  0.766725  0.210982  1
  O  O68  1  0.263187  0.276163  0.495765  1
  O  O69  1  0.289858  0.036587  0.990016  1
  O  O70  1  0.710142  0.963413  0.009984  1
  O  O71  1  0.874627  0.233275  0.789018  1
