# generated using pymatgen
data_Tl18Ag59Se39
_symmetry_space_group_name_H-M   'P 1'
_cell_length_a   15.24751577
_cell_length_b   15.24751577
_cell_length_c   14.03380100
_cell_angle_alpha   90.00000000
_cell_angle_beta   90.00000000
_cell_angle_gamma   119.99999999
_symmetry_Int_Tables_number   1
_chemical_formula_structural   Tl18Ag59Se39
_chemical_formula_sum   'Tl18 Ag59 Se39'
_cell_volume   2825.55735933
_cell_formula_units_Z   1
loop_
 _symmetry_equiv_pos_site_id
 _symmetry_equiv_pos_as_xyz
  1  'x, y, z'
loop_
 _atom_site_type_symbol
 _atom_site_label
 _atom_site_symmetry_multiplicity
 _atom_site_fract_x
 _atom_site_fract_y
 _atom_site_fract_z
 _atom_site_occupancy
  Tl  Tl0  1  0.141339  0.684634  0.093066  1
  Tl  Tl1  1  0.157432  0.704336  0.736880  1
  Tl  Tl2  1  0.142489  0.681739  0.419697  1
  Tl  Tl3  1  0.315366  0.456705  0.093066  1
  Tl  Tl4  1  0.295664  0.453096  0.736880  1
  Tl  Tl5  1  0.318261  0.460750  0.419697  1
  Tl  Tl6  1  0.543295  0.858661  0.093066  1
  Tl  Tl7  1  0.539250  0.857511  0.419697  1
  Tl  Tl8  1  0.546904  0.842568  0.736880  1
  Tl  Tl9  1  0.451629  0.134945  0.234564  1
  Tl  Tl10  1  0.466812  0.151348  0.583637  1
  Tl  Tl11  1  0.457221  0.141382  0.935283  1
  Tl  Tl12  1  0.683316  0.548371  0.234564  1
  Tl  Tl13  1  0.684536  0.533188  0.583637  1
  Tl  Tl14  1  0.684162  0.542779  0.935283  1
  Tl  Tl15  1  0.865055  0.316684  0.234564  1
  Tl  Tl16  1  0.848652  0.315464  0.583637  1
  Tl  Tl17  1  0.858618  0.315838  0.935283  1
  Ag  Ag18  1  0.011025  0.889771  0.077152  1
  Ag  Ag19  1  0.013186  0.851215  0.414778  1
  Ag  Ag20  1  0.015075  0.835572  0.750189  1
  Ag  Ag21  1  0.221619  0.868221  0.258849  1
  Ag  Ag22  1  0.227997  0.869903  0.564040  1
  Ag  Ag23  1  0.216724  0.855674  0.917937  1
  Ag  Ag24  1  0.078840  0.431810  0.086105  1
  Ag  Ag25  1  0.034339  0.424529  0.414477  1
  Ag  Ag26  1  0.026588  0.456420  0.747842  1
  Ag  Ag27  1  0.131779  0.353397  0.258849  1
  Ag  Ag28  1  0.130097  0.358095  0.564040  1
  Ag  Ag29  1  0.144326  0.361049  0.917937  1
  Ag  Ag30  1  0.352969  0.921160  0.086105  1
  Ag  Ag31  1  0.429832  0.973412  0.747842  1
  Ag  Ag32  1  0.390190  0.965661  0.414477  1
  Ag  Ag33  1  0.333333  0.666667  0.251586  1
  Ag  Ag34  1  0.333333  0.666667  0.916691  1
  Ag  Ag35  1  0.110229  0.121255  0.077152  1
  Ag  Ag36  1  0.148785  0.161971  0.414778  1
  Ag  Ag37  1  0.164428  0.179503  0.750189  1
  Ag  Ag38  1  0.118985  0.009584  0.248757  1
  Ag  Ag39  1  0.191594  0.051292  0.587712  1
  Ag  Ag40  1  0.193366  0.038399  0.900569  1
  Ag  Ag41  1  0.343314  0.217967  0.077783  1
  Ag  Ag42  1  0.368058  0.216911  0.417498  1
  Ag  Ag43  1  0.362352  0.193647  0.759372  1
  Ag  Ag44  1  0.422969  0.350476  0.249139  1
  Ag  Ag45  1  0.435714  0.411005  0.916293  1
  Ag  Ag46  1  0.444294  0.392326  0.587979  1
  Ag  Ag47  1  0.568190  0.647031  0.086105  1
  Ag  Ag48  1  0.543580  0.570168  0.747842  1
  Ag  Ag49  1  0.575471  0.609811  0.414477  1
  Ag  Ag50  1  0.646603  0.778381  0.258849  1
  Ag  Ag51  1  0.641905  0.772003  0.564040  1
  Ag  Ag52  1  0.638951  0.783277  0.917937  1
  Ag  Ag53  1  0.838029  0.986814  0.414778  1
  Ag  Ag54  1  0.878745  0.988975  0.077152  1
  Ag  Ag55  1  0.820497  0.984925  0.750189  1
  Ag  Ag56  1  0.890599  0.881015  0.248757  1
  Ag  Ag57  1  0.859698  0.808406  0.587712  1
  Ag  Ag58  1  0.845034  0.806634  0.900569  1
  Ag  Ag59  1  0.666667  0.333333  0.403362  1
  Ag  Ag60  1  0.666667  0.333333  0.083168  1
  Ag  Ag61  1  0.666667  0.333333  0.765923  1
  Ag  Ag62  1  0.649524  0.072493  0.249139  1
  Ag  Ag63  1  0.607674  0.051968  0.587979  1
  Ag  Ag64  1  0.588995  0.024709  0.916293  1
  Ag  Ag65  1  0.874653  0.656686  0.077783  1
  Ag  Ag66  1  0.848854  0.631942  0.417498  1
  Ag  Ag67  1  0.831294  0.637648  0.759372  1
  Ag  Ag68  1  0.927507  0.577031  0.249139  1
  Ag  Ag69  1  0.948032  0.555706  0.587979  1
  Ag  Ag70  1  0.975291  0.564286  0.916293  1
  Ag  Ag71  1  0.782033  0.125347  0.077783  1
  Ag  Ag72  1  0.783089  0.151146  0.417498  1
  Ag  Ag73  1  0.806353  0.168706  0.759372  1
  Ag  Ag74  1  0.990416  0.109401  0.248757  1
  Ag  Ag75  1  0.948708  0.140302  0.587712  1
  Ag  Ag76  1  0.961601  0.154966  0.900569  1
  Se  Se77  1  0.000000  0.000000  0.504518  1
  Se  Se78  1  0.000000  0.000000  0.920900  1
  Se  Se79  1  0.026223  0.785190  0.241448  1
  Se  Se80  1  0.030275  0.757108  0.580705  1
  Se  Se81  1  0.021862  0.758899  0.921443  1
  Se  Se82  1  0.138091  0.528926  0.251711  1
  Se  Se83  1  0.138193  0.528661  0.917181  1
  Se  Se84  1  0.123318  0.526061  0.577493  1
  Se  Se85  1  0.390835  0.861909  0.251711  1
  Se  Se86  1  0.402743  0.876682  0.577493  1
  Se  Se87  1  0.390468  0.861807  0.917181  1
  Se  Se88  1  0.000000  0.000000  0.712307  1
  Se  Se89  1  0.214810  0.241033  0.241448  1
  Se  Se90  1  0.242892  0.273167  0.580705  1
  Se  Se91  1  0.241101  0.262963  0.921443  1
  Se  Se92  1  0.471074  0.609165  0.251711  1
  Se  Se93  1  0.471339  0.609532  0.917181  1
  Se  Se94  1  0.473939  0.597257  0.577493  1
  Se  Se95  1  0.758967  0.973777  0.241448  1
  Se  Se96  1  0.726833  0.969725  0.580705  1
  Se  Se97  1  0.737037  0.978138  0.921443  1
  Se  Se98  1  0.249629  0.021409  0.082893  1
  Se  Se99  1  0.265953  0.000847  0.740941  1
  Se  Se100  1  0.250537  0.024536  0.405625  1
  Se  Se101  1  0.522343  0.383322  0.083723  1
  Se  Se102  1  0.530100  0.392517  0.411761  1
  Se  Se103  1  0.518204  0.371745  0.758214  1
  Se  Se104  1  0.774000  0.749463  0.405625  1
  Se  Se105  1  0.771780  0.750371  0.082893  1
  Se  Se106  1  0.734894  0.734047  0.740941  1
  Se  Se107  1  0.616678  0.139021  0.083723  1
  Se  Se108  1  0.607483  0.137583  0.411761  1
  Se  Se109  1  0.628255  0.146459  0.758214  1
  Se  Se110  1  0.860979  0.477657  0.083723  1
  Se  Se111  1  0.862417  0.469900  0.411761  1
  Se  Se112  1  0.853541  0.481796  0.758214  1
  Se  Se113  1  0.978591  0.228220  0.082893  1
  Se  Se114  1  0.999153  0.265106  0.740941  1
  Se  Se115  1  0.975464  0.226000  0.405625  1
