# generated using pymatgen
data_CeGePt
_symmetry_space_group_name_H-M   'P 1'
_cell_length_a   4.50163727
_cell_length_b   7.72528413
_cell_length_c   14.63115722
_cell_angle_alpha   90.00161347
_cell_angle_beta   89.99972605
_cell_angle_gamma   89.99886897
_symmetry_Int_Tables_number   1
_chemical_formula_structural   CeGePt
_chemical_formula_sum   'Ce8 Ge8 Pt8'
_cell_volume   508.81937026
_cell_formula_units_Z   8
loop_
 _symmetry_equiv_pos_site_id
 _symmetry_equiv_pos_as_xyz
  1  'x, y, z'
loop_
 _atom_site_type_symbol
 _atom_site_label
 _atom_site_symmetry_multiplicity
 _atom_site_fract_x
 _atom_site_fract_y
 _atom_site_fract_z
 _atom_site_occupancy
  Ce  Ce0  1  0.749999  0.210996  0.503165  1
  Ce  Ce1  1  0.250001  0.707340  0.749969  1
  Ce  Ce2  1  0.750003  0.296936  0.750038  1
  Ce  Ce3  1  0.249996  0.703743  0.250035  1
  Ce  Ce4  1  0.250003  0.788692  0.497037  1
  Ce  Ce5  1  0.250001  0.788760  0.002964  1
  Ce  Ce6  1  0.749998  0.293077  0.249966  1
  Ce  Ce7  1  0.749999  0.211053  0.996836  1
  Ge  Ge8  1  0.250002  0.088188  0.654802  1
  Ge  Ge9  1  0.250000  0.410914  0.399310  1
  Ge  Ge10  1  0.750000  0.589495  0.899106  1
  Ge  Ge11  1  0.249998  0.410811  0.100659  1
  Ge  Ge12  1  0.750001  0.589597  0.600871  1
  Ge  Ge13  1  0.249998  0.088237  0.845216  1
  Ge  Ge14  1  0.750000  0.911205  0.154772  1
  Ge  Ge15  1  0.750002  0.911152  0.345238  1
  Pt  Pt16  1  0.250001  0.079067  0.140536  1
  Pt  Pt17  1  0.250004  0.079005  0.359453  1
  Pt  Pt18  1  0.749998  0.584201  0.398800  1
  Pt  Pt19  1  0.249999  0.416123  0.898732  1
  Pt  Pt20  1  0.750001  0.584127  0.101208  1
  Pt  Pt21  1  0.750000  0.920572  0.859334  1
  Pt  Pt22  1  0.749997  0.920507  0.640671  1
  Pt  Pt23  1  0.249999  0.416202  0.601281  1
