# generated using pymatgen
data_Ba39Li80N9
_symmetry_space_group_name_H-M   'P 1'
_cell_length_a   15.78792226
_cell_length_b   15.78792218
_cell_length_c   19.39555475
_cell_angle_alpha   114.01642054
_cell_angle_beta   114.01642039
_cell_angle_gamma   90.00000043
_symmetry_Int_Tables_number   1
_chemical_formula_structural   Ba39Li80N9
_chemical_formula_sum   'Ba39 Li80 N9'
_cell_volume   3953.38669771
_cell_formula_units_Z   1
loop_
 _symmetry_equiv_pos_site_id
 _symmetry_equiv_pos_as_xyz
  1  'x, y, z'
loop_
 _atom_site_type_symbol
 _atom_site_label
 _atom_site_symmetry_multiplicity
 _atom_site_fract_x
 _atom_site_fract_y
 _atom_site_fract_z
 _atom_site_occupancy
  Ba  Ba0  1  1.000000  0.821133  1.000000  1
  Ba  Ba1  1  0.073841  0.746584  0.499224  1
  Ba  Ba2  1  0.824318  0.365299  0.910159  1
  Ba  Ba3  1  0.926159  0.247360  0.500776  1
  Ba  Ba4  1  0.086747  0.086747  0.173494  1
  Ba  Ba5  1  0.247360  0.926159  0.500776  1
  Ba  Ba6  1  0.634701  0.914160  0.089841  1
  Ba  Ba7  1  0.906336  0.696565  0.602902  1
  Ba  Ba8  1  0.223829  0.404802  0.628631  1
  Ba  Ba9  1  0.303435  0.303435  0.397098  1
  Ba  Ba10  1  0.365299  0.824318  0.910159  1
  Ba  Ba11  1  0.425383  0.752640  0.499224  1
  Ba  Ba12  1  0.175682  0.455140  0.089841  1
  Ba  Ba13  1  0.558639  0.322551  0.881191  1
  Ba  Ba14  1  0.339724  0.839724  0.679447  1
  Ba  Ba15  1  0.696565  0.906336  0.602902  1
  Ba  Ba16  1  0.160276  0.660276  0.320553  1
  Ba  Ba17  1  0.093664  0.093664  0.397098  1
  Ba  Ba18  1  0.839724  0.339724  0.679447  1
  Ba  Ba19  1  0.322551  0.558639  0.881191  1
  Ba  Ba20  1  0.776171  0.776171  0.371369  1
  Ba  Ba21  1  0.544860  0.085840  0.910159  1
  Ba  Ba22  1  0.085840  0.544860  0.910159  1
  Ba  Ba23  1  0.574617  0.253416  0.500776  1
  Ba  Ba24  1  0.746584  0.073841  0.499224  1
  Ba  Ba25  1  0.000000  0.178867  0.000000  1
  Ba  Ba26  1  0.178867  0.000000  0.000000  1
  Ba  Ba27  1  0.677449  0.677449  0.118809  1
  Ba  Ba28  1  0.914160  0.634701  0.089841  1
  Ba  Ba29  1  0.441361  0.441361  0.118809  1
  Ba  Ba30  1  0.821133  1.000000  1.000000  1
  Ba  Ba31  1  0.660276  0.160276  0.320553  1
  Ba  Ba32  1  0.253416  0.574617  0.500776  1
  Ba  Ba33  1  0.404802  0.223829  0.628631  1
  Ba  Ba34  1  0.752640  0.425383  0.499224  1
  Ba  Ba35  1  0.455140  0.175682  0.089841  1
  Ba  Ba36  1  0.500000  0.500000  0.000000  1
  Ba  Ba37  1  0.913253  0.913253  0.826506  1
  Ba  Ba38  1  0.595198  0.595198  0.371369  1
  Li  Li39  1  0.508722  0.508722  0.499983  1
  Li  Li40  1  0.463986  0.463986  0.622995  1
  Li  Li41  1  0.877154  0.624125  0.750560  1
  Li  Li42  1  0.575075  0.806179  0.851399  1
  Li  Li43  1  0.754567  0.459895  0.081319  1
  Li  Li44  1  0.315755  0.055825  0.371580  1
  Li  Li45  1  0.006039  0.474955  0.335434  1
  Li  Li46  1  0.624125  0.877154  0.750560  1
  Li  Li47  1  0.474955  0.006039  0.335434  1
  Li  Li48  1  0.459895  0.754567  0.081319  1
  Li  Li49  1  0.903547  0.903547  0.174375  1
  Li  Li50  1  0.332028  0.097824  0.731527  1
  Li  Li51  1  0.832076  0.974749  0.316828  1
  Li  Li52  1  0.954779  0.424925  0.148601  1
  Li  Li53  1  0.045221  0.276324  0.851399  1
  Li  Li54  1  0.528335  0.688154  0.216489  1
  Li  Li55  1  0.873405  0.126435  0.750560  1
  Li  Li56  1  0.723676  0.193821  0.148601  1
  Li  Li57  1  0.974749  0.832076  0.316828  1
  Li  Li58  1  0.097824  0.332028  0.731527  1
  Li  Li59  1  0.025251  0.515248  0.683172  1
  Li  Li60  1  0.399499  0.633703  0.731527  1
  Li  Li61  1  0.806179  0.575075  0.851399  1
  Li  Li62  1  0.139521  0.993961  0.664566  1
  Li  Li63  1  0.840991  0.536014  0.377005  1
  Li  Li64  1  0.536014  0.840991  0.377005  1
  Li  Li65  1  0.167924  0.657921  0.683172  1
  Li  Li66  1  0.248257  0.785600  0.033857  1
  Li  Li67  1  0.670605  0.525045  0.664566  1
  Li  Li68  1  0.366297  0.667972  0.268473  1
  Li  Li69  1  0.991261  0.991261  0.499983  1
  Li  Li70  1  0.375875  0.126595  0.249440  1
  Li  Li71  1  0.932935  0.259284  0.192218  1
  Li  Li72  1  0.751743  0.751743  0.966143  1
  Li  Li73  1  0.245433  0.378576  0.918681  1
  Li  Li74  1  0.329395  0.860479  0.335434  1
  Li  Li75  1  0.122846  0.873565  0.249440  1
  Li  Li76  1  0.688154  0.528335  0.216489  1
  Li  Li77  1  0.491278  0.008739  0.500017  1
  Li  Li78  1  0.785600  0.248257  0.033857  1
  Li  Li79  1  0.673248  0.540105  0.918681  1
  Li  Li80  1  0.126435  0.873405  0.750560  1
  Li  Li81  1  0.860479  0.329395  0.335434  1
  Li  Li82  1  0.484752  0.342079  0.316828  1
  Li  Li83  1  0.657921  0.167924  0.683172  1
  Li  Li84  1  0.729173  0.096453  0.825625  1
  Li  Li85  1  0.902176  0.600501  0.268473  1
  Li  Li86  1  0.259284  0.932935  0.192218  1
  Li  Li87  1  0.604353  0.604353  0.791110  1
  Li  Li88  1  0.740716  0.740716  0.807782  1
  Li  Li89  1  0.193821  0.723676  0.148601  1
  Li  Li90  1  0.525045  0.670605  0.664566  1
  Li  Li91  1  0.008739  0.491278  0.500017  1
  Li  Li92  1  0.067065  0.067065  0.807782  1
  Li  Li93  1  0.813243  0.395647  0.208890  1
  Li  Li94  1  0.378576  0.245433  0.918681  1
  Li  Li95  1  0.944175  0.944175  0.628420  1
  Li  Li96  1  0.311846  0.311846  0.783511  1
  Li  Li97  1  0.395647  0.813243  0.208890  1
  Li  Li98  1  0.993961  0.139521  0.664566  1
  Li  Li99  1  0.621424  0.326752  0.081319  1
  Li  Li100  1  0.540105  0.673248  0.918681  1
  Li  Li101  1  0.276324  0.045221  0.851399  1
  Li  Li102  1  0.326752  0.621424  0.081319  1
  Li  Li103  1  0.600501  0.902176  0.268473  1
  Li  Li104  1  0.515248  0.025251  0.683172  1
  Li  Li105  1  0.342079  0.484752  0.316828  1
  Li  Li106  1  0.186757  0.186757  0.791110  1
  Li  Li107  1  0.471665  0.471665  0.783511  1
  Li  Li108  1  0.633703  0.399499  0.731527  1
  Li  Li109  1  0.270827  0.270827  0.174375  1
  Li  Li110  1  0.214400  0.214400  0.966143  1
  Li  Li111  1  0.684245  0.684245  0.628420  1
  Li  Li112  1  0.096453  0.729173  0.825625  1
  Li  Li113  1  0.667972  0.366297  0.268473  1
  Li  Li114  1  0.873565  0.122846  0.249440  1
  Li  Li115  1  0.424925  0.954779  0.148601  1
  Li  Li116  1  0.159009  0.159009  0.622995  1
  Li  Li117  1  0.055825  0.315755  0.371580  1
  Li  Li118  1  0.126595  0.375875  0.249440  1
  N  N119  1  0.500000  0.312857  1.000000  1
  N  N120  1  0.591528  0.591528  0.183056  1
  N  N121  1  0.312857  0.500000  1.000000  1
  N  N122  1  0.687143  0.500000  0.000000  1
  N  N123  1  0.250000  0.750000  0.500000  1
  N  N124  1  0.000000  0.000000  0.000000  1
  N  N125  1  0.500000  0.687143  0.000000  1
  N  N126  1  0.750000  0.250000  0.500000  1
  N  N127  1  0.408472  0.408472  0.816944  1
