# generated using pymatgen
data_Ba2Ho2Co4O11
_symmetry_space_group_name_H-M   'P 1'
_cell_length_a   7.67838998
_cell_length_b   7.83133581
_cell_length_c   7.82637186
_cell_angle_alpha   90.00000000
_cell_angle_beta   90.00000000
_cell_angle_gamma   90.00000000
_symmetry_Int_Tables_number   1
_chemical_formula_structural   Ba2Ho2Co4O11
_chemical_formula_sum   'Ba4 Ho4 Co8 O22'
_cell_volume   470.61578724
_cell_formula_units_Z   2
loop_
 _symmetry_equiv_pos_site_id
 _symmetry_equiv_pos_as_xyz
  1  'x, y, z'
loop_
 _atom_site_type_symbol
 _atom_site_label
 _atom_site_symmetry_multiplicity
 _atom_site_fract_x
 _atom_site_fract_y
 _atom_site_fract_z
 _atom_site_occupancy
  O  O0  1  0.302833  0.750000  0.230364  1
  O  O1  1  0.302833  0.750000  0.769636  1
  O  O2  1  0.697167  0.250000  0.769636  1
  O  O3  1  0.697167  0.250000  0.230364  1
  O  O4  1  0.691463  0.750000  0.229756  1
  O  O5  1  0.691463  0.750000  0.770244  1
  O  O6  1  0.308537  0.250000  0.770244  1
  O  O7  1  0.308537  0.250000  0.229756  1
  O  O8  1  0.719268  0.999780  0.500000  1
  O  O9  1  0.719268  0.500220  0.500000  1
  O  O10  1  0.280732  0.499780  0.500000  1
  O  O11  1  0.280732  0.000220  0.500000  1
  O  O12  1  0.683814  0.000468  0.000000  1
  O  O13  1  0.683814  0.499532  0.000000  1
  O  O14  1  0.316186  0.500468  0.000000  1
  O  O15  1  0.316186  0.999532  0.000000  1
  O  O16  1  1.001764  0.250000  0.000000  1
  O  O17  1  -0.001764  0.750000  0.000000  1
  O  O18  1  0.000251  0.250000  0.500000  1
  O  O19  1  0.999749  0.750000  0.500000  1
  O  O20  1  0.501050  0.250000  0.500000  1
  O  O21  1  0.498950  0.750000  0.500000  1
  Co  Co22  1  0.254453  0.750000  0.500000  1
  Co  Co23  1  0.745547  0.250000  0.500000  1
  Co  Co24  1  0.744391  0.750000  0.500000  1
  Co  Co25  1  0.255609  0.250000  0.500000  1
  Co  Co26  1  0.259717  0.750000  0.000000  1
  Co  Co27  1  0.740283  0.250000  0.000000  1
  Co  Co28  1  0.737869  0.750000  0.000000  1
  Co  Co29  1  0.262131  0.250000  0.000000  1
  Ba  Ba30  1  0.000000  0.500000  0.250169  1
  Ba  Ba31  1  0.000000  0.000000  0.749831  1
  Ba  Ba32  1  0.000000  0.500000  0.749831  1
  Ba  Ba33  1  0.000000  0.000000  0.250169  1
  Ho  Ho34  1  0.500000  0.500000  0.272468  1
  Ho  Ho35  1  0.500000  0.000000  0.727532  1
  Ho  Ho36  1  0.500000  0.500000  0.727532  1
  Ho  Ho37  1  0.500000  0.000000  0.272468  1
