# generated using pymatgen
data_Pr6Fe13Ge
_symmetry_space_group_name_H-M   'P 1'
_cell_length_a   8.08250227
_cell_length_b   8.07565319
_cell_length_c   12.91378236
_cell_angle_alpha   108.10337127
_cell_angle_beta   108.30063289
_cell_angle_gamma   90.06365252
_symmetry_Int_Tables_number   1
_chemical_formula_structural   Pr6Fe13Ge
_chemical_formula_sum   'Pr12 Fe26 Ge2'
_cell_volume   756.09251933
_cell_formula_units_Z   2
loop_
 _symmetry_equiv_pos_site_id
 _symmetry_equiv_pos_as_xyz
  1  'x, y, z'
loop_
 _atom_site_type_symbol
 _atom_site_label
 _atom_site_symmetry_multiplicity
 _atom_site_fract_x
 _atom_site_fract_y
 _atom_site_fract_z
 _atom_site_occupancy
  Pr  Pr0  1  0.977616  0.477606  0.620221  1
  Pr  Pr1  1  0.643571  0.148046  0.624439  1
  Pr  Pr2  1  0.857554  0.024334  0.377487  1
  Pr  Pr3  1  0.890851  0.893957  0.782771  1
  Pr  Pr4  1  0.388903  0.392281  0.783570  1
  Pr  Pr5  1  0.108971  0.106184  0.216053  1
  Pr  Pr6  1  0.609055  0.608677  0.215958  1
  Pr  Pr7  1  0.524126  0.355235  0.380058  1
  Pr  Pr8  1  0.024214  0.524553  0.379492  1
  Pr  Pr9  1  0.360996  0.858329  0.379408  1
  Pr  Pr10  1  0.474781  0.645979  0.620331  1
  Pr  Pr11  1  0.142827  0.975183  0.619240  1
  Fe  Fe12  1  0.210124  0.482358  0.192405  1
  Fe  Fe13  1  0.933102  0.790144  0.000136  1
  Fe  Fe14  1  0.788125  0.066401  0.000409  1
  Fe  Fe15  1  0.565227  0.289459  0.000718  1
  Fe  Fe16  1  0.735647  0.878865  0.116931  1
  Fe  Fe17  1  0.116045  0.617388  0.879863  1
  Fe  Fe18  1  0.706289  0.207337  0.191666  1
  Fe  Fe19  1  0.880505  0.380109  0.120160  1
  Fe  Fe20  1  0.288057  0.433163  0.000512  1
  Fe  Fe21  1  0.017693  0.291523  0.809881  1
  Fe  Fe22  1  0.290987  0.792894  0.807376  1
  Fe  Fe23  1  0.381684  0.236607  0.118771  1
  Fe  Fe24  1  0.484114  0.981031  0.189598  1
  Fe  Fe25  1  0.792388  0.519621  0.810158  1
  Fe  Fe26  1  0.998935  0.499921  0.000826  1
  Fe  Fe27  1  0.237328  0.737009  0.119120  1
  Fe  Fe28  1  0.983955  0.705797  0.190801  1
  Fe  Fe29  1  0.618185  0.762176  0.880114  1
  Fe  Fe30  1  0.514891  0.018207  0.809307  1
  Fe  Fe31  1  0.208590  0.932281  0.998187  1
  Fe  Fe32  1  0.429983  0.708811  0.998327  1
  Fe  Fe33  1  0.708288  0.565306  0.999081  1
  Fe  Fe34  1  0.498101  0.998586  0.998918  1
  Fe  Fe35  1  0.066143  0.210644  0.000982  1
  Fe  Fe36  1  0.761389  0.262573  0.882120  1
  Fe  Fe37  1  0.261499  0.119404  0.880458  1
  Ge  Ge38  1  0.748310  0.751878  0.498344  1
  Ge  Ge39  1  0.249713  0.253049  0.500832  1
