# generated using pymatgen
data_Y14(InRh)3
_symmetry_space_group_name_H-M   'P 1'
_cell_length_a   9.71012272
_cell_length_b   9.71012272
_cell_length_c   23.62347107
_cell_angle_alpha   90.00000000
_cell_angle_beta   90.00000000
_cell_angle_gamma   90.00000000
_symmetry_Int_Tables_number   1
_chemical_formula_structural   Y14(InRh)3
_chemical_formula_sum   'Y56 In12 Rh12'
_cell_volume   2227.37400905
_cell_formula_units_Z   4
loop_
 _symmetry_equiv_pos_site_id
 _symmetry_equiv_pos_as_xyz
  1  'x, y, z'
loop_
 _atom_site_type_symbol
 _atom_site_label
 _atom_site_symmetry_multiplicity
 _atom_site_fract_x
 _atom_site_fract_y
 _atom_site_fract_z
 _atom_site_occupancy
  Y  Y0  1  0.548532  0.250000  0.806473  1
  Y  Y1  1  0.951468  0.250000  0.806473  1
  Y  Y2  1  0.437953  0.065110  0.104564  1
  Y  Y3  1  0.250000  0.441627  0.466288  1
  Y  Y4  1  0.048532  0.750000  0.193527  1
  Y  Y5  1  0.750000  0.048532  0.693527  1
  Y  Y6  1  0.750000  0.750000  0.784513  1
  Y  Y7  1  0.250000  0.750000  0.646067  1
  Y  Y8  1  0.060602  0.750000  0.516467  1
  Y  Y9  1  0.062047  0.434890  0.104564  1
  Y  Y10  1  0.250000  0.750000  0.853933  1
  Y  Y11  1  0.061502  0.561502  0.750000  1
  Y  Y12  1  0.250000  0.250000  0.215487  1
  Y  Y13  1  0.750000  0.250000  0.146067  1
  Y  Y14  1  0.565110  0.562047  0.395436  1
  Y  Y15  1  0.750000  0.941627  0.533712  1
  Y  Y16  1  0.938498  0.438498  0.250000  1
  Y  Y17  1  0.441627  0.250000  0.966288  1
  Y  Y18  1  0.250000  0.951468  0.306473  1
  Y  Y19  1  0.750000  0.060602  0.016467  1
  Y  Y20  1  0.938498  0.061502  0.250000  1
  Y  Y21  1  0.937953  0.565110  0.895436  1
  Y  Y22  1  0.065110  0.437953  0.604564  1
  Y  Y23  1  0.750000  0.750000  0.284513  1
  Y  Y24  1  0.451468  0.750000  0.193527  1
  Y  Y25  1  0.061502  0.938498  0.750000  1
  Y  Y26  1  0.750000  0.451468  0.693527  1
  Y  Y27  1  0.437953  0.434890  0.104564  1
  Y  Y28  1  0.562047  0.565110  0.895436  1
  Y  Y29  1  0.934890  0.562047  0.395436  1
  Y  Y30  1  0.562047  0.934890  0.895436  1
  Y  Y31  1  0.250000  0.939398  0.983533  1
  Y  Y32  1  0.250000  0.548532  0.306473  1
  Y  Y33  1  0.937953  0.934890  0.895436  1
  Y  Y34  1  0.439398  0.750000  0.516467  1
  Y  Y35  1  0.434890  0.437953  0.604564  1
  Y  Y36  1  0.565110  0.937953  0.395436  1
  Y  Y37  1  0.558373  0.750000  0.033712  1
  Y  Y38  1  0.438498  0.938498  0.750000  1
  Y  Y39  1  0.560602  0.250000  0.483533  1
  Y  Y40  1  0.941627  0.750000  0.033712  1
  Y  Y41  1  0.561502  0.438498  0.250000  1
  Y  Y42  1  0.750000  0.439398  0.016467  1
  Y  Y43  1  0.065110  0.062047  0.604564  1
  Y  Y44  1  0.934890  0.937953  0.395436  1
  Y  Y45  1  0.250000  0.058373  0.466288  1
  Y  Y46  1  0.561502  0.061502  0.250000  1
  Y  Y47  1  0.750000  0.558373  0.533712  1
  Y  Y48  1  0.939398  0.250000  0.483533  1
  Y  Y49  1  0.250000  0.250000  0.715487  1
  Y  Y50  1  0.434890  0.062047  0.604564  1
  Y  Y51  1  0.250000  0.560602  0.983533  1
  Y  Y52  1  0.062047  0.065110  0.104564  1
  Y  Y53  1  0.750000  0.250000  0.353933  1
  Y  Y54  1  0.438498  0.561502  0.750000  1
  Y  Y55  1  0.058373  0.250000  0.966288  1
  In  In56  1  0.410669  0.250000  0.354781  1
  In  In57  1  0.750000  0.250000  0.909071  1
  In  In58  1  0.589331  0.750000  0.645219  1
  In  In59  1  0.910669  0.750000  0.645219  1
  In  In60  1  0.750000  0.910669  0.145219  1
  In  In61  1  0.089331  0.250000  0.354781  1
  In  In62  1  0.250000  0.750000  0.090929  1
  In  In63  1  0.250000  0.750000  0.409071  1
  In  In64  1  0.250000  0.410669  0.854781  1
  In  In65  1  0.750000  0.250000  0.590929  1
  In  In66  1  0.250000  0.089331  0.854781  1
  In  In67  1  0.750000  0.589331  0.145219  1
  Rh  Rh68  1  0.750000  0.750000  0.448957  1
  Rh  Rh69  1  0.250000  0.250000  0.051043  1
  Rh  Rh70  1  0.750000  0.031245  0.810939  1
  Rh  Rh71  1  0.968755  0.250000  0.689061  1
  Rh  Rh72  1  0.468755  0.750000  0.310939  1
  Rh  Rh73  1  0.031245  0.750000  0.310939  1
  Rh  Rh74  1  0.750000  0.468755  0.810939  1
  Rh  Rh75  1  0.250000  0.968755  0.189061  1
  Rh  Rh76  1  0.750000  0.750000  0.948957  1
  Rh  Rh77  1  0.250000  0.531245  0.189061  1
  Rh  Rh78  1  0.250000  0.250000  0.551043  1
  Rh  Rh79  1  0.531245  0.250000  0.689061  1
