# generated using pymatgen
data_Zr19O40
_symmetry_space_group_name_H-M   'P 1'
_cell_length_a   18.26421635
_cell_length_b   8.16520341
_cell_length_c   11.16642133
_cell_angle_alpha   72.92211888
_cell_angle_beta   70.77883306
_cell_angle_gamma   26.57409671
_symmetry_Int_Tables_number   1
_chemical_formula_structural   Zr19O40
_chemical_formula_sum   'Zr19 O40'
_cell_volume   703.43286485
_cell_formula_units_Z   1
loop_
 _symmetry_equiv_pos_site_id
 _symmetry_equiv_pos_as_xyz
  1  'x, y, z'
loop_
 _atom_site_type_symbol
 _atom_site_label
 _atom_site_symmetry_multiplicity
 _atom_site_fract_x
 _atom_site_fract_y
 _atom_site_fract_z
 _atom_site_occupancy
  Zr  Zr0  1  0.175343  0.248473  0.376258  1
  Zr  Zr1  1  0.073540  0.245636  0.878199  1
  Zr  Zr2  1  0.027171  0.745196  0.625635  1
  Zr  Zr3  1  0.120207  0.760269  0.121385  1
  Zr  Zr4  1  0.376617  0.246971  0.373412  1
  Zr  Zr5  1  0.274131  0.251009  0.874353  1
  Zr  Zr6  1  0.224008  0.752630  0.624478  1
  Zr  Zr7  1  0.330814  0.740713  0.121045  1
  Zr  Zr8  1  0.581406  0.237456  0.372180  1
  Zr  Zr9  1  0.478463  0.248198  0.877116  1
  Zr  Zr10  1  0.523626  0.756980  0.127851  1
  Zr  Zr11  1  0.424307  0.750875  0.625249  1
  Zr  Zr12  1  0.766824  0.270693  0.372295  1
  Zr  Zr13  1  0.673376  0.250622  0.875904  1
  Zr  Zr14  1  0.624383  0.748886  0.625925  1
  Zr  Zr15  1  0.874536  0.255271  0.875387  1
  Zr  Zr16  1  0.974405  0.251471  0.374631  1
  Zr  Zr17  1  0.824793  0.748640  0.623709  1
  Zr  Zr18  1  0.926401  0.739475  0.130049  1
  O  O19  1  0.054246  0.250816  0.475321  1
  O  O20  1  0.112224  0.239196  0.224857  1
  O  O21  1  0.003602  0.253665  0.726368  1
  O  O22  1  0.047707  0.736782  0.028441  1
  O  O23  1  0.255829  0.249010  0.473856  1
  O  O24  1  0.298695  0.259781  0.222226  1
  O  O25  1  0.208348  0.246637  0.724095  1
  O  O26  1  0.156559  0.244209  0.973548  1
  O  O27  1  0.144237  0.751624  0.526226  1
  O  O28  1  0.244353  0.750211  0.027137  1
  O  O29  1  0.194696  0.749825  0.275955  1
  O  O30  1  0.093511  0.752402  0.777380  1
  O  O31  1  0.354418  0.256148  0.969400  1
  O  O32  1  0.403434  0.251334  0.719675  1
  O  O33  1  0.452327  0.259040  0.472316  1
  O  O34  1  0.492054  0.276394  0.236531  1
  O  O35  1  0.397488  0.744748  0.277587  1
  O  O36  1  0.341999  0.757324  0.527100  1
  O  O37  1  0.441528  0.762511  0.026094  1
  O  O38  1  0.296155  0.747593  0.775671  1
  O  O39  1  0.705583  0.250367  0.222164  1
  O  O40  1  0.539792  0.290542  0.974279  1
  O  O41  1  0.607059  0.246674  0.725210  1
  O  O42  1  0.655779  0.248017  0.475158  1
  O  O43  1  0.642218  0.748639  0.011043  1
  O  O44  1  0.582569  0.758258  0.275607  1
  O  O45  1  0.545508  0.750449  0.523823  1
  O  O46  1  0.495526  0.749107  0.775454  1
  O  O47  1  0.912757  0.224611  0.237049  1
  O  O48  1  0.805702  0.250295  0.721063  1
  O  O49  1  0.755059  0.252077  0.971288  1
  O  O50  1  0.857942  0.241912  0.473031  1
  O  O51  1  0.851068  0.754968  0.014314  1
  O  O52  1  0.694337  0.751979  0.772444  1
  O  O53  1  0.806431  0.742686  0.277813  1
  O  O54  1  0.744138  0.749536  0.524761  1
  O  O55  1  0.969691  0.210519  0.974594  1
  O  O56  1  0.990667  0.755594  0.281141  1
  O  O57  1  0.896930  0.747745  0.778523  1
  O  O58  1  0.948482  0.737311  0.531397  1
