# generated using pymatgen
data_LaYbS3
_symmetry_space_group_name_H-M   'P 1'
_cell_length_a   4.07831657
_cell_length_b   16.68520657
_cell_length_c   21.22540097
_cell_angle_alpha   90.00000000
_cell_angle_beta   90.00000000
_cell_angle_gamma   90.00000000
_symmetry_Int_Tables_number   1
_chemical_formula_structural   LaYbS3
_chemical_formula_sum   'Yb12 La12 S36'
_cell_volume   1444.33662777
_cell_formula_units_Z   12
loop_
 _symmetry_equiv_pos_site_id
 _symmetry_equiv_pos_as_xyz
  1  'x, y, z'
loop_
 _atom_site_type_symbol
 _atom_site_label
 _atom_site_symmetry_multiplicity
 _atom_site_fract_x
 _atom_site_fract_y
 _atom_site_fract_z
 _atom_site_occupancy
  Yb  Yb0  1  0.250000  0.096448  0.753910  1
  Yb  Yb1  1  0.750000  0.403552  0.253910  1
  Yb  Yb2  1  0.250000  0.068042  0.417462  1
  Yb  Yb3  1  0.250000  0.568042  0.082538  1
  Yb  Yb4  1  0.750000  0.431958  0.917462  1
  Yb  Yb5  1  0.750000  0.553041  0.428346  1
  Yb  Yb6  1  0.750000  0.903552  0.246090  1
  Yb  Yb7  1  0.250000  0.946959  0.928346  1
  Yb  Yb8  1  0.750000  0.931958  0.582538  1
  Yb  Yb9  1  0.750000  0.053041  0.071654  1
  Yb  Yb10  1  0.250000  0.596448  0.746090  1
  Yb  Yb11  1  0.250000  0.446959  0.571654  1
  La  La12  1  0.250000  0.660277  0.252942  1
  La  La13  1  0.250000  0.197654  0.925344  1
  La  La14  1  0.750000  0.172252  0.592094  1
  La  La15  1  0.750000  0.302346  0.425344  1
  La  La16  1  0.750000  0.672252  0.907906  1
  La  La17  1  0.750000  0.839723  0.752942  1
  La  La18  1  0.250000  0.697654  0.574656  1
  La  La19  1  0.250000  0.160277  0.247058  1
  La  La20  1  0.250000  0.827748  0.407906  1
  La  La21  1  0.750000  0.339723  0.747058  1
  La  La22  1  0.750000  0.802346  0.074656  1
  La  La23  1  0.250000  0.327748  0.092094  1
  S  S24  1  0.250000  0.430485  0.437596  1
  S  S25  1  0.250000  0.822935  0.175129  1
  S  S26  1  0.250000  0.733318  0.819369  1
  S  S27  1  0.750000  0.949247  0.436795  1
  S  S28  1  0.750000  0.449247  0.063205  1
  S  S29  1  0.250000  0.550753  0.936795  1
  S  S30  1  0.250000  0.943302  0.800685  1
  S  S31  1  0.750000  0.839906  0.938212  1
  S  S32  1  0.750000  0.677065  0.675129  1
  S  S33  1  0.250000  0.968699  0.316502  1
  S  S34  1  0.750000  0.569515  0.562404  1
  S  S35  1  0.750000  0.031301  0.683498  1
  S  S36  1  0.250000  0.443302  0.699315  1
  S  S37  1  0.250000  0.204489  0.492323  1
  S  S38  1  0.250000  0.322935  0.324871  1
  S  S39  1  0.250000  0.160094  0.061788  1
  S  S40  1  0.750000  0.339906  0.561788  1
  S  S41  1  0.750000  0.295511  0.992323  1
  S  S42  1  0.750000  0.766682  0.319369  1
  S  S43  1  0.250000  0.704489  0.007677  1
  S  S44  1  0.250000  0.233318  0.680631  1
  S  S45  1  0.750000  0.151000  0.350047  1
  S  S46  1  0.750000  0.266682  0.180631  1
  S  S47  1  0.250000  0.930485  0.062404  1
  S  S48  1  0.750000  0.056698  0.199315  1
  S  S49  1  0.750000  0.556698  0.300685  1
  S  S50  1  0.250000  0.849000  0.649953  1
  S  S51  1  0.750000  0.651000  0.149953  1
  S  S52  1  0.250000  0.050753  0.563205  1
  S  S53  1  0.750000  0.069515  0.937596  1
  S  S54  1  0.750000  0.531301  0.816502  1
  S  S55  1  0.750000  0.795511  0.507677  1
  S  S56  1  0.750000  0.177065  0.824871  1
  S  S57  1  0.250000  0.349000  0.850047  1
  S  S58  1  0.250000  0.468699  0.183498  1
  S  S59  1  0.250000  0.660094  0.438212  1
