# generated using pymatgen
data_KHgC3(SN)3
_symmetry_space_group_name_H-M   'P 1'
_cell_length_a   4.10727795
_cell_length_b   12.07062739
_cell_length_c   19.08289668
_cell_angle_alpha   91.53347516
_cell_angle_beta   90.00000000
_cell_angle_gamma   90.00000000
_symmetry_Int_Tables_number   1
_chemical_formula_structural   KHgC3(SN)3
_chemical_formula_sum   'K4 Hg4 C12 S12 N12'
_cell_volume   945.74198737
_cell_formula_units_Z   4
loop_
 _symmetry_equiv_pos_site_id
 _symmetry_equiv_pos_as_xyz
  1  'x, y, z'
loop_
 _atom_site_type_symbol
 _atom_site_label
 _atom_site_symmetry_multiplicity
 _atom_site_fract_x
 _atom_site_fract_y
 _atom_site_fract_z
 _atom_site_occupancy
  K  K0  1  0.289147  0.095415  0.690173  1
  K  K1  1  0.710853  0.904585  0.309827  1
  K  K2  1  0.210853  0.595415  0.190173  1
  K  K3  1  0.789147  0.404585  0.809827  1
  Hg  Hg4  1  0.789483  0.315437  0.460275  1
  Hg  Hg5  1  0.710517  0.815437  0.960275  1
  Hg  Hg6  1  0.289483  0.184563  0.039725  1
  Hg  Hg7  1  0.210517  0.684563  0.539725  1
  C  C8  1  0.746470  0.899124  0.801918  1
  C  C9  1  0.744053  0.414717  0.055893  1
  C  C10  1  0.253530  0.100876  0.198082  1
  C  C11  1  0.767872  0.342982  0.626908  1
  C  C12  1  0.267872  0.157018  0.873092  1
  C  C13  1  0.232128  0.657018  0.373092  1
  C  C14  1  0.246470  0.600876  0.698082  1
  C  C15  1  0.755947  0.914717  0.555893  1
  C  C16  1  0.255947  0.585283  0.944107  1
  C  C17  1  0.732128  0.842982  0.126908  1
  C  C18  1  0.244053  0.085283  0.444107  1
  C  C19  1  0.753530  0.399124  0.301918  1
  S  S20  1  0.217558  0.678209  0.009089  1
  S  S21  1  0.234433  0.058849  0.931896  1
  S  S22  1  0.282442  0.178209  0.509089  1
  S  S23  1  0.658209  0.774973  0.832099  1
  S  S24  1  0.265567  0.558849  0.431896  1
  S  S25  1  0.841791  0.274973  0.332099  1
  S  S26  1  0.158209  0.725027  0.667901  1
  S  S27  1  0.341791  0.225027  0.167901  1
  S  S28  1  0.734433  0.441151  0.568104  1
  S  S29  1  0.765567  0.941151  0.068104  1
  S  S30  1  0.782442  0.321791  0.990911  1
  S  S31  1  0.717558  0.821791  0.490911  1
  N  N32  1  0.208448  0.726033  0.330654  1
  N  N33  1  0.291552  0.226033  0.830654  1
  N  N34  1  0.803905  0.984986  0.776417  1
  N  N35  1  0.196095  0.015014  0.223583  1
  N  N36  1  0.303905  0.515014  0.723583  1
  N  N37  1  0.696095  0.484986  0.276417  1
  N  N38  1  0.791552  0.273967  0.669346  1
  N  N39  1  0.213348  0.019062  0.398271  1
  N  N40  1  0.286652  0.519062  0.898271  1
  N  N41  1  0.708448  0.773967  0.169346  1
  N  N42  1  0.713348  0.480938  0.101729  1
  N  N43  1  0.786652  0.980938  0.601729  1
