# generated using pymatgen
data_CrHO2
_symmetry_space_group_name_H-M   'P 1'
_cell_length_a   4.83727321
_cell_length_b   19.34027669
_cell_length_c   9.17407308
_cell_angle_alpha   18.43167198
_cell_angle_beta   32.52027396
_cell_angle_gamma   36.87503380
_symmetry_Int_Tables_number   1
_chemical_formula_structural   CrHO2
_chemical_formula_sum   'Cr4 H4 O8'
_cell_volume   145.88432285
_cell_formula_units_Z   4
loop_
 _symmetry_equiv_pos_site_id
 _symmetry_equiv_pos_as_xyz
  1  'x, y, z'
loop_
 _atom_site_type_symbol
 _atom_site_label
 _atom_site_symmetry_multiplicity
 _atom_site_fract_x
 _atom_site_fract_y
 _atom_site_fract_z
 _atom_site_occupancy
  Cr  Cr0  1  0.011452  0.000434  0.992275  1
  Cr  Cr1  1  0.011452  0.249566  0.994013  1
  Cr  Cr2  1  0.988548  0.500434  0.005987  1
  Cr  Cr3  1  0.988548  0.749566  0.007725  1
  H  H4  1  0.494012  0.250594  0.483813  1
  H  H5  1  0.505988  0.499406  0.516187  1
  H  H6  1  0.505988  0.750594  0.513813  1
  H  H7  1  0.494012  0.999406  0.486187  1
  O  O8  1  0.598706  0.001075  0.588860  1
  O  O9  1  0.413090  0.251918  0.402611  1
  O  O10  1  0.598706  0.248925  0.593158  1
  O  O11  1  0.401294  0.501075  0.406842  1
  O  O12  1  0.586910  0.498082  0.597389  1
  O  O13  1  0.401294  0.748925  0.411140  1
  O  O14  1  0.586910  0.751918  0.589717  1
  O  O15  1  0.413090  0.998082  0.410283  1
