# generated using pymatgen
data_FePO4
_symmetry_space_group_name_H-M   'P 1'
_cell_length_a   5.22355512
_cell_length_b   10.08535715
_cell_length_c   7.06385396
_cell_angle_alpha   90.00000000
_cell_angle_beta   89.41462631
_cell_angle_gamma   90.00000000
_symmetry_Int_Tables_number   1
_chemical_formula_structural   FePO4
_chemical_formula_sum   'Fe4 P4 O16'
_cell_volume   372.11442857
_cell_formula_units_Z   4
loop_
 _symmetry_equiv_pos_site_id
 _symmetry_equiv_pos_as_xyz
  1  'x, y, z'
loop_
 _atom_site_type_symbol
 _atom_site_label
 _atom_site_symmetry_multiplicity
 _atom_site_fract_x
 _atom_site_fract_y
 _atom_site_fract_z
 _atom_site_occupancy
  Fe  Fe0  1  0.698798  0.324708  0.508366  1
  Fe  Fe1  1  0.801202  0.824708  0.991634  1
  Fe  Fe2  1  0.301202  0.675292  0.491634  1
  Fe  Fe3  1  0.198798  0.175292  0.008366  1
  P  P4  1  0.201058  0.410983  0.274855  1
  P  P5  1  0.298942  0.910983  0.225145  1
  P  P6  1  0.798942  0.589017  0.725145  1
  P  P7  1  0.701058  0.089017  0.774855  1
  O  O8  1  0.779883  0.148048  0.579953  1
  O  O9  1  0.145948  0.843673  0.063755  1
  O  O10  1  0.354052  0.343673  0.436245  1
  O  O11  1  0.749767  0.437808  0.722089  1
  O  O12  1  0.720117  0.648048  0.920047  1
  O  O13  1  0.854052  0.156327  0.936245  1
  O  O14  1  0.249767  0.062192  0.222089  1
  O  O15  1  0.750233  0.937808  0.777911  1
  O  O16  1  0.912414  0.381348  0.307627  1
  O  O17  1  0.220117  0.851952  0.420047  1
  O  O18  1  0.645948  0.656327  0.563755  1
  O  O19  1  0.587586  0.881348  0.192373  1
  O  O20  1  0.087586  0.618652  0.692373  1
  O  O21  1  0.412414  0.118652  0.807627  1
  O  O22  1  0.250233  0.562192  0.277911  1
  O  O23  1  0.279883  0.351952  0.079953  1
