# generated using pymatgen
data_Ce2Mg17
_symmetry_space_group_name_H-M   'P 1'
_cell_length_a   10.31898312
_cell_length_b   10.31898319
_cell_length_c   10.15651633
_cell_angle_alpha   90.00000000
_cell_angle_beta   90.00000000
_cell_angle_gamma   119.99999979
_symmetry_Int_Tables_number   1
_chemical_formula_structural   Ce2Mg17
_chemical_formula_sum   'Ce4 Mg34'
_cell_volume   936.58934034
_cell_formula_units_Z   2
loop_
 _symmetry_equiv_pos_site_id
 _symmetry_equiv_pos_as_xyz
  1  'x, y, z'
loop_
 _atom_site_type_symbol
 _atom_site_label
 _atom_site_symmetry_multiplicity
 _atom_site_fract_x
 _atom_site_fract_y
 _atom_site_fract_z
 _atom_site_occupancy
  Ce  Ce0  1  0.000000  0.000000  0.250000  1
  Ce  Ce1  1  0.000000  0.000000  0.750000  1
  Ce  Ce2  1  0.666667  0.333333  0.250000  1
  Ce  Ce3  1  0.333333  0.666667  0.750000  1
  Mg  Mg4  1  0.500000  0.000000  0.500000  1
  Mg  Mg5  1  0.500000  0.500000  0.500000  1
  Mg  Mg6  1  0.834761  0.165239  0.497899  1
  Mg  Mg7  1  0.330479  0.165239  0.002101  1
  Mg  Mg8  1  0.165239  0.330479  0.502101  1
  Mg  Mg9  1  0.667096  0.662231  0.750000  1
  Mg  Mg10  1  0.666667  0.333333  0.894704  1
  Mg  Mg11  1  0.333333  0.666667  0.394704  1
  Mg  Mg12  1  0.669521  0.834761  0.997899  1
  Mg  Mg13  1  0.337769  0.332904  0.750000  1
  Mg  Mg14  1  0.004865  0.337769  0.250000  1
  Mg  Mg15  1  0.834761  0.165239  0.002101  1
  Mg  Mg16  1  0.662231  0.995135  0.250000  1
  Mg  Mg17  1  0.995135  0.662231  0.750000  1
  Mg  Mg18  1  0.330479  0.165239  0.497899  1
  Mg  Mg19  1  0.834761  0.669521  0.497899  1
  Mg  Mg20  1  0.165239  0.330479  0.997899  1
  Mg  Mg21  1  0.834761  0.669521  0.002101  1
  Mg  Mg22  1  0.666667  0.333333  0.605296  1
  Mg  Mg23  1  0.669521  0.834761  0.502101  1
  Mg  Mg24  1  0.000000  0.500000  0.000000  1
  Mg  Mg25  1  0.332904  0.995135  0.250000  1
  Mg  Mg26  1  0.332904  0.337769  0.250000  1
  Mg  Mg27  1  0.333333  0.666667  0.105296  1
  Mg  Mg28  1  0.165239  0.834761  0.502101  1
  Mg  Mg29  1  0.004865  0.667096  0.250000  1
  Mg  Mg30  1  0.667096  0.004865  0.750000  1
  Mg  Mg31  1  0.165239  0.834761  0.997899  1
  Mg  Mg32  1  0.662231  0.667096  0.250000  1
  Mg  Mg33  1  0.500000  0.500000  0.000000  1
  Mg  Mg34  1  0.995135  0.332904  0.750000  1
  Mg  Mg35  1  0.337769  0.004865  0.750000  1
  Mg  Mg36  1  0.000000  0.500000  0.500000  1
  Mg  Mg37  1  0.500000  0.000000  0.000000  1
