# generated using pymatgen
data_Sr2La14Mg2Ga14O45
_symmetry_space_group_name_H-M   'P 1'
_cell_length_a   5.53838783
_cell_length_b   5.60051920
_cell_length_c   44.87651480
_cell_angle_alpha   59.99177457
_cell_angle_beta   59.49143234
_cell_angle_gamma   59.99445725
_symmetry_Int_Tables_number   1
_chemical_formula_structural   Sr2La14Mg2Ga14O45
_chemical_formula_sum   'Sr2 La14 Mg2 Ga14 O45'
_cell_volume   980.33355514
_cell_formula_units_Z   1
loop_
 _symmetry_equiv_pos_site_id
 _symmetry_equiv_pos_as_xyz
  1  'x, y, z'
loop_
 _atom_site_type_symbol
 _atom_site_label
 _atom_site_symmetry_multiplicity
 _atom_site_fract_x
 _atom_site_fract_y
 _atom_site_fract_z
 _atom_site_occupancy
  Sr  Sr0  1  0.249589  0.755944  0.092766  1
  Sr  Sr1  1  0.254761  0.753836  0.217881  1
  La  La2  1  0.750034  0.243848  0.032977  1
  La  La3  1  0.770702  0.255229  0.155082  1
  La  La4  1  0.254927  0.746179  0.343781  1
  La  La5  1  0.772664  0.252537  0.279193  1
  La  La6  1  0.251949  0.745494  0.469141  1
  La  La7  1  0.750185  0.254072  0.406592  1
  La  La8  1  0.251110  0.744712  0.594309  1
  La  La9  1  0.749699  0.255546  0.530523  1
  La  La10  1  0.250944  0.744897  0.719299  1
  La  La11  1  0.749592  0.255228  0.655599  1
  La  La12  1  0.249454  0.743995  0.844501  1
  La  La13  1  0.749093  0.255345  0.780615  1
  La  La14  1  0.247911  0.732042  0.968852  1
  La  La15  1  0.745213  0.250879  0.905991  1
  Mg  Mg16  1  0.991782  0.489789  0.064390  1
  Mg  Mg17  1  0.975828  0.476954  0.190735  1
  Ga  Ga18  1  0.511487  0.011339  0.999199  1
  Ga  Ga19  1  0.521213  0.029353  0.122874  1
  Ga  Ga20  1  0.516555  0.014068  0.246870  1
  Ga  Ga21  1  0.503191  0.000149  0.374885  1
  Ga  Ga22  1  0.499858  0.999732  0.500159  1
  Ga  Ga23  1  0.990876  0.488038  0.314105  1
  Ga  Ga24  1  0.500177  0.000055  0.624966  1
  Ga  Ga25  1  0.001350  0.500648  0.437258  1
  Ga  Ga26  1  -0.000001  0.500229  0.562458  1
  Ga  Ga27  1  0.499884  0.999878  0.750042  1
  Ga  Ga28  1  0.499529  -0.000073  0.874785  1
  Ga  Ga29  1  0.000057  0.500072  0.687486  1
  Ga  Ga30  1  0.999759  0.499965  0.812522  1
  Ga  Ga31  1  0.998227  0.495421  0.937187  1
  O  O32  1  0.253729  0.201156  0.035696  1
  O  O33  1  0.254404  0.275938  0.095206  1
  O  O34  1  0.229892  0.192435  0.162665  1
  O  O35  1  0.785265  0.706712  0.025525  1
  O  O36  1  0.242341  0.289115  0.220756  1
  O  O37  1  0.734239  0.270932  0.103029  1
  O  O38  1  0.224680  0.176235  0.291270  1
  O  O39  1  0.761616  0.828239  0.084310  1
  O  O40  1  0.733085  0.691854  0.155149  1
  O  O41  1  0.244769  0.315063  0.344525  1
  O  O42  1  0.719727  0.261063  0.230752  1
  O  O43  1  0.245412  0.172580  0.416137  1
  O  O44  1  0.775155  0.826619  0.207942  1
  O  O45  1  0.270415  0.733051  0.397856  1
  O  O46  1  0.733166  0.688081  0.282480  1
  O  O47  1  0.233547  0.313923  0.470861  1
  O  O48  1  0.729054  0.265719  0.353899  1
  O  O49  1  0.249205  0.171890  0.541076  1
  O  O50  1  0.768759  0.826874  0.333389  1
  O  O51  1  0.268610  0.730955  0.523164  1
  O  O52  1  0.764894  0.685370  0.404607  1
  O  O53  1  0.231799  0.314147  0.596053  1
  O  O54  1  0.730758  0.268523  0.476961  1
  O  O55  1  0.249699  0.172094  0.665996  1
  O  O56  1  0.750961  0.825652  0.459361  1
  O  O57  1  0.268877  0.730759  0.648158  1
  O  O58  1  0.767223  0.685262  0.529169  1
  O  O59  1  0.231803  0.314189  0.721051  1
  O  O60  1  0.730910  0.269096  0.601896  1
  O  O61  1  0.249288  0.171025  0.791091  1
  O  O62  1  0.750068  0.827953  0.584043  1
  O  O63  1  0.268534  0.730914  0.773164  1
  O  O64  1  0.767504  0.685770  0.654048  1
  O  O65  1  0.231814  0.314370  0.845843  1
  O  O66  1  0.730800  0.269327  0.726856  1
  O  O67  1  0.248661  0.166199  0.915689  1
  O  O68  1  0.750003  0.827995  0.709025  1
  O  O69  1  0.264802  0.730045  0.899011  1
  O  O70  1  0.768020  0.685605  0.778971  1
  O  O71  1  0.235445  0.305426  0.969717  1
  O  O72  1  0.729867  0.270595  0.851882  1
  O  O73  1  0.747572  0.828576  0.834000  1
  O  O74  1  0.771133  0.685104  0.903095  1
  O  O75  1  0.731219  0.279769  0.975354  1
  O  O76  1  0.732179  0.821901  0.960182  1
