# generated using pymatgen
data_Zn5B3Ir7
_symmetry_space_group_name_H-M   'P 1'
_cell_length_a   2.82414609
_cell_length_b   11.46726265
_cell_length_c   12.31870806
_cell_angle_alpha   89.96424328
_cell_angle_beta   90.00000086
_cell_angle_gamma   90.00012091
_symmetry_Int_Tables_number   1
_chemical_formula_structural   Zn5B3Ir7
_chemical_formula_sum   'Zn10 B6 Ir14'
_cell_volume   398.94405438
_cell_formula_units_Z   2
loop_
 _symmetry_equiv_pos_site_id
 _symmetry_equiv_pos_as_xyz
  1  'x, y, z'
loop_
 _atom_site_type_symbol
 _atom_site_label
 _atom_site_symmetry_multiplicity
 _atom_site_fract_x
 _atom_site_fract_y
 _atom_site_fract_z
 _atom_site_occupancy
  Zn  Zn0  1  0.500000  0.935979  0.156697  1
  Zn  Zn1  1  0.500000  0.563927  0.157084  1
  Zn  Zn2  1  0.500000  0.366048  0.638087  1
  Zn  Zn3  1  0.500000  0.133712  0.638386  1
  Zn  Zn4  1  0.500000  0.064025  0.843224  1
  Zn  Zn5  1  0.500000  0.436063  0.842824  1
  Zn  Zn6  1  0.500000  0.749839  0.035753  1
  Zn  Zn7  1  0.500000  0.866253  0.361574  1
  Zn  Zn8  1  0.500000  0.633970  0.361872  1
  Zn  Zn9  1  0.500000  0.250164  0.964101  1
  B  B10  1  0.500000  0.881456  0.589792  1
  B  B11  1  0.500000  0.381432  0.410285  1
  B  B12  1  0.500001  0.249822  0.235035  1
  B  B13  1  0.499998  0.118535  0.410250  1
  B  B14  1  0.499999  0.618589  0.589781  1
  B  B15  1  0.500000  0.750182  0.764945  1
  Ir  Ir16  1  -0.000000  0.592850  0.942612  1
  Ir  Ir17  1  -0.000000  0.888901  0.725021  1
  Ir  Ir18  1  0.000001  0.907043  0.942583  1
  Ir  Ir19  1  0.000001  0.249932  0.474142  1
  Ir  Ir20  1  0.000002  0.249899  0.782242  1
  Ir  Ir21  1  0.000001  0.406945  0.057476  1
  Ir  Ir22  1  -0.000000  0.611433  0.725048  1
  Ir  Ir23  1  0.999998  0.111110  0.275054  1
  Ir  Ir24  1  0.999998  0.388580  0.275048  1
  Ir  Ir25  1  0.000001  0.999981  0.499995  1
  Ir  Ir26  1  -0.000003  0.750069  0.525915  1
  Ir  Ir27  1  -0.000000  0.750099  0.217666  1
  Ir  Ir28  1  0.000001  0.093141  0.057500  1
  Ir  Ir29  1  0.000001  0.500022  0.500004  1
