# generated using pymatgen
data_Sr24Ni19O54
_symmetry_space_group_name_H-M   'P 1'
_cell_length_a   9.56248216
_cell_length_b   9.60425448
_cell_length_c   15.62455854
_cell_angle_alpha   89.73350415
_cell_angle_beta   90.28065939
_cell_angle_gamma   119.86328087
_symmetry_Int_Tables_number   1
_chemical_formula_structural   Sr24Ni19O54
_chemical_formula_sum   'Sr24 Ni19 O54'
_cell_volume   1244.40781277
_cell_formula_units_Z   1
loop_
 _symmetry_equiv_pos_site_id
 _symmetry_equiv_pos_as_xyz
  1  'x, y, z'
loop_
 _atom_site_type_symbol
 _atom_site_label
 _atom_site_symmetry_multiplicity
 _atom_site_fract_x
 _atom_site_fract_y
 _atom_site_fract_z
 _atom_site_occupancy
  Sr  Sr0  1  0.024403  0.692536  0.128821  1
  Sr  Sr1  1  0.022503  0.690942  0.622063  1
  Sr  Sr2  1  0.336102  0.000565  0.251816  1
  Sr  Sr3  1  0.338888  0.010189  0.738228  1
  Sr  Sr4  1  0.304927  0.333734  0.124982  1
  Sr  Sr5  1  0.309080  0.336052  0.624648  1
  Sr  Sr6  1  0.334618  0.307071  0.374242  1
  Sr  Sr7  1  0.339418  0.290615  0.874050  1
  Sr  Sr8  1  0.662207  0.972699  0.128442  1
  Sr  Sr9  1  0.665895  0.971846  0.624052  1
  Sr  Sr10  1  0.636209  0.641914  0.998288  1
  Sr  Sr11  1  0.640185  0.644463  0.498146  1
  Sr  Sr12  1  0.664736  0.669353  0.249881  1
  Sr  Sr13  1  0.672699  0.668779  0.746471  1
  Sr  Sr14  1  0.366610  0.012349  0.009189  1
  Sr  Sr15  1  0.362418  0.998137  0.497546  1
  Sr  Sr16  1  0.971596  0.667813  0.373767  1
  Sr  Sr17  1  0.968674  0.668850  0.877239  1
  Sr  Sr18  1  0.685458  0.015385  0.374917  1
  Sr  Sr19  1  0.711856  0.038237  0.876480  1
  Sr  Sr20  1  0.989150  0.351113  0.010956  1
  Sr  Sr21  1  0.994151  0.354532  0.500338  1
  Sr  Sr22  1  0.993996  0.326692  0.251198  1
  Sr  Sr23  1  0.989043  0.317225  0.739218  1
  Ni  Ni24  1  -0.000213  -0.000212  0.171668  1
  Ni  Ni25  1  0.002018  0.997290  0.670307  1
  Ni  Ni26  1  0.273183  0.610895  0.379169  1
  Ni  Ni27  1  0.363705  0.785605  0.879346  1
  Ni  Ni28  1  0.335630  0.672401  0.210671  1
  Ni  Ni29  1  0.337393  0.663158  0.712617  1
  Ni  Ni30  1  0.332353  0.664073  0.047548  1
  Ni  Ni31  1  0.001379  0.996107  0.003287  1
  Ni  Ni32  1  0.338575  0.670516  0.547848  1
  Ni  Ni33  1  0.001363  0.001260  0.330319  1
  Ni  Ni34  1  0.002420  0.000552  0.498396  1
  Ni  Ni35  1  0.005279  0.002230  0.830367  1
  Ni  Ni36  1  0.231707  0.524433  0.877630  1
  Ni  Ni37  1  0.670041  0.335172  0.950573  1
  Ni  Ni38  1  0.667173  0.337340  0.121232  1
  Ni  Ni39  1  0.666691  0.335442  0.450143  1
  Ni  Ni40  1  0.666485  0.334770  0.619905  1
  Ni  Ni41  1  0.667182  0.336573  0.289790  1
  Ni  Ni42  1  0.669968  0.333730  0.789310  1
  O  O43  1  0.002414  0.852697  0.251198  1
  O  O44  1  0.001761  0.848535  0.751107  1
  O  O45  1  0.153053  0.990198  0.401703  1
  O  O46  1  0.153433  0.988019  0.904629  1
  O  O47  1  0.195380  0.683816  0.968547  1
  O  O48  1  0.189770  0.682625  0.472762  1
  O  O49  1  0.196021  0.687917  0.286618  1
  O  O50  1  0.195100  0.681834  0.799536  1
  O  O51  1  0.160577  0.514228  0.136063  1
  O  O52  1  0.166306  0.518741  0.624104  1
  O  O53  1  0.009884  0.161816  0.401474  1
  O  O54  1  0.021413  0.174828  0.896654  1
  O  O55  1  0.340494  0.829854  0.132369  1
  O  O56  1  0.344238  0.827260  0.625399  1
  O  O57  1  0.321299  0.507759  0.473718  1
  O  O58  1  0.309544  0.475031  0.979650  1
  O  O59  1  0.326886  0.515514  0.285356  1
  O  O60  1  0.313237  0.480728  0.775180  1
  O  O61  1  0.149904  0.150781  0.250657  1
  O  O62  1  0.153706  0.143882  0.748704  1
  O  O63  1  0.512804  0.830118  0.267001  1
  O  O64  1  0.501104  0.832829  0.784346  1
  O  O65  1  0.514106  0.831041  0.487685  1
  O  O66  1  0.507371  0.837947  0.971398  1
  O  O67  1  0.163005  0.011704  0.101704  1
  O  O68  1  0.164462  0.007815  0.599343  1
  O  O69  1  0.473696  0.650435  0.127129  1
  O  O70  1  0.484107  0.647549  0.624700  1
  O  O71  1  0.504014  0.316999  0.021174  1
  O  O72  1  0.503145  0.321827  0.520671  1
  O  O73  1  0.509756  0.331938  0.218928  1
  O  O74  1  0.508014  0.318670  0.718380  1
  O  O75  1  0.852599  0.002027  0.250671  1
  O  O76  1  0.855557  0.000778  0.749594  1
  O  O77  1  0.652357  0.480379  0.370184  1
  O  O78  1  0.651803  0.477538  0.869895  1
  O  O79  1  0.838964  0.848174  0.400294  1
  O  O80  1  0.841255  0.854767  0.902837  1
  O  O81  1  0.846560  0.835380  0.100850  1
  O  O82  1  0.847262  0.834597  0.601249  1
  O  O83  1  0.520976  0.175898  0.370476  1
  O  O84  1  0.527980  0.172079  0.870882  1
  O  O85  1  0.816102  0.503143  0.021133  1
  O  O86  1  0.817587  0.499634  0.519726  1
  O  O87  1  0.819588  0.496452  0.221818  1
  O  O88  1  0.815672  0.495125  0.718700  1
  O  O89  1  0.676051  0.188998  0.218268  1
  O  O90  1  0.682906  0.188524  0.717360  1
  O  O91  1  0.687918  0.190370  0.023761  1
  O  O92  1  0.681593  0.188275  0.522475  1
  O  O93  1  0.825054  0.346972  0.371034  1
  O  O94  1  0.831541  0.351563  0.871374  1
  O  O95  1  0.986394  0.147545  0.099576  1
  O  O96  1  0.990457  0.151088  0.600351  1
