# generated using pymatgen
data_UH12C4SN2O9
_symmetry_space_group_name_H-M   'P 1'
_cell_length_a   11.22127919
_cell_length_b   11.22127919
_cell_length_c   8.56763360
_cell_angle_alpha   82.78736119
_cell_angle_beta   97.21263881
_cell_angle_gamma   143.67135770
_symmetry_Int_Tables_number   1
_chemical_formula_structural   UH12C4SN2O9
_chemical_formula_sum   'U2 H24 C8 S2 N4 O18'
_cell_volume   633.50124946
_cell_formula_units_Z   2
loop_
 _symmetry_equiv_pos_site_id
 _symmetry_equiv_pos_as_xyz
  1  'x, y, z'
loop_
 _atom_site_type_symbol
 _atom_site_label
 _atom_site_symmetry_multiplicity
 _atom_site_fract_x
 _atom_site_fract_y
 _atom_site_fract_z
 _atom_site_occupancy
  U  U0  1  0.644785  0.355215  0.358475  1
  U  U1  1  0.355215  0.644785  0.641525  1
  H  H2  1  0.118362  0.881638  0.088309  1
  H  H3  1  0.881638  0.118362  0.911691  1
  H  H4  1  0.186611  0.072589  0.970718  1
  H  H5  1  0.927411  0.813389  0.970718  1
  H  H6  1  0.813389  0.927411  0.029282  1
  H  H7  1  0.072589  0.186611  0.029282  1
  H  H8  1  0.177843  0.080401  0.690601  1
  H  H9  1  0.919599  0.822157  0.690601  1
  H  H10  1  0.822157  0.919599  0.309399  1
  H  H11  1  0.080401  0.177843  0.309399  1
  H  H12  1  0.104037  0.895963  0.589855  1
  H  H13  1  0.895963  0.104037  0.410145  1
  H  H14  1  0.029502  0.632262  0.957093  1
  H  H15  1  0.367738  0.970498  0.957093  1
  H  H16  1  0.970498  0.367738  0.042907  1
  H  H17  1  0.632262  0.029502  0.042907  1
  H  H18  1  0.833002  0.560425  0.844497  1
  H  H19  1  0.439575  0.166998  0.844497  1
  H  H20  1  0.166998  0.439575  0.155503  1
  H  H21  1  0.560425  0.833002  0.155503  1
  H  H22  1  0.020433  0.636956  0.745968  1
  H  H23  1  0.363044  0.979567  0.745968  1
  H  H24  1  0.979567  0.363044  0.254032  1
  H  H25  1  0.636956  0.020433  0.254032  1
  C  C26  1  0.086207  0.913793  0.977883  1
  C  C27  1  0.913793  0.086207  0.022117  1
  C  C28  1  0.078043  0.921957  0.691702  1
  C  C29  1  0.921957  0.078043  0.308298  1
  C  C30  1  0.990946  0.659606  0.847679  1
  C  C31  1  0.340394  0.009054  0.847679  1
  C  C32  1  0.009054  0.340394  0.152321  1
  C  C33  1  0.659606  0.990946  0.152321  1
  S  S34  1  0.203651  0.796349  0.374810  1
  S  S35  1  0.796349  0.203651  0.625190  1
  N  N36  1  0.124016  0.875984  0.841318  1
  N  N37  1  0.875984  0.124016  0.158682  1
  N  N38  1  0.512039  0.487961  0.200199  1
  N  N39  1  0.487961  0.512039  0.799801  1
  O  O40  1  0.615066  0.384934  0.546108  1
  O  O41  1  0.384934  0.615066  0.453892  1
  O  O42  1  0.671346  0.328654  0.167637  1
  O  O43  1  0.328654  0.671346  0.832363  1
  O  O44  1  0.698233  0.613122  0.238435  1
  O  O45  1  0.386878  0.301767  0.238435  1
  O  O46  1  0.301767  0.386878  0.761565  1
  O  O47  1  0.613122  0.698233  0.761565  1
  O  O48  1  0.990841  0.668071  0.383350  1
  O  O49  1  0.331929  0.009159  0.383350  1
  O  O50  1  0.009159  0.331929  0.616650  1
  O  O51  1  0.668071  0.990841  0.616650  1
  O  O52  1  0.750758  0.249242  0.474571  1
  O  O53  1  0.249242  0.750758  0.525429  1
  O  O54  1  0.457582  0.542418  0.131286  1
  O  O55  1  0.542418  0.457582  0.868714  1
  O  O56  1  0.235110  0.764890  0.235414  1
  O  O57  1  0.764890  0.235110  0.764586  1
