# generated using pymatgen
data_K3UH6C5SNO13
_symmetry_space_group_name_H-M   'P 1'
_cell_length_a   10.91951325
_cell_length_b   12.26611252
_cell_length_c   14.05614140
_cell_angle_alpha   90.00000000
_cell_angle_beta   111.30589264
_cell_angle_gamma   90.00000000
_symmetry_Int_Tables_number   1
_chemical_formula_structural   K3UH6C5SNO13
_chemical_formula_sum   'K12 U4 H24 C20 S4 N4 O52'
_cell_volume   1754.00541835
_cell_formula_units_Z   4
loop_
 _symmetry_equiv_pos_site_id
 _symmetry_equiv_pos_as_xyz
  1  'x, y, z'
loop_
 _atom_site_type_symbol
 _atom_site_label
 _atom_site_symmetry_multiplicity
 _atom_site_fract_x
 _atom_site_fract_y
 _atom_site_fract_z
 _atom_site_occupancy
  K  K0  1  0.781691  0.400505  0.917316  1
  K  K1  1  0.976014  0.108400  0.103624  1
  K  K2  1  0.862983  0.077018  0.343946  1
  K  K3  1  0.218309  0.599495  0.082684  1
  K  K4  1  0.281691  0.099495  0.417316  1
  K  K5  1  0.362983  0.422982  0.843946  1
  K  K6  1  0.637017  0.577018  0.156054  1
  K  K7  1  0.476014  0.391600  0.603624  1
  K  K8  1  0.023986  0.891600  0.896376  1
  K  K9  1  0.137017  0.922982  0.656054  1
  K  K10  1  0.718309  0.900505  0.582684  1
  K  K11  1  0.523986  0.608400  0.396376  1
  U  U12  1  0.415682  0.106154  0.186257  1
  U  U13  1  0.084318  0.606154  0.313743  1
  U  U14  1  0.915682  0.393846  0.686257  1
  U  U15  1  0.584318  0.893846  0.813743  1
  H  H16  1  0.161912  0.339475  0.485255  1
  H  H17  1  0.500712  0.351396  0.059898  1
  H  H18  1  0.631876  0.319251  0.052133  1
  H  H19  1  0.659685  0.146835  0.094616  1
  H  H20  1  0.262645  0.352036  0.033705  1
  H  H21  1  0.369319  0.863812  0.558822  1
  H  H22  1  0.762645  0.147964  0.533705  1
  H  H23  1  0.869319  0.636188  0.058822  1
  H  H24  1  0.661912  0.160525  0.985255  1
  H  H25  1  0.499288  0.648604  0.940102  1
  H  H26  1  0.868124  0.819251  0.447867  1
  H  H27  1  0.131876  0.180749  0.552133  1
  H  H28  1  0.368124  0.680749  0.947867  1
  H  H29  1  0.340315  0.853165  0.905384  1
  H  H30  1  0.999288  0.851396  0.440102  1
  H  H31  1  0.838088  0.660525  0.514745  1
  H  H32  1  0.159685  0.353165  0.594616  1
  H  H33  1  0.237355  0.852036  0.466295  1
  H  H34  1  0.130681  0.363812  0.941178  1
  H  H35  1  0.630681  0.136188  0.441178  1
  H  H36  1  0.737355  0.647964  0.966295  1
  H  H37  1  0.000712  0.148604  0.559898  1
  H  H38  1  0.840315  0.646835  0.405384  1
  H  H39  1  0.338088  0.839475  0.014745  1
  C  C40  1  0.959962  0.175470  0.833137  1
  C  C41  1  0.319952  0.131744  0.916780  1
  C  C42  1  0.040038  0.824530  0.166863  1
  C  C43  1  0.819952  0.368256  0.416780  1
  C  C44  1  0.570373  0.159878  0.780803  1
  C  C45  1  0.070373  0.340122  0.280803  1
  C  C46  1  0.026574  0.388644  0.170362  1
  C  C47  1  0.929627  0.659878  0.719197  1
  C  C48  1  0.540038  0.675470  0.666863  1
  C  C49  1  0.526574  0.111356  0.670362  1
  C  C50  1  0.180048  0.631744  0.583220  1
  C  C51  1  0.459962  0.324530  0.333137  1
  C  C52  1  0.680048  0.868256  0.083220  1
  C  C53  1  0.565760  0.626434  0.774673  1
  C  C54  1  0.973426  0.611356  0.829638  1
  C  C55  1  0.429627  0.840122  0.219197  1
  C  C56  1  0.065760  0.873566  0.274673  1
  C  C57  1  0.434240  0.373566  0.225327  1
  C  C58  1  0.934240  0.126434  0.725327  1
  C  C59  1  0.473426  0.888644  0.329638  1
  S  S60  1  0.238834  0.653894  0.704262  1
  S  S61  1  0.261166  0.153894  0.795738  1
  S  S62  1  0.761166  0.346106  0.295738  1
  S  S63  1  0.738834  0.846106  0.204262  1
  N  N64  1  0.136634  0.615790  0.493625  1
  N  N65  1  0.636634  0.884210  0.993625  1
  N  N66  1  0.863366  0.384210  0.506375  1
  N  N67  1  0.363366  0.115790  0.006375  1
  O  O68  1  0.090155  0.394103  0.701943  1
  O  O69  1  0.058740  0.973665  0.286143  1
  O  O70  1  0.558740  0.526335  0.786143  1
  O  O71  1  0.104395  0.413805  0.351931  1
  O  O72  1  0.047658  0.492452  0.168889  1
  O  O73  1  0.742885  0.389882  0.670567  1
  O  O74  1  0.590155  0.105897  0.201943  1
  O  O75  1  0.452342  0.992452  0.331111  1
  O  O76  1  0.298144  0.810829  0.944493  1
  O  O77  1  0.604395  0.086195  0.851931  1
  O  O78  1  0.096497  0.801459  0.347445  1
  O  O79  1  0.903503  0.198541  0.652555  1
  O  O80  1  0.952342  0.507548  0.831111  1
  O  O81  1  0.701856  0.189171  0.055507  1
  O  O82  1  0.573179  0.260250  0.794345  1
  O  O83  1  0.458302  0.218845  0.334244  1
  O  O84  1  0.068744  0.119047  0.536895  1
  O  O85  1  0.798144  0.689171  0.444493  1
  O  O86  1  0.282682  0.897264  0.526474  1
  O  O87  1  0.596497  0.698541  0.847445  1
  O  O88  1  0.477341  0.385533  0.407275  1
  O  O89  1  0.541698  0.781155  0.665756  1
  O  O90  1  0.217318  0.397264  0.973526  1
  O  O91  1  0.022045  0.670286  0.905930  1
  O  O92  1  0.977341  0.114467  0.907275  1
  O  O93  1  0.717318  0.102736  0.473526  1
  O  O94  1  0.431256  0.619047  0.963105  1
  O  O95  1  0.201856  0.310829  0.555507  1
  O  O96  1  0.257115  0.610118  0.329433  1
  O  O97  1  0.522045  0.829714  0.405930  1
  O  O98  1  0.242885  0.110118  0.170567  1
  O  O99  1  0.909845  0.605897  0.298057  1
  O  O100  1  0.073179  0.239750  0.294345  1
  O  O101  1  0.395605  0.913805  0.148069  1
  O  O102  1  0.757115  0.889882  0.829433  1
  O  O103  1  0.977955  0.329714  0.094070  1
  O  O104  1  0.931256  0.880953  0.463105  1
  O  O105  1  0.547658  0.007548  0.668889  1
  O  O106  1  0.941260  0.026335  0.713857  1
  O  O107  1  0.895605  0.586195  0.648069  1
  O  O108  1  0.022659  0.885533  0.092725  1
  O  O109  1  0.782682  0.602736  0.026474  1
  O  O110  1  0.958302  0.281155  0.834244  1
  O  O111  1  0.926821  0.760250  0.705655  1
  O  O112  1  0.522659  0.614467  0.592725  1
  O  O113  1  0.568744  0.380953  0.036895  1
  O  O114  1  0.426821  0.739750  0.205655  1
  O  O115  1  0.477955  0.170286  0.594070  1
  O  O116  1  0.441260  0.473665  0.213857  1
  O  O117  1  0.409845  0.894103  0.798057  1
  O  O118  1  0.041698  0.718845  0.165756  1
  O  O119  1  0.403503  0.301459  0.152555  1
