# generated using pymatgen
data_H7NO6
_symmetry_space_group_name_H-M   'P 1'
_cell_length_a   9.70247684
_cell_length_b   15.16563154
_cell_length_c   3.54668242
_cell_angle_alpha   90.00000000
_cell_angle_beta   92.72436475
_cell_angle_gamma   90.00000000
_symmetry_Int_Tables_number   1
_chemical_formula_structural   H7NO6
_chemical_formula_sum   'H28 N4 O24'
_cell_volume   521.28386131
_cell_formula_units_Z   4
loop_
 _symmetry_equiv_pos_site_id
 _symmetry_equiv_pos_as_xyz
  1  'x, y, z'
loop_
 _atom_site_type_symbol
 _atom_site_label
 _atom_site_symmetry_multiplicity
 _atom_site_fract_x
 _atom_site_fract_y
 _atom_site_fract_z
 _atom_site_occupancy
  H  H0  1  0.593294  0.686808  0.169928  1
  H  H1  1  0.450989  0.684006  0.790055  1
  H  H2  1  0.996430  0.326100  0.367960  1
  H  H3  1  0.951776  0.405232  0.662165  1
  H  H4  1  0.003570  0.826100  0.132040  1
  H  H5  1  0.048224  0.905232  0.837835  1
  H  H6  1  0.549011  0.184006  0.709945  1
  H  H7  1  0.406706  0.186808  0.330072  1
  H  H8  1  0.582249  0.953679  0.111045  1
  H  H9  1  0.488728  0.012234  0.827899  1
  H  H10  1  0.037390  0.044525  0.682644  1
  H  H11  1  0.910852  0.989945  0.504986  1
  H  H12  1  0.962610  0.544525  0.817356  1
  H  H13  1  0.089148  0.489945  0.995014  1
  H  H14  1  0.511272  0.512234  0.672101  1
  H  H15  1  0.417751  0.453679  0.388955  1
  H  H16  1  0.334340  0.837035  0.474815  1
  H  H17  1  0.175083  0.868032  0.165350  1
  H  H18  1  0.365653  0.922110  0.218353  1
  H  H19  1  0.204246  0.081629  0.081884  1
  H  H20  1  0.342124  0.146451  0.692011  1
  H  H21  1  0.154465  0.177757  0.983413  1
  H  H22  1  0.795754  0.581629  0.418116  1
  H  H23  1  0.845535  0.677757  0.516587  1
  H  H24  1  0.657876  0.646451  0.807989  1
  H  H25  1  0.824917  0.368032  0.334650  1
  H  H26  1  0.665660  0.337035  0.025185  1
  H  H27  1  0.634347  0.422110  0.281647  1
  N  N28  1  0.753756  0.829001  0.313053  1
  N  N29  1  0.750383  0.163171  0.826388  1
  N  N30  1  0.249617  0.663171  0.673612  1
  N  N31  1  0.246244  0.329001  0.186947  1
  O  O32  1  0.643336  0.793971  0.411670  1
  O  O33  1  0.854441  0.189485  0.997512  1
  O  O34  1  0.145559  0.689485  0.502488  1
  O  O35  1  0.356664  0.293971  0.088330  1
  O  O36  1  0.865044  0.782358  0.315882  1
  O  O37  1  0.636764  0.217994  0.841593  1
  O  O38  1  0.363236  0.717994  0.658407  1
  O  O39  1  0.134956  0.282358  0.184118  1
  O  O40  1  0.757625  0.908750  0.212437  1
  O  O41  1  0.735636  0.094228  0.644018  1
  O  O42  1  0.264364  0.594228  0.855982  1
  O  O43  1  0.242375  0.408750  0.287563  1
  O  O44  1  0.572367  0.646346  0.957585  1
  O  O45  1  0.918258  0.350551  0.514345  1
  O  O46  1  0.081742  0.850551  0.985655  1
  O  O47  1  0.427633  0.146346  0.542415  1
  O  O48  1  0.488445  0.977303  0.059115  1
  O  O49  1  0.010541  0.987611  0.568982  1
  O  O50  1  0.989459  0.487611  0.931018  1
  O  O51  1  0.511555  0.477303  0.440885  1
  O  O52  1  0.292255  0.890374  0.362570  1
  O  O53  1  0.184858  0.121308  0.868825  1
  O  O54  1  0.815142  0.621308  0.631175  1
  O  O55  1  0.707745  0.390374  0.137430  1
