# generated using pymatgen
data_Be(HO)2
_symmetry_space_group_name_H-M   'P 1'
_cell_length_a   5.41645731
_cell_length_b   5.31738477
_cell_length_c   5.03925988
_cell_angle_alpha   90.00000000
_cell_angle_beta   90.00000000
_cell_angle_gamma   90.00000000
_symmetry_Int_Tables_number   1
_chemical_formula_structural   Be(HO)2
_chemical_formula_sum   'Be4 H8 O8'
_cell_volume   145.13767706
_cell_formula_units_Z   4
loop_
 _symmetry_equiv_pos_site_id
 _symmetry_equiv_pos_as_xyz
  1  'x, y, z'
loop_
 _atom_site_type_symbol
 _atom_site_label
 _atom_site_symmetry_multiplicity
 _atom_site_fract_x
 _atom_site_fract_y
 _atom_site_fract_z
 _atom_site_occupancy
  Be  Be0  1  0.875542  0.539439  0.175440  1
  Be  Be1  1  0.624458  0.460561  0.675440  1
  Be  Be2  1  0.375542  0.960561  0.824560  1
  Be  Be3  1  0.124458  0.039439  0.324560  1
  H  H4  1  0.476505  0.413805  0.292499  1
  H  H5  1  0.023495  0.586195  0.792499  1
  H  H6  1  0.976505  0.086195  0.707501  1
  H  H7  1  0.523495  0.913805  0.207501  1
  H  H8  1  0.931764  0.889271  0.990317  1
  H  H9  1  0.568236  0.110729  0.490317  1
  H  H10  1  0.431764  0.610729  0.009683  1
  H  H11  1  0.068236  0.389271  0.509683  1
  O  O12  1  0.611472  0.524772  0.348766  1
  O  O13  1  0.888528  0.475228  0.848766  1
  O  O14  1  0.111472  0.975228  0.651234  1
  O  O15  1  0.388528  0.024772  0.151234  1
  O  O16  1  0.931036  0.849173  0.179190  1
  O  O17  1  0.568964  0.150827  0.679190  1
  O  O18  1  0.431036  0.650827  0.820810  1
  O  O19  1  0.068964  0.349173  0.320810  1
