# generated using pymatgen
data_NaTaO3
_symmetry_space_group_name_H-M   'P 1'
_cell_length_a   7.57019117
_cell_length_b   7.42762992
_cell_length_c   14.76685041
_cell_angle_alpha   59.10459429
_cell_angle_beta   60.26657787
_cell_angle_gamma   59.44796617
_symmetry_Int_Tables_number   1
_chemical_formula_structural   NaTaO3
_chemical_formula_sum   'Na8 Ta8 O24'
_cell_volume   581.74324187
_cell_formula_units_Z   8
loop_
 _symmetry_equiv_pos_site_id
 _symmetry_equiv_pos_as_xyz
  1  'x, y, z'
loop_
 _atom_site_type_symbol
 _atom_site_label
 _atom_site_symmetry_multiplicity
 _atom_site_fract_x
 _atom_site_fract_y
 _atom_site_fract_z
 _atom_site_occupancy
  Na  Na0  1  0.013028  0.994837  0.475830  1
  Na  Na1  1  0.990336  0.521941  0.227982  1
  Na  Na2  1  0.528143  0.983365  0.237510  1
  Na  Na3  1  0.519385  0.497525  0.254119  1
  Na  Na4  1  0.028363  0.465276  0.772621  1
  Na  Na5  1  0.509928  0.484123  0.513763  1
  Na  Na6  1  0.486869  0.502229  0.753500  1
  Na  Na7  1  0.494234  0.540508  0.974192  1
  Ta  Ta8  1  0.996288  0.002658  0.998341  1
  Ta  Ta9  1  0.000490  0.993468  0.247531  1
  Ta  Ta10  1  0.498606  0.997886  0.005690  1
  Ta  Ta11  1  0.483663  0.986300  0.487891  1
  Ta  Ta12  1  0.998442  0.003961  0.746473  1
  Ta  Ta13  1  0.597712  0.002411  0.699984  1
  Ta  Ta14  1  0.999444  0.502626  0.003660  1
  Ta  Ta15  1  0.984447  0.484333  0.484974  1
  O  O16  1  0.066916  0.682364  0.038807  1
  O  O17  1  0.064088  0.756019  0.386879  1
  O  O18  1  0.682065  0.063668  0.043238  1
  O  O19  1  0.297873  0.313479  0.452335  1
  O  O20  1  0.315728  0.924964  0.179561  1
  O  O21  1  0.045195  0.071757  0.846096  1
  O  O22  1  0.703899  0.091486  0.346777  1
  O  O23  1  0.682034  0.674040  0.051531  1
  O  O24  1  0.059238  0.683166  0.848178  1
  O  O25  1  0.632327  0.054010  0.554886  1
  O  O26  1  0.952478  0.307482  0.173541  1
  O  O27  1  0.379528  0.903264  0.428095  1
  O  O28  1  0.405385  0.284105  0.709608  1
  O  O29  1  0.309063  0.311841  0.978309  1
  O  O30  1  0.283988  0.925861  0.645444  1
  O  O31  1  0.926899  0.387651  0.412808  1
  O  O32  1  0.928357  0.895035  0.180816  1
  O  O33  1  0.680980  0.051641  0.851188  1
  O  O34  1  0.684291  0.676705  0.533090  1
  O  O35  1  0.943103  0.318429  0.644531  1
  O  O36  1  0.564392  0.728759  0.794380  1
  O  O37  1  0.292235  0.933048  0.992418  1
  O  O38  1  0.926008  0.311220  0.981171  1
  O  O39  1  0.900552  0.936561  0.667252  1
