# generated using pymatgen
data_Ca3La5Mn7FeO24
_symmetry_space_group_name_H-M   'P 1'
_cell_length_a   5.53071681
_cell_length_b   11.06517970
_cell_length_c   7.78477811
_cell_angle_alpha   90.09274415
_cell_angle_beta   89.99963761
_cell_angle_gamma   90.06494802
_symmetry_Int_Tables_number   1
_chemical_formula_structural   Ca3La5Mn7FeO24
_chemical_formula_sum   'Ca3 La5 Mn7 Fe1 O24'
_cell_volume   476.41484249
_cell_formula_units_Z   1
loop_
 _symmetry_equiv_pos_site_id
 _symmetry_equiv_pos_as_xyz
  1  'x, y, z'
loop_
 _atom_site_type_symbol
 _atom_site_label
 _atom_site_symmetry_multiplicity
 _atom_site_fract_x
 _atom_site_fract_y
 _atom_site_fract_z
 _atom_site_occupancy
  Ca  Ca0  1  0.530454  0.253599  0.249343  1
  Ca  Ca1  1  0.531857  0.756545  0.250867  1
  Ca  Ca2  1  0.966989  0.004782  0.750282  1
  La  La3  1  0.022754  0.497039  0.250451  1
  La  La4  1  0.023514  0.996151  0.249960  1
  La  La5  1  0.475512  0.241855  0.749345  1
  La  La6  1  0.479810  0.751985  0.750680  1
  La  La7  1  0.977390  0.502847  0.749148  1
  Mn  Mn8  1  0.999540  0.247530  0.001329  1
  Mn  Mn9  1  0.000643  0.751929  0.001325  1
  Mn  Mn10  1  0.001168  0.752538  0.499074  1
  Mn  Mn11  1  0.499299  0.000165  0.498671  1
  Mn  Mn12  1  0.499680  0.000333  0.002158  1
  Mn  Mn13  1  0.499934  0.499876  0.497175  1
  Mn  Mn14  1  0.999127  0.247337  0.498079  1
  Fe  Fe15  1  0.499953  0.499521  0.003867  1
  O  O16  1  0.008357  0.285999  0.751532  1
  O  O17  1  0.013452  0.787781  0.750891  1
  O  O18  1  0.220326  0.110588  0.541587  1
  O  O19  1  0.223269  0.613362  0.960062  1
  O  O20  1  0.216506  0.113645  0.958146  1
  O  O21  1  0.226491  0.612900  0.540014  1
  O  O22  1  0.272282  0.361071  0.039841  1
  O  O23  1  0.273767  0.363094  0.459829  1
  O  O24  1  0.275267  0.858734  0.042246  1
  O  O25  1  0.278934  0.861315  0.458047  1
  O  O26  1  0.486750  0.039364  0.247954  1
  O  O27  1  0.488962  0.539875  0.253659  1
  O  O28  1  0.506924  0.463554  0.745636  1
  O  O29  1  0.515255  0.966421  0.752730  1
  O  O30  1  0.723091  0.135966  0.538020  1
  O  O31  1  0.727684  0.139220  0.961744  1
  O  O32  1  0.731413  0.635303  0.542171  1
  O  O33  1  0.732122  0.635884  0.957420  1
  O  O34  1  0.778631  0.386976  0.035958  1
  O  O35  1  0.775194  0.388011  0.462984  1
  O  O36  1  0.777466  0.883287  0.039188  1
  O  O37  1  0.773738  0.886283  0.461508  1
  O  O38  1  0.983131  0.213556  0.248287  1
  O  O39  1  0.983363  0.713778  0.248792  1
