# generated using pymatgen
data_H6SN2
_symmetry_space_group_name_H-M   'P 1'
_cell_length_a   7.10252724
_cell_length_b   8.59616458
_cell_length_c   14.29414369
_cell_angle_alpha   90.00000000
_cell_angle_beta   100.33573401
_cell_angle_gamma   90.00000000
_symmetry_Int_Tables_number   1
_chemical_formula_structural   H6SN2
_chemical_formula_sum   'H48 S8 N16'
_cell_volume   858.56033138
_cell_formula_units_Z   8
loop_
 _symmetry_equiv_pos_site_id
 _symmetry_equiv_pos_as_xyz
  1  'x, y, z'
loop_
 _atom_site_type_symbol
 _atom_site_label
 _atom_site_symmetry_multiplicity
 _atom_site_fract_x
 _atom_site_fract_y
 _atom_site_fract_z
 _atom_site_occupancy
  H  H0  1  0.759429  0.405101  0.418140  1
  H  H1  1  0.939176  0.791728  0.706881  1
  H  H2  1  0.307825  0.301847  0.578184  1
  H  H3  1  0.754154  0.012950  0.746530  1
  H  H4  1  0.869797  0.451437  0.159825  1
  H  H5  1  0.182750  0.396187  0.020292  1
  H  H6  1  0.030086  0.152670  0.179858  1
  H  H7  1  0.333664  0.565179  0.610835  1
  H  H8  1  0.130203  0.548563  0.840175  1
  H  H9  1  0.666336  0.434821  0.389165  1
  H  H10  1  0.817250  0.603813  0.979708  1
  H  H11  1  0.817250  0.896187  0.479708  1
  H  H12  1  0.419112  0.872859  0.603880  1
  H  H13  1  0.400083  0.410493  0.245197  1
  H  H14  1  0.450955  0.739067  0.001756  1
  H  H15  1  0.580888  0.127141  0.396120  1
  H  H16  1  0.859813  0.102198  0.246161  1
  H  H17  1  0.754154  0.487050  0.246530  1
  H  H18  1  0.240571  0.594899  0.581860  1
  H  H19  1  0.692176  0.801847  0.921816  1
  H  H20  1  0.692176  0.698153  0.421816  1
  H  H21  1  0.240571  0.905101  0.081860  1
  H  H22  1  0.182750  0.103813  0.520292  1
  H  H23  1  0.030086  0.347330  0.679858  1
  H  H24  1  0.060824  0.208272  0.293119  1
  H  H25  1  0.245846  0.987050  0.253470  1
  H  H26  1  0.140187  0.897802  0.753839  1
  H  H27  1  0.549045  0.260933  0.998244  1
  H  H28  1  0.969914  0.652670  0.320142  1
  H  H29  1  0.245846  0.512950  0.753470  1
  H  H30  1  0.969914  0.847330  0.820142  1
  H  H31  1  0.599917  0.910493  0.254803  1
  H  H32  1  0.130203  0.951437  0.340175  1
  H  H33  1  0.060824  0.291728  0.793119  1
  H  H34  1  0.869797  0.048563  0.659825  1
  H  H35  1  0.580888  0.372859  0.896120  1
  H  H36  1  0.450955  0.760933  0.501756  1
  H  H37  1  0.599917  0.589507  0.754803  1
  H  H38  1  0.859813  0.397802  0.746161  1
  H  H39  1  0.939176  0.708272  0.206881  1
  H  H40  1  0.759429  0.094899  0.918140  1
  H  H41  1  0.666336  0.065179  0.889165  1
  H  H42  1  0.307825  0.198153  0.078184  1
  H  H43  1  0.419112  0.627141  0.103880  1
  H  H44  1  0.549045  0.239067  0.498244  1
  H  H45  1  0.400083  0.089507  0.745197  1
  H  H46  1  0.140187  0.602198  0.253839  1
  H  H47  1  0.333664  0.934821  0.110835  1
  S  S48  1  0.424301  0.565710  0.254952  1
  S  S49  1  0.864960  0.735793  0.473538  1
  S  S50  1  0.424301  0.934290  0.754952  1
  S  S51  1  0.575700  0.065710  0.245048  1
  S  S52  1  0.864960  0.764207  0.973538  1
  S  S53  1  0.575700  0.434290  0.745048  1
  S  S54  1  0.135040  0.235793  0.026462  1
  S  S55  1  0.135040  0.264207  0.526462  1
  N  N56  1  0.623105  0.149268  0.470803  1
  N  N57  1  0.987322  0.617556  0.252825  1
  N  N58  1  0.012678  0.117556  0.247175  1
  N  N59  1  0.247087  0.923562  0.479203  1
  N  N60  1  0.752913  0.423562  0.020797  1
  N  N61  1  0.376895  0.850732  0.529197  1
  N  N62  1  0.752913  0.076438  0.520797  1
  N  N63  1  0.623105  0.350732  0.970803  1
  N  N64  1  0.890641  0.029857  0.732448  1
  N  N65  1  0.987322  0.882444  0.752825  1
  N  N66  1  0.109359  0.970143  0.267552  1
  N  N67  1  0.109359  0.529857  0.767552  1
  N  N68  1  0.376895  0.649268  0.029197  1
  N  N69  1  0.247087  0.576438  0.979203  1
  N  N70  1  0.012678  0.382444  0.747175  1
  N  N71  1  0.890641  0.470143  0.232448  1
