# generated using pymatgen
data_Ca5Si2SO12
_symmetry_space_group_name_H-M   'P 1'
_cell_length_a   6.93344394
_cell_length_b   10.27610411
_cell_length_c   15.52726527
_cell_angle_alpha   90.00000000
_cell_angle_beta   90.00000000
_cell_angle_gamma   90.00000000
_symmetry_Int_Tables_number   1
_chemical_formula_structural   Ca5Si2SO12
_chemical_formula_sum   'Ca20 Si8 S4 O48'
_cell_volume   1106.29888995
_cell_formula_units_Z   4
loop_
 _symmetry_equiv_pos_site_id
 _symmetry_equiv_pos_as_xyz
  1  'x, y, z'
loop_
 _atom_site_type_symbol
 _atom_site_label
 _atom_site_symmetry_multiplicity
 _atom_site_fract_x
 _atom_site_fract_y
 _atom_site_fract_z
 _atom_site_occupancy
  O  O0  1  0.468002  0.545700  0.609039  1
  O  O1  1  0.968002  0.954300  0.890961  1
  O  O2  1  0.031998  0.045700  0.390961  1
  O  O3  1  0.531998  0.454300  0.109039  1
  O  O4  1  0.531998  0.454300  0.390961  1
  O  O5  1  0.031998  0.045700  0.109039  1
  O  O6  1  0.968002  0.954300  0.609039  1
  O  O7  1  0.468002  0.545700  0.890961  1
  O  O8  1  0.710277  0.732659  0.654344  1
  O  O9  1  0.210277  0.767341  0.845656  1
  O  O10  1  0.789723  0.232659  0.345656  1
  O  O11  1  0.289723  0.267341  0.154344  1
  O  O12  1  0.289723  0.267341  0.345656  1
  O  O13  1  0.789723  0.232659  0.154344  1
  O  O14  1  0.210277  0.767341  0.654344  1
  O  O15  1  0.710277  0.732659  0.845656  1
  O  O16  1  0.819152  0.524149  0.551349  1
  O  O17  1  0.319152  0.975851  0.948651  1
  O  O18  1  0.680848  0.024149  0.448651  1
  O  O19  1  0.068222  0.351239  0.670647  1
  O  O20  1  0.180848  0.475851  0.051349  1
  O  O21  1  0.680848  0.024149  0.051349  1
  O  O22  1  0.319152  0.975851  0.551349  1
  O  O23  1  0.819152  0.524149  0.948651  1
  O  O24  1  0.613837  0.730531  0.490868  1
  O  O25  1  0.113837  0.769469  0.009132  1
  O  O26  1  0.886163  0.230531  0.509132  1
  O  O27  1  0.386163  0.269469  0.990868  1
  O  O28  1  0.386163  0.269469  0.509132  1
  O  O29  1  0.886163  0.230531  0.990868  1
  O  O30  1  0.113837  0.769469  0.490868  1
  O  O31  1  0.613837  0.730531  0.009132  1
  O  O32  1  0.772539  0.393278  0.750000  1
  O  O33  1  0.272539  0.106722  0.750000  1
  O  O34  1  0.727461  0.893278  0.250000  1
  O  O35  1  0.227461  0.606722  0.250000  1
  O  O36  1  0.043083  0.551034  0.750000  1
  O  O37  1  0.543083  0.948966  0.750000  1
  O  O38  1  0.456917  0.051034  0.250000  1
  O  O39  1  0.956917  0.448966  0.250000  1
  O  O40  1  0.068222  0.351239  0.829353  1
  O  O41  1  0.568222  0.148761  0.670647  1
  O  O42  1  0.431778  0.851239  0.170647  1
  O  O43  1  0.931778  0.648761  0.329353  1
  O  O44  1  0.931778  0.648761  0.170647  1
  O  O45  1  0.431778  0.851239  0.329353  1
  O  O46  1  0.568222  0.148761  0.829353  1
  O  O47  1  0.180848  0.475851  0.448651  1
  Si  Si48  1  0.653437  0.633934  0.925304  1
  Si  Si49  1  0.153437  0.866066  0.574696  1
  Si  Si50  1  0.846563  0.133934  0.074696  1
  Si  Si51  1  0.346563  0.366066  0.425304  1
  Si  Si52  1  0.653437  0.633934  0.574696  1
  Si  Si53  1  0.153437  0.866066  0.925304  1
  Si  Si54  1  0.846563  0.133934  0.425304  1
  Si  Si55  1  0.346563  0.366066  0.074696  1
  S  S56  1  0.985416  0.410805  0.750000  1
  S  S57  1  0.485416  0.089195  0.750000  1
  S  S58  1  0.514584  0.910805  0.250000  1
  S  S59  1  0.014584  0.589195  0.250000  1
  Ca  Ca60  1  0.637871  0.933717  0.586091  1
  Ca  Ca61  1  0.137871  0.566283  0.913909  1
  Ca  Ca62  1  0.862129  0.433717  0.413909  1
  Ca  Ca63  1  0.362129  0.066283  0.086091  1
  Ca  Ca64  1  0.362129  0.066283  0.413909  1
  Ca  Ca65  1  0.862129  0.433717  0.086091  1
  Ca  Ca66  1  0.137871  0.566283  0.586091  1
  Ca  Ca67  1  0.637871  0.933717  0.913909  1
  Ca  Ca68  1  0.859309  0.841900  0.404026  1
  Ca  Ca69  1  0.359309  0.658100  0.095974  1
  Ca  Ca70  1  0.640691  0.341900  0.595974  1
  Ca  Ca71  1  0.140691  0.158100  0.904026  1
  Ca  Ca72  1  0.140691  0.158100  0.595974  1
  Ca  Ca73  1  0.640691  0.341900  0.904026  1
  Ca  Ca74  1  0.359309  0.658100  0.404026  1
  Ca  Ca75  1  0.859309  0.841900  0.095974  1
  Ca  Ca76  1  0.050524  0.193567  0.250000  1
  Ca  Ca77  1  0.550524  0.306433  0.250000  1
  Ca  Ca78  1  0.449476  0.693567  0.750000  1
  Ca  Ca79  1  0.949476  0.806433  0.750000  1
