# generated using pymatgen
data_ReTe7O7F32
_symmetry_space_group_name_H-M   'P 1'
_cell_length_a   10.86324767
_cell_length_b   11.57070514
_cell_length_c   12.60944200
_cell_angle_alpha   81.72919558
_cell_angle_beta   80.99446836
_cell_angle_gamma   85.33815197
_symmetry_Int_Tables_number   1
_chemical_formula_structural   ReTe7O7F32
_chemical_formula_sum   'Re2 Te14 O14 F64'
_cell_volume   1546.32870656
_cell_formula_units_Z   2
loop_
 _symmetry_equiv_pos_site_id
 _symmetry_equiv_pos_as_xyz
  1  'x, y, z'
loop_
 _atom_site_type_symbol
 _atom_site_label
 _atom_site_symmetry_multiplicity
 _atom_site_fract_x
 _atom_site_fract_y
 _atom_site_fract_z
 _atom_site_occupancy
  Re  Re0  1  0.788565  0.622504  0.359715  1
  Re  Re1  1  0.211435  0.377496  0.640285  1
  Te  Te2  1  0.314930  0.163869  0.880678  1
  Te  Te3  1  0.843439  0.086951  0.144617  1
  Te  Te4  1  0.948862  0.794154  0.507048  1
  Te  Te5  1  0.156561  0.913049  0.855383  1
  Te  Te6  1  0.501007  0.222276  0.537114  1
  Te  Te7  1  0.607295  0.493561  0.190241  1
  Te  Te8  1  0.085331  0.561402  0.194594  1
  Te  Te9  1  0.685070  0.836131  0.119322  1
  Te  Te10  1  0.339786  0.073470  0.165370  1
  Te  Te11  1  0.498993  0.777724  0.462886  1
  Te  Te12  1  0.051138  0.205846  0.492952  1
  Te  Te13  1  0.660214  0.926530  0.834630  1
  Te  Te14  1  0.392705  0.506439  0.809759  1
  Te  Te15  1  0.914669  0.438598  0.805406  1
  O  O16  1  0.326407  0.264418  0.571356  1
  O  O17  1  0.788544  0.967487  0.073493  1
  O  O18  1  0.211456  0.032513  0.926507  1
  O  O19  1  0.338417  0.393256  0.732769  1
  O  O20  1  0.673593  0.735582  0.428644  1
  O  O21  1  0.909251  0.559739  0.251007  1
  O  O22  1  0.661583  0.606744  0.267231  1
  O  O23  1  0.922531  0.687751  0.408772  1
  O  O24  1  0.393049  0.117084  0.014798  1
  O  O25  1  0.090749  0.440261  0.748993  1
  O  O26  1  0.236607  0.496356  0.547479  1
  O  O27  1  0.077469  0.312249  0.591228  1
  O  O28  1  0.763393  0.503644  0.452521  1
  O  O29  1  0.606951  0.882916  0.985202  1
  F  F30  1  0.828615  0.881589  0.840412  1
  F  F31  1  0.255122  0.556540  0.137017  1
  F  F32  1  0.202415  0.264049  0.958192  1
  F  F33  1  0.185325  0.260275  0.389571  1
  F  F34  1  0.914752  0.150944  0.592239  1
  F  F35  1  0.545369  0.508019  0.716791  1
  F  F36  1  0.756256  0.489386  0.092495  1
  F  F37  1  0.092445  0.721484  0.203805  1
  F  F38  1  0.698860  0.972670  0.685598  1
  F  F39  1  0.301140  0.027330  0.314402  1
  F  F40  1  0.539090  0.379935  0.500088  1
  F  F41  1  0.956159  0.124395  0.018772  1
  F  F42  1  0.728667  0.047109  0.269769  1
  F  F43  1  0.896506  0.207468  0.206661  1
  F  F44  1  0.171385  0.118411  0.159588  1
  F  F45  1  0.814675  0.739725  0.610429  1
  F  F46  1  0.542934  0.393709  0.111698  1
  F  F47  1  0.867167  0.476810  0.666523  1
  F  F48  1  0.044197  0.599856  0.054346  1
  F  F49  1  0.629894  0.778576  0.804911  1
  F  F50  1  0.455207  0.376625  0.900257  1
  F  F51  1  0.457066  0.606290  0.888302  1
  F  F52  1  0.723876  0.193467  0.087240  1
  F  F53  1  0.327392  0.634081  0.721554  1
  F  F54  1  0.085248  0.849056  0.407761  1
  F  F55  1  0.085391  0.401969  0.181590  1
  F  F56  1  0.043841  0.875605  0.981228  1
  F  F57  1  0.533931  0.227219  0.679827  1
  F  F58  1  0.491396  0.976398  0.821474  1
  F  F59  1  0.508604  0.023602  0.178526  1
  F  F60  1  0.330477  0.822817  0.500668  1
  F  F61  1  0.466451  0.065108  0.580903  1
  F  F62  1  0.964193  0.982954  0.202364  1
  F  F63  1  0.276124  0.806533  0.912760  1
  F  F64  1  0.017706  0.106253  0.398028  1
  F  F65  1  0.103494  0.792532  0.793339  1
  F  F66  1  0.544793  0.623375  0.099743  1
  F  F67  1  0.313235  0.920363  0.144226  1
  F  F68  1  0.476772  0.210522  0.395331  1
  F  F69  1  0.271333  0.952891  0.730231  1
  F  F70  1  0.744878  0.443460  0.862983  1
  F  F71  1  0.523228  0.789478  0.604669  1
  F  F72  1  0.672608  0.365919  0.278446  1
  F  F73  1  0.466069  0.772781  0.320173  1
  F  F74  1  0.055040  0.678078  0.571567  1
  F  F75  1  0.797585  0.735951  0.041808  1
  F  F76  1  0.914609  0.598031  0.818410  1
  F  F77  1  0.955803  0.400144  0.945654  1
  F  F78  1  0.533549  0.934892  0.419097  1
  F  F79  1  0.460910  0.620065  0.499912  1
  F  F80  1  0.805878  0.785514  0.234733  1
  F  F81  1  0.243744  0.510614  0.907505  1
  F  F82  1  0.669523  0.177183  0.499332  1
  F  F83  1  0.454631  0.491981  0.283209  1
  F  F84  1  0.944960  0.321922  0.428433  1
  F  F85  1  0.132833  0.523190  0.333477  1
  F  F86  1  0.370106  0.221424  0.195089  1
  F  F87  1  0.686765  0.079637  0.855774  1
  F  F88  1  0.157055  0.086401  0.553343  1
  F  F89  1  0.907555  0.278516  0.796195  1
  F  F90  1  0.194122  0.214486  0.765267  1
  F  F91  1  0.035807  0.017046  0.797636  1
  F  F92  1  0.842945  0.913599  0.446657  1
  F  F93  1  0.982294  0.893747  0.601972  1
