# generated using pymatgen
data_CsAl(H2N)4
_symmetry_space_group_name_H-M   'P 1'
_cell_length_a   7.62514737
_cell_length_b   7.62514737
_cell_length_c   5.36257487
_cell_angle_alpha   90.00000000
_cell_angle_beta   90.00000000
_cell_angle_gamma   90.00000000
_symmetry_Int_Tables_number   1
_chemical_formula_structural   CsAl(H2N)4
_chemical_formula_sum   'Cs2 Al2 H16 N8'
_cell_volume   311.79550648
_cell_formula_units_Z   2
loop_
 _symmetry_equiv_pos_site_id
 _symmetry_equiv_pos_as_xyz
  1  'x, y, z'
loop_
 _atom_site_type_symbol
 _atom_site_label
 _atom_site_symmetry_multiplicity
 _atom_site_fract_x
 _atom_site_fract_y
 _atom_site_fract_z
 _atom_site_occupancy
  Cs  Cs0  1  0.750000  0.750000  0.741080  1
  Cs  Cs1  1  0.250000  0.250000  0.258920  1
  Al  Al2  1  0.750000  0.250000  0.000000  1
  Al  Al3  1  0.250000  0.750000  0.000000  1
  H  H4  1  0.325398  0.572775  0.599806  1
  H  H5  1  0.174602  0.927225  0.599806  1
  H  H6  1  0.572775  0.174602  0.599806  1
  H  H7  1  0.927225  0.325398  0.599806  1
  H  H8  1  0.674602  0.427225  0.400194  1
  H  H9  1  0.825398  0.072775  0.400194  1
  H  H10  1  0.427225  0.825398  0.400194  1
  H  H11  1  0.072775  0.674602  0.400194  1
  H  H12  1  0.423863  0.478058  0.835073  1
  H  H13  1  0.076137  0.021942  0.835073  1
  H  H14  1  0.478058  0.076137  0.835073  1
  H  H15  1  0.021942  0.423863  0.835073  1
  H  H16  1  0.576137  0.521942  0.164927  1
  H  H17  1  0.923863  0.978058  0.164927  1
  H  H18  1  0.521942  0.923863  0.164927  1
  H  H19  1  0.978058  0.576137  0.164927  1
  N  N20  1  0.349435  0.584213  0.785073  1
  N  N21  1  0.150565  0.915787  0.785073  1
  N  N22  1  0.584213  0.150565  0.785073  1
  N  N23  1  0.915787  0.349435  0.785073  1
  N  N24  1  0.650565  0.415787  0.214927  1
  N  N25  1  0.849435  0.084213  0.214927  1
  N  N26  1  0.415787  0.849435  0.214927  1
  N  N27  1  0.084213  0.650565  0.214927  1
