# generated using pymatgen
data_Sr7LaCu4(BiO3)8
_symmetry_space_group_name_H-M   'P 1'
_cell_length_a   14.13285382
_cell_length_b   10.11443282
_cell_length_c   9.45474741
_cell_angle_alpha   64.92698380
_cell_angle_beta   48.37134222
_cell_angle_gamma   47.39259155
_symmetry_Int_Tables_number   1
_chemical_formula_structural   Sr7LaCu4(BiO3)8
_chemical_formula_sum   'Sr7 La1 Cu4 Bi8 O24'
_cell_volume   742.69910855
_cell_formula_units_Z   1
loop_
 _symmetry_equiv_pos_site_id
 _symmetry_equiv_pos_as_xyz
  1  'x, y, z'
loop_
 _atom_site_type_symbol
 _atom_site_label
 _atom_site_symmetry_multiplicity
 _atom_site_fract_x
 _atom_site_fract_y
 _atom_site_fract_z
 _atom_site_occupancy
  Sr  Sr0  1  0.435268  0.951607  0.968863  1
  Sr  Sr1  1  0.279273  0.618755  0.176390  1
  Sr  Sr2  1  0.949413  0.932591  0.921857  1
  Sr  Sr3  1  0.064128  0.073186  0.054696  1
  Sr  Sr4  1  0.788360  0.577375  0.175968  1
  Sr  Sr5  1  0.774915  0.472758  0.859443  1
  Sr  Sr6  1  0.553347  0.045443  0.137075  1
  La  La7  1  0.229936  0.377383  0.764799  1
  Cu  Cu8  1  0.975597  0.967633  0.494842  1
  Cu  Cu9  1  0.314302  0.600409  0.783844  1
  Cu  Cu10  1  0.513333  0.026396  0.524650  1
  Cu  Cu11  1  0.163758  0.432827  0.194897  1
  Bi  Bi12  1  0.655355  0.198709  0.629406  1
  Bi  Bi13  1  0.052642  0.223972  0.377375  1
  Bi  Bi14  1  0.555275  0.643621  0.643703  1
  Bi  Bi15  1  0.231829  0.107994  0.581073  1
  Bi  Bi16  1  0.854379  0.782150  0.374997  1
  Bi  Bi17  1  0.590859  0.298155  0.252884  1
  Bi  Bi18  1  0.941554  0.674516  0.717947  1
  Bi  Bi19  1  0.301842  0.763966  0.408698  1
  O  O20  1  0.214412  0.606608  0.508735  1
  O  O21  1  0.693965  0.762881  0.958289  1
  O  O22  1  0.009589  0.395693  0.847946  1
  O  O23  1  0.073633  0.581774  0.373592  1
  O  O24  1  0.304743  0.054342  0.301136  1
  O  O25  1  0.777118  0.595159  0.507523  1
  O  O26  1  0.691104  0.993782  0.254334  1
  O  O27  1  0.650153  0.251267  0.974238  1
  O  O28  1  0.032361  0.006368  0.597923  1
  O  O29  1  0.440405  0.402505  0.629379  1
  O  O30  1  0.501678  0.587606  0.135868  1
  O  O31  1  0.180369  0.795536  0.934841  1
  O  O32  1  0.825897  0.218458  0.063831  1
  O  O33  1  0.518771  0.334685  0.959695  1
  O  O34  1  0.889695  0.001217  0.383195  1
  O  O35  1  0.523356  0.808203  0.427566  1
  O  O36  1  0.211076  0.917479  0.219626  1
  O  O37  1  0.334120  0.052156  0.780179  1
  O  O38  1  0.361558  0.218368  0.443937  1
  O  O39  1  0.020071  0.311049  0.584581  1
  O  O40  1  0.631397  0.966114  0.621723  1
  O  O41  1  0.962528  0.676200  0.928095  1
  O  O42  1  0.215564  0.294925  0.045798  1
  O  O43  1  0.711073  0.398178  0.474565  1
