# generated using pymatgen
data_Sm2B4O9
_symmetry_space_group_name_H-M   'P 1'
_cell_length_a   4.48436624
_cell_length_b   13.04817620
_cell_length_c   25.16035977
_cell_angle_alpha   99.73733633
_cell_angle_beta   89.97772840
_cell_angle_gamma   99.89628593
_symmetry_Int_Tables_number   1
_chemical_formula_structural   Sm2B4O9
_chemical_formula_sum   'Sm20 B40 O90'
_cell_volume   1428.77996320
_cell_formula_units_Z   10
loop_
 _symmetry_equiv_pos_site_id
 _symmetry_equiv_pos_as_xyz
  1  'x, y, z'
loop_
 _atom_site_type_symbol
 _atom_site_label
 _atom_site_symmetry_multiplicity
 _atom_site_fract_x
 _atom_site_fract_y
 _atom_site_fract_z
 _atom_site_occupancy
  Sm  Sm0  1  0.133454  0.871563  0.929365  1
  Sm  Sm1  1  0.462599  0.282302  0.291721  1
  Sm  Sm2  1  0.610503  0.689767  0.540527  1
  Sm  Sm3  1  0.008553  0.431156  0.130380  1
  Sm  Sm4  1  0.317700  0.975925  0.321660  1
  Sm  Sm5  1  0.682218  0.025238  0.678953  1
  Sm  Sm6  1  0.815456  0.281871  0.791841  1
  Sm  Sm7  1  0.992295  0.569277  0.870051  1
  Sm  Sm8  1  0.182229  0.718406  0.207753  1
  Sm  Sm9  1  0.076615  0.690752  0.039652  1
  Sm  Sm10  1  0.863691  0.128546  0.071273  1
  Sm  Sm11  1  0.256687  0.127635  0.570241  1
  Sm  Sm12  1  0.656747  0.976529  0.821961  1
  Sm  Sm13  1  0.340175  0.024203  0.178797  1
  Sm  Sm14  1  0.384577  0.309126  0.459585  1
  Sm  Sm15  1  0.421184  0.430388  0.629247  1
  Sm  Sm16  1  0.927699  0.309635  0.961208  1
  Sm  Sm17  1  0.576261  0.569743  0.370170  1
  Sm  Sm18  1  0.534357  0.718421  0.708094  1
  Sm  Sm19  1  0.736661  0.871684  0.429569  1
  B  B20  1  0.622436  0.853801  0.031137  1
  B  B21  1  0.863727  0.295547  0.558159  1
  B  B22  1  0.423753  0.502726  0.781913  1
  B  B23  1  0.121415  0.896137  0.725293  1
  B  B24  1  0.575085  0.496614  0.217975  1
  B  B25  1  0.271227  0.197546  0.691333  1
  B  B26  1  0.029947  0.390926  0.366222  1
  B  B27  1  0.783852  0.937650  0.565950  1
  B  B28  1  0.484057  0.516147  0.961509  1
  B  B29  1  0.725979  0.803347  0.308627  1
  B  B30  1  0.834486  0.290586  0.662305  1
  B  B31  1  0.225801  0.104384  0.774976  1
  B  B32  1  0.920734  0.496566  0.718141  1
  B  B33  1  0.132183  0.704601  0.441784  1
  B  B34  1  0.221197  0.184478  0.876081  1
  B  B35  1  0.924988  0.197205  0.192208  1
  B  B36  1  0.639156  0.609297  0.133209  1
  B  B37  1  0.075619  0.803382  0.808665  1
  B  B38  1  0.517666  0.484022  0.039053  1
  B  B39  1  0.966699  0.608726  0.633399  1
  B  B40  1  0.078258  0.502905  0.281711  1
  B  B41  1  0.226917  0.852556  0.531096  1
  B  B42  1  0.773113  0.816561  0.123877  1
  B  B43  1  0.771458  0.147575  0.469157  1
  B  B44  1  0.149824  0.938427  0.065973  1
  B  B45  1  0.215959  0.062699  0.434669  1
  B  B46  1  0.373372  0.147215  0.968834  1
  B  B47  1  0.031062  0.515720  0.460864  1
  B  B48  1  0.547381  0.709769  0.837763  1
  B  B49  1  0.844529  0.062056  0.934348  1
  B  B50  1  0.572441  0.705196  0.941868  1
  B  B51  1  0.429103  0.294472  0.058709  1
  B  B52  1  0.959937  0.183732  0.376203  1
  B  B53  1  0.964566  0.483734  0.538307  1
  B  B54  1  0.878675  0.104008  0.275225  1
  B  B55  1  0.039279  0.816497  0.624170  1
  B  B56  1  0.771352  0.896116  0.225094  1
  B  B57  1  0.161058  0.709584  0.337624  1
  B  B58  1  0.454682  0.289774  0.162648  1
  B  B59  1  0.359641  0.391123  0.866475  1
  O  O60  1  0.681399  0.126733  0.977912  1
  O  O61  1  0.749339  0.304921  0.055751  1
  O  O62  1  0.866776  0.713899  0.636265  1
  O  O63  1  0.317697  0.397122  0.055729  1
  O  O64  1  0.918178  0.125632  0.888872  1
  O  O65  1  0.307177  0.258349  0.108735  1
  O  O66  1  0.867562  0.093468  0.159716  1
  O  O67  1  0.258281  0.214617  0.015554  1
  O  O68  1  0.210261  0.552025  0.513330  1
  O  O69  1  0.443428  0.126665  0.478251  1
  O  O70  1  0.303969  0.537522  0.241956  1
  O  O71  1  0.043326  0.740117  0.391494  1
  O  O72  1  0.276160  0.605294  0.632466  1
  O  O73  1  0.326904  0.606026  0.132498  1
  O  O74  1  0.500949  0.729651  0.335710  1
  O  O75  1  0.672398  0.394912  0.866796  1
  O  O76  1  0.152300  0.286563  0.863958  1
  O  O77  1  0.206512  0.126715  0.389461  1
  O  O78  1  0.224141  0.094040  0.658671  1
  O  O79  1  0.806533  0.215258  0.426289  1
  O  O80  1  0.756408  0.574766  0.186155  1
  O  O81  1  0.063063  0.592546  0.327211  1
  O  O82  1  0.798469  0.542350  0.581445  1
  O  O83  1  0.804786  0.896575  0.726326  1
  O  O84  1  0.950455  0.259566  0.608328  1
  O  O85  1  0.530988  0.592530  0.827118  1
  O  O86  1  0.621777  0.869606  0.169506  1
  O  O87  1  0.714054  0.040125  0.584915  1
  O  O88  1  0.197417  0.458031  0.417742  1
  O  O89  1  0.312854  0.000255  0.750279  1
  O  O90  1  0.555935  0.872958  0.522226  1
  O  O91  1  0.338384  0.551626  0.013882  1
  O  O92  1  0.954305  0.215568  0.515074  1
  O  O93  1  0.692904  0.461353  0.757339  1
  O  O94  1  0.671685  0.959650  0.915447  1
  O  O95  1  0.252274  0.694647  0.944661  1
  O  O96  1  0.590158  0.785062  0.073570  1
  O  O97  1  0.784995  0.447338  0.485826  1
  O  O98  1  0.908570  0.103727  0.773832  1
  O  O99  1  0.685803  0.602965  0.945452  1
  O  O100  1  0.843429  0.714385  0.136235  1
  O  O101  1  0.322400  0.040889  0.085385  1
  O  O102  1  0.180949  0.424677  0.313140  1
  O  O103  1  0.816900  0.574856  0.686307  1
  O  O104  1  0.441174  0.693934  0.444764  1
  O  O105  1  0.265559  0.236087  0.199784  1
  O  O106  1  0.286494  0.960258  0.415225  1
  O  O107  1  0.939238  0.407294  0.672855  1
  O  O108  1  0.260764  0.458204  0.918281  1
  O  O109  1  0.697364  0.739553  0.891530  1
  O  O110  1  0.720095  0.394221  0.366786  1
  O  O111  1  0.776493  0.272078  0.165621  1
  O  O112  1  0.736213  0.763440  0.800622  1
  O  O113  1  0.190152  0.809244  0.754186  1
  O  O114  1  0.766778  0.462151  0.257386  1
  O  O115  1  0.916360  0.602528  0.444616  1
  O  O116  1  0.227424  0.729424  0.835653  1
  O  O117  1  0.468550  0.406659  0.172909  1
  O  O118  1  0.404199  0.216112  0.926674  1
  O  O119  1  0.242320  0.424527  0.813473  1
  O  O120  1  0.087993  0.895829  0.226025  1
  O  O121  1  0.143911  0.053144  0.956820  1
  O  O122  1  0.661955  0.447915  0.986727  1
  O  O123  1  0.811308  0.191660  0.246805  1
  O  O124  1  0.243352  0.869728  0.669602  1
  O  O125  1  0.230203  0.538319  0.742968  1
  O  O126  1  0.741734  0.542493  0.082016  1
  O  O127  1  0.757442  0.129295  0.330833  1
  O  O128  1  0.190660  0.784357  0.573767  1
  O  O129  1  0.739771  0.786371  0.984829  1
  O  O130  1  0.043598  0.784996  0.484722  1
  O  O131  1  0.777791  0.907021  0.341121  1
  O  O132  1  0.686462  0.000340  0.250020  1
  O  O133  1  0.969594  0.236468  0.699432  1
  O  O134  1  0.794966  0.874704  0.611347  1
  O  O135  1  0.314419  0.874597  0.022251  1
  O  O136  1  0.494975  0.273160  0.665315  1
  O  O137  1  0.129628  0.907301  0.841212  1
  O  O138  1  0.195332  0.103285  0.273649  1
  O  O139  1  0.374077  0.131645  0.830564  1
  O  O140  1  0.614587  0.809751  0.254333  1
  O  O141  1  0.554259  0.305950  0.555121  1
  O  O142  1  0.091324  0.946436  0.542827  1
  O  O143  1  0.851739  0.948092  0.043307  1
  O  O144  1  0.908160  0.053391  0.457453  1
  O  O145  1  0.381375  0.190382  0.745647  1
  O  O146  1  0.023887  0.762185  0.300187  1
  O  O147  1  0.130125  0.285981  0.363672  1
  O  O148  1  0.075851  0.874795  0.111105  1
  O  O149  1  0.078720  0.397695  0.554973  1
