# generated using pymatgen
data_Rb5Te3H4NCl18
_symmetry_space_group_name_H-M   'P 1'
_cell_length_a   7.41573009
_cell_length_b   7.41572993
_cell_length_c   22.24831005
_cell_angle_alpha   60.00166303
_cell_angle_beta   60.00166374
_cell_angle_gamma   59.99999459
_symmetry_Int_Tables_number   1
_chemical_formula_structural   Rb5Te3H4NCl18
_chemical_formula_sum   'Rb5 Te3 H4 N1 Cl18'
_cell_volume   865.16860397
_cell_formula_units_Z   1
loop_
 _symmetry_equiv_pos_site_id
 _symmetry_equiv_pos_as_xyz
  1  'x, y, z'
loop_
 _atom_site_type_symbol
 _atom_site_label
 _atom_site_symmetry_multiplicity
 _atom_site_fract_x
 _atom_site_fract_y
 _atom_site_fract_z
 _atom_site_occupancy
  Rb  Rb0  1  0.250126  0.250126  0.083207  1
  Rb  Rb1  1  0.249987  0.249987  0.416680  1
  Rb  Rb2  1  0.749987  0.749987  0.250013  1
  Rb  Rb3  1  0.249893  0.249893  0.750107  1
  Rb  Rb4  1  0.749996  0.749996  0.583337  1
  Te  Te5  1  0.000445  0.000445  0.999555  1
  Te  Te6  1  0.999991  0.999991  0.333342  1
  Te  Te7  1  0.999555  0.999555  0.667112  1
  H  H8  1  0.693062  0.693062  0.897686  1
  H  H9  1  0.692998  0.692998  0.973669  1
  H  H10  1  0.693062  0.920819  0.897686  1
  H  H11  1  0.920819  0.693062  0.897686  1
  N  N12  1  0.750083  0.750083  0.916584  1
  Cl  Cl13  1  0.244603  0.244603  0.251803  1
  Cl  Cl14  1  0.244627  0.755508  0.081452  1
  Cl  Cl15  1  0.755508  0.244627  0.081452  1
  Cl  Cl16  1  0.244603  0.755383  0.251803  1
  Cl  Cl17  1  0.244262  0.244262  0.585302  1
  Cl  Cl18  1  0.244614  0.755382  0.414874  1
  Cl  Cl19  1  0.755383  0.244603  0.251803  1
  Cl  Cl20  1  0.755508  0.755508  0.081452  1
  Cl  Cl21  1  0.244262  0.755569  0.585302  1
  Cl  Cl22  1  0.755382  0.244614  0.414874  1
  Cl  Cl23  1  0.245421  0.245421  0.918135  1
  Cl  Cl24  1  0.245047  0.754823  0.748436  1
  Cl  Cl25  1  0.755569  0.244262  0.585302  1
  Cl  Cl26  1  0.755382  0.755382  0.414874  1
  Cl  Cl27  1  0.245421  0.754755  0.918135  1
  Cl  Cl28  1  0.754823  0.245047  0.748436  1
  Cl  Cl29  1  0.754755  0.245421  0.918135  1
  Cl  Cl30  1  0.754823  0.754823  0.748436  1
