# generated using pymatgen
data_RbBiF4
_symmetry_space_group_name_H-M   'P 1'
_cell_length_a   8.53615424
_cell_length_b   8.53617236
_cell_length_c   8.53616497
_cell_angle_alpha   59.99928706
_cell_angle_beta   59.99923589
_cell_angle_gamma   59.99928579
_symmetry_Int_Tables_number   1
_chemical_formula_structural   RbBiF4
_chemical_formula_sum   'Rb4 Bi4 F16'
_cell_volume   439.81095132
_cell_formula_units_Z   4
loop_
 _symmetry_equiv_pos_site_id
 _symmetry_equiv_pos_as_xyz
  1  'x, y, z'
loop_
 _atom_site_type_symbol
 _atom_site_label
 _atom_site_symmetry_multiplicity
 _atom_site_fract_x
 _atom_site_fract_y
 _atom_site_fract_z
 _atom_site_occupancy
  Rb  Rb0  1  0.999963  0.500116  0.999962  1
  Rb  Rb1  1  0.999964  0.999959  0.999960  1
  Rb  Rb2  1  0.500115  0.999961  0.999958  1
  Rb  Rb3  1  0.999959  0.999963  0.500117  1
  Bi  Bi4  1  0.499999  0.499998  0.000004  1
  Bi  Bi5  1  0.000004  0.499998  0.499999  1
  Bi  Bi6  1  0.499999  0.499999  0.499999  1
  Bi  Bi7  1  0.499999  0.000004  0.499998  1
  F  F8  1  0.837665  0.412337  0.837664  1
  F  F9  1  0.837665  0.412337  0.412337  1
  F  F10  1  0.587672  0.162326  0.587672  1
  F  F11  1  0.587673  0.587673  0.162325  1
  F  F12  1  0.412338  0.837663  0.837664  1
  F  F13  1  0.162326  0.587673  0.162327  1
  F  F14  1  0.412335  0.412338  0.837664  1
  F  F15  1  0.124996  0.125002  0.124999  1
  F  F16  1  0.587674  0.162326  0.162326  1
  F  F17  1  0.162325  0.162326  0.587674  1
  F  F18  1  0.875002  0.875000  0.875003  1
  F  F19  1  0.412337  0.837665  0.412336  1
  F  F20  1  0.625001  0.625000  0.625001  1
  F  F21  1  0.162325  0.587673  0.587673  1
  F  F22  1  0.837664  0.837664  0.412337  1
  F  F23  1  0.374998  0.374999  0.374999  1
