# generated using pymatgen
data_Ce7(GePd2)2
_symmetry_space_group_name_H-M   'P 1'
_cell_length_a   8.18862811
_cell_length_b   11.30059524
_cell_length_c   14.42554893
_cell_angle_alpha   90.06513231
_cell_angle_beta   89.97446341
_cell_angle_gamma   112.08774044
_symmetry_Int_Tables_number   1
_chemical_formula_structural   Ce7(GePd2)2
_chemical_formula_sum   'Ce28 Ge8 Pd16'
_cell_volume   1236.91854622
_cell_formula_units_Z   4
loop_
 _symmetry_equiv_pos_site_id
 _symmetry_equiv_pos_as_xyz
  1  'x, y, z'
loop_
 _atom_site_type_symbol
 _atom_site_label
 _atom_site_symmetry_multiplicity
 _atom_site_fract_x
 _atom_site_fract_y
 _atom_site_fract_z
 _atom_site_occupancy
  Ce  Ce0  1  0.623497  0.006757  0.323519  1
  Ce  Ce1  1  0.638104  0.366690  0.712149  1
  Ce  Ce2  1  0.012258  0.351547  0.431357  1
  Ce  Ce3  1  0.625078  0.653250  0.536757  1
  Ce  Ce4  1  0.105938  0.858447  0.821868  1
  Ce  Ce5  1  0.374639  0.992248  0.677324  1
  Ce  Ce6  1  0.105512  0.358490  0.678388  1
  Ce  Ce7  1  0.013443  0.850920  0.068266  1
  Ce  Ce8  1  0.177038  0.402312  0.049739  1
  Ce  Ce9  1  0.177060  0.902318  0.450067  1
  Ce  Ce10  1  0.625070  0.508475  0.176002  1
  Ce  Ce11  1  0.381422  0.678445  0.686986  1
  Ce  Ce12  1  0.637377  0.866436  0.787911  1
  Ce  Ce13  1  0.375580  0.492598  0.822733  1
  Ce  Ce14  1  0.986792  0.147991  0.930871  1
  Ce  Ce15  1  0.895417  0.642090  0.321869  1
  Ce  Ce16  1  0.617517  0.319663  0.312936  1
  Ce  Ce17  1  0.382958  0.178765  0.812768  1
  Ce  Ce18  1  0.823542  0.098247  0.549902  1
  Ce  Ce19  1  0.894373  0.141173  0.178317  1
  Ce  Ce20  1  0.617210  0.821310  0.186776  1
  Ce  Ce21  1  0.824239  0.598907  0.950257  1
  Ce  Ce22  1  0.360977  0.132270  0.211442  1
  Ce  Ce23  1  0.373426  0.347101  0.464030  1
  Ce  Ce24  1  0.362328  0.633901  0.287932  1
  Ce  Ce25  1  0.987921  0.648225  0.569144  1
  Ce  Ce26  1  0.624978  0.152681  0.963444  1
  Ce  Ce27  1  0.373353  0.847383  0.036567  1
  Ge  Ge28  1  0.931957  0.879704  0.628209  1
  Ge  Ge29  1  0.931474  0.379571  0.871958  1
  Ge  Ge30  1  0.988092  0.924747  0.263255  1
  Ge  Ge31  1  0.011984  0.575080  0.763644  1
  Ge  Ge32  1  0.068399  0.120472  0.371969  1
  Ge  Ge33  1  0.988331  0.425280  0.236618  1
  Ge  Ge34  1  0.068347  0.620877  0.127984  1
  Ge  Ge35  1  0.012203  0.075081  0.736533  1
  Pd  Pd36  1  0.248125  0.344045  0.261760  1
  Pd  Pd37  1  0.221334  0.649495  0.906634  1
  Pd  Pd38  1  0.752073  0.655840  0.738428  1
  Pd  Pd39  1  0.505463  0.629737  0.022737  1
  Pd  Pd40  1  0.752044  0.156106  0.761720  1
  Pd  Pd41  1  0.260430  0.109301  0.020490  1
  Pd  Pd42  1  0.260423  0.609531  0.479532  1
  Pd  Pd43  1  0.739772  0.890482  0.979797  1
  Pd  Pd44  1  0.739834  0.390417  0.520631  1
  Pd  Pd45  1  0.248121  0.844221  0.238162  1
  Pd  Pd46  1  0.505358  0.129295  0.477219  1
  Pd  Pd47  1  0.221189  0.149024  0.593667  1
  Pd  Pd48  1  0.494904  0.870701  0.523031  1
  Pd  Pd49  1  0.495336  0.370727  0.976918  1
  Pd  Pd50  1  0.778876  0.350745  0.093297  1
  Pd  Pd51  1  0.778882  0.850880  0.406483  1
