# generated using pymatgen
data_Sr(H8O5)2
_symmetry_space_group_name_H-M   'P 1'
_cell_length_a   6.32329836
_cell_length_b   6.45624800
_cell_length_c   11.40508152
_cell_angle_alpha   91.29028034
_cell_angle_beta   87.52532309
_cell_angle_gamma   92.19858918
_symmetry_Int_Tables_number   1
_chemical_formula_structural   Sr(H8O5)2
_chemical_formula_sum   'Sr2 H32 O20'
_cell_volume   464.73181476
_cell_formula_units_Z   2
loop_
 _symmetry_equiv_pos_site_id
 _symmetry_equiv_pos_as_xyz
  1  'x, y, z'
loop_
 _atom_site_type_symbol
 _atom_site_label
 _atom_site_symmetry_multiplicity
 _atom_site_fract_x
 _atom_site_fract_y
 _atom_site_fract_z
 _atom_site_occupancy
  Sr  Sr0  1  0.999682  0.994127  0.241322  1
  Sr  Sr1  1  0.016475  0.004058  0.761807  1
  H  H2  1  0.005043  0.347483  0.382303  1
  H  H3  1  0.267430  0.390861  0.351477  1
  H  H4  1  0.969452  0.601505  0.357625  1
  H  H5  1  0.712585  0.595620  0.351239  1
  H  H6  1  0.592954  0.197329  0.350332  1
  H  H7  1  0.688624  0.133699  0.470425  1
  H  H8  1  0.369770  0.722473  0.343819  1
  H  H9  1  0.294782  0.877175  0.447099  1
  H  H10  1  0.732364  0.385496  0.856689  1
  H  H11  1  0.857252  0.317986  0.969625  1
  H  H12  1  0.036802  0.545618  0.870004  1
  H  H13  1  0.277819  0.608467  0.848608  1
  H  H14  1  0.404066  0.262933  0.855366  1
  H  H15  1  0.324162  0.135652  0.969414  1
  H  H16  1  0.614923  0.720677  0.850823  1
  H  H17  1  0.546412  0.955048  0.870974  1
  H  H18  1  0.730481  0.623172  0.645003  1
  H  H19  1  0.867302  0.714008  0.538526  1
  H  H20  1  0.275703  0.372336  0.647285  1
  H  H21  1  0.135626  0.297042  0.543983  1
  H  H22  1  0.356909  0.731084  0.628542  1
  H  H23  1  0.435644  0.969853  0.613196  1
  H  H24  1  0.590836  0.301984  0.665553  1
  H  H25  1  0.711786  0.975243  0.615408  1
  H  H26  1  0.279100  0.606195  0.144322  1
  H  H27  1  0.148910  0.680891  0.033543  1
  H  H28  1  0.965725  0.455086  0.126117  1
  H  H29  1  0.721182  0.391961  0.147675  1
  H  H30  1  0.600402  0.725950  0.146537  1
  H  H31  1  0.682282  0.858556  0.035365  1
  H  H32  1  0.453265  0.043371  0.127660  1
  H  H33  1  0.393751  0.283440  0.142772  1
  O  O34  1  0.477016  0.507467  0.312408  1
  O  O35  1  0.516627  0.479796  0.812796  1
  O  O36  1  0.533604  0.452914  0.683298  1
  O  O37  1  0.489922  0.504682  0.181092  1
  O  O38  1  0.146148  0.291385  0.384196  1
  O  O39  1  0.844239  0.680256  0.377206  1
  O  O40  1  0.725482  0.156994  0.382951  1
  O  O41  1  0.288403  0.854005  0.361753  1
  O  O42  1  0.870964  0.329035  0.882084  1
  O  O43  1  0.139160  0.667753  0.875744  1
  O  O44  1  0.337511  0.124476  0.881229  1
  O  O45  1  0.668242  0.862003  0.878379  1
  O  O46  1  0.838571  0.734755  0.623658  1
  O  O47  1  0.133949  0.310609  0.630876  1
  O  O48  1  0.300536  0.867048  0.615939  1
  O  O49  1  0.628896  0.100961  0.605698  1
  O  O50  1  0.139038  0.667259  0.120392  1
  O  O51  1  0.863570  0.332706  0.123331  1
  O  O52  1  0.667535  0.866383  0.122567  1
  O  O53  1  0.336039  0.139209  0.116622  1
