# generated using pymatgen
data_Cs2Zr2ZnH12(OF2)6
_symmetry_space_group_name_H-M   'P 1'
_cell_length_a   6.81499053
_cell_length_b   10.88306439
_cell_length_c   13.39129440
_cell_angle_alpha   90.00000000
_cell_angle_beta   94.07441198
_cell_angle_gamma   90.00000000
_symmetry_Int_Tables_number   1
_chemical_formula_structural   Cs2Zr2ZnH12(OF2)6
_chemical_formula_sum   'Cs4 Zr4 Zn2 H24 O12 F24'
_cell_volume   990.69505146
_cell_formula_units_Z   2
loop_
 _symmetry_equiv_pos_site_id
 _symmetry_equiv_pos_as_xyz
  1  'x, y, z'
loop_
 _atom_site_type_symbol
 _atom_site_label
 _atom_site_symmetry_multiplicity
 _atom_site_fract_x
 _atom_site_fract_y
 _atom_site_fract_z
 _atom_site_occupancy
  Cs  Cs0  1  0.944128  0.205275  0.416965  1
  Cs  Cs1  1  0.444128  0.294725  0.916965  1
  Cs  Cs2  1  0.055872  0.794725  0.583035  1
  Cs  Cs3  1  0.555872  0.705275  0.083035  1
  Zr  Zr4  1  0.011956  0.466489  0.134583  1
  Zr  Zr5  1  0.511956  0.033511  0.634583  1
  Zr  Zr6  1  -0.011956  0.533511  0.865417  1
  Zr  Zr7  1  0.488044  0.966489  0.365417  1
  Zn  Zn8  1  0.500000  0.500000  0.500000  1
  Zn  Zn9  1  0.000000  0.000000  0.000000  1
  H  H10  1  0.754386  0.111392  0.805513  1
  H  H11  1  0.254386  0.388608  0.305513  1
  H  H12  1  0.245614  0.888608  0.194487  1
  H  H13  1  0.745614  0.611392  0.694487  1
  H  H14  1  0.563579  0.729781  0.694912  1
  H  H15  1  0.063579  0.770219  0.194912  1
  H  H16  1  0.436421  0.270219  0.305088  1
  H  H17  1  0.936421  0.229781  0.805088  1
  H  H18  1  0.626635  0.326033  0.582044  1
  H  H19  1  0.126635  0.173967  0.082044  1
  H  H20  1  0.373365  0.673967  0.417956  1
  H  H21  1  0.873365  0.826033  0.917956  1
  H  H22  1  0.106461  0.378086  0.642798  1
  H  H23  1  0.606461  0.121914  0.142797  1
  H  H24  1  0.893539  0.621914  0.357202  1
  H  H25  1  0.393539  0.878086  0.857202  1
  H  H26  1  0.946420  0.412383  0.560566  1
  H  H27  1  0.446420  0.087617  0.060566  1
  H  H28  1  0.053580  0.587617  0.439434  1
  H  H29  1  0.553580  0.912383  0.939434  1
  H  H30  1  0.557508  0.599614  0.759926  1
  H  H31  1  0.057508  0.900386  0.259926  1
  H  H32  1  0.442492  0.400386  0.240074  1
  H  H33  1  0.942492  0.099614  0.740074  1
  O  O34  1  0.910629  0.608913  0.429763  1
  O  O35  1  0.410629  0.891087  0.929763  1
  O  O36  1  0.089371  0.391087  0.570237  1
  O  O37  1  0.589371  0.108913  0.070237  1
  O  O38  1  0.681651  0.386022  0.536708  1
  O  O39  1  0.181651  0.113978  0.036708  1
  O  O40  1  0.318349  0.613978  0.463292  1
  O  O41  1  0.818349  0.886022  0.963292  1
  O  O42  1  0.590705  0.635902  0.694644  1
  O  O43  1  0.090705  0.864098  0.194644  1
  O  O44  1  0.409295  0.364098  0.305356  1
  O  O45  1  0.909295  0.135902  0.805356  1
  F  F46  1  -0.022060  0.606768  0.015307  1
  F  F47  1  0.477940  0.893232  0.515307  1
  F  F48  1  0.022060  0.393232  0.984693  1
  F  F49  1  0.522060  0.106768  0.484693  1
  F  F50  1  0.029811  0.281941  0.156378  1
  F  F51  1  0.529811  0.218059  0.656378  1
  F  F52  1  0.970189  0.718059  0.843622  1
  F  F53  1  0.470189  0.781941  0.343622  1
  F  F54  1  0.718766  0.452827  0.124708  1
  F  F55  1  0.218766  0.047173  0.624708  1
  F  F56  1  0.281234  0.547173  0.875292  1
  F  F57  1  0.781234  0.952827  0.375292  1
  F  F58  1  0.073501  0.434863  0.292988  1
  F  F59  1  0.573501  0.065137  0.792988  1
  F  F60  1  0.926499  0.565137  0.707012  1
  F  F61  1  0.426499  0.934863  0.207012  1
  F  F62  1  0.992180  0.644354  0.202697  1
  F  F63  1  0.492180  0.855646  0.702697  1
  F  F64  1  0.007820  0.355646  0.797303  1
  F  F65  1  0.507820  0.144354  0.297303  1
  F  F66  1  0.313006  0.481909  0.136090  1
  F  F67  1  0.813006  0.018091  0.636090  1
  F  F68  1  0.686994  0.518091  0.863910  1
  F  F69  1  0.186994  -0.018091  0.363910  1
