# generated using pymatgen
data_BaEuFe2O5
_symmetry_space_group_name_H-M   'P 1'
_cell_length_a   3.97308704
_cell_length_b   3.99225773
_cell_length_c   7.74381090
_cell_angle_alpha   89.85972930
_cell_angle_beta   89.82824685
_cell_angle_gamma   89.67441721
_symmetry_Int_Tables_number   1
_chemical_formula_structural   BaEuFe2O5
_chemical_formula_sum   'Ba1 Eu1 Fe2 O5'
_cell_volume   122.82623579
_cell_formula_units_Z   1
loop_
 _symmetry_equiv_pos_site_id
 _symmetry_equiv_pos_as_xyz
  1  'x, y, z'
loop_
 _atom_site_type_symbol
 _atom_site_label
 _atom_site_symmetry_multiplicity
 _atom_site_fract_x
 _atom_site_fract_y
 _atom_site_fract_z
 _atom_site_occupancy
  Eu  Eu0  1  0.999541  -0.000573  0.503242  1
  Ba  Ba1  1  0.000655  0.000819  0.989019  1
  Fe  Fe2  1  0.500678  0.500486  0.249824  1
  Fe  Fe3  1  0.500185  0.499993  0.738071  1
  O  O4  1  0.500008  0.000999  0.701607  1
  O  O5  1  0.499788  0.999271  0.304669  1
  O  O6  1  0.001319  0.500093  0.702029  1
  O  O7  1  -0.000844  0.499756  0.304835  1
  O  O8  1  0.498669  0.499156  0.006704  1
