# generated using pymatgen
data_K2PdN2(ClO2)2
_symmetry_space_group_name_H-M   'P 1'
_cell_length_a   4.50637995
_cell_length_b   7.84327345
_cell_length_c   8.17642065
_cell_angle_alpha   126.62401853
_cell_angle_beta   87.51783531
_cell_angle_gamma   101.93312016
_symmetry_Int_Tables_number   1
_chemical_formula_structural   K2PdN2(ClO2)2
_chemical_formula_sum   'K2 Pd1 N2 Cl2 O4'
_cell_volume   225.74264650
_cell_formula_units_Z   1
loop_
 _symmetry_equiv_pos_site_id
 _symmetry_equiv_pos_as_xyz
  1  'x, y, z'
loop_
 _atom_site_type_symbol
 _atom_site_label
 _atom_site_symmetry_multiplicity
 _atom_site_fract_x
 _atom_site_fract_y
 _atom_site_fract_z
 _atom_site_occupancy
  K  K0  1  0.116998  0.661030  0.320848  1
  K  K1  1  0.880432  0.337487  0.680492  1
  Pd  Pd2  1  0.497388  -0.001162  0.000952  1
  N  N3  1  0.298595  0.141909  0.273528  1
  N  N4  1  0.698570  0.856618  0.728893  1
  Cl  Cl5  1  0.479403  0.693029  0.990347  1
  Cl  Cl6  1  0.519439  0.306525  0.011994  1
  O  O7  1  0.171004  0.293342  0.331518  1
  O  O8  1  0.676035  0.910312  0.612703  1
  O  O9  1  0.300632  0.077460  0.382267  1
  O  O10  1  0.846002  0.717565  0.678359  1
