# generated using pymatgen
data_LiV(PO4)2
_symmetry_space_group_name_H-M   'P 1'
_cell_length_a   8.42845705
_cell_length_b   8.44226843
_cell_length_c   7.24060793
_cell_angle_alpha   90.25393390
_cell_angle_beta   89.60959592
_cell_angle_gamma   60.12953672
_symmetry_Int_Tables_number   1
_chemical_formula_structural   LiV(PO4)2
_chemical_formula_sum   'Li3 V3 P6 O24'
_cell_volume   446.73557242
_cell_formula_units_Z   3
loop_
 _symmetry_equiv_pos_site_id
 _symmetry_equiv_pos_as_xyz
  1  'x, y, z'
loop_
 _atom_site_type_symbol
 _atom_site_label
 _atom_site_symmetry_multiplicity
 _atom_site_fract_x
 _atom_site_fract_y
 _atom_site_fract_z
 _atom_site_occupancy
  Li  Li0  1  0.327990  0.338953  0.503035  1
  Li  Li1  1  0.001079  0.004555  0.492631  1
  Li  Li2  1  0.672208  0.661126  0.497111  1
  V  V3  1  0.333401  0.333477  0.927032  1
  V  V4  1  0.999847  0.999733  0.999671  1
  V  V5  1  0.666532  0.666386  0.073355  1
  P  P6  1  0.035088  0.647052  0.229135  1
  P  P7  1  0.357759  0.679187  0.771154  1
  P  P8  1  0.683440  0.960953  0.770001  1
  P  P9  1  0.316342  0.038692  0.230048  1
  P  P10  1  0.964927  0.352582  0.771197  1
  P  P11  1  0.642265  0.320641  0.229248  1
  O  O12  1  0.136866  0.376076  0.760829  1
  O  O13  1  0.140194  0.603761  0.404814  1
  O  O14  1  0.691725  0.831691  0.929649  1
  O  O15  1  0.155932  0.806799  0.840176  1
  O  O16  1  0.476865  0.683882  0.934903  1
  O  O17  1  0.844372  0.192640  0.161586  1
  O  O18  1  0.256208  0.140549  0.409544  1
  O  O19  1  0.960076  0.848211  0.162008  1
  O  O20  1  0.743478  0.859157  0.590778  1
  O  O21  1  0.161572  0.527100  0.065089  1
  O  O22  1  0.860515  0.394633  0.595196  1
  O  O23  1  0.405175  0.739413  0.595795  1
  O  O24  1  0.040013  0.151469  0.838941  1
  O  O25  1  0.511744  0.867754  0.234146  1
  O  O26  1  0.523119  0.315819  0.065462  1
  O  O27  1  0.594345  0.260948  0.404808  1
  O  O28  1  0.809678  0.036238  0.839186  1
  O  O29  1  0.378346  0.485279  0.759751  1
  O  O30  1  0.488153  0.132156  0.765965  1
  O  O31  1  0.621595  0.514577  0.240449  1
  O  O32  1  0.863160  0.623554  0.239368  1
  O  O33  1  0.838294  0.472618  0.934848  1
  O  O34  1  0.189721  0.963516  0.162430  1
  O  O35  1  0.308165  0.167916  0.070397  1
