# generated using pymatgen
data_Cs2SiP4(HO7)2
_symmetry_space_group_name_H-M   'P 1'
_cell_length_a   9.25801877
_cell_length_b   9.33311831
_cell_length_c   9.61524437
_cell_angle_alpha   94.97947673
_cell_angle_beta   111.40398848
_cell_angle_gamma   113.22638444
_symmetry_Int_Tables_number   1
_chemical_formula_structural   Cs2SiP4(HO7)2
_chemical_formula_sum   'Cs4 Si2 P8 H4 O28'
_cell_volume   684.49177050
_cell_formula_units_Z   2
loop_
 _symmetry_equiv_pos_site_id
 _symmetry_equiv_pos_as_xyz
  1  'x, y, z'
loop_
 _atom_site_type_symbol
 _atom_site_label
 _atom_site_symmetry_multiplicity
 _atom_site_fract_x
 _atom_site_fract_y
 _atom_site_fract_z
 _atom_site_occupancy
  Cs  Cs0  1  0.804632  0.668633  0.784647  1
  Cs  Cs1  1  0.195368  0.331367  0.215353  1
  Cs  Cs2  1  0.210979  0.740979  0.534861  1
  Cs  Cs3  1  0.789021  0.259021  0.465139  1
  Si  Si4  1  0.500000  0.500000  0.000000  1
  Si  Si5  1  0.500000  0.000000  0.000000  1
  P  P6  1  0.241316  0.138131  0.854161  1
  P  P7  1  0.758684  0.861869  0.145839  1
  P  P8  1  0.292385  0.344539  0.643914  1
  P  P9  1  0.707615  0.655461  0.356086  1
  P  P10  1  0.309235  0.876779  0.199085  1
  P  P11  1  0.690765  0.123221  0.800915  1
  P  P12  1  0.237709  0.641592  0.933433  1
  P  P13  1  0.762291  0.358408  0.066567  1
  H  H14  1  0.921634  0.062521  0.808368  1
  H  H15  1  0.078366  0.937479  0.191632  1
  H  H16  1  0.476559  0.245336  0.625002  1
  H  H17  1  0.523441  0.754664  0.374998  1
  O  O18  1  0.072877  0.032243  0.860456  1
  O  O19  1  0.927123  0.967757  0.139544  1
  O  O20  1  0.344504  0.301751  0.979262  1
  O  O21  1  0.655496  0.698249  0.020738  1
  O  O22  1  0.643199  0.944408  0.142958  1
  O  O23  1  0.356801  0.055592  0.857042  1
  O  O24  1  0.193039  0.179998  0.687548  1
  O  O25  1  0.806961  0.820002  0.312452  1
  O  O26  1  0.163307  0.375880  0.521245  1
  O  O27  1  0.836693  0.624120  0.478755  1
  O  O28  1  0.596323  0.518041  0.202488  1
  O  O29  1  0.403677  0.481959  0.797512  1
  O  O30  1  0.415678  0.315458  0.580756  1
  O  O31  1  0.584322  0.684542  0.419244  1
  O  O32  1  0.566923  0.146568  0.663778  1
  O  O33  1  0.433077  0.853432  0.336222  1
  O  O34  1  0.396117  0.006244  0.125011  1
  O  O35  1  0.603883  0.993756  0.874989  1
  O  O36  1  0.811535  0.079522  0.749069  1
  O  O37  1  0.188465  0.920478  0.250931  1
  O  O38  1  0.182803  0.710519  0.059653  1
  O  O39  1  0.817197  0.289481  0.940347  1
  O  O40  1  0.073781  0.526572  0.796352  1
  O  O41  1  0.926219  0.473428  0.203648  1
  O  O42  1  0.642082  0.426416  0.968712  1
  O  O43  1  0.357918  0.573584  0.031288  1
  O  O44  1  0.349694  0.794997  0.897744  1
  O  O45  1  0.650306  0.205003  0.102256  1
