# generated using pymatgen
data_CuSi2H18C9O2
_symmetry_space_group_name_H-M   'P 1'
_cell_length_a   9.24944845
_cell_length_b   9.24944845
_cell_length_c   18.82422778
_cell_angle_alpha   81.59547209
_cell_angle_beta   98.40452791
_cell_angle_gamma   115.93444577
_symmetry_Int_Tables_number   1
_chemical_formula_structural   CuSi2H18C9O2
_chemical_formula_sum   'Cu4 Si8 H72 C36 O8'
_cell_volume   1426.58700462
_cell_formula_units_Z   4
loop_
 _symmetry_equiv_pos_site_id
 _symmetry_equiv_pos_as_xyz
  1  'x, y, z'
loop_
 _atom_site_type_symbol
 _atom_site_label
 _atom_site_symmetry_multiplicity
 _atom_site_fract_x
 _atom_site_fract_y
 _atom_site_fract_z
 _atom_site_occupancy
  Cu  Cu0  1  0.625565  0.319601  0.084398  1
  Cu  Cu1  1  0.319601  0.625565  0.415602  1
  Cu  Cu2  1  0.374435  0.680399  0.915602  1
  Cu  Cu3  1  0.680399  0.374435  0.584398  1
  Si  Si4  1  0.583127  0.204260  0.256898  1
  Si  Si5  1  0.204260  0.583127  0.243102  1
  Si  Si6  1  0.416873  0.795740  0.743102  1
  Si  Si7  1  0.795740  0.416873  0.756898  1
  Si  Si8  1  0.836991  0.098608  0.071885  1
  Si  Si9  1  0.098608  0.836991  0.428115  1
  Si  Si10  1  0.163009  0.901392  0.928115  1
  Si  Si11  1  0.901392  0.163009  0.571885  1
  H  H12  1  0.574125  0.944556  0.318799  1
  H  H13  1  0.944556  0.574125  0.181201  1
  H  H14  1  0.425875  0.055444  0.681201  1
  H  H15  1  0.055444  0.425875  0.818799  1
  H  H16  1  0.759492  0.109813  0.343838  1
  H  H17  1  0.109813  0.759492  0.156162  1
  H  H18  1  0.240508  0.890187  0.656162  1
  H  H19  1  0.890187  0.240508  0.843838  1
  H  H20  1  0.580369  0.072869  0.381944  1
  H  H21  1  0.072869  0.580369  0.118056  1
  H  H22  1  0.419631  0.927131  0.618056  1
  H  H23  1  0.927131  0.419631  0.881944  1
  H  H24  1  0.310438  0.001977  0.216325  1
  H  H25  1  0.001977  0.310438  0.283675  1
  H  H26  1  0.689562  0.998023  0.783675  1
  H  H27  1  0.998023  0.689562  0.716325  1
  H  H28  1  0.296759  0.123664  0.277336  1
  H  H29  1  0.123664  0.296759  0.222664  1
  H  H30  1  0.703241  0.876336  0.722664  1
  H  H31  1  0.876336  0.703241  0.777336  1
  H  H32  1  0.334289  0.202605  0.186491  1
  H  H33  1  0.202605  0.334289  0.313509  1
  H  H34  1  0.665711  0.797395  0.813509  1
  H  H35  1  0.797395  0.665711  0.686491  1
  H  H36  1  0.804539  0.457801  0.297888  1
  H  H37  1  0.457801  0.804539  0.202112  1
  H  H38  1  0.195461  0.542199  0.702112  1
  H  H39  1  0.542199  0.195461  0.797888  1
  H  H40  1  0.659212  0.497995  0.235266  1
  H  H41  1  0.497995  0.659212  0.264734  1
  H  H42  1  0.340788  0.502005  0.764734  1
  H  H43  1  0.502005  0.340788  0.735266  1
  H  H44  1  0.617333  0.426682  0.326449  1
  H  H45  1  0.426682  0.617333  0.173551  1
  H  H46  1  0.382667  0.573318  0.673551  1
  H  H47  1  0.573318  0.382667  0.826449  1
  H  H48  1  0.938369  0.971835  0.180590  1
  H  H49  1  0.971835  0.938369  0.319410  1
  H  H50  1  0.061631  0.028165  0.819410  1
  H  H51  1  0.028165  0.061631  0.680590  1
  H  H52  1  0.750084  0.830633  0.142173  1
  H  H53  1  0.830633  0.750084  0.357827  1
  H  H54  1  0.249916  0.169367  0.857827  1
  H  H55  1  0.169367  0.249916  0.642173  1
  H  H56  1  0.931092  0.881184  0.102413  1
  H  H57  1  0.881184  0.931092  0.397587  1
  H  H58  1  0.068908  0.118816  0.897587  1
  H  H59  1  0.118816  0.068908  0.602413  1
  H  H60  1  0.017774  0.370690  0.019300  1
  H  H61  1  0.370690  0.017774  0.480700  1
  H  H62  1  0.982226  0.629310  0.980700  1
  H  H63  1  0.629310  0.982226  0.519300  1
  H  H64  1  0.116748  0.308908  0.097552  1
  H  H65  1  0.308908  0.116748  0.402448  1
  H  H66  1  0.883252  0.691092  0.902448  1
  H  H67  1  0.691092  0.883252  0.597552  1
  H  H68  1  0.096274  0.228998  0.014711  1
  H  H69  1  0.228998  0.096274  0.485289  1
  H  H70  1  0.903726  0.771002  0.985289  1
  H  H71  1  0.771002  0.903726  0.514711  1
  H  H72  1  0.678852  0.119064  0.955989  1
  H  H73  1  0.119064  0.678852  0.544011  1
  H  H74  1  0.321148  0.880936  0.044011  1
  H  H75  1  0.880936  0.321148  0.455989  1
  H  H76  1  0.767664  0.983955  0.953798  1
  H  H77  1  0.983955  0.767664  0.546202  1
  H  H78  1  0.232336  0.016045  0.046202  1
  H  H79  1  0.016045  0.232336  0.453798  1
  H  H80  1  0.592797  0.920057  0.000392  1
  H  H81  1  0.920057  0.592797  0.499608  1
  H  H82  1  0.407203  0.079943  0.999608  1
  H  H83  1  0.079943  0.407203  0.500392  1
  C  C84  1  0.670980  0.200439  0.174076  1
  C  C85  1  0.200439  0.670980  0.325924  1
  C  C86  1  0.329020  0.799561  0.825924  1
  C  C87  1  0.799561  0.329020  0.674076  1
  C  C88  1  0.732458  0.175862  0.123840  1
  C  C89  1  0.175862  0.732458  0.376160  1
  C  C90  1  0.267542  0.824138  0.876160  1
  C  C91  1  0.824138  0.267542  0.623840  1
  C  C92  1  0.628689  0.069873  0.332438  1
  C  C93  1  0.069873  0.628689  0.167562  1
  C  C94  1  0.371311  0.930127  0.667562  1
  C  C95  1  0.930127  0.371311  0.832438  1
  C  C96  1  0.359818  0.125645  0.231858  1
  C  C97  1  0.125645  0.359818  0.268142  1
  C  C98  1  0.640182  0.874355  0.768142  1
  C  C99  1  0.874355  0.640182  0.731858  1
  C  C100  1  0.674933  0.417066  0.281314  1
  C  C101  1  0.417066  0.674933  0.218686  1
  C  C102  1  0.325067  0.582934  0.718686  1
  C  C103  1  0.582934  0.325067  0.781314  1
  C  C104  1  0.866895  0.929580  0.129794  1
  C  C105  1  0.929580  0.866895  0.370206  1
  C  C106  1  0.133105  0.070420  0.870206  1
  C  C107  1  0.070420  0.133105  0.629794  1
  C  C108  1  0.035150  0.267372  0.048960  1
  C  C109  1  0.267372  0.035150  0.451040  1
  C  C110  1  0.964850  0.732628  0.951040  1
  C  C111  1  0.732628  0.964850  0.548960  1
  C  C112  1  0.706518  0.023359  0.987540  1
  C  C113  1  0.023359  0.706518  0.512460  1
  C  C114  1  0.293482  0.976641  0.012460  1
  C  C115  1  0.976641  0.293482  0.487540  1
  C  C116  1  0.468791  0.514995  0.033252  1
  C  C117  1  0.514995  0.468791  0.466748  1
  C  C118  1  0.531209  0.485005  0.966748  1
  C  C119  1  0.485005  0.531209  0.533252  1
  O  O120  1  0.499597  0.449229  0.093978  1
  O  O121  1  0.449229  0.499597  0.406022  1
  O  O122  1  0.500403  0.550771  0.906022  1
  O  O123  1  0.550771  0.500403  0.593978  1
  O  O124  1  0.607704  0.397552  0.978273  1
  O  O125  1  0.397552  0.607704  0.521727  1
  O  O126  1  0.392296  0.602448  0.021727  1
  O  O127  1  0.602448  0.392296  0.478273  1
