# generated using pymatgen
data_Nd2Th8O19
_symmetry_space_group_name_H-M   'P 1'
_cell_length_a   3.97519359
_cell_length_b   39.78292172
_cell_length_c   37.95396937
_cell_angle_alpha   5.20667308
_cell_angle_beta   58.44278254
_cell_angle_gamma   60.04698643
_symmetry_Int_Tables_number   1
_chemical_formula_structural   Nd2Th8O19
_chemical_formula_sum   'Nd2 Th8 O19'
_cell_volume   445.13894671
_cell_formula_units_Z   1
loop_
 _symmetry_equiv_pos_site_id
 _symmetry_equiv_pos_as_xyz
  1  'x, y, z'
loop_
 _atom_site_type_symbol
 _atom_site_label
 _atom_site_symmetry_multiplicity
 _atom_site_fract_x
 _atom_site_fract_y
 _atom_site_fract_z
 _atom_site_occupancy
  Nd  Nd0  1  0.034903  0.019889  0.974026  1
  Nd  Nd1  1  0.972546  0.072498  0.033706  1
  Th  Th2  1  0.000691  0.195523  0.004808  1
  Th  Th3  1  0.001797  0.297099  0.002891  1
  Th  Th4  1  0.002949  0.400061  0.999669  1
  Th  Th5  1  0.001864  0.500677  0.999017  1
  Th  Th6  1  -0.000021  0.599722  0.999943  1
  Th  Th7  1  0.001324  0.699373  0.000358  1
  Th  Th8  1  0.005035  0.800593  0.999016  1
  Th  Th9  1  0.007404  0.899874  -0.000372  1
  O  O10  1  0.260101  0.001902  0.246552  1
  O  O11  1  0.251523  0.098376  0.251693  1
  O  O12  1  0.253044  0.200352  0.249401  1
  O  O13  1  0.251905  0.301924  0.247521  1
  O  O14  1  0.248281  0.397788  0.252192  1
  O  O15  1  0.255894  0.502553  0.246486  1
  O  O16  1  0.749234  0.996614  0.753858  1
  O  O17  1  0.246647  0.592586  0.259023  1
  O  O18  1  0.767311  0.109215  0.738322  1
  O  O19  1  0.280982  0.716791  0.228021  1
  O  O20  1  0.732098  0.177812  0.776739  1
  O  O21  1  0.750904  0.298394  0.751564  1
  O  O22  1  0.228441  0.878181  0.276657  1
  O  O23  1  0.773570  0.413926  0.731863  1
  O  O24  1  0.743254  0.488365  0.763435  1
  O  O25  1  0.754501  0.600456  0.748979  1
  O  O26  1  0.753241  0.700764  0.748853  1
  O  O27  1  0.749782  0.800472  0.749334  1
  O  O28  1  0.751210  0.900577  0.748778  1
