# generated using pymatgen
data_LiEu(SO4)2
_symmetry_space_group_name_H-M   'P 1'
_cell_length_a   6.07284905
_cell_length_b   7.80396977
_cell_length_c   7.81072453
_cell_angle_alpha   90.00000000
_cell_angle_beta   90.00000000
_cell_angle_gamma   90.00000000
_symmetry_Int_Tables_number   1
_chemical_formula_structural   LiEu(SO4)2
_chemical_formula_sum   'Li2 Eu2 S4 O16'
_cell_volume   370.16843762
_cell_formula_units_Z   2
loop_
 _symmetry_equiv_pos_site_id
 _symmetry_equiv_pos_as_xyz
  1  'x, y, z'
loop_
 _atom_site_type_symbol
 _atom_site_label
 _atom_site_symmetry_multiplicity
 _atom_site_fract_x
 _atom_site_fract_y
 _atom_site_fract_z
 _atom_site_occupancy
  Eu  Eu0  1  0.507097  0.500000  0.500000  1
  Eu  Eu1  1  0.007097  0.000000  0.000000  1
  Li  Li2  1  0.508324  0.000000  0.000000  1
  Li  Li3  1  0.008324  0.500000  0.500000  1
  S  S4  1  0.508875  0.780283  0.219766  1
  S  S5  1  0.008875  0.280283  0.280234  1
  S  S6  1  0.008875  0.719717  0.719766  1
  S  S7  1  0.508875  0.219717  0.780234  1
  O  O8  1  0.912263  0.106404  0.292737  1
  O  O9  1  0.834318  0.413370  0.314222  1
  O  O10  1  0.606359  0.207879  0.606767  1
  O  O11  1  0.106359  0.707879  0.893233  1
  O  O12  1  0.682975  0.815003  0.086486  1
  O  O13  1  0.182975  0.315003  0.413514  1
  O  O14  1  0.106359  0.292121  0.106767  1
  O  O15  1  0.412263  0.606404  0.207263  1
  O  O16  1  0.606359  0.792121  0.393233  1
  O  O17  1  0.334318  0.913370  0.185778  1
  O  O18  1  0.334318  0.086630  0.814222  1
  O  O19  1  0.682975  0.184997  0.913514  1
  O  O20  1  0.912263  0.893596  0.707263  1
  O  O21  1  0.834318  0.586630  0.685778  1
  O  O22  1  0.182975  0.684997  0.586486  1
  O  O23  1  0.412263  0.393596  0.792737  1
