# generated using pymatgen
data_WN18
_symmetry_space_group_name_H-M   'P 1'
_cell_length_a   9.51656466
_cell_length_b   9.51656474
_cell_length_c   7.31527030
_cell_angle_alpha   90.00000000
_cell_angle_beta   90.00000000
_cell_angle_gamma   119.99999971
_symmetry_Int_Tables_number   1
_chemical_formula_structural   WN18
_chemical_formula_sum   'W2 N36'
_cell_volume   573.74831133
_cell_formula_units_Z   2
loop_
 _symmetry_equiv_pos_site_id
 _symmetry_equiv_pos_as_xyz
  1  'x, y, z'
loop_
 _atom_site_type_symbol
 _atom_site_label
 _atom_site_symmetry_multiplicity
 _atom_site_fract_x
 _atom_site_fract_y
 _atom_site_fract_z
 _atom_site_occupancy
  W  W0  1  0.333333  0.666667  0.007834  1
  W  W1  1  0.666667  0.333333  0.992166  1
  N  N2  1  0.465116  0.237306  0.843049  1
  N  N3  1  0.227810  0.465116  0.156951  1
  N  N4  1  0.647124  0.528150  0.307537  1
  N  N5  1  0.092152  0.690197  0.555867  1
  N  N6  1  0.772190  0.534884  0.843049  1
  N  N7  1  0.792681  0.792773  0.826202  1
  N  N8  1  0.542986  0.141144  0.163483  1
  N  N9  1  0.333496  0.114251  0.837387  1
  N  N10  1  0.780755  0.666504  0.837387  1
  N  N11  1  0.598046  0.907848  0.555867  1
  N  N12  1  0.762694  0.227810  0.843049  1
  N  N13  1  0.881026  0.352876  0.307537  1
  N  N14  1  0.999908  0.792681  0.173798  1
  N  N15  1  0.000092  0.207319  0.826202  1
  N  N16  1  0.858856  0.401842  0.163483  1
  N  N17  1  0.141144  0.598158  0.836517  1
  N  N18  1  0.907848  0.309803  0.444133  1
  N  N19  1  0.207227  0.999908  0.826202  1
  N  N20  1  0.666504  0.885749  0.162613  1
  N  N21  1  0.118974  0.647124  0.692463  1
  N  N22  1  0.792773  0.000092  0.173798  1
  N  N23  1  0.352876  0.471850  0.692463  1
  N  N24  1  0.401842  0.542986  0.836517  1
  N  N25  1  0.885749  0.219245  0.837387  1
  N  N26  1  0.401954  0.092152  0.444133  1
  N  N27  1  0.237306  0.772190  0.156951  1
  N  N28  1  0.457014  0.858856  0.836517  1
  N  N29  1  0.528150  0.881026  0.692463  1
  N  N30  1  0.690197  0.598046  0.444133  1
  N  N31  1  0.534884  0.762694  0.156951  1
  N  N32  1  0.207319  0.207227  0.173798  1
  N  N33  1  0.471850  0.118974  0.307537  1
  N  N34  1  0.219245  0.333496  0.162613  1
  N  N35  1  0.114251  0.780755  0.162613  1
  N  N36  1  0.309803  0.401954  0.555867  1
  N  N37  1  0.598158  0.457014  0.163483  1
