# generated using pymatgen
data_Cr(PS3)3
_symmetry_space_group_name_H-M   'P 1'
_cell_length_a   15.14053170
_cell_length_b   13.19741591
_cell_length_c   11.84670713
_cell_angle_alpha   107.42382116
_cell_angle_beta   114.13787666
_cell_angle_gamma   113.99229263
_symmetry_Int_Tables_number   1
_chemical_formula_structural   Cr(PS3)3
_chemical_formula_sum   'Cr4 P12 S36'
_cell_volume   1636.93165220
_cell_formula_units_Z   4
loop_
 _symmetry_equiv_pos_site_id
 _symmetry_equiv_pos_as_xyz
  1  'x, y, z'
loop_
 _atom_site_type_symbol
 _atom_site_label
 _atom_site_symmetry_multiplicity
 _atom_site_fract_x
 _atom_site_fract_y
 _atom_site_fract_z
 _atom_site_occupancy
  Cr  Cr0  1  0.155175  0.398769  0.797574  1
  Cr  Cr1  1  0.607812  0.855535  0.693607  1
  Cr  Cr2  1  0.370821  0.142407  0.285645  1
  Cr  Cr3  1  0.847663  0.594317  0.192546  1
  P  P4  1  0.077580  0.497914  0.620011  1
  P  P5  1  0.045894  0.119890  0.621699  1
  P  P6  1  0.517686  0.906330  0.865854  1
  P  P7  1  0.099559  0.037853  0.098982  1
  P  P8  1  0.282424  0.529710  0.049616  1
  P  P9  1  0.453346  0.701106  0.421637  1
  P  P10  1  0.555664  0.306776  0.616391  1
  P  P11  1  0.727003  0.474022  0.942472  1
  P  P12  1  0.869328  0.975931  0.887547  1
  P  P13  1  0.520745  0.074074  0.099544  1
  P  P14  1  0.949679  0.871110  0.377757  1
  P  P15  1  0.927455  0.502280  0.377334  1
  S  S16  1  0.079692  0.526168  0.797213  1
  S  S17  1  0.046808  0.807100  0.366199  1
  S  S18  1  0.107276  0.650527  0.581584  1
  S  S19  1  0.384796  0.862646  0.896506  1
  S  S20  1  0.028125  0.059691  0.906664  1
  S  S21  1  0.150662  0.833312  0.159587  1
  S  S22  1  0.189643  0.448833  0.635375  1
  S  S23  1  0.018917  0.061962  0.416081  1
  S  S24  1  0.223218  0.264735  0.792127  1
  S  S25  1  0.492186  0.934257  0.699913  1
  S  S26  1  0.290030  0.681963  0.320671  1
  S  S27  1  0.555481  0.774761  0.826826  1
  S  S28  1  0.289168  0.694283  0.151536  1
  S  S29  1  0.251894  0.214855  0.294025  1
  S  S30  1  0.580584  0.459069  0.785161  1
  S  S31  1  0.595527  0.877838  0.495701  1
  S  S32  1  0.404003  0.120799  0.490720  1
  S  S33  1  0.413000  0.547671  0.231277  1
  S  S34  1  0.733445  0.781964  0.725353  1
  S  S35  1  0.455261  0.306398  0.129809  1
  S  S36  1  0.566227  0.358426  0.477554  1
  S  S37  1  0.701896  0.320906  0.775896  1
  S  S38  1  0.560130  0.085564  0.284713  1
  S  S39  1  0.774767  0.723990  0.198561  1
  S  S40  1  0.979870  0.733741  0.996182  1
  S  S41  1  0.970629  0.927441  0.580138  1
  S  S42  1  0.812990  0.547190  0.356639  1
  S  S43  1  0.790563  0.068268  0.860324  1
  S  S44  1  0.319747  0.123609  0.060793  1
  S  S45  1  0.953148  0.022820  0.105404  1
  S  S46  1  0.660271  0.081759  0.078316  1
  S  S47  1  0.896928  0.351405  0.417684  1
  S  S48  1  0.957109  0.193098  0.646873  1
  S  S49  1  0.256961  0.916838  0.102334  1
  S  S50  1  0.512587  0.267211  0.015198  1
  S  S51  1  0.928723  0.473178  0.201450  1
