# generated using pymatgen
data_Cu2SbO5
_symmetry_space_group_name_H-M   'P 1'
_cell_length_a   7.13810786
_cell_length_b   7.44040687
_cell_length_c   16.56918582
_cell_angle_alpha   94.78349759
_cell_angle_beta   118.74051929
_cell_angle_gamma   116.71954651
_symmetry_Int_Tables_number   1
_chemical_formula_structural   Cu2SbO5
_chemical_formula_sum   'Cu2 Sb1 O5'
_cell_volume   636.77695527
_cell_formula_units_Z   1
loop_
 _symmetry_equiv_pos_site_id
 _symmetry_equiv_pos_as_xyz
  1  'x, y, z'
loop_
 _atom_site_type_symbol
 _atom_site_label
 _atom_site_symmetry_multiplicity
 _atom_site_fract_x
 _atom_site_fract_y
 _atom_site_fract_z
 _atom_site_occupancy
  Cu  Cu0  1  0.893617  0.840513  0.543925  1
  Cu  Cu1  1  0.883155  0.852103  0.052124  1
  Sb  Sb2  1  0.018637  0.039104  0.763819  1
  O  O3  1  0.785588  0.066413  0.773493  1
  O  O4  1  0.875612  0.653921  0.469947  1
  O  O5  1  0.920997  0.025924  0.628530  1
  O  O6  1  0.869259  0.665394  0.979313  1
  O  O7  1  0.910135  0.040429  0.129249  1
