# generated using pymatgen
data_Ba2Ta6Te2O21
_symmetry_space_group_name_H-M   'P 1'
_cell_length_a   5.74668039
_cell_length_b   8.91758164
_cell_length_c   9.74284110
_cell_angle_alpha   96.44026135
_cell_angle_beta   90.00000000
_cell_angle_gamma   108.79667130
_symmetry_Int_Tables_number   1
_chemical_formula_structural   Ba2Ta6Te2O21
_chemical_formula_sum   'Ba2 Ta6 Te2 O21'
_cell_volume   469.32891523
_cell_formula_units_Z   1
loop_
 _symmetry_equiv_pos_site_id
 _symmetry_equiv_pos_as_xyz
  1  'x, y, z'
loop_
 _atom_site_type_symbol
 _atom_site_label
 _atom_site_symmetry_multiplicity
 _atom_site_fract_x
 _atom_site_fract_y
 _atom_site_fract_z
 _atom_site_occupancy
  O  O0  1  0.581413  0.162826  0.277526  1
  O  O1  1  0.418587  0.837174  0.722474  1
  O  O2  1  0.790450  0.580900  0.150752  1
  O  O3  1  0.209550  0.419100  0.849248  1
  O  O4  1  0.000000  0.000000  0.000000  1
  O  O5  1  0.306711  0.131197  0.779530  1
  O  O6  1  0.175514  0.868803  0.220470  1
  O  O7  1  0.693289  0.868803  0.220470  1
  O  O8  1  0.824486  0.131197  0.779530  1
  O  O9  1  0.606009  0.709972  0.947167  1
  O  O10  1  0.279453  0.000000  0.500000  1
  O  O11  1  0.720547  0.000000  0.500000  1
  O  O12  1  0.357722  0.715443  0.396142  1
  O  O13  1  0.642278  0.284557  0.603858  1
  O  O14  1  0.976567  0.434645  0.329793  1
  O  O15  1  0.541922  0.565355  0.670207  1
  O  O16  1  0.023433  0.565355  0.670207  1
  O  O17  1  0.458078  0.434645  0.329793  1
  O  O18  1  0.103962  0.709972  0.947167  1
  O  O19  1  0.393991  0.290028  0.052833  1
  O  O20  1  0.896038  0.290028  0.052833  1
  Te  Te21  1  0.725800  0.451599  0.753436  1
  Te  Te22  1  0.274200  0.548401  0.246564  1
  Ba  Ba23  1  0.862332  0.724665  0.471869  1
  Ba  Ba24  1  0.137668  0.275335  0.528131  1
  Ta  Ta25  1  0.099344  0.198689  0.918463  1
  Ta  Ta26  1  0.900656  0.801311  0.081537  1
  Ta  Ta27  1  0.520911  0.041822  0.664331  1
  Ta  Ta28  1  0.479089  0.958178  0.335669  1
  Ta  Ta29  1  0.323990  0.647980  0.827529  1
  Ta  Ta30  1  0.676010  0.352020  0.172471  1
