# generated using pymatgen
data_Co2SbTe
_symmetry_space_group_name_H-M   'P 1'
_cell_length_a   4.16323455
_cell_length_b   4.16323448
_cell_length_c   5.09980429
_cell_angle_alpha   90.00000000
_cell_angle_beta   90.00000000
_cell_angle_gamma   120.00000063
_symmetry_Int_Tables_number   1
_chemical_formula_structural   Co2SbTe
_chemical_formula_sum   'Co2 Sb1 Te1'
_cell_volume   76.55012246
_cell_formula_units_Z   1
loop_
 _symmetry_equiv_pos_site_id
 _symmetry_equiv_pos_as_xyz
  1  'x, y, z'
loop_
 _atom_site_type_symbol
 _atom_site_label
 _atom_site_symmetry_multiplicity
 _atom_site_fract_x
 _atom_site_fract_y
 _atom_site_fract_z
 _atom_site_occupancy
  Co  Co0  1  0.000000  0.000000  0.988548  1
  Co  Co1  1  0.000000  0.000000  0.511452  1
  Sb  Sb2  1  0.666667  0.333333  0.750000  1
  Te  Te3  1  0.333333  0.666667  0.250000  1
