# generated using pymatgen
data_K2Pd(NO2)4
_symmetry_space_group_name_H-M   'P 1'
_cell_length_a   8.04412808
_cell_length_b   8.95171032
_cell_length_c   13.43708034
_cell_angle_alpha   90.00000000
_cell_angle_beta   90.00000000
_cell_angle_gamma   93.56339230
_symmetry_Int_Tables_number   1
_chemical_formula_structural   K2Pd(NO2)4
_chemical_formula_sum   'K8 Pd4 N16 O32'
_cell_volume   965.71605410
_cell_formula_units_Z   4
loop_
 _symmetry_equiv_pos_site_id
 _symmetry_equiv_pos_as_xyz
  1  'x, y, z'
loop_
 _atom_site_type_symbol
 _atom_site_label
 _atom_site_symmetry_multiplicity
 _atom_site_fract_x
 _atom_site_fract_y
 _atom_site_fract_z
 _atom_site_occupancy
  K  K0  1  0.074306  0.819973  0.341161  1
  K  K1  1  0.145953  0.665747  0.675860  1
  K  K2  1  0.425694  0.180027  0.841161  1
  K  K3  1  0.574306  0.819973  0.158839  1
  K  K4  1  0.645953  0.665747  0.824140  1
  K  K5  1  0.354047  0.334253  0.175860  1
  K  K6  1  0.854047  0.334253  0.324140  1
  K  K7  1  0.925694  0.180027  0.658839  1
  Pd  Pd8  1  0.500000  0.000000  0.500000  1
  Pd  Pd9  1  0.000000  0.000000  0.000000  1
  Pd  Pd10  1  0.000000  0.500000  0.000000  1
  Pd  Pd11  1  0.500000  0.500000  0.500000  1
  N  N12  1  0.241234  0.445130  0.491667  1
  N  N13  1  0.277254  0.001596  0.574579  1
  N  N14  1  0.258766  0.554870  0.991667  1
  N  N15  1  0.898049  0.094670  0.126632  1
  N  N16  1  0.490687  0.595924  0.361603  1
  N  N17  1  0.009313  0.404076  0.861603  1
  N  N18  1  0.101951  0.905330  0.873368  1
  N  N19  1  0.741234  0.445130  0.008333  1
  N  N20  1  0.222746  0.998404  0.074579  1
  N  N21  1  0.509313  0.404076  0.638397  1
  N  N22  1  0.398049  0.094670  0.373368  1
  N  N23  1  0.722746  0.998404  0.425421  1
  N  N24  1  0.758766  0.554870  0.508333  1
  N  N25  1  0.601951  0.905330  0.626632  1
  N  N26  1  0.777254  0.001596  0.925421  1
  N  N27  1  0.990687  0.595924  0.138397  1
  O  O28  1  0.745383  0.909858  0.355764  1
  O  O29  1  0.663858  0.471195  0.086602  1
  O  O30  1  0.667297  0.383090  0.935985  1
  O  O31  1  0.745622  0.114164  0.130740  1
  O  O32  1  0.056423  0.531040  0.210162  1
  O  O33  1  0.336142  0.528805  0.913398  1
  O  O34  1  0.921029  0.714516  0.152599  1
  O  O35  1  0.754378  0.885836  0.630740  1
  O  O36  1  0.836622  0.093947  0.450342  1
  O  O37  1  0.491138  0.135969  0.301868  1
  O  O38  1  0.008862  0.864031  0.801868  1
  O  O39  1  0.832703  0.616910  0.435985  1
  O  O40  1  0.254617  0.090142  0.644236  1
  O  O41  1  0.245622  0.114164  0.369260  1
  O  O42  1  0.078971  0.285484  0.847401  1
  O  O43  1  0.332703  0.616910  0.064015  1
  O  O44  1  0.336622  0.093947  0.049658  1
  O  O45  1  0.443577  0.468960  0.710162  1
  O  O46  1  0.556423  0.531040  0.289838  1
  O  O47  1  0.421029  0.714516  0.347401  1
  O  O48  1  0.754617  0.090142  0.855764  1
  O  O49  1  0.163858  0.471195  0.413398  1
  O  O50  1  0.167297  0.383090  0.564015  1
  O  O51  1  0.836142  0.528805  0.586602  1
  O  O52  1  0.163378  0.906053  0.549658  1
  O  O53  1  0.663378  0.906053  0.950342  1
  O  O54  1  0.943577  0.468960  0.789838  1
  O  O55  1  0.254378  0.885836  0.869260  1
  O  O56  1  0.508862  0.864031  0.698132  1
  O  O57  1  0.245383  0.909858  0.144236  1
  O  O58  1  0.578971  0.285484  0.652599  1
  O  O59  1  0.991138  0.135969  0.198132  1
