# generated using pymatgen
data_Ti7Ni3N10
_symmetry_space_group_name_H-M   'P 1'
_cell_length_a   14.15677233
_cell_length_b   5.01534821
_cell_length_c   7.96988061
_cell_angle_alpha   71.68692784
_cell_angle_beta   27.31064515
_cell_angle_gamma   90.03468749
_symmetry_Int_Tables_number   1
_chemical_formula_structural   Ti7Ni3N10
_chemical_formula_sum   'Ti7 Ni3 N10'
_cell_volume   188.90685249
_cell_formula_units_Z   1
loop_
 _symmetry_equiv_pos_site_id
 _symmetry_equiv_pos_as_xyz
  1  'x, y, z'
loop_
 _atom_site_type_symbol
 _atom_site_label
 _atom_site_symmetry_multiplicity
 _atom_site_fract_x
 _atom_site_fract_y
 _atom_site_fract_z
 _atom_site_occupancy
  Ti  Ti0  1  0.099187  0.494253  0.000026  1
  Ti  Ti1  1  0.199089  0.998145  0.002115  1
  Ti  Ti2  1  0.398704  0.012390  0.001990  1
  Ti  Ti3  1  0.498914  0.503308  0.001787  1
  Ti  Ti4  1  0.600171  0.013231  -0.000100  1
  Ti  Ti5  1  0.801018  0.999608  0.997053  1
  Ti  Ti6  1  0.899062  0.492461  0.002840  1
  Ni  Ni7  1  0.998614  0.929538  0.002656  1
  Ni  Ni8  1  0.297447  0.485246  0.994808  1
  Ni  Ni9  1  0.703151  0.477783  0.002696  1
  N  N10  1  0.044542  0.586538  0.511314  1
  N  N11  1  0.144482  0.076256  0.512847  1
  N  N12  1  0.261161  0.618123  0.477452  1
  N  N13  1  0.343886  0.078414  0.510459  1
  N  N14  1  0.446087  0.589353  0.506468  1
  N  N15  1  0.552725  0.094326  0.494501  1
  N  N16  1  0.654514  0.586612  0.491680  1
  N  N17  1  0.737241  0.093624  0.525213  1
  N  N18  1  0.854347  0.587585  0.490057  1
  N  N19  1  0.955027  0.097856  0.489271  1
