# generated using pymatgen
data_LiH2BrO5
_symmetry_space_group_name_H-M   'P 1'
_cell_length_a   8.84303691
_cell_length_b   8.84303691
_cell_length_c   11.03745195
_cell_angle_alpha   76.19956577
_cell_angle_beta   103.80043423
_cell_angle_gamma   143.21217072
_symmetry_Int_Tables_number   1
_chemical_formula_structural   LiH2BrO5
_chemical_formula_sum   'Li4 H8 Br4 O20'
_cell_volume   500.28458694
_cell_formula_units_Z   4
loop_
 _symmetry_equiv_pos_site_id
 _symmetry_equiv_pos_as_xyz
  1  'x, y, z'
loop_
 _atom_site_type_symbol
 _atom_site_label
 _atom_site_symmetry_multiplicity
 _atom_site_fract_x
 _atom_site_fract_y
 _atom_site_fract_z
 _atom_site_occupancy
  Li  Li0  1  0.000000  0.500000  0.000000  1
  Li  Li1  1  0.500000  0.000000  0.500000  1
  Li  Li2  1  0.538863  0.538863  0.750000  1
  Li  Li3  1  0.461137  0.461137  0.250000  1
  H  H4  1  0.365199  0.609601  0.348992  1
  H  H5  1  0.609601  0.365199  0.151008  1
  H  H6  1  0.634801  0.390399  0.651008  1
  H  H7  1  0.390399  0.634801  0.848992  1
  H  H8  1  0.964647  0.337482  0.538998  1
  H  H9  1  0.337482  0.964647  0.961002  1
  H  H10  1  0.035353  0.662518  0.461002  1
  H  H11  1  0.662518  0.035353  0.038998  1
  Br  Br12  1  0.175276  0.900461  0.735024  1
  Br  Br13  1  0.900461  0.175276  0.764976  1
  Br  Br14  1  0.824724  0.099539  0.264977  1
  Br  Br15  1  0.099539  0.824724  0.235023  1
  O  O16  1  0.262871  0.832580  0.914137  1
  O  O17  1  0.832580  0.262871  0.585863  1
  O  O18  1  0.737129  0.167420  0.085863  1
  O  O19  1  0.167420  0.737129  0.414137  1
  O  O20  1  0.324735  0.942573  0.637572  1
  O  O21  1  0.942573  0.324735  0.862428  1
  O  O22  1  0.675265  0.057427  0.362428  1
  O  O23  1  0.057427  0.675265  0.137572  1
  O  O24  1  0.810626  0.726882  0.629119  1
  O  O25  1  0.726882  0.810626  0.870881  1
  O  O26  1  0.189374  0.273118  0.370881  1
  O  O27  1  0.273118  0.189374  0.129119  1
  O  O28  1  0.371837  0.198182  0.757746  1
  O  O29  1  0.198182  0.371837  0.742254  1
  O  O30  1  0.628163  0.801818  0.242254  1
  O  O31  1  0.801818  0.628163  0.257746  1
  O  O32  1  0.543426  0.766136  0.903772  1
  O  O33  1  0.766136  0.543426  0.596228  1
  O  O34  1  0.456574  0.233864  0.096228  1
  O  O35  1  0.233864  0.456574  0.403772  1
