# generated using pymatgen
data_Ce8U2O21
_symmetry_space_group_name_H-M   'P 1'
_cell_length_a   7.69547912
_cell_length_b   21.42502808
_cell_length_c   17.63290260
_cell_angle_alpha   11.52810989
_cell_angle_beta   56.92952159
_cell_angle_gamma   51.04168265
_symmetry_Int_Tables_number   1
_chemical_formula_structural   Ce8U2O21
_chemical_formula_sum   'Ce8 U2 O21'
_cell_volume   402.77460255
_cell_formula_units_Z   1
loop_
 _symmetry_equiv_pos_site_id
 _symmetry_equiv_pos_as_xyz
  1  'x, y, z'
loop_
 _atom_site_type_symbol
 _atom_site_label
 _atom_site_symmetry_multiplicity
 _atom_site_fract_x
 _atom_site_fract_y
 _atom_site_fract_z
 _atom_site_occupancy
  Ce  Ce0  1  0.403356  0.210069  0.983218  1
  Ce  Ce1  1  0.300009  0.400027  -0.000044  1
  Ce  Ce2  1  0.200019  0.600057  -0.000095  1
  Ce  Ce3  1  0.897171  0.191512  0.014146  1
  Ce  Ce4  1  0.102829  0.808488  0.985854  1
  Ce  Ce5  1  0.799981  0.399943  0.000095  1
  Ce  Ce6  1  0.699991  0.599973  0.000044  1
  Ce  Ce7  1  0.596644  0.789931  0.016782  1
  U  U8  1  0.000000  0.000000  0.000000  1
  U  U9  1  0.500000  0.000000  0.000000  1
  O  O10  1  0.102635  0.051473  0.247556  1
  O  O11  1  0.000000  0.250269  0.249731  1
  O  O12  1  0.598337  0.051443  0.247585  1
  O  O13  1  0.500000  0.249731  0.250269  1
  O  O14  1  0.284859  0.173798  0.728755  1
  O  O15  1  0.401664  0.444229  0.256743  1
  O  O16  1  0.187412  0.353931  0.743516  1
  O  O17  1  0.284859  0.646274  0.256278  1
  O  O18  1  0.897365  0.452856  0.248116  1
  O  O19  1  0.812588  0.118545  0.784007  1
  O  O20  1  0.500000  0.500000  0.500000  1
  O  O21  1  0.102635  0.547144  0.751884  1
  O  O22  1  0.187412  0.881455  0.215993  1
  O  O23  1  0.812588  0.646069  0.256484  1
  O  O24  1  0.715141  0.353726  0.743722  1
  O  O25  1  0.715141  0.826202  0.271245  1
  O  O26  1  0.598337  0.555771  0.743257  1
  O  O27  1  0.500000  0.750269  0.749731  1
  O  O28  1  0.401664  0.948557  0.752415  1
  O  O29  1  0.000000  0.749731  0.750269  1
  O  O30  1  0.897365  0.948527  0.752444  1
