# generated using pymatgen
data_Ca10Mg7Al6Si17O60
_symmetry_space_group_name_H-M   'P 1'
_cell_length_a   5.31594259
_cell_length_b   6.63168245
_cell_length_c   33.15328909
_cell_angle_alpha   84.33781679
_cell_angle_beta   78.28742793
_cell_angle_gamma   78.15416298
_symmetry_Int_Tables_number   1
_chemical_formula_structural   Ca10Mg7Al6Si17O60
_chemical_formula_sum   'Ca10 Mg7 Al6 Si17 O60'
_cell_volume   1118.08342936
_cell_formula_units_Z   1
loop_
 _symmetry_equiv_pos_site_id
 _symmetry_equiv_pos_as_xyz
  1  'x, y, z'
loop_
 _atom_site_type_symbol
 _atom_site_label
 _atom_site_symmetry_multiplicity
 _atom_site_fract_x
 _atom_site_fract_y
 _atom_site_fract_z
 _atom_site_occupancy
  Ca  Ca0  1  0.245493  0.700052  0.059634  1
  Ca  Ca1  1  0.250201  0.699260  0.260889  1
  Ca  Ca2  1  0.250885  0.700019  0.460948  1
  Ca  Ca3  1  0.749057  0.300089  0.140322  1
  Ca  Ca4  1  0.248969  0.702038  0.662005  1
  Ca  Ca5  1  0.750268  0.301158  0.340293  1
  Ca  Ca6  1  0.248904  0.685421  0.861182  1
  Ca  Ca7  1  0.752542  0.299139  0.539794  1
  Ca  Ca8  1  0.752470  0.299737  0.738214  1
  Ca  Ca9  1  0.742755  0.318145  0.937153  1
  Mg  Mg10  1  0.249324  0.089141  0.181653  1
  Mg  Mg11  1  0.250257  0.090532  0.381758  1
  Mg  Mg12  1  0.255069  0.090361  0.582019  1
  Mg  Mg13  1  0.746178  0.909551  0.016150  1
  Mg  Mg14  1  0.749250  0.906240  0.218538  1
  Mg  Mg15  1  0.750315  0.907064  0.418602  1
  Mg  Mg16  1  0.759359  0.911418  0.620559  1
  Al  Al17  1  0.251193  0.095103  0.782295  1
  Al  Al18  1  0.251525  0.099044  0.980137  1
  Al  Al19  1  0.721970  0.808625  0.725827  1
  Al  Al20  1  0.781816  0.380542  0.837311  1
  Al  Al21  1  0.750728  0.902267  0.818642  1
  Al  Al22  1  0.713469  0.819209  0.921906  1
  Si  Si23  1  0.265123  0.193132  0.074819  1
  Si  Si24  1  0.228287  0.619039  0.161326  1
  Si  Si25  1  0.268671  0.191911  0.275888  1
  Si  Si26  1  0.231014  0.619592  0.361523  1
  Si  Si27  1  0.270134  0.192297  0.475653  1
  Si  Si28  1  0.773014  0.379457  0.037665  1
  Si  Si29  1  0.233737  0.619742  0.561729  1
  Si  Si30  1  0.279871  0.191169  0.677226  1
  Si  Si31  1  0.727045  0.807593  0.123407  1
  Si  Si32  1  0.768625  0.379220  0.238335  1
  Si  Si33  1  0.224427  0.608939  0.761215  1
  Si  Si34  1  0.274848  0.195134  0.877868  1
  Si  Si35  1  0.730566  0.807610  0.323912  1
  Si  Si36  1  0.769330  0.380202  0.438108  1
  Si  Si37  1  0.219962  0.619825  0.960577  1
  Si  Si38  1  0.732359  0.807462  0.524239  1
  Si  Si39  1  0.777178  0.380762  0.638372  1
  O  O40  1  0.999225  0.373647  0.066847  1
  O  O41  1  0.178004  0.106204  0.121259  1
  O  O42  1  0.005249  0.370677  0.265698  1
  O  O43  1  0.343022  0.036324  0.037373  1
  O  O44  1  0.140600  0.795298  0.194384  1
  O  O45  1  0.175060  0.110781  0.322432  1
  O  O46  1  0.005969  0.370794  0.465592  1
  O  O47  1  0.321564  0.383905  0.176706  1
  O  O48  1  0.358452  0.026899  0.240302  1
  O  O49  1  0.506308  0.326135  0.071951  1
  O  O50  1  0.141605  0.795979  0.394500  1
  O  O51  1  0.178520  0.110734  0.522311  1
  O  O52  1  0.493187  0.666742  0.125604  1
  O  O53  1  0.010039  0.361292  0.667649  1
  O  O54  1  0.325147  0.384733  0.376913  1
  O  O55  1  0.359338  0.027364  0.440160  1
  O  O56  1  0.674110  0.613528  0.022023  1
  O  O57  1  0.504668  0.330501  0.273767  1
  O  O58  1  0.883082  0.200081  0.004518  1
  O  O59  1  0.148375  0.797199  0.594576  1
  O  O60  1  0.200965  0.120120  0.725944  1
  O  O61  1  0.495043  0.669179  0.325602  1
  O  O62  1  0.017850  0.368594  0.869129  1
  O  O63  1  0.329074  0.385342  0.577330  1
  O  O64  1  0.640153  0.972630  0.158722  1
  O  O65  1  0.366310  0.025201  0.642223  1
  O  O66  1  0.674091  0.612648  0.221762  1
  O  O67  1  0.505274  0.331524  0.473500  1
  O  O68  1  0.815244  0.886510  0.076192  1
  O  O69  1  0.858120  0.202265  0.205110  1
  O  O70  1  0.130588  0.803344  0.792981  1
  O  O71  1  0.177106  0.109887  0.925942  1
  O  O72  1  0.497379  0.668552  0.525653  1
  O  O73  1  0.316442  0.374405  0.781262  1
  O  O74  1  0.641773  0.973532  0.358922  1
  O  O75  1  0.363128  0.029336  0.840668  1
  O  O76  1  0.675039  0.613477  0.421525  1
  O  O77  1  0.993987  0.630960  0.133022  1
  O  O78  1  0.510044  0.333908  0.673686  1
  O  O79  1  0.824588  0.886652  0.276834  1
  O  O80  1  0.859120  0.202819  0.405080  1
  O  O81  1  0.145248  0.808066  0.993178  1
  O  O82  1  0.481317  0.654393  0.726751  1
  O  O83  1  0.305632  0.382932  0.979929  1
  O  O84  1  0.644547  0.972791  0.559472  1
  O  O85  1  0.687369  0.616628  0.623513  1
  O  O86  1  0.996215  0.629721  0.333379  1
  O  O87  1  0.508153  0.325219  0.876044  1
  O  O88  1  0.824934  0.887022  0.477189  1
  O  O89  1  0.864564  0.208675  0.604587  1
  O  O90  1  0.477198  0.659255  0.925549  1
  O  O91  1  0.611057  0.978088  0.767303  1
  O  O92  1  0.676283  0.637913  0.822107  1
  O  O93  1  0.998529  0.629547  0.533655  1
  O  O94  1  0.841930  0.911407  0.678030  1
  O  O95  1  0.890679  0.176061  0.803361  1
  O  O96  1  0.604954  -0.003079  0.961004  1
  O  O97  1  0.992497  0.607524  0.735621  1
  O  O98  1  0.826185  0.890931  0.870775  1
  O  O99  1  0.983676  0.629967  0.935208  1
