# generated using pymatgen
data_CeAgP2
_symmetry_space_group_name_H-M   'P 1'
_cell_length_a   5.49793620
_cell_length_b   5.49793679
_cell_length_c   11.07511111
_cell_angle_alpha   84.86118225
_cell_angle_beta   84.86118510
_cell_angle_gamma   86.26395513
_symmetry_Int_Tables_number   1
_chemical_formula_structural   CeAgP2
_chemical_formula_sum   'Ce4 Ag4 P8'
_cell_volume   331.53369287
_cell_formula_units_Z   4
loop_
 _symmetry_equiv_pos_site_id
 _symmetry_equiv_pos_as_xyz
  1  'x, y, z'
loop_
 _atom_site_type_symbol
 _atom_site_label
 _atom_site_symmetry_multiplicity
 _atom_site_fract_x
 _atom_site_fract_y
 _atom_site_fract_z
 _atom_site_occupancy
  Ce  Ce0  1  0.314102  0.110146  0.590783  1
  Ce  Ce1  1  0.110146  0.314102  0.090783  1
  Ce  Ce2  1  0.685898  0.889854  0.909217  1
  Ce  Ce3  1  0.889854  0.685898  0.409217  1
  Ag  Ag4  1  0.191704  0.636458  0.789039  1
  Ag  Ag5  1  0.363542  0.808296  0.210961  1
  Ag  Ag6  1  0.808296  0.363542  0.710961  1
  Ag  Ag7  1  0.636458  0.191704  0.289039  1
  P  P8  1  0.178968  0.100165  0.846845  1
  P  P9  1  0.821032  0.899835  0.653155  1
  P  P10  1  0.513063  0.381743  0.912026  1
  P  P11  1  0.899835  0.821032  0.153155  1
  P  P12  1  0.381743  0.513063  0.412026  1
  P  P13  1  0.100165  0.178968  0.346845  1
  P  P14  1  0.486937  0.618257  0.587974  1
  P  P15  1  0.618257  0.486937  0.087974  1
