# generated using pymatgen
data_Ta2H4O7
_symmetry_space_group_name_H-M   'P 1'
_cell_length_a   7.32420683
_cell_length_b   7.98831144
_cell_length_c   7.43682577
_cell_angle_alpha   56.55960121
_cell_angle_beta   65.52223021
_cell_angle_gamma   57.91816858
_symmetry_Int_Tables_number   1
_chemical_formula_structural   Ta2H4O7
_chemical_formula_sum   'Ta4 H8 O14'
_cell_volume   303.05062110
_cell_formula_units_Z   2
loop_
 _symmetry_equiv_pos_site_id
 _symmetry_equiv_pos_as_xyz
  1  'x, y, z'
loop_
 _atom_site_type_symbol
 _atom_site_label
 _atom_site_symmetry_multiplicity
 _atom_site_fract_x
 _atom_site_fract_y
 _atom_site_fract_z
 _atom_site_occupancy
  Ta  Ta0  1  0.478812  0.995550  0.471860  1
  Ta  Ta1  1  0.446222  0.528140  0.004450  1
  Ta  Ta2  1  0.995550  0.478812  0.553778  1
  Ta  Ta3  1  0.528140  0.446222  0.521188  1
  H  H4  1  0.660571  0.660571  0.089429  1
  H  H5  1  0.992520  0.727138  0.015783  1
  H  H6  1  0.727138  0.992520  0.764559  1
  H  H7  1  0.910571  0.910571  0.339429  1
  H  H8  1  0.984217  0.235441  0.007480  1
  H  H9  1  0.235441  0.984217  0.272862  1
  H  H10  1  0.955164  0.955164  0.794836  1
  H  H11  1  0.205164  0.205164  0.044836  1
  O  O12  1  0.554152  0.228874  0.212913  1
  O  O13  1  0.228874  0.554152  0.504062  1
  O  O14  1  0.202671  0.202671  0.547329  1
  O  O15  1  0.573263  0.573263  0.176737  1
  O  O16  1  0.147808  0.620015  0.112953  1
  O  O17  1  0.620015  0.147808  0.619223  1
  O  O18  1  0.495938  0.787087  0.771126  1
  O  O19  1  0.787087  0.495938  0.445848  1
  O  O20  1  0.823263  0.823263  0.426737  1
  O  O21  1  0.452671  0.452671  0.797329  1
  O  O22  1  0.887047  0.380777  0.852192  1
  O  O23  1  0.380777  0.887047  0.379985  1
  O  O24  1  0.867497  0.867497  0.882503  1
  O  O25  1  0.117497  0.117497  0.132503  1
