# generated using pymatgen
data_Zr2CoH5
_symmetry_space_group_name_H-M   'P 1'
_cell_length_a   6.93140181
_cell_length_b   6.93140181
_cell_length_c   5.69157423
_cell_angle_alpha   90.00000000
_cell_angle_beta   90.00000000
_cell_angle_gamma   90.00000000
_symmetry_Int_Tables_number   1
_chemical_formula_structural   Zr2CoH5
_chemical_formula_sum   'Zr8 Co4 H20'
_cell_volume   273.44787651
_cell_formula_units_Z   4
loop_
 _symmetry_equiv_pos_site_id
 _symmetry_equiv_pos_as_xyz
  1  'x, y, z'
loop_
 _atom_site_type_symbol
 _atom_site_label
 _atom_site_symmetry_multiplicity
 _atom_site_fract_x
 _atom_site_fract_y
 _atom_site_fract_z
 _atom_site_occupancy
  Zr  Zr0  1  0.088578  0.911422  0.250000  1
  Zr  Zr1  1  0.411422  0.911422  0.750000  1
  Zr  Zr2  1  0.088578  0.588578  0.750000  1
  Zr  Zr3  1  0.411422  0.588578  0.250000  1
  Zr  Zr4  1  0.911422  0.088578  0.750000  1
  Zr  Zr5  1  0.588578  0.088578  0.250000  1
  Zr  Zr6  1  0.911422  0.411422  0.250000  1
  Zr  Zr7  1  0.588578  0.411422  0.750000  1
  Co  Co8  1  0.750000  0.750000  0.490321  1
  Co  Co9  1  0.750000  0.750000  0.990321  1
  Co  Co10  1  0.250000  0.250000  0.509679  1
  Co  Co11  1  0.250000  0.250000  0.009679  1
  H  H12  1  0.750000  0.250000  0.500000  1
  H  H13  1  0.750000  0.250000  0.000000  1
  H  H14  1  0.250000  0.750000  0.000000  1
  H  H15  1  0.250000  0.750000  0.500000  1
  H  H16  1  0.666086  0.536398  0.427997  1
  H  H17  1  0.833914  0.536398  0.927997  1
  H  H18  1  0.666086  0.963602  0.927997  1
  H  H19  1  0.833914  0.963602  0.427997  1
  H  H20  1  0.536398  0.666086  0.927997  1
  H  H21  1  0.963602  0.666086  0.427997  1
  H  H22  1  0.536398  0.833914  0.427997  1
  H  H23  1  0.963602  0.833914  0.927997  1
  H  H24  1  0.333914  0.463602  0.572003  1
  H  H25  1  0.166086  0.463602  0.072003  1
  H  H26  1  0.333914  0.036398  0.072003  1
  H  H27  1  0.166086  0.036398  0.572003  1
  H  H28  1  0.463602  0.333914  0.072003  1
  H  H29  1  0.036398  0.333914  0.572003  1
  H  H30  1  0.463602  0.166086  0.572003  1
  H  H31  1  0.036398  0.166086  0.072003  1
