# generated using pymatgen
data_Ag3P6H12N3O19
_symmetry_space_group_name_H-M   'P 1'
_cell_length_a   10.03379310
_cell_length_b   10.03379309
_cell_length_c   10.03379290
_cell_angle_alpha   99.55708306
_cell_angle_beta   99.55708301
_cell_angle_gamma   99.55708507
_symmetry_Int_Tables_number   1
_chemical_formula_structural   Ag3P6H12N3O19
_chemical_formula_sum   'Ag6 P12 H24 N6 O38'
_cell_volume   962.66198376
_cell_formula_units_Z   2
loop_
 _symmetry_equiv_pos_site_id
 _symmetry_equiv_pos_as_xyz
  1  'x, y, z'
loop_
 _atom_site_type_symbol
 _atom_site_label
 _atom_site_symmetry_multiplicity
 _atom_site_fract_x
 _atom_site_fract_y
 _atom_site_fract_z
 _atom_site_occupancy
  Ag  Ag0  1  0.466842  0.808516  0.010748  1
  Ag  Ag1  1  0.808516  0.010748  0.466842  1
  Ag  Ag2  1  0.010748  0.466842  0.808516  1
  Ag  Ag3  1  0.533158  0.191484  0.989252  1
  Ag  Ag4  1  0.191484  0.989252  0.533158  1
  Ag  Ag5  1  0.989252  0.533158  0.191484  1
  P  P6  1  0.424348  0.308875  0.666552  1
  P  P7  1  0.308875  0.666552  0.424348  1
  P  P8  1  0.666552  0.424348  0.308875  1
  P  P9  1  0.575652  0.691125  0.333448  1
  P  P10  1  0.691125  0.333448  0.575652  1
  P  P11  1  0.333448  0.575652  0.691125  1
  P  P12  1  0.115790  0.763537  0.021135  1
  P  P13  1  0.763537  0.021135  0.115790  1
  P  P14  1  0.021135  0.115790  0.763537  1
  P  P15  1  0.884210  0.236463  0.978865  1
  P  P16  1  0.236463  0.978865  0.884210  1
  P  P17  1  0.978865  0.884210  0.236463  1
  H  H18  1  0.420807  0.109500  0.387018  1
  H  H19  1  0.109500  0.387018  0.420807  1
  H  H20  1  0.387018  0.420807  0.109500  1
  H  H21  1  0.579193  0.890500  0.612982  1
  H  H22  1  0.890500  0.612982  0.579193  1
  H  H23  1  0.612982  0.579193  0.890500  1
  H  H24  1  0.612588  0.964525  0.783480  1
  H  H25  1  0.964525  0.783480  0.612588  1
  H  H26  1  0.783480  0.612588  0.964525  1
  H  H27  1  0.387412  0.035475  0.216520  1
  H  H28  1  0.035475  0.216520  0.387412  1
  H  H29  1  0.216520  0.387412  0.035475  1
  H  H30  1  0.659580  0.607444  0.063299  1
  H  H31  1  0.607444  0.063299  0.659580  1
  H  H32  1  0.063299  0.659580  0.607444  1
  H  H33  1  0.340420  0.392556  0.936701  1
  H  H34  1  0.392556  0.936701  0.340420  1
  H  H35  1  0.936701  0.340420  0.392556  1
  H  H36  1  0.539172  0.035771  0.315755  1
  H  H37  1  0.035771  0.315755  0.539172  1
  H  H38  1  0.315755  0.539172  0.035771  1
  H  H39  1  0.460828  0.964229  0.684245  1
  H  H40  1  0.964229  0.684245  0.460828  1
  H  H41  1  0.684245  0.460828  0.964229  1
  N  N42  1  0.435190  0.029176  0.314395  1
  N  N43  1  0.029176  0.314395  0.435190  1
  N  N44  1  0.314395  0.435190  0.029176  1
  N  N45  1  0.564810  0.970824  0.685605  1
  N  N46  1  0.970824  0.685605  0.564810  1
  N  N47  1  0.685605  0.564810  0.970824  1
  O  O48  1  0.580607  0.383646  0.663138  1
  O  O49  1  0.383646  0.663138  0.580607  1
  O  O50  1  0.663138  0.580607  0.383646  1
  O  O51  1  0.419393  0.616354  0.336862  1
  O  O52  1  0.616354  0.336862  0.419393  1
  O  O53  1  0.336862  0.419393  0.616354  1
  O  O54  1  0.814812  0.419729  0.303610  1
  O  O55  1  0.419729  0.303610  0.814812  1
  O  O56  1  0.303610  0.814812  0.419729  1
  O  O57  1  0.185188  0.580271  0.696390  1
  O  O58  1  0.580271  0.696390  0.185188  1
  O  O59  1  0.696390  0.185188  0.580271  1
  O  O60  1  0.179405  0.557762  0.379692  1
  O  O61  1  0.557762  0.379692  0.179405  1
  O  O62  1  0.379692  0.179405  0.557762  1
  O  O63  1  0.820595  0.442238  0.620308  1
  O  O64  1  0.442238  0.620308  0.820595  1
  O  O65  1  0.620308  0.820595  0.442238  1
  O  O66  1  0.879432  0.148177  0.099511  1
  O  O67  1  0.148177  0.099511  0.879432  1
  O  O68  1  0.099511  0.879432  0.148177  1
  O  O69  1  0.120568  0.851823  0.900489  1
  O  O70  1  0.851823  0.900489  0.120568  1
  O  O71  1  0.900489  0.120568  0.851823  1
  O  O72  1  0.059971  0.250384  0.719174  1
  O  O73  1  0.250384  0.719174  0.059971  1
  O  O74  1  0.719174  0.059971  0.250384  1
  O  O75  1  0.940029  0.749616  0.280826  1
  O  O76  1  0.749616  0.280826  0.940029  1
  O  O77  1  0.280826  0.940029  0.749616  1
  O  O78  1  0.653728  0.975486  0.985069  1
  O  O79  1  0.975486  0.985069  0.653728  1
  O  O80  1  0.985069  0.653728  0.975486  1
  O  O81  1  0.346272  0.024514  0.014931  1
  O  O82  1  0.024514  0.014931  0.346272  1
  O  O83  1  0.014931  0.346272  0.024514  1
  O  O84  1  0.249778  0.249778  0.249778  1
  O  O85  1  0.750222  0.750222  0.750222  1
