# generated using pymatgen
data_Nd2Fe2Si2C
_symmetry_space_group_name_H-M   'P 1'
_cell_length_a   3.99893510
_cell_length_b   5.76478864
_cell_length_c   5.89862382
_cell_angle_alpha   73.39900794
_cell_angle_beta   70.18575281
_cell_angle_gamma   69.70575577
_symmetry_Int_Tables_number   1
_chemical_formula_structural   Nd2Fe2Si2C
_chemical_formula_sum   'Nd2 Fe2 Si2 C1'
_cell_volume   117.79070149
_cell_formula_units_Z   1
loop_
 _symmetry_equiv_pos_site_id
 _symmetry_equiv_pos_as_xyz
  1  'x, y, z'
loop_
 _atom_site_type_symbol
 _atom_site_label
 _atom_site_symmetry_multiplicity
 _atom_site_fract_x
 _atom_site_fract_y
 _atom_site_fract_z
 _atom_site_occupancy
  C  C0  1  0.500000  0.500000  0.500000  1
  Si  Si1  1  0.323226  0.114229  0.239318  1
  Si  Si2  1  0.676774  0.885771  0.760682  1
  Fe  Fe3  1  0.695624  0.196513  0.412239  1
  Fe  Fe4  1  0.304376  0.803487  0.587761  1
  Nd  Nd5  1  0.058393  0.682442  0.200771  1
  Nd  Nd6  1  0.941607  0.317558  0.799229  1
