# generated using pymatgen
data_Bi3(TeCl5)2
_symmetry_space_group_name_H-M   'P 1'
_cell_length_a   7.11943474
_cell_length_b   10.88225564
_cell_length_c   15.46194579
_cell_angle_alpha   105.91575582
_cell_angle_beta   89.49569048
_cell_angle_gamma   71.96283227
_symmetry_Int_Tables_number   1
_chemical_formula_structural   Bi3(TeCl5)2
_chemical_formula_sum   'Bi6 Te4 Cl20'
_cell_volume   1089.61936271
_cell_formula_units_Z   2
loop_
 _symmetry_equiv_pos_site_id
 _symmetry_equiv_pos_as_xyz
  1  'x, y, z'
loop_
 _atom_site_type_symbol
 _atom_site_label
 _atom_site_symmetry_multiplicity
 _atom_site_fract_x
 _atom_site_fract_y
 _atom_site_fract_z
 _atom_site_occupancy
  Bi  Bi0  1  0.420700  0.997714  0.828478  1
  Bi  Bi1  1  0.922929  0.699088  0.974182  1
  Bi  Bi2  1  0.077071  0.300912  0.025818  1
  Bi  Bi3  1  0.579300  0.002286  0.171522  1
  Bi  Bi4  1  0.430542  0.468838  0.261799  1
  Bi  Bi5  1  0.569458  0.531162  0.738201  1
  Te  Te6  1  0.180521  0.834769  0.515648  1
  Te  Te7  1  0.819479  0.165231  0.484352  1
  Te  Te8  1  0.140516  0.104737  0.580591  1
  Te  Te9  1  0.859484  0.895263  0.419409  1
  Cl  Cl10  1  0.289135  0.637791  0.904569  1
  Cl  Cl11  1  0.826540  0.459472  0.598590  1
  Cl  Cl12  1  0.173460  0.540528  0.401410  1
  Cl  Cl13  1  0.568763  0.757110  0.095570  1
  Cl  Cl14  1  0.943356  0.895613  0.190086  1
  Cl  Cl15  1  0.877010  0.457051  0.902101  1
  Cl  Cl16  1  0.787868  0.728512  0.816834  1
  Cl  Cl17  1  0.657310  0.251134  0.290063  1
  Cl  Cl18  1  0.622876  0.609816  0.352703  1
  Cl  Cl19  1  0.212132  0.271488  0.183166  1
  Cl  Cl20  1  0.431237  0.242890  0.904430  1
  Cl  Cl21  1  0.122990  0.542949  0.097899  1
  Cl  Cl22  1  0.377124  0.390184  0.647297  1
  Cl  Cl23  1  0.342690  0.748866  0.709937  1
  Cl  Cl24  1  0.242084  0.018459  0.996054  1
  Cl  Cl25  1  0.474882  0.990346  0.334515  1
  Cl  Cl26  1  0.056644  0.104387  0.809914  1
  Cl  Cl27  1  0.757916  0.981541  0.003946  1
  Cl  Cl28  1  0.525118  0.009654  0.665485  1
  Cl  Cl29  1  0.710865  0.362209  0.095431  1
