# generated using pymatgen
data_CuP3H12NO13
_symmetry_space_group_name_H-M   'P 1'
_cell_length_a   7.94067781
_cell_length_b   10.56183668
_cell_length_c   9.51822644
_cell_angle_alpha   122.67630702
_cell_angle_beta   104.20737391
_cell_angle_gamma   78.95526395
_symmetry_Int_Tables_number   1
_chemical_formula_structural   CuP3H12NO13
_chemical_formula_sum   'Cu2 P6 H24 N2 O26'
_cell_volume   649.67520548
_cell_formula_units_Z   2
loop_
 _symmetry_equiv_pos_site_id
 _symmetry_equiv_pos_as_xyz
  1  'x, y, z'
loop_
 _atom_site_type_symbol
 _atom_site_label
 _atom_site_symmetry_multiplicity
 _atom_site_fract_x
 _atom_site_fract_y
 _atom_site_fract_z
 _atom_site_occupancy
  Cu  Cu0  1  0.000000  0.000000  0.000000  1
  Cu  Cu1  1  0.500000  0.500000  0.000000  1
  P  P2  1  0.972612  0.233013  0.678619  1
  P  P3  1  0.027388  0.766987  0.321381  1
  P  P4  1  0.164553  0.800312  0.650398  1
  P  P5  1  0.835447  0.199688  0.349602  1
  P  P6  1  0.264123  0.117029  0.865318  1
  P  P7  1  0.735877  0.882971  0.134682  1
  H  H8  1  0.682300  0.104963  0.922664  1
  H  H9  1  0.317700  0.895037  0.077336  1
  H  H10  1  0.807315  0.096845  0.811769  1
  H  H11  1  0.192685  0.903155  0.188231  1
  H  H12  1  0.095124  0.454645  0.839962  1
  H  H13  1  0.904876  0.545355  0.160038  1
  H  H14  1  0.746588  0.409820  0.892724  1
  H  H15  1  0.253412  0.590180  0.107276  1
  H  H16  1  0.412739  0.309770  0.735756  1
  H  H17  1  0.587261  0.690230  0.264244  1
  H  H18  1  0.454399  0.617340  0.737693  1
  H  H19  1  0.545601  0.382660  0.262307  1
  H  H20  1  0.651789  0.882783  0.507256  1
  H  H21  1  0.348211  0.117217  0.492744  1
  H  H22  1  0.701479  -0.054130  0.528201  1
  H  H23  1  0.298521  0.054130  0.471799  1
  H  H24  1  0.748316  0.533459  0.606236  1
  H  H25  1  0.251684  0.466541  0.393764  1
  H  H26  1  0.637469  0.705856  0.655956  1
  H  H27  1  0.362531  0.294144  0.344044  1
  H  H28  1  0.518772  0.658206  0.817017  1
  H  H29  1  0.481228  0.341794  0.182983  1
  H  H30  1  0.836513  0.701955  0.767463  1
  H  H31  1  0.163487  0.298045  0.232537  1
  N  N32  1  0.758556  0.647500  0.646856  1
  N  N33  1  0.241444  0.352500  0.353144  1
  O  O34  1  0.822802  0.186752  0.703582  1
  O  O35  1  0.177198  0.813248  0.296418  1
  O  O36  1  0.979523  0.407938  0.769901  1
  O  O37  1  0.020477  0.592062  0.230099  1
  O  O38  1  0.977832  0.162722  0.481986  1
  O  O39  1  0.022168  0.837278  0.518014  1
  O  O40  1  0.158796  0.169937  0.732351  1
  O  O41  1  0.841204  0.830063  0.267649  1
  O  O42  1  0.265086  0.655560  0.553484  1
  O  O43  1  0.734914  0.344440  0.446516  1
  O  O44  1  0.069056  0.822919  0.783741  1
  O  O45  1  0.930944  0.177081  0.216259  1
  O  O46  1  0.291109  0.936329  0.739408  1
  O  O47  1  0.708891  0.063671  0.260592  1
  O  O48  1  0.438718  0.177578  0.925230  1
  O  O49  1  0.561282  0.822422  0.074770  1
  O  O50  1  0.148354  0.151956  0.988964  1
  O  O51  1  0.851646  0.848044  0.011036  1
  O  O52  1  0.783437  0.045490  0.866461  1
  O  O53  1  0.216563  0.954510  0.133539  1
  O  O54  1  0.735180  0.469429  0.013178  1
  O  O55  1  0.264820  0.530571  -0.013178  1
  O  O56  1  0.471426  0.398830  0.771079  1
  O  O57  1  0.528574  0.601170  0.228921  1
  O  O58  1  0.833429  0.642264  0.528085  1
  O  O59  1  0.166571  0.357736  0.471915  1
