# generated using pymatgen
data_CdI2
_symmetry_space_group_name_H-M   'P 1'
_cell_length_a   4.34280340
_cell_length_b   4.34280366
_cell_length_c   110.42134661
_cell_angle_alpha   90.00000000
_cell_angle_beta   90.00000000
_cell_angle_gamma   119.99999801
_symmetry_Int_Tables_number   1
_chemical_formula_structural   CdI2
_chemical_formula_sum   'Cd15 I30'
_cell_volume   1803.53279587
_cell_formula_units_Z   15
loop_
 _symmetry_equiv_pos_site_id
 _symmetry_equiv_pos_as_xyz
  1  'x, y, z'
loop_
 _atom_site_type_symbol
 _atom_site_label
 _atom_site_symmetry_multiplicity
 _atom_site_fract_x
 _atom_site_fract_y
 _atom_site_fract_z
 _atom_site_occupancy
  Cd  Cd0  1  0.666667  0.333333  0.016668  1
  Cd  Cd1  1  0.666667  0.333333  0.816662  1
  Cd  Cd2  1  0.000000  0.000000  0.616662  1
  Cd  Cd3  1  0.000000  0.000000  0.416670  1
  Cd  Cd4  1  0.666667  0.333333  0.683329  1
  Cd  Cd5  1  0.000000  0.000000  0.483337  1
  Cd  Cd6  1  0.666667  0.333333  0.283338  1
  Cd  Cd7  1  0.666667  0.333333  0.349998  1
  Cd  Cd8  1  0.000000  0.000000  0.216660  1
  Cd  Cd9  1  0.000000  0.000000  0.083328  1
  Cd  Cd10  1  0.666667  0.333333  0.150001  1
  Cd  Cd11  1  0.000000  0.000000  0.883333  1
  Cd  Cd12  1  0.000000  0.000000  0.749995  1
  Cd  Cd13  1  0.000000  0.000000  0.949992  1
  Cd  Cd14  1  0.666667  0.333333  0.550011  1
  I  I15  1  0.333333  0.666667  0.565659  1
  I  I16  1  0.000000  0.000000  0.801018  1
  I  I17  1  0.333333  0.666667  0.165655  1
  I  I18  1  0.333333  0.666667  0.365654  1
  I  I19  1  0.333333  0.666667  0.898990  1
  I  I20  1  0.333333  0.666667  0.965643  1
  I  I21  1  0.333333  0.666667  0.232319  1
  I  I22  1  0.000000  0.000000  0.534359  1
  I  I23  1  0.666667  0.333333  0.401012  1
  I  I24  1  0.333333  0.666667  0.698985  1
  I  I25  1  0.666667  0.333333  0.867683  1
  I  I26  1  0.333333  0.666667  0.765651  1
  I  I27  1  0.000000  0.000000  0.667682  1
  I  I28  1  0.666667  0.333333  0.467686  1
  I  I29  1  0.666667  0.333333  0.734342  1
  I  I30  1  0.333333  0.666667  0.632312  1
  I  I31  1  0.666667  0.333333  0.201010  1
  I  I32  1  0.333333  0.666667  0.098984  1
  I  I33  1  0.666667  0.333333  0.601002  1
  I  I34  1  0.000000  0.000000  0.001019  1
  I  I35  1  0.000000  0.000000  0.134353  1
  I  I36  1  0.666667  0.333333  0.067673  1
  I  I37  1  0.333333  0.666667  0.032323  1
  I  I38  1  0.000000  0.000000  0.267685  1
  I  I39  1  0.333333  0.666667  0.298992  1
  I  I40  1  0.000000  0.000000  0.334350  1
  I  I41  1  0.666667  0.333333  0.934334  1
  I  I42  1  0.333333  0.666667  0.832319  1
  I  I43  1  0.333333  0.666667  0.432322  1
  I  I44  1  0.333333  0.666667  0.498996  1
