# generated using pymatgen
data_MgSiO3
_symmetry_space_group_name_H-M   'P 1'
_cell_length_a   4.81638883
_cell_length_b   8.82649375
_cell_length_c   9.59157669
_cell_angle_alpha   90.00000000
_cell_angle_beta   90.00000000
_cell_angle_gamma   90.00000000
_symmetry_Int_Tables_number   1
_chemical_formula_structural   MgSiO3
_chemical_formula_sum   'Mg8 Si8 O24'
_cell_volume   407.75543841
_cell_formula_units_Z   8
loop_
 _symmetry_equiv_pos_site_id
 _symmetry_equiv_pos_as_xyz
  1  'x, y, z'
loop_
 _atom_site_type_symbol
 _atom_site_label
 _atom_site_symmetry_multiplicity
 _atom_site_fract_x
 _atom_site_fract_y
 _atom_site_fract_z
 _atom_site_occupancy
  Mg  Mg0  1  0.729993  0.664861  0.753710  1
  Mg  Mg1  1  0.725930  0.664171  0.498226  1
  Mg  Mg2  1  0.270007  0.335139  0.253710  1
  Mg  Mg3  1  0.770007  0.164861  0.253710  1
  Mg  Mg4  1  0.274070  0.335829  -0.001774  1
  Mg  Mg5  1  0.774070  0.164171  -0.001774  1
  Mg  Mg6  1  0.229993  0.835139  0.753710  1
  Mg  Mg7  1  0.225930  0.835829  0.498226  1
  Si  Si8  1  0.911006  0.359040  0.758356  1
  Si  Si9  1  0.588994  0.859040  0.258356  1
  Si  Si10  1  0.411006  0.140960  0.758356  1
  Si  Si11  1  0.088994  0.640960  0.258356  1
  Si  Si12  1  0.891655  0.356304  0.492632  1
  Si  Si13  1  0.608345  0.856304  0.992632  1
  Si  Si14  1  0.391655  0.143696  0.492632  1
  Si  Si15  1  0.108345  0.643696  0.992632  1
  O  O16  1  0.465578  0.204468  0.125399  1
  O  O17  1  0.991081  0.498961  0.374579  1
  O  O18  1  0.008919  0.501039  0.874579  1
  O  O19  1  0.034422  0.704468  0.625399  1
  O  O20  1  0.892157  0.791935  0.340861  1
  O  O21  1  0.534422  0.795532  0.625399  1
  O  O22  1  0.491081  0.001039  0.374579  1
  O  O23  1  0.392157  0.708065  0.340861  1
  O  O24  1  0.585642  0.295194  0.408132  1
  O  O25  1  0.862587  0.658848  0.121593  1
  O  O26  1  0.914358  0.795194  0.908132  1
  O  O27  1  0.107843  0.208065  0.840861  1
  O  O28  1  0.085642  0.204806  0.408132  1
  O  O29  1  0.414358  0.704806  0.908132  1
  O  O30  1  0.214048  0.041731  0.626511  1
  O  O31  1  0.362587  0.841152  0.121593  1
  O  O32  1  0.965578  0.295532  0.125399  1
  O  O33  1  0.508919  0.998961  0.874579  1
  O  O34  1  0.785952  0.958269  0.126511  1
  O  O35  1  0.637413  0.158848  0.621593  1
  O  O36  1  0.607843  0.291935  0.840861  1
  O  O37  1  0.285952  0.541731  0.126511  1
  O  O38  1  0.137413  0.341152  0.621593  1
  O  O39  1  0.714048  0.458269  0.626511  1
