# generated using pymatgen
data_KAlSiO4
_symmetry_space_group_name_H-M   'P 1'
_cell_length_a   18.30003604
_cell_length_b   18.30003632
_cell_length_c   8.55255728
_cell_angle_alpha   90.00000000
_cell_angle_beta   90.00000000
_cell_angle_gamma   119.99999950
_symmetry_Int_Tables_number   1
_chemical_formula_structural   KAlSiO4
_chemical_formula_sum   'K24 Al24 Si24 O96'
_cell_volume   2480.45025725
_cell_formula_units_Z   24
loop_
 _symmetry_equiv_pos_site_id
 _symmetry_equiv_pos_as_xyz
  1  'x, y, z'
loop_
 _atom_site_type_symbol
 _atom_site_label
 _atom_site_symmetry_multiplicity
 _atom_site_fract_x
 _atom_site_fract_y
 _atom_site_fract_z
 _atom_site_occupancy
  K  K0  1  0.472833  0.477498  0.991754  1
  K  K1  1  0.000000  0.000000  0.486313  1
  K  K2  1  0.667512  0.862680  0.995590  1
  K  K3  1  0.332488  0.137320  0.495590  1
  K  K4  1  0.146001  0.333503  0.494579  1
  K  K5  1  0.862680  0.195169  0.495590  1
  K  K6  1  0.666667  0.333333  0.505163  1
  K  K7  1  0.527167  0.522502  0.491754  1
  K  K8  1  0.333333  0.666667  0.005163  1
  K  K9  1  0.195169  0.332488  0.995590  1
  K  K10  1  0.853999  0.666497  0.994579  1
  K  K11  1  0.333333  0.666667  0.504695  1
  K  K12  1  0.000000  0.000000  0.986313  1
  K  K13  1  0.995335  0.472833  0.491754  1
  K  K14  1  0.137320  0.804831  0.995590  1
  K  K15  1  0.804831  0.667512  0.495590  1
  K  K16  1  0.522502  0.995335  0.991754  1
  K  K17  1  0.004665  0.527167  0.991754  1
  K  K18  1  0.187502  0.853999  0.494579  1
  K  K19  1  0.477498  0.004665  0.491754  1
  K  K20  1  0.666497  0.812498  0.494579  1
  K  K21  1  0.666667  0.333333  0.004695  1
  K  K22  1  0.812498  0.146001  0.994579  1
  K  K23  1  0.333503  0.187502  0.994579  1
  Al  Al24  1  0.491537  0.836124  0.296009  1
  Al  Al25  1  0.323877  0.825294  0.795974  1
  Al  Al26  1  0.007888  0.169781  0.811293  1
  Al  Al27  1  0.163876  0.655413  0.296009  1
  Al  Al28  1  0.999802  0.331737  0.183852  1
  Al  Al29  1  0.169781  0.161892  0.311293  1
  Al  Al30  1  0.161892  0.992112  0.811293  1
  Al  Al31  1  0.000198  0.668263  0.683852  1
  Al  Al32  1  0.668065  0.999802  0.683852  1
  Al  Al33  1  0.344587  0.508463  0.296009  1
  Al  Al34  1  0.830219  0.838108  0.811293  1
  Al  Al35  1  0.498583  0.323877  0.295974  1
  Al  Al36  1  0.331737  0.331935  0.683852  1
  Al  Al37  1  0.992112  0.830219  0.311293  1
  Al  Al38  1  0.668263  0.668065  0.183852  1
  Al  Al39  1  0.676123  0.174706  0.295974  1
  Al  Al40  1  0.825294  0.501417  0.295974  1
  Al  Al41  1  0.836124  0.344587  0.796009  1
  Al  Al42  1  0.331935  0.000198  0.183852  1
  Al  Al43  1  0.838108  0.007888  0.311293  1
  Al  Al44  1  0.501417  0.676123  0.795974  1
  Al  Al45  1  0.508463  0.163876  0.796009  1
  Al  Al46  1  0.174706  0.498583  0.795974  1
  Al  Al47  1  0.655413  0.491537  0.796009  1
  Si  Si48  1  0.334398  0.334872  0.293686  1
  Si  Si49  1  0.322291  0.826342  0.177961  1
  Si  Si50  1  0.505778  0.163670  0.177996  1
  Si  Si51  1  0.826342  0.504051  0.677961  1
  Si  Si52  1  0.991288  0.831807  0.694378  1
  Si  Si53  1  0.831807  0.840519  0.194378  1
  Si  Si54  1  0.173658  0.495949  0.177961  1
  Si  Si55  1  0.657891  0.494222  0.177996  1
  Si  Si56  1  0.665602  0.665128  0.793686  1
  Si  Si57  1  0.168193  0.159481  0.694378  1
  Si  Si58  1  0.840519  0.008712  0.694378  1
  Si  Si59  1  0.504051  0.677709  0.177961  1
  Si  Si60  1  0.000474  0.665602  0.293686  1
  Si  Si61  1  0.334872  0.000474  0.793686  1
  Si  Si62  1  0.999526  0.334398  0.793686  1
  Si  Si63  1  0.836330  0.342109  0.177996  1
  Si  Si64  1  0.494222  0.836330  0.677996  1
  Si  Si65  1  0.008712  0.168193  0.194378  1
  Si  Si66  1  0.342109  0.505778  0.677996  1
  Si  Si67  1  0.495949  0.322291  0.677961  1
  Si  Si68  1  0.665128  0.999526  0.293686  1
  Si  Si69  1  0.163670  0.657891  0.677996  1
  Si  Si70  1  0.677709  0.173658  0.677961  1
  Si  Si71  1  0.159481  0.991288  0.194378  1
  O  O72  1  0.037527  0.184122  0.010163  1
  O  O73  1  0.093357  0.687838  0.224947  1
  O  O74  1  0.359152  0.929972  0.733170  1
  O  O75  1  0.976190  0.735088  0.225042  1
  O  O76  1  0.931147  0.867236  0.217541  1
  O  O77  1  0.330132  0.334999  0.481951  1
  O  O78  1  0.241197  0.474795  0.684958  1
  O  O79  1  0.395727  0.595198  0.772944  1
  O  O80  1  0.433049  0.074361  0.256659  1
  O  O81  1  0.815878  0.853405  0.010163  1
  O  O82  1  0.404802  0.800529  0.772944  1
  O  O83  1  0.736618  0.467354  0.771604  1
  O  O84  1  0.184122  0.146595  0.510163  1
  O  O85  1  0.735088  0.758898  0.725042  1
  O  O86  1  0.604273  0.404802  0.272944  1
  O  O87  1  0.995133  0.330132  0.981951  1
  O  O88  1  0.669868  0.665001  0.981951  1
  O  O89  1  0.190263  0.483415  0.993893  1
  O  O90  1  0.132764  0.063911  0.217541  1
  O  O91  1  0.897962  0.595038  0.752723  1
  O  O92  1  0.971624  0.229504  0.251137  1
  O  O93  1  0.063911  0.931147  0.717541  1
  O  O94  1  0.850798  0.373144  0.995090  1
  O  O95  1  0.867236  0.936089  0.717541  1
  O  O96  1  0.766402  0.241197  0.184958  1
  O  O97  1  0.229504  0.257880  0.751137  1
  O  O98  1  0.269264  0.736618  0.271604  1
  O  O99  1  0.257880  0.028376  0.251137  1
  O  O100  1  0.074361  0.641312  0.756659  1
  O  O101  1  0.429180  0.359152  0.233170  1
  O  O102  1  0.146595  0.962473  0.010163  1
  O  O103  1  0.962473  0.815878  0.510163  1
  O  O104  1  0.358688  0.433049  0.756659  1
  O  O105  1  0.929972  0.570820  0.233170  1
  O  O106  1  0.467354  0.730736  0.271604  1
  O  O107  1  0.595038  0.697076  0.252723  1
  O  O108  1  0.241102  0.976190  0.725042  1
  O  O109  1  0.525205  0.766402  0.684958  1
  O  O110  1  0.474795  0.233598  0.184958  1
  O  O111  1  0.404962  0.302924  0.752723  1
  O  O112  1  0.264912  0.241102  0.225042  1
  O  O113  1  0.302924  0.897962  0.252723  1
  O  O114  1  0.312162  0.405519  0.224947  1
  O  O115  1  0.906643  0.312162  0.724947  1
  O  O116  1  0.570820  0.640848  0.733170  1
  O  O117  1  0.068853  0.132764  0.717541  1
  O  O118  1  0.199471  0.604273  0.772944  1
  O  O119  1  0.373144  0.522346  0.495090  1
  O  O120  1  0.099530  0.907598  0.299994  1
  O  O121  1  0.140616  0.564096  0.189123  1
  O  O122  1  0.092402  0.191932  0.299994  1
  O  O123  1  0.730736  0.263382  0.771604  1
  O  O124  1  0.522346  0.149202  0.995090  1
  O  O125  1  0.023810  0.264912  0.725042  1
  O  O126  1  0.800529  0.395727  0.272944  1
  O  O127  1  0.925639  0.358688  0.256659  1
  O  O128  1  0.070028  0.429180  0.733170  1
  O  O129  1  0.758898  0.023810  0.225042  1
  O  O130  1  0.293152  0.809737  0.993893  1
  O  O131  1  0.483415  0.293152  0.493893  1
  O  O132  1  0.477654  0.850798  0.495090  1
  O  O133  1  0.936089  0.068853  0.217541  1
  O  O134  1  0.859384  0.435904  0.689123  1
  O  O135  1  0.004867  0.669868  0.481951  1
  O  O136  1  0.516585  0.706848  0.993893  1
  O  O137  1  0.576520  0.140616  0.689123  1
  O  O138  1  0.149202  0.626856  0.495090  1
  O  O139  1  0.102038  0.404962  0.252723  1
  O  O140  1  0.706848  0.190263  0.493893  1
  O  O141  1  0.435904  0.576520  0.189123  1
  O  O142  1  0.665001  0.995133  0.481951  1
  O  O143  1  0.900470  0.092402  0.799994  1
  O  O144  1  0.809737  0.516585  0.493893  1
  O  O145  1  0.687838  0.594481  0.724947  1
  O  O146  1  0.853405  0.037527  0.510163  1
  O  O147  1  0.191932  0.099530  0.799994  1
  O  O148  1  0.697076  0.102038  0.752723  1
  O  O149  1  0.334999  0.004867  0.981951  1
  O  O150  1  0.028376  0.770496  0.751137  1
  O  O151  1  0.758803  0.525205  0.184958  1
  O  O152  1  0.641312  0.566951  0.256659  1
  O  O153  1  0.907598  0.808068  0.799994  1
  O  O154  1  0.423480  0.859384  0.189123  1
  O  O155  1  0.742120  0.971624  0.751137  1
  O  O156  1  0.564096  0.423480  0.689123  1
  O  O157  1  0.233598  0.758803  0.684958  1
  O  O158  1  0.770496  0.742120  0.251137  1
  O  O159  1  0.566951  0.925639  0.756659  1
  O  O160  1  0.808068  0.900470  0.299994  1
  O  O161  1  0.594481  0.906643  0.224947  1
  O  O162  1  0.595198  0.199471  0.272944  1
  O  O163  1  0.626856  0.477654  0.995090  1
  O  O164  1  0.532646  0.269264  0.771604  1
  O  O165  1  0.263382  0.532646  0.271604  1
  O  O166  1  0.405519  0.093357  0.724947  1
  O  O167  1  0.640848  0.070028  0.233170  1
