# generated using pymatgen
data_V6Cu5Te12
_symmetry_space_group_name_H-M   'P 1'
_cell_length_a   32.05076871
_cell_length_b   22.26230114
_cell_length_c   7.83715409
_cell_angle_alpha   51.10628329
_cell_angle_beta   45.65867283
_cell_angle_gamma   16.12442696
_symmetry_Int_Tables_number   1
_chemical_formula_structural   V6Cu5Te12
_chemical_formula_sum   'V12 Cu10 Te24'
_cell_volume   1083.67456605
_cell_formula_units_Z   2
loop_
 _symmetry_equiv_pos_site_id
 _symmetry_equiv_pos_as_xyz
  1  'x, y, z'
loop_
 _atom_site_type_symbol
 _atom_site_label
 _atom_site_symmetry_multiplicity
 _atom_site_fract_x
 _atom_site_fract_y
 _atom_site_fract_z
 _atom_site_occupancy
  V  V0  1  0.167774  0.261001  0.101077  1
  V  V1  1  0.411101  0.132911  0.127214  1
  V  V2  1  0.620406  0.092145  0.004046  1
  V  V3  1  0.481664  0.384129  0.710155  1
  V  V4  1  0.958176  0.774963  0.979659  1
  V  V5  1  0.902811  0.195439  0.028058  1
  V  V6  1  0.097189  0.804561  0.971942  1
  V  V7  1  0.041824  0.225037  0.020341  1
  V  V8  1  0.518336  0.615871  0.289845  1
  V  V9  1  0.379594  0.907855  -0.004046  1
  V  V10  1  0.588899  0.867089  0.872786  1
  V  V11  1  0.832226  0.738999  0.898923  1
  Cu  Cu12  1  0.636350  0.955766  0.671025  1
  Cu  Cu13  1  0.851737  0.886690  0.541660  1
  Cu  Cu14  1  0.478393  0.127953  0.297871  1
  Cu  Cu15  1  0.673463  0.040169  0.563407  1
  Cu  Cu16  1  0.247933  0.819928  0.622369  1
  Cu  Cu17  1  0.752067  0.180072  0.377631  1
  Cu  Cu18  1  0.326537  0.959831  0.436593  1
  Cu  Cu19  1  0.521607  0.872047  0.702129  1
  Cu  Cu20  1  0.148263  0.113310  0.458340  1
  Cu  Cu21  1  0.363650  0.044234  0.328975  1
  Te  Te22  1  0.717523  0.751961  0.405564  1
  Te  Te23  1  0.323021  0.298310  0.786810  1
  Te  Te24  1  0.031135  0.572982  0.387089  1
  Te  Te25  1  0.891268  0.715213  0.108348  1
  Te  Te26  1  0.025180  0.765510  0.453566  1
  Te  Te27  1  0.389322  0.346217  0.968532  1
  Te  Te28  1  0.067492  0.780544  0.774164  1
  Te  Te29  1  0.464443  0.291607  0.409484  1
  Te  Te30  1  0.280343  0.682185  0.491676  1
  Te  Te31  1  0.632734  0.225445  0.863772  1
  Te  Te32  1  0.194719  0.759091  0.064671  1
  Te  Te33  1  0.701090  0.162975  0.230219  1
  Te  Te34  1  0.298910  0.837025  0.769781  1
  Te  Te35  1  0.805281  0.240909  0.935329  1
  Te  Te36  1  0.719657  0.317815  0.508324  1
  Te  Te37  1  0.367266  0.774555  0.136228  1
  Te  Te38  1  0.535557  0.708393  0.590516  1
  Te  Te39  1  0.932508  0.219456  0.225836  1
  Te  Te40  1  0.610678  0.653783  0.031468  1
  Te  Te41  1  0.974820  0.234490  0.546434  1
  Te  Te42  1  0.108732  0.284787  0.891652  1
  Te  Te43  1  0.676979  0.701690  0.213190  1
  Te  Te44  1  0.968865  0.427018  0.612911  1
  Te  Te45  1  0.282477  0.248039  0.594436  1
