# generated using pymatgen
data_SiO2
_symmetry_space_group_name_H-M   'P 1'
_cell_length_a   5.08500735
_cell_length_b   12.90981087
_cell_length_c   24.17684749
_cell_angle_alpha   76.91343629
_cell_angle_beta   84.00164521
_cell_angle_gamma   78.63914137
_symmetry_Int_Tables_number   1
_chemical_formula_structural   SiO2
_chemical_formula_sum   'Si28 O56'
_cell_volume   1512.63108270
_cell_formula_units_Z   28
loop_
 _symmetry_equiv_pos_site_id
 _symmetry_equiv_pos_as_xyz
  1  'x, y, z'
loop_
 _atom_site_type_symbol
 _atom_site_label
 _atom_site_symmetry_multiplicity
 _atom_site_fract_x
 _atom_site_fract_y
 _atom_site_fract_z
 _atom_site_occupancy
  Si  Si0  1  0.796960  0.955393  0.619071  1
  Si  Si1  1  0.703639  0.679982  0.052381  1
  Si  Si2  1  0.903832  0.034856  0.086680  1
  Si  Si3  1  0.097454  0.965238  0.913304  1
  Si  Si4  1  0.631094  0.455862  0.119285  1
  Si  Si5  1  0.637567  0.140754  0.427979  1
  Si  Si6  1  0.792699  0.641442  0.926945  1
  Si  Si7  1  0.437173  0.820617  0.447108  1
  Si  Si8  1  0.269624  0.173868  0.254931  1
  Si  Si9  1  0.409110  0.613139  0.638335  1
  Si  Si10  1  0.698495  0.326631  0.245716  1
  Si  Si11  1  0.296660  0.320154  0.947318  1
  Si  Si12  1  0.371495  0.544092  0.880965  1
  Si  Si13  1  0.026943  0.463629  0.414087  1
  Si  Si14  1  0.209158  0.358417  0.073025  1
  Si  Si15  1  0.975796  0.535500  0.586534  1
  Si  Si16  1  0.202378  0.044702  0.381541  1
  Si  Si17  1  0.299178  0.674877  0.754882  1
  Si  Si18  1  0.659707  0.888301  0.861582  1
  Si  Si19  1  0.001787  0.323904  0.541282  1
  Si  Si20  1  0.000476  0.675302  0.459173  1
  Si  Si21  1  0.563607  0.179552  0.553497  1
  Si  Si22  1  0.360929  0.859455  0.572515  1
  Si  Si23  1  0.133513  0.824303  0.040396  1
  Si  Si24  1  0.865884  0.175745  0.959632  1
  Si  Si25  1  0.727240  0.826140  0.745376  1
  Si  Si26  1  0.340743  0.111549  0.138720  1
  Si  Si27  1  0.591760  0.386974  0.362406  1
  O  O28  1  0.070835  0.067529  0.131941  1
  O  O29  1  0.031959  0.585407  0.420565  1
  O  O30  1  0.082747  0.879465  0.973860  1
  O  O31  1  0.933390  0.930351  0.868215  1
  O  O32  1  0.742680  0.462794  0.389040  1
  O  O33  1  0.111538  0.613563  0.909700  1
  O  O34  1  0.281850  0.719896  0.451754  1
  O  O35  1  0.394729  0.590377  0.812754  1
  O  O36  1  0.626861  0.895501  0.794641  1
  O  O37  1  0.890572  0.386313  0.090596  1
  O  O38  1  0.406634  0.964938  0.887742  1
  O  O39  1  0.916970  0.121565  0.026342  1
  O  O40  1  0.371489  0.870726  0.504105  1
  O  O41  1  0.363435  0.442520  0.091992  1
  O  O42  1  0.671512  0.262898  0.396898  1
  O  O43  1  0.594850  0.036393  0.112245  1
  O  O44  1  0.658788  0.082669  0.607361  1
  O  O45  1  0.631643  0.129849  0.496275  1
  O  O46  1  0.967335  0.086440  0.920813  1
  O  O47  1  0.068260  0.377757  0.474687  1
  O  O48  1  0.640308  0.556716  0.908158  1
  O  O49  1  0.976349  0.413646  0.579790  1
  O  O50  1  0.757963  0.775351  0.438535  1
  O  O51  1  0.649019  0.583612  0.106187  1
  O  O52  1  0.668466  0.763945  0.895753  1
  O  O53  1  0.636274  0.886673  0.589553  1
  O  O54  1  0.241806  0.222744  0.561900  1
  O  O55  1  0.797575  0.909889  0.687332  1
  O  O56  1  0.352250  0.416341  0.893274  1
  O  O57  1  0.030133  0.913278  0.079296  1
  O  O58  1  0.746186  0.630405  0.995216  1
  O  O59  1  0.730545  0.571119  0.630884  1
  O  O60  1  0.973632  0.723458  0.060645  1
  O  O61  1  0.026387  0.276600  0.939350  1
  O  O62  1  0.989344  0.734223  0.764456  1
  O  O63  1  0.452865  0.780722  0.048012  1
  O  O64  1  0.610852  0.412747  0.187858  1
  O  O65  1  0.891598  0.056246  0.407751  1
  O  O66  1  0.547283  0.219290  0.951219  1
  O  O67  1  0.256225  0.536275  0.612981  1
  O  O68  1  0.105268  0.944106  0.591731  1
  O  O69  1  0.684309  0.394530  0.295425  1
  O  O70  1  0.328672  0.235932  0.104690  1
  O  O71  1  0.360099  0.114304  0.411268  1
  O  O72  1  0.208690  0.089088  0.313151  1
  O  O73  1  0.487424  0.766959  0.735295  1
  O  O74  1  0.322843  0.605776  0.705469  1
  O  O75  1  0.936698  0.620456  0.525620  1
  O  O76  1  0.327689  0.736960  0.603499  1
  O  O77  1  0.717941  0.280409  0.549357  1
  O  O78  1  0.370895  0.104550  0.205786  1
  O  O79  1  0.341829  0.917441  0.393249  1
  O  O80  1  0.269586  0.428531  0.368912  1
  O  O81  1  0.500106  0.238339  0.264160  1
  O  O82  1  0.256995  0.369377  0.004700  1
  O  O83  1  0.002453  0.262412  0.236062  1
