# generated using pymatgen
data_U11O5
_symmetry_space_group_name_H-M   'P 1'
_cell_length_a   3.31902383
_cell_length_b   38.27379871
_cell_length_c   9.21130492
_cell_angle_alpha   17.85755154
_cell_angle_beta   58.05534037
_cell_angle_gamma   62.41594618
_symmetry_Int_Tables_number   1
_chemical_formula_structural   U11O5
_chemical_formula_sum   'U11 O5'
_cell_volume   300.75970836
_cell_formula_units_Z   1
loop_
 _symmetry_equiv_pos_site_id
 _symmetry_equiv_pos_as_xyz
  1  'x, y, z'
loop_
 _atom_site_type_symbol
 _atom_site_label
 _atom_site_symmetry_multiplicity
 _atom_site_fract_x
 _atom_site_fract_y
 _atom_site_fract_z
 _atom_site_occupancy
  U  U0  1  0.160514  0.027241  0.837927  1
  U  U1  1  0.051145  0.140663  0.753118  1
  U  U2  1  -0.062909  0.189793  0.949674  1
  U  U3  1  0.911591  0.220769  0.213201  1
  U  U4  1  0.040106  0.336299  0.139045  1
  U  U5  1  -0.054005  0.480862  0.872296  1
  U  U6  1  0.054310  0.589273  0.825333  1
  U  U7  1  0.985922  0.616790  0.117320  1
  U  U8  1  0.905547  0.673193  0.276371  1
  U  U9  1  0.032746  0.899752  0.018122  1
  U  U10  1  0.971995  0.803998  0.081179  1
  O  O11  1  0.272681  0.066337  0.213754  1
  O  O12  1  0.267985  0.501033  0.338918  1
  O  O13  1  0.701810  0.315435  0.677767  1
  O  O14  1  0.692541  0.755719  0.784416  1
  O  O15  1  0.818022  0.860116  0.651558  1
