# generated using pymatgen
data_Li3H4Rh
_symmetry_space_group_name_H-M   'P 1'
_cell_length_a   3.79243841
_cell_length_b   4.85398240
_cell_length_c   8.81111622
_cell_angle_alpha   90.00000000
_cell_angle_beta   90.00000000
_cell_angle_gamma   67.00490894
_symmetry_Int_Tables_number   1
_chemical_formula_structural   Li3H4Rh
_chemical_formula_sum   'Li6 H8 Rh2'
_cell_volume   149.31022122
_cell_formula_units_Z   2
loop_
 _symmetry_equiv_pos_site_id
 _symmetry_equiv_pos_as_xyz
  1  'x, y, z'
loop_
 _atom_site_type_symbol
 _atom_site_label
 _atom_site_symmetry_multiplicity
 _atom_site_fract_x
 _atom_site_fract_y
 _atom_site_fract_z
 _atom_site_occupancy
  Li  Li0  1  0.162954  0.674093  0.070847  1
  Li  Li1  1  0.489710  0.020579  0.249999  1
  Li  Li2  1  0.162954  0.674093  0.429153  1
  Li  Li3  1  0.837047  0.325906  0.570847  1
  Li  Li4  1  0.510290  0.979422  0.750000  1
  Li  Li5  1  0.837047  0.325906  0.929154  1
  H  H6  1  0.667595  0.664810  0.111473  1
  H  H7  1  0.936853  0.126295  0.122645  1
  H  H8  1  0.936853  0.126295  0.377354  1
  H  H9  1  0.667595  0.664810  0.388527  1
  H  H10  1  0.332405  0.335191  0.611473  1
  H  H11  1  0.063146  0.873709  0.622646  1
  H  H12  1  0.063146  0.873709  0.877355  1
  H  H13  1  0.332405  0.335191  0.888528  1
  Rh  Rh14  1  0.798712  0.402574  0.249999  1
  Rh  Rh15  1  0.201288  0.597424  0.750000  1
