# generated using pymatgen
data_Sr16Cu8BC7O40
_symmetry_space_group_name_H-M   'P 1'
_cell_length_a   15.66396611
_cell_length_b   11.09648416
_cell_length_c   9.43442315
_cell_angle_alpha   89.48256194
_cell_angle_beta   65.04384091
_cell_angle_gamma   45.05108235
_symmetry_Int_Tables_number   1
_chemical_formula_structural   Sr16Cu8BC7O40
_chemical_formula_sum   'Sr16 Cu8 B1 C7 O40'
_cell_volume   939.40785047
_cell_formula_units_Z   1
loop_
 _symmetry_equiv_pos_site_id
 _symmetry_equiv_pos_as_xyz
  1  'x, y, z'
loop_
 _atom_site_type_symbol
 _atom_site_label
 _atom_site_symmetry_multiplicity
 _atom_site_fract_x
 _atom_site_fract_y
 _atom_site_fract_z
 _atom_site_occupancy
  Sr  Sr0  1  0.128828  0.118835  0.242517  1
  Sr  Sr1  1  0.145750  0.604751  0.212417  1
  Sr  Sr2  1  0.379709  0.122433  0.242126  1
  Sr  Sr3  1  0.117613  0.392462  0.764968  1
  Sr  Sr4  1  0.383865  0.609156  0.227652  1
  Sr  Sr5  1  0.618119  0.126412  0.246827  1
  Sr  Sr6  1  0.364943  0.388540  0.752369  1
  Sr  Sr7  1  0.114158  0.882091  0.759598  1
  Sr  Sr8  1  0.644301  0.605306  0.209368  1
  Sr  Sr9  1  0.883381  0.110791  0.230888  1
  Sr  Sr10  1  0.613541  0.388716  0.772283  1
  Sr  Sr11  1  0.354547  0.896676  0.789101  1
  Sr  Sr12  1  0.886741  0.611633  0.224007  1
  Sr  Sr13  1  0.868020  0.388401  0.758752  1
  Sr  Sr14  1  0.612536  0.890605  0.769481  1
  Sr  Sr15  1  0.858540  0.893585  0.786783  1
  Cu  Cu16  1  0.249422  0.251891  0.000290  1
  Cu  Cu17  1  0.998865  0.752437  0.996942  1
  Cu  Cu18  1  0.493446  0.256340  0.007940  1
  Cu  Cu19  1  0.248149  0.752332  0.998088  1
  Cu  Cu20  1  0.749126  0.251610  0.000846  1
  Cu  Cu21  1  0.497506  0.753667  0.001341  1
  Cu  Cu22  1  0.000936  0.248424  0.997959  1
  Cu  Cu23  1  0.748257  0.751713  0.000166  1
  B  B24  1  0.253870  0.485647  0.492526  1
  C  C25  1  0.253605  0.009732  0.496950  1
  C  C26  1  0.010202  0.987331  0.502187  1
  C  C27  1  0.489625  0.514462  0.502035  1
  C  C28  1  0.754921  0.008547  0.496075  1
  C  C29  1  0.749527  0.490328  0.497315  1
  C  C30  1  0.514400  0.979888  0.503132  1
  C  C31  1  0.985564  0.514780  0.503424  1
  O  O32  1  0.112447  0.013098  0.027490  1
  O  O33  1  0.120632  0.255036  0.008442  1
  O  O34  1  0.361280  0.015703  0.024723  1
  O  O35  1  0.158044  0.187206  0.525949  1
  O  O36  1  0.103884  0.448838  0.372180  1
  O  O37  1  0.021036  0.922723  0.374870  1
  O  O38  1  0.612232  0.011496  0.022575  1
  O  O39  1  0.303267  0.470306  0.325156  1
  O  O40  1  0.405535  0.062094  0.663701  1
  O  O41  1  0.332907  0.318759  0.512394  1
  O  O42  1  0.128019  0.660341  0.640677  1
  O  O43  1  0.128485  0.496904  0.990307  1
  O  O44  1  0.109969  0.966373  0.471851  1
  O  O45  1  0.620213  0.255085  0.007108  1
  O  O46  1  0.368384  0.755943  0.010272  1
  O  O47  1  0.385334  0.241061  0.974246  1
  O  O48  1  0.133672  0.743495  0.977564  1
  O  O49  1  0.419423  0.503318  0.477680  1
  O  O50  1  0.858864  0.016212  0.025184  1
  O  O51  1  0.658960  0.186094  0.525153  1
  O  O52  1  0.241694  0.967756  0.626571  1
  O  O53  1  0.360503  0.876343  0.337041  1
  O  O54  1  0.438870  0.595621  0.660102  1
  O  O55  1  0.380103  0.497022  0.982326  1
  O  O56  1  0.609119  0.445480  0.369319  1
  O  O57  1  0.526898  0.913610  0.374244  1
  O  O58  1  0.796161  0.475102  0.340306  1
  O  O59  1  0.899880  0.074170  0.663089  1
  O  O60  1  0.822546  0.336281  0.517979  1
  O  O61  1  0.632036  0.655518  0.632160  1
  O  O62  1  0.628922  0.496917  0.990604  1
  O  O63  1  0.613064  0.960760  0.473998  1
  O  O64  1  0.867521  0.757180  0.011210  1
  O  O65  1  0.887916  0.238194  0.973793  1
  O  O66  1  0.634982  0.739552  0.978054  1
  O  O67  1  0.917431  0.500976  0.476490  1
  O  O68  1  0.744018  0.966454  0.625555  1
  O  O69  1  0.861948  0.874943  0.336032  1
  O  O70  1  0.933390  0.595033  0.662885  1
  O  O71  1  0.881079  0.494036  0.987536  1
