# generated using pymatgen
data_KCa9Co(PO4)7
_symmetry_space_group_name_H-M   'P 1'
_cell_length_a   13.82250132
_cell_length_b   13.82250112
_cell_length_c   13.82250178
_cell_angle_alpha   44.74933231
_cell_angle_beta   44.74933315
_cell_angle_gamma   44.74933436
_symmetry_Int_Tables_number   1
_chemical_formula_structural   KCa9Co(PO4)7
_chemical_formula_sum   'K2 Ca18 Co2 P14 O56'
_cell_volume   1190.72196895
_cell_formula_units_Z   2
loop_
 _symmetry_equiv_pos_site_id
 _symmetry_equiv_pos_as_xyz
  1  'x, y, z'
loop_
 _atom_site_type_symbol
 _atom_site_label
 _atom_site_symmetry_multiplicity
 _atom_site_fract_x
 _atom_site_fract_y
 _atom_site_fract_z
 _atom_site_occupancy
  K  K0  1  0.686312  0.686312  0.686312  1
  K  K1  1  0.186312  0.186312  0.186312  1
  Ca  Ca2  1  0.446861  0.410873  0.844992  1
  Ca  Ca3  1  0.410873  0.844992  0.446861  1
  Ca  Ca4  1  0.562731  0.971811  0.946406  1
  Ca  Ca5  1  0.946406  0.562731  0.971811  1
  Ca  Ca6  1  0.446406  0.471811  0.062731  1
  Ca  Ca7  1  0.662421  0.075057  0.065141  1
  Ca  Ca8  1  0.844992  0.446861  0.410873  1
  Ca  Ca9  1  0.075057  0.065141  0.662421  1
  Ca  Ca10  1  0.471811  0.062731  0.446406  1
  Ca  Ca11  1  0.971811  0.946406  0.562731  1
  Ca  Ca12  1  0.565141  0.575057  0.162421  1
  Ca  Ca13  1  0.910873  0.946861  0.344992  1
  Ca  Ca14  1  0.344992  0.910873  0.946861  1
  Ca  Ca15  1  0.162421  0.565141  0.575057  1
  Ca  Ca16  1  0.946861  0.344992  0.910873  1
  Ca  Ca17  1  0.065141  0.662421  0.075057  1
  Ca  Ca18  1  0.062731  0.446406  0.471811  1
  Ca  Ca19  1  0.575057  0.162421  0.565141  1
  Co  Co20  1  0.002155  0.002155  0.002155  1
  Co  Co21  1  0.502155  0.502155  0.502155  1
  P  P22  1  0.226561  0.182971  0.689619  1
  P  P23  1  0.189619  0.682971  0.726561  1
  P  P24  1  0.319761  0.776620  0.815817  1
  P  P25  1  0.276620  0.819761  0.315817  1
  P  P26  1  0.726561  0.189619  0.682971  1
  P  P27  1  0.315817  0.276620  0.819761  1
  P  P28  1  0.270301  0.270301  0.270301  1
  P  P29  1  0.682971  0.726561  0.189619  1
  P  P30  1  0.815817  0.319761  0.776620  1
  P  P31  1  0.819761  0.315817  0.276620  1
  P  P32  1  0.776620  0.815817  0.319761  1
  P  P33  1  0.182971  0.689619  0.226561  1
  P  P34  1  0.689619  0.226561  0.182971  1
  P  P35  1  0.770301  0.770301  0.770301  1
  O  O36  1  0.643701  0.378381  0.374137  1
  O  O37  1  0.115631  0.672670  0.689318  1
  O  O38  1  0.898381  0.368028  0.263620  1
  O  O39  1  0.868028  0.398381  0.763620  1
  O  O40  1  0.113634  0.837875  0.392149  1
  O  O41  1  0.391075  0.268572  0.110931  1
  O  O42  1  0.189318  0.172670  0.615631  1
  O  O43  1  0.378381  0.374137  0.643701  1
  O  O44  1  0.135062  0.851677  0.672782  1
  O  O45  1  0.590636  0.899560  0.145512  1
  O  O46  1  0.268572  0.110931  0.391075  1
  O  O47  1  0.689318  0.115631  0.672670  1
  O  O48  1  0.347641  0.884982  0.141378  1
  O  O49  1  0.263620  0.898381  0.368028  1
  O  O50  1  0.672782  0.135062  0.851677  1
  O  O51  1  0.141378  0.347641  0.884982  1
  O  O52  1  0.884982  0.141378  0.347641  1
  O  O53  1  0.110931  0.391075  0.268572  1
  O  O54  1  0.368028  0.263620  0.898381  1
  O  O55  1  0.672670  0.689318  0.115631  1
  O  O56  1  0.891075  0.610931  0.768572  1
  O  O57  1  0.768572  0.891075  0.610931  1
  O  O58  1  0.811982  0.811982  0.811982  1
  O  O59  1  0.641354  0.366162  0.613758  1
  O  O60  1  0.847641  0.641378  0.384982  1
  O  O61  1  0.398381  0.763620  0.868028  1
  O  O62  1  0.645512  0.399560  0.090636  1
  O  O63  1  0.837875  0.392149  0.113634  1
  O  O64  1  0.392149  0.113634  0.837875  1
  O  O65  1  0.613634  0.892149  0.337875  1
  O  O66  1  0.613758  0.641354  0.366162  1
  O  O67  1  0.866162  0.141354  0.113758  1
  O  O68  1  0.874137  0.878381  0.143701  1
  O  O69  1  0.641378  0.384982  0.847641  1
  O  O70  1  0.311982  0.311982  0.311982  1
  O  O71  1  0.141354  0.113758  0.866162  1
  O  O72  1  0.763620  0.868028  0.398381  1
  O  O73  1  0.145512  0.590636  0.899560  1
  O  O74  1  0.351677  0.635062  0.172782  1
  O  O75  1  0.899560  0.145512  0.590636  1
  O  O76  1  0.635062  0.172782  0.351677  1
  O  O77  1  0.374137  0.643701  0.378381  1
  O  O78  1  0.615631  0.189318  0.172670  1
  O  O79  1  0.892149  0.337875  0.613634  1
  O  O80  1  0.399560  0.090636  0.645512  1
  O  O81  1  0.337875  0.613634  0.892149  1
  O  O82  1  0.113758  0.866162  0.141354  1
  O  O83  1  0.172670  0.615631  0.189318  1
  O  O84  1  0.366162  0.613758  0.641354  1
  O  O85  1  0.851677  0.672782  0.135062  1
  O  O86  1  0.878381  0.143701  0.874137  1
  O  O87  1  0.090636  0.645512  0.399560  1
  O  O88  1  0.172782  0.351677  0.635062  1
  O  O89  1  0.143701  0.874137  0.878381  1
  O  O90  1  0.384982  0.847641  0.641378  1
  O  O91  1  0.610931  0.768572  0.891075  1
