# generated using pymatgen
data_KBa2As5
_symmetry_space_group_name_H-M   'P 1'
_cell_length_a   19.94771113
_cell_length_b   13.02236799
_cell_length_c   11.67998630
_cell_angle_alpha   89.86380036
_cell_angle_beta   89.72753894
_cell_angle_gamma   29.24165739
_symmetry_Int_Tables_number   1
_chemical_formula_structural   KBa2As5
_chemical_formula_sum   'K6 Ba12 As30'
_cell_volume   1482.09829174
_cell_formula_units_Z   6
loop_
 _symmetry_equiv_pos_site_id
 _symmetry_equiv_pos_as_xyz
  1  'x, y, z'
loop_
 _atom_site_type_symbol
 _atom_site_label
 _atom_site_symmetry_multiplicity
 _atom_site_fract_x
 _atom_site_fract_y
 _atom_site_fract_z
 _atom_site_occupancy
  K  K0  1  0.181065  0.152224  0.148778  1
  K  K1  1  0.508261  0.152523  0.148117  1
  K  K2  1  0.157519  0.843438  0.647958  1
  K  K3  1  0.835739  0.170251  0.148136  1
  K  K4  1  0.565967  0.767336  0.270564  1
  K  K5  1  0.824947  0.840697  0.647918  1
  Ba  Ba6  1  0.094478  0.238904  0.776122  1
  Ba  Ba7  1  0.060671  0.608656  0.952963  1
  Ba  Ba8  1  0.270596  0.394688  0.450995  1
  Ba  Ba9  1  0.431220  0.240450  0.772466  1
  Ba  Ba10  1  0.233639  0.766502  0.264979  1
  Ba  Ba11  1  0.396644  0.600691  0.952940  1
  Ba  Ba12  1  0.602570  0.398769  0.450966  1
  Ba  Ba13  1  0.769567  0.225447  0.772454  1
  Ba  Ba14  1  0.496689  0.836635  0.643962  1
  Ba  Ba15  1  0.726089  0.607293  0.965108  1
  Ba  Ba16  1  0.933330  0.399967  0.454379  1
  Ba  Ba17  1  0.900432  0.766134  0.265015  1
  As  As18  1  0.069179  0.095870  0.011536  1
  As  As19  1  0.287174  0.046255  0.424586  1
  As  As20  1  0.103348  0.393195  0.515577  1
  As  As21  1  0.254139  0.306494  0.187486  1
  As  As22  1  0.188470  0.366686  0.695294  1
  As  As23  1  0.392973  0.109402  0.002238  1
  As  As24  1  0.143246  0.632842  0.191413  1
  As  As25  1  0.081137  0.691916  0.691689  1
  As  As26  1  0.227452  0.610503  0.012588  1
  As  As27  1  0.046298  0.955993  0.922135  1
  As  As28  1  0.619848  0.050580  0.422257  1
  As  As29  1  0.436417  0.396095  0.513395  1
  As  As30  1  0.585917  0.304756  0.191312  1
  As  As31  1  0.520802  0.372808  0.691687  1
  As  As32  1  0.266592  0.903611  0.515643  1
  As  As33  1  0.732068  0.096584  0.012636  1
  As  As34  1  0.481388  0.624720  0.187476  1
  As  As35  1  0.410360  0.701206  0.695337  1
  As  As36  1  0.562009  0.602338  0.002131  1
  As  As37  1  0.378244  0.955061  0.919299  1
  As  As38  1  0.957030  0.039023  0.422271  1
  As  As39  1  0.777174  0.381505  0.517244  1
  As  As40  1  0.928151  0.296597  0.192136  1
  As  As41  1  0.848377  0.375732  0.700679  1
  As  As42  1  0.602482  0.905462  0.517212  1
  As  As43  1  0.819471  0.622360  0.192202  1
  As  As44  1  0.739143  0.703347  0.700711  1
  As  As45  1  0.900796  0.601025  0.011972  1
  As  As46  1  0.715292  0.949074  0.922209  1
  As  As47  1  0.935601  0.898353  0.513415  1
