# generated using pymatgen
data_LiAg2P3(HO5)2
_symmetry_space_group_name_H-M   'P 1'
_cell_length_a   8.51464545
_cell_length_b   7.73149936
_cell_length_c   7.72753619
_cell_angle_alpha   107.21392016
_cell_angle_beta   106.38939897
_cell_angle_gamma   72.83767444
_symmetry_Int_Tables_number   1
_chemical_formula_structural   LiAg2P3(HO5)2
_chemical_formula_sum   'Li2 Ag4 P6 H4 O20'
_cell_volume   453.58427820
_cell_formula_units_Z   2
loop_
 _symmetry_equiv_pos_site_id
 _symmetry_equiv_pos_as_xyz
  1  'x, y, z'
loop_
 _atom_site_type_symbol
 _atom_site_label
 _atom_site_symmetry_multiplicity
 _atom_site_fract_x
 _atom_site_fract_y
 _atom_site_fract_z
 _atom_site_occupancy
  Li  Li0  1  0.335302  0.295565  0.918750  1
  Li  Li1  1  0.664698  0.704435  0.081250  1
  Ag  Ag2  1  0.404034  0.561777  0.660596  1
  Ag  Ag3  1  0.595966  0.438223  0.339404  1
  Ag  Ag4  1  0.985095  0.304318  0.582539  1
  Ag  Ag5  1  0.014905  0.695682  0.417461  1
  P  P6  1  0.267687  0.238634  0.264327  1
  P  P7  1  0.732313  0.761366  0.735673  1
  P  P8  1  0.094097  0.713287  0.900093  1
  P  P9  1  0.905903  0.286713  0.099907  1
  P  P10  1  0.326422  0.824560  0.261334  1
  P  P11  1  0.673578  0.175440  0.738666  1
  H  H12  1  0.822531  0.989531  0.224803  1
  H  H13  1  0.177469  0.010469  0.775197  1
  H  H14  1  0.292804  0.005306  0.650394  1
  H  H15  1  0.707196  0.994695  0.349606  1
  O  O16  1  0.395305  0.260635  0.175762  1
  O  O17  1  0.604695  0.739365  0.824238  1
  O  O18  1  0.216703  0.384856  0.430831  1
  O  O19  1  0.783297  0.615144  0.569169  1
  O  O20  1  0.331075  0.042457  0.322742  1
  O  O21  1  0.668925  0.957543  0.677258  1
  O  O22  1  0.104924  0.214888  0.100450  1
  O  O23  1  0.895076  0.785112  0.899550  1
  O  O24  1  0.304762  0.779785  0.429015  1
  O  O25  1  0.695238  0.220215  0.570985  1
  O  O26  1  0.471569  0.710802  0.172298  1
  O  O27  1  0.528431  0.289198  0.827702  1
  O  O28  1  0.150961  0.827463  0.109713  1
  O  O29  1  0.849039  0.172537  0.890287  1
  O  O30  1  0.134605  0.791660  0.764359  1
  O  O31  1  0.865395  0.208340  0.235641  1
  O  O32  1  0.148071  0.507051  0.883299  1
  O  O33  1  0.851929  0.492949  0.116701  1
  O  O34  1  0.769953  0.907773  0.256615  1
  O  O35  1  0.230046  0.092227  0.743385  1
