# generated using pymatgen
data_YbSi6H54(C6N)3
_symmetry_space_group_name_H-M   'P 1'
_cell_length_a   16.57415037
_cell_length_b   16.57415063
_cell_length_c   9.69173141
_cell_angle_alpha   90.00000000
_cell_angle_beta   90.00000000
_cell_angle_gamma   119.99999946
_symmetry_Int_Tables_number   1
_chemical_formula_structural   YbSi6H54(C6N)3
_chemical_formula_sum   'Yb2 Si12 H108 C36 N6'
_cell_volume   2305.65625675
_cell_formula_units_Z   2
loop_
 _symmetry_equiv_pos_site_id
 _symmetry_equiv_pos_as_xyz
  1  'x, y, z'
loop_
 _atom_site_type_symbol
 _atom_site_label
 _atom_site_symmetry_multiplicity
 _atom_site_fract_x
 _atom_site_fract_y
 _atom_site_fract_z
 _atom_site_occupancy
  Yb  Yb0  1  0.333333  0.666667  0.185453  1
  Yb  Yb1  1  0.666667  0.333333  0.685453  1
  Si  Si2  1  0.173949  0.713517  0.378739  1
  Si  Si3  1  0.284727  0.827264  0.123390  1
  Si  Si4  1  0.172736  0.457463  0.123390  1
  Si  Si5  1  0.286483  0.460431  0.378739  1
  Si  Si6  1  0.539569  0.826052  0.378739  1
  Si  Si7  1  0.542537  0.715273  0.123390  1
  Si  Si8  1  0.460431  0.286483  0.878739  1
  Si  Si9  1  0.457463  0.172736  0.623390  1
  Si  Si10  1  0.715273  0.542537  0.623390  1
  Si  Si11  1  0.826052  0.539569  0.878739  1
  Si  Si12  1  0.713517  0.173949  0.878739  1
  Si  Si13  1  0.827264  0.284727  0.623390  1
  H  H14  1  0.999404  0.617730  0.385197  1
  H  H15  1  0.036417  0.693210  0.240091  1
  H  H16  1  0.119822  0.786368  0.550209  1
  H  H17  1  0.128984  0.815973  0.076483  1
  H  H18  1  0.043075  0.589211  0.237159  1
  H  H19  1  0.184482  0.870406  0.421721  1
  H  H20  1  0.213177  0.880942  0.948050  1
  H  H21  1  0.155379  0.757013  0.946804  1
  H  H22  1  0.998077  0.381096  0.115305  1
  H  H23  1  0.243621  0.844752  0.552214  1
  H  H24  1  0.043047  0.453851  0.262856  1
  H  H25  1  0.132676  0.627563  0.594190  1
  H  H26  1  0.307586  0.965095  0.260447  1
  H  H27  1  0.034905  0.342491  0.260447  1
  H  H28  1  0.164235  0.598281  0.024936  1
  H  H29  1  0.164019  0.565989  0.475866  1
  H  H30  1  0.134606  0.505725  0.909038  1
  H  H31  1  0.383019  0.001923  0.115305  1
  H  H32  1  0.251923  0.667535  0.560946  1
  H  H33  1  0.410804  0.956953  0.262856  1
  H  H34  1  0.371119  0.865394  0.909038  1
  H  H35  1  0.252293  0.584652  0.937359  1
  H  H36  1  0.119058  0.332235  0.948050  1
  H  H37  1  0.332360  0.747707  0.937359  1
  H  H38  1  0.155248  0.398869  0.552214  1
  H  H39  1  0.129594  0.314076  0.421721  1
  H  H40  1  0.401969  0.835981  0.475866  1
  H  H41  1  0.434047  0.835765  0.024936  1
  H  H42  1  0.184027  0.313011  0.076483  1
  H  H43  1  0.242987  0.398366  0.946804  1
  H  H44  1  0.415612  0.748077  0.560946  1
  H  H45  1  0.213632  0.333454  0.550209  1
  H  H46  1  0.332465  0.584388  0.560946  1
  H  H47  1  0.494887  0.867324  0.594190  1
  H  H48  1  0.546136  0.956925  0.237159  1
  H  H49  1  0.415348  0.667640  0.937359  1
  H  H50  1  0.618326  0.000596  0.385197  1
  H  H51  1  0.372437  0.505113  0.594190  1
  H  H52  1  0.401719  0.565953  0.024936  1
  H  H53  1  0.434011  0.598031  0.475866  1
  H  H54  1  0.306790  0.343207  0.240091  1
  H  H55  1  0.656793  0.963583  0.240091  1
  H  H56  1  0.494275  0.628881  0.909038  1
  H  H57  1  0.410789  0.453864  0.237159  1
  H  H58  1  0.601634  0.844621  0.946804  1
  H  H59  1  0.382270  0.381674  0.385197  1
  H  H60  1  0.381674  0.382270  0.885197  1
  H  H61  1  0.343207  0.306790  0.740091  1
  H  H62  1  0.601131  0.756379  0.552214  1
  H  H63  1  0.333454  0.213632  0.050209  1
  H  H64  1  0.666546  0.880178  0.550209  1
  H  H65  1  0.313011  0.184027  0.576483  1
  H  H66  1  0.453864  0.410789  0.737159  1
  H  H67  1  0.686989  0.871016  0.076483  1
  H  H68  1  0.314076  0.129594  0.921721  1
  H  H69  1  0.546149  0.589196  0.262856  1
  H  H70  1  0.685924  0.815518  0.421721  1
  H  H71  1  0.332235  0.119058  0.448050  1
  H  H72  1  0.667765  0.786823  0.948050  1
  H  H73  1  0.398366  0.242987  0.446804  1
  H  H74  1  0.657509  0.692414  0.260447  1
  H  H75  1  0.618904  0.616981  0.115305  1
  H  H76  1  0.616981  0.618904  0.615305  1
  H  H77  1  0.398869  0.155248  0.052214  1
  H  H78  1  0.589196  0.546149  0.762856  1
  H  H79  1  0.505113  0.372437  0.094190  1
  H  H80  1  0.342491  0.034905  0.760447  1
  H  H81  1  0.692414  0.657509  0.760447  1
  H  H82  1  0.565953  0.401719  0.524936  1
  H  H83  1  0.598031  0.434011  0.975866  1
  H  H84  1  0.628881  0.494275  0.409038  1
  H  H85  1  0.381096  0.998077  0.615305  1
  H  H86  1  0.584388  0.332465  0.060946  1
  H  H87  1  0.453851  0.043047  0.762856  1
  H  H88  1  0.505725  0.134606  0.409038  1
  H  H89  1  0.667640  0.415348  0.437359  1
  H  H90  1  0.786823  0.667765  0.448050  1
  H  H91  1  0.584652  0.252293  0.437359  1
  H  H92  1  0.756379  0.601131  0.052214  1
  H  H93  1  0.815518  0.685924  0.921721  1
  H  H94  1  0.565989  0.164019  0.975866  1
  H  H95  1  0.598281  0.164235  0.524936  1
  H  H96  1  0.871016  0.686989  0.576483  1
  H  H97  1  0.844621  0.601634  0.446804  1
  H  H98  1  0.667535  0.251923  0.060946  1
  H  H99  1  0.880178  0.666546  0.050209  1
  H  H100  1  0.748077  0.415612  0.060946  1
  H  H101  1  0.627563  0.132676  0.094190  1
  H  H102  1  0.589211  0.043075  0.737159  1
  H  H103  1  0.747707  0.332360  0.437359  1
  H  H104  1  0.617730  0.999404  0.885197  1
  H  H105  1  0.867324  0.494887  0.094190  1
  H  H106  1  0.835765  0.434047  0.524936  1
  H  H107  1  0.835981  0.401969  0.975866  1
  H  H108  1  0.963583  0.656793  0.740091  1
  H  H109  1  0.693210  0.036417  0.740091  1
  H  H110  1  0.865394  0.371119  0.409038  1
  H  H111  1  0.956925  0.546136  0.737159  1
  H  H112  1  0.757013  0.155379  0.446804  1
  H  H113  1  0.000596  0.618326  0.885197  1
  H  H114  1  0.844752  0.243621  0.052214  1
  H  H115  1  0.786368  0.119822  0.050209  1
  H  H116  1  0.815973  0.128984  0.576483  1
  H  H117  1  0.956953  0.410804  0.762856  1
  H  H118  1  0.870406  0.184482  0.921721  1
  H  H119  1  0.880942  0.213177  0.448050  1
  H  H120  1  0.965095  0.307586  0.760447  1
  H  H121  1  0.001923  0.383019  0.615305  1
  C  C122  1  0.051926  0.647255  0.302793  1
  C  C123  1  0.182230  0.814125  0.484068  1
  C  C124  1  0.185632  0.818682  0.014411  1
  C  C125  1  0.050848  0.403957  0.197263  1
  C  C126  1  0.182436  0.635751  0.513149  1
  C  C127  1  0.353109  0.949152  0.197263  1
  C  C128  1  0.184139  0.547326  0.990227  1
  C  C129  1  0.363187  0.815861  0.990227  1
  C  C130  1  0.181318  0.366949  0.014411  1
  C  C131  1  0.185875  0.368105  0.484068  1
  C  C132  1  0.453315  0.817564  0.513149  1
  C  C133  1  0.364249  0.546685  0.513149  1
  C  C134  1  0.595329  0.948074  0.302793  1
  C  C135  1  0.452674  0.636813  0.990227  1
  C  C136  1  0.352745  0.404671  0.302793  1
  C  C137  1  0.631895  0.817770  0.484068  1
  C  C138  1  0.404671  0.352745  0.802793  1
  C  C139  1  0.633051  0.814368  0.014411  1
  C  C140  1  0.368105  0.185875  0.984068  1
  C  C141  1  0.596043  0.646891  0.197263  1
  C  C142  1  0.366949  0.181318  0.514411  1
  C  C143  1  0.646891  0.596043  0.697263  1
  C  C144  1  0.546685  0.364249  0.013149  1
  C  C145  1  0.403957  0.050848  0.697263  1
  C  C146  1  0.636813  0.452674  0.490227  1
  C  C147  1  0.547326  0.184139  0.490227  1
  C  C148  1  0.814368  0.633051  0.514411  1
  C  C149  1  0.817770  0.631895  0.984068  1
  C  C150  1  0.635751  0.182436  0.013149  1
  C  C151  1  0.817564  0.453315  0.013149  1
  C  C152  1  0.647255  0.051926  0.802793  1
  C  C153  1  0.815861  0.363187  0.490227  1
  C  C154  1  0.948074  0.595329  0.802793  1
  C  C155  1  0.814125  0.182230  0.984068  1
  C  C156  1  0.818682  0.185632  0.514411  1
  C  C157  1  0.949152  0.353109  0.697263  1
  N  N158  1  0.254552  0.743160  0.248207  1
  N  N159  1  0.256840  0.511392  0.248207  1
  N  N160  1  0.488608  0.745448  0.248207  1
  N  N161  1  0.511392  0.256840  0.748207  1
  N  N162  1  0.745448  0.488608  0.748207  1
  N  N163  1  0.743160  0.254552  0.748207  1
