# generated using pymatgen
data_Co2TeBr2O3
_symmetry_space_group_name_H-M   'P 1'
_cell_length_a   7.83619169
_cell_length_b   10.67811471
_cell_length_c   16.26008269
_cell_angle_alpha   89.98594605
_cell_angle_beta   89.99084226
_cell_angle_gamma   89.98610722
_symmetry_Int_Tables_number   1
_chemical_formula_structural   Co2TeBr2O3
_chemical_formula_sum   'Co16 Te8 Br16 O24'
_cell_volume   1360.57457757
_cell_formula_units_Z   8
loop_
 _symmetry_equiv_pos_site_id
 _symmetry_equiv_pos_as_xyz
  1  'x, y, z'
loop_
 _atom_site_type_symbol
 _atom_site_label
 _atom_site_symmetry_multiplicity
 _atom_site_fract_x
 _atom_site_fract_y
 _atom_site_fract_z
 _atom_site_occupancy
  Co  Co0  1  0.894226  0.771165  0.036761  1
  Co  Co1  1  0.394187  0.771161  0.463235  1
  Co  Co2  1  0.105760  0.228818  0.963236  1
  Co  Co3  1  0.605872  0.228838  0.536777  1
  Co  Co4  1  0.345167  0.007103  0.898843  1
  Co  Co5  1  0.105900  0.271172  0.536764  1
  Co  Co6  1  0.845099  0.492931  0.898827  1
  Co  Co7  1  0.154898  0.507035  0.101169  1
  Co  Co8  1  0.605813  0.271209  0.963249  1
  Co  Co9  1  0.654816  0.992917  0.101161  1
  Co  Co10  1  0.654916  0.507080  0.398836  1
  Co  Co11  1  0.845139  0.007092  0.601152  1
  Co  Co12  1  0.394196  0.728805  0.036748  1
  Co  Co13  1  0.154846  0.992903  0.398843  1
  Co  Co14  1  0.894143  0.728828  0.463222  1
  Co  Co15  1  0.345086  0.492928  0.601161  1
  Te  Te16  1  0.711189  0.526661  0.098042  1
  Te  Te17  1  0.288881  0.026663  0.598033  1
  Te  Te18  1  0.211117  0.973289  0.098052  1
  Te  Te19  1  0.711101  0.973349  0.401954  1
  Te  Te20  1  0.788850  0.026730  0.901963  1
  Te  Te21  1  0.788817  0.473276  0.598031  1
  Te  Te22  1  0.211191  0.526722  0.401962  1
  Te  Te23  1  0.288804  0.473316  0.901966  1
  Br  Br24  1  0.058146  0.208681  0.382943  1
  Br  Br25  1  0.157176  0.410855  0.705158  1
  Br  Br26  1  0.342763  0.589110  0.205120  1
  Br  Br27  1  0.842823  0.589140  0.294830  1
  Br  Br28  1  0.058073  0.291337  0.117104  1
  Br  Br29  1  0.441899  0.708615  0.617107  1
  Br  Br30  1  0.441917  0.791359  0.882903  1
  Br  Br31  1  0.941855  0.791318  0.617055  1
  Br  Br32  1  0.842782  0.910887  0.205159  1
  Br  Br33  1  0.657239  0.410872  0.794872  1
  Br  Br34  1  0.157214  0.089125  0.794841  1
  Br  Br35  1  0.657188  0.089153  0.705152  1
  Br  Br36  1  0.558124  0.291384  0.382918  1
  Br  Br37  1  0.941915  0.708635  0.882901  1
  Br  Br38  1  0.342811  0.910871  0.294835  1
  Br  Br39  1  0.558080  0.208667  0.117088  1
  O  O40  1  0.563099  0.410909  0.581728  1
  O  O41  1  0.693415  0.445045  0.991855  1
  O  O42  1  0.563098  0.089109  0.918283  1
  O  O43  1  0.356635  0.188086  0.560391  1
  O  O44  1  0.856652  0.311878  0.560396  1
  O  O45  1  0.193439  0.445042  0.508158  1
  O  O46  1  0.693387  0.054963  0.508150  1
  O  O47  1  0.063131  0.089059  0.581727  1
  O  O48  1  0.806565  0.554977  0.491837  1
  O  O49  1  0.643371  0.811899  0.439601  1
  O  O50  1  0.193404  0.054978  0.991851  1
  O  O51  1  0.436934  0.589104  0.418273  1
  O  O52  1  0.306556  0.554980  0.008140  1
  O  O53  1  0.143416  0.811863  0.060401  1
  O  O54  1  0.643394  0.688114  0.060393  1
  O  O55  1  0.806563  0.945005  0.008152  1
  O  O56  1  0.143389  0.688152  0.439610  1
  O  O57  1  0.856559  0.188124  0.939621  1
  O  O58  1  0.063087  0.410922  0.918288  1
  O  O59  1  0.356607  0.311898  0.939628  1
  O  O60  1  0.436899  0.910900  0.081726  1
  O  O61  1  0.936874  0.910926  0.418254  1
  O  O62  1  0.306578  0.945005  0.491847  1
  O  O63  1  0.936929  0.589063  0.081716  1
