# generated using pymatgen
data_Yb2EuSe4
_symmetry_space_group_name_H-M   'P 1'
_cell_length_a   4.23054909
_cell_length_b   12.13961390
_cell_length_c   15.28780544
_cell_angle_alpha   90.00000000
_cell_angle_beta   90.00000000
_cell_angle_gamma   90.00000000
_symmetry_Int_Tables_number   1
_chemical_formula_structural   Yb2EuSe4
_chemical_formula_sum   'Yb8 Eu4 Se16'
_cell_volume   785.13937897
_cell_formula_units_Z   4
loop_
 _symmetry_equiv_pos_site_id
 _symmetry_equiv_pos_as_xyz
  1  'x, y, z'
loop_
 _atom_site_type_symbol
 _atom_site_label
 _atom_site_symmetry_multiplicity
 _atom_site_fract_x
 _atom_site_fract_y
 _atom_site_fract_z
 _atom_site_occupancy
  Eu  Eu0  1  0.250000  0.260427  0.830363  1
  Eu  Eu1  1  0.750000  0.239573  0.330363  1
  Eu  Eu2  1  0.250000  0.760427  0.669637  1
  Eu  Eu3  1  0.750000  0.739573  0.169637  1
  Yb  Yb4  1  0.250000  0.412528  0.096643  1
  Yb  Yb5  1  0.250000  0.432604  0.608035  1
  Yb  Yb6  1  0.750000  0.067396  0.108035  1
  Yb  Yb7  1  0.750000  0.567396  0.391965  1
  Yb  Yb8  1  0.750000  0.587472  0.903357  1
  Yb  Yb9  1  0.750000  0.087472  0.596643  1
  Yb  Yb10  1  0.250000  0.932604  0.891965  1
  Yb  Yb11  1  0.250000  0.912528  0.403357  1
  Se  Se12  1  0.750000  0.794491  0.814543  1
  Se  Se13  1  0.750000  0.605446  0.585767  1
  Se  Se14  1  0.750000  0.857825  0.537472  1
  Se  Se15  1  0.250000  0.205509  0.185457  1
  Se  Se16  1  0.250000  0.024358  0.717821  1
  Se  Se17  1  0.750000  0.975642  0.282179  1
  Se  Se18  1  0.750000  0.294491  0.685457  1
  Se  Se19  1  0.750000  0.357825  0.962528  1
  Se  Se20  1  0.250000  0.394554  0.414233  1
  Se  Se21  1  0.750000  0.475642  0.217821  1
  Se  Se22  1  0.250000  0.142175  0.462528  1
  Se  Se23  1  0.250000  0.705509  0.314543  1
  Se  Se24  1  0.250000  0.524358  0.782179  1
  Se  Se25  1  0.250000  0.642175  0.037472  1
  Se  Se26  1  0.250000  0.894554  0.085767  1
  Se  Se27  1  0.750000  0.105446  0.914233  1
