# generated using pymatgen
data_Ti14O7F60
_symmetry_space_group_name_H-M   'P 1'
_cell_length_a   10.44286899
_cell_length_b   20.77840596
_cell_length_c   7.02918434
_cell_angle_alpha   90.04602063
_cell_angle_beta   89.73401572
_cell_angle_gamma   120.01341785
_symmetry_Int_Tables_number   1
_chemical_formula_structural   Ti14O7F60
_chemical_formula_sum   'Ti14 O7 F60'
_cell_volume   1320.69805289
_cell_formula_units_Z   1
loop_
 _symmetry_equiv_pos_site_id
 _symmetry_equiv_pos_as_xyz
  1  'x, y, z'
loop_
 _atom_site_type_symbol
 _atom_site_label
 _atom_site_symmetry_multiplicity
 _atom_site_fract_x
 _atom_site_fract_y
 _atom_site_fract_z
 _atom_site_occupancy
  Ti  Ti0  1  0.114394  0.882651  0.141106  1
  Ti  Ti1  1  0.247738  0.676109  0.147818  1
  Ti  Ti2  1  0.636754  0.943802  0.143010  1
  Ti  Ti3  1  0.105241  0.373126  0.153432  1
  Ti  Ti4  1  0.356551  0.550327  0.844570  1
  Ti  Ti5  1  0.738503  0.816621  0.848664  1
  Ti  Ti6  1  -0.000778  0.998049  0.501737  1
  Ti  Ti7  1  0.226831  0.177400  0.162425  1
  Ti  Ti8  1  0.641973  0.448055  0.154111  1
  Ti  Ti9  1  0.889122  0.623057  0.844093  1
  Ti  Ti10  1  0.356030  0.063815  0.837819  1
  Ti  Ti11  1  0.750901  0.322173  0.847290  1
  Ti  Ti12  1  0.996360  0.497659  0.497616  1
  Ti  Ti13  1  0.881713  0.127302  0.842654  1
  O  O14  1  0.499289  0.992754  0.623815  1
  O  O15  1  0.207406  0.674099  0.647780  1
  O  O16  1  0.368022  0.573071  0.365101  1
  O  O17  1  0.346007  0.310205  0.637210  1
  O  O18  1  0.995874  0.741359  0.387482  1
  O  O19  1  0.506610  0.256531  0.383123  1
  O  O20  1  0.873561  0.110977  0.351198  1
  F  F21  1  0.047753  0.938408  0.337095  1
  F  F22  1  0.218744  0.971794  0.005722  1
  F  F23  1  0.038567  0.703528  0.712577  1
  F  F24  1  0.152755  0.826277  0.994825  1
  F  F25  1  0.247527  0.900177  0.319115  1
  F  F26  1  0.357538  0.968772  0.707339  1
  F  F27  1  0.058061  0.635987  0.020136  1
  F  F28  1  0.199203  0.728072  0.311207  1
  F  F29  1  0.117737  0.582366  0.338385  1
  F  F30  1  0.489698  0.921396  0.985240  1
  F  F31  1  0.349321  0.752033  0.989795  1
  F  F32  1  0.041325  0.438686  0.341242  1
  F  F33  1  0.162298  0.521372  0.655182  1
  F  F34  1  0.268414  0.605221  0.980928  1
  F  F35  1  0.549455  0.871143  0.310833  1
  F  F36  1  0.402278  0.682893  0.286353  1
  F  F37  1  0.210351  0.471507  0.017277  1
  F  F38  1  0.593098  0.812983  0.713759  1
  F  F39  1  0.035503  0.199365  0.719104  1
  F  F40  1  0.447451  0.629098  0.683118  1
  F  F41  1  0.156399  0.324316  0.989993  1
  F  F42  1  0.735604  0.896293  0.014955  1
  F  F43  1  0.846005  0.979517  0.343418  1
  F  F44  1  0.258592  0.403732  0.310891  1
  F  F45  1  0.373818  0.482798  0.711015  1
  F  F46  1  0.648909  0.745675  0.016790  1
  F  F47  1  0.058519  0.135004  0.022379  1
  F  F48  1  0.502506  0.578688  0.010237  1
  F  F49  1  0.887860  0.919013  0.658242  1
  F  F50  1  0.193875  0.230036  0.328386  1
  F  F51  1  0.813889  0.777548  0.689908  1
  F  F52  1  0.137956  0.085677  0.336765  1
  F  F53  1  0.496913  0.421381  0.988918  1
  F  F54  1  0.939672  0.862662  0.003298  1
  F  F55  1  0.346862  0.247656  0.005513  1
  F  F56  1  0.629563  0.518338  0.282059  1
  F  F57  1  0.741029  0.598431  0.685339  1
  F  F58  1  0.177241  0.022205  0.663458  1
  F  F59  1  0.278602  0.109249  0.989542  1
  F  F60  1  0.847508  0.675573  0.006542  1
  F  F61  1  0.544971  0.371819  0.319759  1
  F  F62  1  0.938767  0.782301  0.294099  1
  F  F63  1  0.427731  0.184883  0.294799  1
  F  F64  1  0.790948  0.529504  0.978852  1
  F  F65  1  0.592905  0.312398  0.715640  1
  F  F66  1  0.461006  0.132282  0.669641  1
  F  F67  1  0.729075  0.394364  0.020608  1
  F  F68  1  0.835006  0.478874  0.342786  1
  F  F69  1  0.959539  0.562543  0.660175  1
  F  F70  1  0.647594  0.246910  0.008749  1
  F  F71  1  0.497010  0.074846  0.992841  1
  F  F72  1  0.875390  0.417596  0.660282  1
  F  F73  1  0.804777  0.272756  0.688758  1
  F  F74  1  0.941212  0.365098  0.981140  1
  F  F75  1  0.632597  0.016349  0.278535  1
  F  F76  1  0.736597  0.103149  0.681065  1
  F  F77  1  0.840086  0.174975  0.015653  1
  F  F78  1  0.967434  0.296125  0.284976  1
  F  F79  1  0.791026  0.030243  0.969884  1
  F  F80  1  0.968726  0.061019  0.655228  1
