# generated using pymatgen
data_K3Sn2S3BrO12
_symmetry_space_group_name_H-M   'P 1'
_cell_length_a   10.42461934
_cell_length_b   10.55687269
_cell_length_c   7.60670612
_cell_angle_alpha   90.00000000
_cell_angle_beta   90.00000000
_cell_angle_gamma   120.18902083
_symmetry_Int_Tables_number   1
_chemical_formula_structural   K3Sn2S3BrO12
_chemical_formula_sum   'K6 Sn4 S6 Br2 O24'
_cell_volume   723.58974590
_cell_formula_units_Z   2
loop_
 _symmetry_equiv_pos_site_id
 _symmetry_equiv_pos_as_xyz
  1  'x, y, z'
loop_
 _atom_site_type_symbol
 _atom_site_label
 _atom_site_symmetry_multiplicity
 _atom_site_fract_x
 _atom_site_fract_y
 _atom_site_fract_z
 _atom_site_occupancy
  K  K0  1  0.349727  0.676242  0.023833  1
  K  K1  1  0.335266  0.668886  0.502055  1
  K  K2  1  0.251389  0.260349  0.262681  1
  K  K3  1  0.748611  0.739651  0.762681  1
  K  K4  1  0.650273  0.323758  0.523833  1
  K  K5  1  0.664734  0.331114  0.002055  1
  Sn  Sn6  1  0.251941  0.971585  0.798725  1
  Sn  Sn7  1  0.032958  0.261294  0.773779  1
  Sn  Sn8  1  0.967042  0.738706  0.273779  1
  Sn  Sn9  1  0.748059  0.028415  0.298725  1
  S  S10  1  0.036276  0.624420  0.755480  1
  S  S11  1  0.586187  0.973952  0.752711  1
  S  S12  1  0.363704  0.406775  0.763512  1
  S  S13  1  0.636296  0.593225  0.263512  1
  S  S14  1  0.413813  0.026048  0.252711  1
  S  S15  1  0.963724  0.375580  0.255480  1
  Br  Br16  1  0.997976  0.998635  0.999543  1
  Br  Br17  1  0.002024  0.001365  0.499543  1
  O  O18  1  0.101104  0.734425  0.908044  1
  O  O19  1  0.085729  0.715435  0.591478  1
  O  O20  1  0.106297  0.530579  0.762978  1
  O  O21  1  0.125791  0.462444  0.270382  1
  O  O22  1  0.357274  0.867333  0.261380  1
  O  O23  1  0.415926  0.889950  0.756998  1
  O  O24  1  0.260167  0.361398  0.922702  1
  O  O25  1  0.256359  0.352888  0.609480  1
  O  O26  1  0.628105  0.934509  0.578894  1
  O  O27  1  0.454587  0.567909  0.758516  1
  O  O28  1  0.636827  0.919477  0.899092  1
  O  O29  1  0.544747  0.662785  0.267236  1
  O  O30  1  0.455253  0.337215  0.767236  1
  O  O31  1  0.363173  0.080523  0.399092  1
  O  O32  1  0.545413  0.432091  0.258516  1
  O  O33  1  0.371895  0.065491  0.078894  1
  O  O34  1  0.743641  0.647112  0.109480  1
  O  O35  1  0.739833  0.638602  0.422702  1
  O  O36  1  0.584074  0.110050  0.256998  1
  O  O37  1  0.642726  0.132667  0.761380  1
  O  O38  1  0.874209  0.537556  0.770382  1
  O  O39  1  0.893703  0.469421  0.262978  1
  O  O40  1  0.914271  0.284565  0.091478  1
  O  O41  1  0.898896  0.265575  0.408044  1
