# generated using pymatgen
data_K34(Zn4In17)5
_symmetry_space_group_name_H-M   'P 1'
_cell_length_a   17.48843511
_cell_length_b   17.48843529
_cell_length_c   17.48843523
_cell_angle_alpha   65.44359580
_cell_angle_beta   65.44359554
_cell_angle_gamma   65.44359445
_symmetry_Int_Tables_number   1
_chemical_formula_structural   K34(Zn4In17)5
_chemical_formula_sum   'K34 Zn20 In85'
_cell_volume   4229.96325917
_cell_formula_units_Z   1
loop_
 _symmetry_equiv_pos_site_id
 _symmetry_equiv_pos_as_xyz
  1  'x, y, z'
loop_
 _atom_site_type_symbol
 _atom_site_label
 _atom_site_symmetry_multiplicity
 _atom_site_fract_x
 _atom_site_fract_y
 _atom_site_fract_z
 _atom_site_occupancy
  K  K0  1  0.499518  0.107893  0.107893  1
  K  K1  1  0.361875  0.361875  0.361875  1
  K  K2  1  0.112598  0.742384  0.112598  1
  K  K3  1  0.499775  0.153839  0.713156  1
  K  K4  1  0.887402  0.257616  0.887402  1
  K  K5  1  0.892107  0.500482  0.892107  1
  K  K6  1  0.257616  0.887402  0.887402  1
  K  K7  1  0.500225  0.846161  0.286845  1
  K  K8  1  0.742928  0.742928  0.742928  1
  K  K9  1  0.500482  0.892107  0.892107  1
  K  K10  1  0.370163  0.717972  0.717972  1
  K  K11  1  0.742384  0.112598  0.112598  1
  K  K12  1  0.846161  0.500225  0.286845  1
  K  K13  1  0.107893  0.499518  0.107893  1
  K  K14  1  0.717972  0.717972  0.370163  1
  K  K15  1  0.713156  0.499775  0.153839  1
  K  K16  1  0.629837  0.282028  0.282028  1
  K  K17  1  0.257072  0.257072  0.257072  1
  K  K18  1  0.500225  0.286845  0.846161  1
  K  K19  1  0.887402  0.887402  0.257616  1
  K  K20  1  0.286845  0.500225  0.846161  1
  K  K21  1  0.112598  0.112598  0.742384  1
  K  K22  1  0.282028  0.282028  0.629837  1
  K  K23  1  0.153839  0.499775  0.713156  1
  K  K24  1  0.846161  0.286845  0.500225  1
  K  K25  1  0.286845  0.846161  0.500225  1
  K  K26  1  0.638125  0.638125  0.638125  1
  K  K27  1  0.499775  0.713156  0.153839  1
  K  K28  1  0.717972  0.370163  0.717972  1
  K  K29  1  0.153839  0.713156  0.499775  1
  K  K30  1  0.107893  0.107893  0.499518  1
  K  K31  1  0.892107  0.892107  0.500482  1
  K  K32  1  0.282028  0.629837  0.282028  1
  K  K33  1  0.713156  0.153839  0.499775  1
  Zn  Zn34  1  0.881917  0.881917  0.739015  1
  Zn  Zn35  1  0.881917  0.739015  0.881917  1
  Zn  Zn36  1  0.108594  0.960546  0.108594  1
  Zn  Zn37  1  0.113688  0.113688  0.113688  1
  Zn  Zn38  1  0.108594  0.108594  0.960546  1
  Zn  Zn39  1  0.039454  0.891406  0.891406  1
  Zn  Zn40  1  0.254541  0.021929  0.021929  1
  Zn  Zn41  1  0.745459  0.978071  0.978071  1
  Zn  Zn42  1  0.739015  0.881917  0.881917  1
  Zn  Zn43  1  0.118083  0.260985  0.118083  1
  Zn  Zn44  1  0.886312  0.886312  0.886312  1
  Zn  Zn45  1  0.118083  0.118083  0.260985  1
  Zn  Zn46  1  0.891406  0.891406  0.039454  1
  Zn  Zn47  1  0.978071  0.745459  0.978071  1
  Zn  Zn48  1  0.021929  0.254541  0.021929  1
  Zn  Zn49  1  0.891406  0.039454  0.891406  1
  Zn  Zn50  1  0.960546  0.108594  0.108594  1
  Zn  Zn51  1  0.978071  0.978071  0.745459  1
  Zn  Zn52  1  0.260985  0.118083  0.118083  1
  Zn  Zn53  1  0.021929  0.021929  0.254541  1
  In  In54  1  0.608795  0.608795  0.982643  1
  In  In55  1  0.602504  0.336405  0.602504  1
  In  In56  1  0.052170  0.884713  0.606818  1
  In  In57  1  0.840994  0.284135  0.109628  1
  In  In58  1  0.046537  0.673702  0.391514  1
  In  In59  1  0.830758  0.291024  0.291024  1
  In  In60  1  0.287109  0.014729  0.287109  1
  In  In61  1  0.840994  0.109628  0.284135  1
  In  In62  1  0.326298  0.953463  0.608486  1
  In  In63  1  0.319820  0.148474  0.497726  1
  In  In64  1  0.393182  0.947830  0.115287  1
  In  In65  1  0.148474  0.497726  0.319820  1
  In  In66  1  0.156145  0.496936  0.496936  1
  In  In67  1  0.287109  0.287109  0.014729  1
  In  In68  1  0.159006  0.715865  0.890372  1
  In  In69  1  0.497155  0.497155  0.331835  1
  In  In70  1  0.391514  0.673702  0.046537  1
  In  In71  1  0.715865  0.159006  0.890372  1
  In  In72  1  0.291024  0.830758  0.291024  1
  In  In73  1  0.502845  0.502845  0.668165  1
  In  In74  1  0.496936  0.156145  0.496936  1
  In  In75  1  0.712891  0.712891  0.985271  1
  In  In76  1  0.708976  0.169242  0.708976  1
  In  In77  1  0.115287  0.393182  0.947830  1
  In  In78  1  0.953463  0.608486  0.326298  1
  In  In79  1  0.608486  0.953463  0.326298  1
  In  In80  1  0.680180  0.502274  0.851526  1
  In  In81  1  0.608486  0.326298  0.953463  1
  In  In82  1  0.169242  0.708976  0.708976  1
  In  In83  1  0.843855  0.503064  0.503064  1
  In  In84  1  0.159006  0.890372  0.715865  1
  In  In85  1  0.391514  0.046537  0.673702  1
  In  In86  1  0.890372  0.159006  0.715865  1
  In  In87  1  0.391205  0.391205  0.017357  1
  In  In88  1  0.148474  0.319820  0.497726  1
  In  In89  1  0.982643  0.608795  0.608795  1
  In  In90  1  0.884713  0.052170  0.606818  1
  In  In91  1  0.502845  0.668165  0.502845  1
  In  In92  1  0.953463  0.326298  0.608486  1
  In  In93  1  0.606818  0.052170  0.884713  1
  In  In94  1  0.851526  0.502274  0.680180  1
  In  In95  1  0.336405  0.602504  0.602504  1
  In  In96  1  0.663595  0.397496  0.397496  1
  In  In97  1  0.503064  0.503064  0.843855  1
  In  In98  1  0.606818  0.884713  0.052170  1
  In  In99  1  0.673702  0.391514  0.046537  1
  In  In100  1  0.497155  0.331835  0.497155  1
  In  In101  1  0.602504  0.602504  0.336405  1
  In  In102  1  0.851526  0.680180  0.502274  1
  In  In103  1  0.326298  0.608486  0.953463  1
  In  In104  1  0.985271  0.712891  0.712891  1
  In  In105  1  0.284135  0.109628  0.840994  1
  In  In106  1  0.497726  0.319820  0.148474  1
  In  In107  1  0.503064  0.843855  0.503064  1
  In  In108  1  0.608795  0.982643  0.608795  1
  In  In109  1  0.052170  0.606818  0.884713  1
  In  In110  1  0.397496  0.663595  0.397496  1
  In  In111  1  0.497726  0.148474  0.319820  1
  In  In112  1  0.947830  0.393182  0.115287  1
  In  In113  1  0.884713  0.606818  0.052170  1
  In  In114  1  0.502274  0.851526  0.680180  1
  In  In115  1  0.397496  0.397496  0.663595  1
  In  In116  1  0.947830  0.115287  0.393182  1
  In  In117  1  0.393182  0.115287  0.947830  1
  In  In118  1  0.673702  0.046537  0.391514  1
  In  In119  1  0.890372  0.715865  0.159006  1
  In  In120  1  0.715865  0.890372  0.159006  1
  In  In121  1  0.046537  0.391514  0.673702  1
  In  In122  1  0.014729  0.287109  0.287109  1
  In  In123  1  0.291024  0.291024  0.830758  1
  In  In124  1  0.496936  0.496936  0.156145  1
  In  In125  1  0.712891  0.985271  0.712891  1
  In  In126  1  0.115287  0.947830  0.393182  1
  In  In127  1  0.017357  0.391205  0.391205  1
  In  In128  1  0.680180  0.851526  0.502274  1
  In  In129  1  0.319820  0.497726  0.148474  1
  In  In130  1  0.502274  0.680180  0.851526  1
  In  In131  1  0.000000  0.000000  0.000000  1
  In  In132  1  0.109628  0.284135  0.840994  1
  In  In133  1  0.391205  0.017357  0.391205  1
  In  In134  1  0.284135  0.840994  0.109628  1
  In  In135  1  0.668165  0.502845  0.502845  1
  In  In136  1  0.331835  0.497155  0.497155  1
  In  In137  1  0.708976  0.708976  0.169242  1
  In  In138  1  0.109628  0.840994  0.284135  1
