# generated using pymatgen
data_Na11N7O16
_symmetry_space_group_name_H-M   'P 1'
_cell_length_a   4.82230547
_cell_length_b   5.66862063
_cell_length_c   16.96245715
_cell_angle_alpha   87.30004647
_cell_angle_beta   93.80794821
_cell_angle_gamma   88.02151392
_symmetry_Int_Tables_number   1
_chemical_formula_structural   Na11N7O16
_chemical_formula_sum   'Na11 N7 O16'
_cell_volume   461.81550219
_cell_formula_units_Z   1
loop_
 _symmetry_equiv_pos_site_id
 _symmetry_equiv_pos_as_xyz
  1  'x, y, z'
loop_
 _atom_site_type_symbol
 _atom_site_label
 _atom_site_symmetry_multiplicity
 _atom_site_fract_x
 _atom_site_fract_y
 _atom_site_fract_z
 _atom_site_occupancy
  Na  Na0  1  -0.054578  0.005818  -0.000249  1
  Na  Na1  1  -0.041380  0.058711  0.323706  1
  Na  Na2  1  0.023330  0.025560  0.641714  1
  Na  Na3  1  0.426304  0.753115  0.260345  1
  Na  Na4  1  0.447082  0.676742  0.922923  1
  Na  Na5  1  0.461328  0.208853  0.101713  1
  Na  Na6  1  0.502242  0.144362  0.765203  1
  Na  Na7  1  0.417804  0.298856  0.428626  1
  Na  Na8  1  -0.025917  0.509085  0.174635  1
  Na  Na9  1  -0.069534  0.574239  0.511159  1
  Na  Na10  1  -0.038759  0.474452  0.819396  1
  N  N11  1  0.086745  -0.019082  0.158042  1
  N  N12  1  0.166249  -0.004632  0.848981  1
  N  N13  1  0.383824  0.878930  0.490473  1
  N  N14  1  0.743957  0.554499  0.668272  1
  N  N15  1  0.911648  0.580558  0.024173  1
  N  N16  1  0.797329  0.561557  0.351273  1
  N  N17  1  0.513767  0.657702  0.688136  1
  O  O18  1  0.352909  0.230975  0.276294  1
  O  O19  1  0.129176  0.954546  0.487510  1
  O  O20  1  0.909880  0.024138  0.840932  1
  O  O21  1  0.287134  0.165823  0.924614  1
  O  O22  1  0.452707  0.025375  -0.017406  1
  O  O23  1  0.482230  0.059425  0.332578  1
  O  O24  1  0.497230  0.886503  0.668669  1
  O  O25  1  0.470039  0.545438  0.159637  1
  O  O26  1  0.417227  0.654371  0.490670  1
  O  O27  1  0.455381  0.492272  0.814929  1
  O  O28  1  0.895170  0.366801  0.047848  1
  O  O29  1  0.897772  0.388948  0.398204  1
  O  O30  1  0.971799  0.655588  0.307732  1
  O  O31  1  0.791144  0.327832  0.686497  1
  O  O32  1  0.932487  0.662187  0.630662  1
  O  O33  1  0.960872  0.615453  0.951377  1
