# generated using pymatgen
data_Si2H2O5
_symmetry_space_group_name_H-M   'P 1'
_cell_length_a   9.23731093
_cell_length_b   8.97063740
_cell_length_c   8.97063740
_cell_angle_alpha   142.79548575
_cell_angle_beta   50.33990090
_cell_angle_gamma   146.70697409
_symmetry_Int_Tables_number   1
_chemical_formula_structural   Si2H2O5
_chemical_formula_sum   'Si4 H4 O10'
_cell_volume   245.87587012
_cell_formula_units_Z   2
loop_
 _symmetry_equiv_pos_site_id
 _symmetry_equiv_pos_as_xyz
  1  'x, y, z'
loop_
 _atom_site_type_symbol
 _atom_site_label
 _atom_site_symmetry_multiplicity
 _atom_site_fract_x
 _atom_site_fract_y
 _atom_site_fract_z
 _atom_site_occupancy
  Si  Si0  1  0.525649  0.023042  0.681504  1
  Si  Si1  1  0.372379  0.868831  0.309960  1
  Si  Si2  1  0.872379  0.062419  0.003548  1
  Si  Si3  1  0.025649  0.844146  0.002608  1
  H  H4  1  0.727817  0.843325  0.442437  1
  H  H5  1  0.176371  0.042120  0.519059  1
  H  H6  1  0.676371  0.657312  0.634251  1
  H  H7  1  0.227817  0.285381  0.384494  1
  O  O8  1  0.472498  0.947948  0.479022  1
  O  O9  1  0.972498  0.993476  0.024550  1
  O  O10  1  0.272786  0.898521  0.836913  1
  O  O11  1  0.081819  0.477539  0.171059  1
  O  O12  1  0.581819  0.910760  0.104280  1
  O  O13  1  0.772786  0.435873  0.874265  1
  O  O14  1  0.570822  0.789233  0.537349  1
  O  O15  1  0.356586  0.139472  0.476298  1
  O  O16  1  0.856586  0.880287  0.717114  1
  O  O17  1  0.070822  0.033473  0.281589  1
