# generated using pymatgen
data_FeCoAs
_symmetry_space_group_name_H-M   'P 1'
_cell_length_a   6.02202590
_cell_length_b   11.98448067
_cell_length_c   3.58986715
_cell_angle_alpha   89.99211675
_cell_angle_beta   90.00036883
_cell_angle_gamma   120.19480494
_symmetry_Int_Tables_number   1
_chemical_formula_structural   FeCoAs
_chemical_formula_sum   'Fe6 Co6 As6'
_cell_volume   223.93139072
_cell_formula_units_Z   6
loop_
 _symmetry_equiv_pos_site_id
 _symmetry_equiv_pos_as_xyz
  1  'x, y, z'
loop_
 _atom_site_type_symbol
 _atom_site_label
 _atom_site_symmetry_multiplicity
 _atom_site_fract_x
 _atom_site_fract_y
 _atom_site_fract_z
 _atom_site_occupancy
  Fe  Fe0  1  0.405588  0.700829  0.497921  1
  Fe  Fe1  1  -0.000112  0.297479  0.499408  1
  Fe  Fe2  1  0.594749  0.500211  0.498497  1
  Fe  Fe3  1  0.002196  0.798664  0.497778  1
  Fe  Fe4  1  0.399714  0.201404  0.499681  1
  Fe  Fe5  1  0.254453  0.999645  0.999057  1
  Co  Co6  1  0.002467  0.628515  0.998389  1
  Co  Co7  1  0.597410  0.999075  0.498696  1
  Co  Co8  1  0.254021  0.499438  0.998701  1
  Co  Co9  1  0.747014  0.870634  0.998654  1
  Co  Co10  1  0.000885  0.127751  -0.000523  1
  Co  Co11  1  0.742891  0.371477  0.999364  1
  As  As12  1  -0.001335  0.999522  0.499018  1
  As  As13  1  0.339221  0.834560  0.997750  1
  As  As14  1  0.334132  0.333449  0.999591  1
  As  As15  1  0.667381  0.665000  0.997915  1
  As  As16  1  0.997883  0.499537  0.498857  1
  As  As17  1  0.666785  0.165410  0.999560  1
