# generated using pymatgen
data_Ba11(Ta3S13)2
_symmetry_space_group_name_H-M   'P 1'
_cell_length_a   14.53470109
_cell_length_b   14.52959572
_cell_length_c   29.06383762
_cell_angle_alpha   27.81541415
_cell_angle_beta   27.62505146
_cell_angle_gamma   27.54045836
_symmetry_Int_Tables_number   1
_chemical_formula_structural   Ba11(Ta3S13)2
_chemical_formula_sum   'Ba11 Ta6 S26'
_cell_volume   1167.69436309
_cell_formula_units_Z   1
loop_
 _symmetry_equiv_pos_site_id
 _symmetry_equiv_pos_as_xyz
  1  'x, y, z'
loop_
 _atom_site_type_symbol
 _atom_site_label
 _atom_site_symmetry_multiplicity
 _atom_site_fract_x
 _atom_site_fract_y
 _atom_site_fract_z
 _atom_site_occupancy
  Ba  Ba0  1  0.062937  0.074819  0.035421  1
  Ba  Ba1  1  0.200697  0.201023  0.103488  1
  Ba  Ba2  1  0.399459  0.263396  0.167886  1
  Ba  Ba3  1  0.075758  0.062856  0.534913  1
  Ba  Ba4  1  0.202053  0.205153  0.600619  1
  Ba  Ba5  1  0.385141  0.353365  0.629335  1
  Ba  Ba6  1  0.800710  0.800446  0.394337  1
  Ba  Ba7  1  0.934661  0.920274  0.467412  1
  Ba  Ba8  1  0.695510  0.656590  0.825714  1
  Ba  Ba9  1  0.796228  0.792274  0.901394  1
  Ba  Ba10  1  0.927504  0.937283  0.963535  1
  Ta  Ta11  1  0.414681  0.426513  0.211926  1
  Ta  Ta12  1  0.494005  0.501611  0.252412  1
  Ta  Ta13  1  0.598738  0.568980  0.283512  1
  Ta  Ta14  1  0.429881  0.416704  0.710964  1
  Ta  Ta15  1  0.494855  0.503681  0.751159  1
  Ta  Ta16  1  0.577308  0.578669  0.789070  1
  S  S17  1  0.061480  0.552293  0.282616  1
  S  S18  1  0.574341  0.053725  0.281679  1
  S  S19  1  0.551555  0.568047  0.030819  1
  S  S20  1  0.302046  0.302888  0.394885  1
  S  S21  1  0.303812  0.788992  0.150177  1
  S  S22  1  0.792011  0.305590  0.148217  1
  S  S23  1  0.203999  0.700413  0.348404  1
  S  S24  1  0.702408  0.691364  0.105865  1
  S  S25  1  0.704422  0.209605  0.344923  1
  S  S26  1  0.433213  0.426166  0.470714  1
  S  S27  1  0.429725  0.941269  0.216623  1
  S  S28  1  0.950916  0.434220  0.217659  1
  S  S29  1  0.062358  0.569882  0.780013  1
  S  S30  1  0.556701  0.062845  0.781164  1
  S  S31  1  0.575524  0.563280  0.527234  1
  S  S32  1  0.305550  0.300042  0.895224  1
  S  S33  1  0.301981  0.792395  0.651716  1
  S  S34  1  0.793335  0.296785  0.653431  1
  S  S35  1  0.207167  0.699084  0.850262  1
  S  S36  1  0.695149  0.211607  0.850200  1
  S  S37  1  0.696112  0.698319  0.605712  1
  S  S38  1  0.431608  0.449730  0.969059  1
  S  S39  1  0.437613  0.939386  0.720539  1
  S  S40  1  0.945337  0.430013  0.717812  1
  S  S41  1  0.941893  0.927768  0.565010  1
  S  S42  1  0.918318  0.134454  0.973845  1
