# generated using pymatgen
data_Na2Y2B2O7
_symmetry_space_group_name_H-M   'P 1'
_cell_length_a   6.29598886
_cell_length_b   10.35698130
_cell_length_c   10.67899636
_cell_angle_alpha   117.74053811
_cell_angle_beta   90.00000000
_cell_angle_gamma   90.00000000
_symmetry_Int_Tables_number   1
_chemical_formula_structural   Na2Y2B2O7
_chemical_formula_sum   'Na8 Y8 B8 O28'
_cell_volume   616.31467934
_cell_formula_units_Z   4
loop_
 _symmetry_equiv_pos_site_id
 _symmetry_equiv_pos_as_xyz
  1  'x, y, z'
loop_
 _atom_site_type_symbol
 _atom_site_label
 _atom_site_symmetry_multiplicity
 _atom_site_fract_x
 _atom_site_fract_y
 _atom_site_fract_z
 _atom_site_occupancy
  B  B0  1  0.846794  0.648343  0.207607  1
  B  B1  1  0.346794  0.851657  0.792393  1
  B  B2  1  0.153206  0.351657  0.792393  1
  B  B3  1  0.653206  0.148343  0.207607  1
  B  B4  1  0.246978  0.418843  0.314936  1
  B  B5  1  0.746978  0.081157  0.685064  1
  B  B6  1  0.753022  0.581157  0.685064  1
  B  B7  1  0.253022  0.918843  0.314936  1
  O  O8  1  0.351881  0.835078  0.366868  1
  O  O9  1  0.851881  0.664922  0.633132  1
  O  O10  1  0.648119  0.164922  0.633132  1
  O  O11  1  0.148119  0.335078  0.366868  1
  O  O12  1  0.243787  0.770645  0.849468  1
  O  O13  1  0.743787  0.729355  0.150532  1
  O  O14  1  0.756213  0.229355  0.150532  1
  O  O15  1  0.256213  0.270645  0.849468  1
  O  O16  1  0.123966  0.097750  0.974898  1
  O  O17  1  0.623966  0.402250  0.025102  1
  O  O18  1  0.876034  0.902250  0.025102  1
  O  O19  1  0.376034  0.597750  0.974898  1
  O  O20  1  0.747092  0.133094  0.315176  1
  O  O21  1  0.247092  0.366906  0.684824  1
  O  O22  1  0.252908  0.866906  0.684824  1
  O  O23  1  0.752908  0.633094  0.315176  1
  O  O24  1  0.263050  0.367493  0.166715  1
  O  O25  1  0.763050  0.132507  0.833285  1
  O  O26  1  0.736950  0.632507  0.833285  1
  O  O27  1  0.236950  0.867493  0.166715  1
  O  O28  1  0.458424  0.086369  0.148768  1
  O  O29  1  0.958424  0.413631  0.851232  1
  O  O30  1  0.541576  0.913631  0.851232  1
  O  O31  1  0.041576  0.586369  0.148768  1
  O  O32  1  0.168519  0.055331  0.397722  1
  O  O33  1  0.668519  0.444669  0.602278  1
  O  O34  1  0.831481  0.944669  0.602278  1
  O  O35  1  0.331481  0.555331  0.397722  1
  Na  Na36  1  0.230234  0.548862  0.611380  1
  Na  Na37  1  0.730234  0.951138  0.388620  1
  Na  Na38  1  0.769766  0.451138  0.388620  1
  Na  Na39  1  0.269766  0.048862  0.611380  1
  Na  Na40  1  0.557130  0.760215  0.523543  1
  Na  Na41  1  0.057130  0.739785  0.476457  1
  Na  Na42  1  0.442870  0.239785  0.476457  1
  Na  Na43  1  0.942870  0.260215  0.523543  1
  Y  Y44  1  0.040918  0.682822  0.984587  1
  Y  Y45  1  0.540918  0.817178  0.015413  1
  Y  Y46  1  0.959082  0.317178  0.015413  1
  Y  Y47  1  0.459082  0.182822  0.984587  1
  Y  Y48  1  0.417969  0.585766  0.182782  1
  Y  Y49  1  0.917969  0.914234  0.817218  1
  Y  Y50  1  0.582031  0.414234  0.817218  1
  Y  Y51  1  0.082031  0.085766  0.182782  1
