# generated using pymatgen
data_Nb12Br17F13
_symmetry_space_group_name_H-M   'P 1'
_cell_length_a   13.34075271
_cell_length_b   13.32264959
_cell_length_c   13.29839770
_cell_angle_alpha   43.58147939
_cell_angle_beta   43.37793775
_cell_angle_gamma   43.42303351
_symmetry_Int_Tables_number   1
_chemical_formula_structural   Nb12Br17F13
_chemical_formula_sum   'Nb12 Br17 F13'
_cell_volume   1014.59741948
_cell_formula_units_Z   1
loop_
 _symmetry_equiv_pos_site_id
 _symmetry_equiv_pos_as_xyz
  1  'x, y, z'
loop_
 _atom_site_type_symbol
 _atom_site_label
 _atom_site_symmetry_multiplicity
 _atom_site_fract_x
 _atom_site_fract_y
 _atom_site_fract_z
 _atom_site_occupancy
  Nb  Nb0  1  0.000854  0.882240  0.218155  1
  Nb  Nb1  1  0.217886  0.996971  0.886277  1
  Nb  Nb2  1  0.886039  0.211592  0.001414  1
  Nb  Nb3  1  0.283672  0.615924  0.499439  1
  Nb  Nb4  1  0.499725  0.283957  0.615302  1
  Nb  Nb5  1  0.616635  0.498983  0.282718  1
  Nb  Nb6  1  0.383589  0.501004  0.716621  1
  Nb  Nb7  1  0.500494  0.716049  0.384349  1
  Nb  Nb8  1  0.716268  0.384390  0.500518  1
  Nb  Nb9  1  0.116864  0.782664  0.999714  1
  Nb  Nb10  1  0.783955  0.995674  0.119858  1
  Nb  Nb11  1  0.997546  0.114919  0.789721  1
  Br  Br12  1  0.996918  0.255667  0.502681  1
  Br  Br13  1  0.250046  0.497756  0.002059  1
  Br  Br14  1  0.497879  0.001580  0.250665  1
  Br  Br15  1  0.144359  0.585114  0.270263  1
  Br  Br16  1  0.263999  0.148923  0.588825  1
  Br  Br17  1  0.587985  0.270604  0.140956  1
  Br  Br18  1  0.085476  0.644758  0.770566  1
  Br  Br19  1  0.230278  0.913343  0.356257  1
  Br  Br20  1  0.355089  0.231240  0.913645  1
  Br  Br21  1  0.645061  0.768587  0.085955  1
  Br  Br22  1  0.769950  0.086871  0.643563  1
  Br  Br23  1  0.914681  0.355226  0.229357  1
  Br  Br24  1  0.415912  0.728636  0.854168  1
  Br  Br25  1  0.730435  0.852807  0.417014  1
  Br  Br26  1  0.502362  0.997927  0.749545  1
  Br  Br27  1  0.751800  0.500571  0.993563  1
  Br  Br28  1  0.997739  0.749165  0.503398  1
  F  F29  1  0.100852  0.215299  0.889443  1
  F  F30  1  0.215524  0.889278  0.103951  1
  F  F31  1  0.284697  0.398351  0.609378  1
  F  F32  1  0.398906  0.609031  0.283998  1
  F  F33  1  0.610123  0.284563  0.396994  1
  F  F34  1  0.889660  0.102481  0.215747  1
  F  F35  1  0.108573  0.901518  0.783336  1
  F  F36  1  0.389728  0.715603  0.602762  1
  F  F37  1  0.600976  0.391001  0.715989  1
  F  F38  1  0.715271  0.601940  0.390280  1
  F  F39  1  0.783290  0.111843  0.900173  1
  F  F40  1  0.899568  0.783064  0.108898  1
  F  F41  1  0.877968  0.341384  0.780454  1
