# generated using pymatgen
data_Cs2Bi8Se13
_symmetry_space_group_name_H-M   'P 1'
_cell_length_a   4.22603872
_cell_length_b   14.14728198
_cell_length_c   25.38798044
_cell_angle_alpha   96.97527562
_cell_angle_beta   90.00000000
_cell_angle_gamma   90.00000000
_symmetry_Int_Tables_number   1
_chemical_formula_structural   Cs2Bi8Se13
_chemical_formula_sum   'Cs4 Bi16 Se26'
_cell_volume   1506.63591641
_cell_formula_units_Z   2
loop_
 _symmetry_equiv_pos_site_id
 _symmetry_equiv_pos_as_xyz
  1  'x, y, z'
loop_
 _atom_site_type_symbol
 _atom_site_label
 _atom_site_symmetry_multiplicity
 _atom_site_fract_x
 _atom_site_fract_y
 _atom_site_fract_z
 _atom_site_occupancy
  Cs  Cs0  1  0.250000  0.413871  0.879788  1
  Cs  Cs1  1  0.750000  0.586129  0.120212  1
  Cs  Cs2  1  0.250000  0.725437  0.360592  1
  Cs  Cs3  1  0.750000  0.274563  0.639408  1
  Bi  Bi4  1  0.250000  0.044242  0.931151  1
  Bi  Bi5  1  0.250000  0.889900  0.212347  1
  Bi  Bi6  1  0.750000  0.275011  0.032206  1
  Bi  Bi7  1  0.250000  0.724989  0.967794  1
  Bi  Bi8  1  0.250000  0.052729  0.441321  1
  Bi  Bi9  1  0.250000  0.196143  0.169328  1
  Bi  Bi10  1  0.250000  0.877285  0.691339  1
  Bi  Bi11  1  0.250000  0.427458  0.436826  1
  Bi  Bi12  1  0.250000  0.564607  0.732416  1
  Bi  Bi13  1  0.750000  0.572542  0.563174  1
  Bi  Bi14  1  0.750000  0.110100  0.787653  1
  Bi  Bi15  1  0.750000  0.947271  0.558679  1
  Bi  Bi16  1  0.750000  0.955758  0.068849  1
  Bi  Bi17  1  0.750000  0.803857  0.830672  1
  Bi  Bi18  1  0.750000  0.122715  0.308661  1
  Bi  Bi19  1  0.750000  0.435393  0.267584  1
  Se  Se20  1  0.250000  0.674357  0.854482  1
  Se  Se21  1  0.250000  0.808556  0.583786  1
  Se  Se22  1  0.250000  0.093958  0.551685  1
  Se  Se23  1  0.250000  0.820888  0.087244  1
  Se  Se24  1  0.750000  0.191444  0.416214  1
  Se  Se25  1  0.250000  0.401393  0.021800  1
  Se  Se26  1  0.750000  0.598607  0.978200  1
  Se  Se27  1  0.750000  0.045555  0.181170  1
  Se  Se28  1  0.750000  0.771963  0.234916  1
  Se  Se29  1  0.750000  0.906042  0.448315  1
  Se  Se30  1  0.250000  0.489962  0.627075  1
  Se  Se31  1  0.750000  0.179112  0.912756  1
  Se  Se32  1  0.250000  0.228037  0.765084  1
  Se  Se33  1  0.750000  0.390852  0.512594  1
  Se  Se34  1  0.250000  0.104208  0.048133  1
  Se  Se35  1  0.750000  0.895792  0.951867  1
  Se  Se36  1  0.750000  0.737511  0.720715  1
  Se  Se37  1  0.250000  0.550955  0.240483  1
  Se  Se38  1  0.750000  0.449045  0.759517  1
  Se  Se39  1  0.250000  0.983267  0.319510  1
  Se  Se40  1  0.250000  0.262489  0.279285  1
  Se  Se41  1  0.750000  0.016733  0.680490  1
  Se  Se42  1  0.750000  0.325643  0.145518  1
  Se  Se43  1  0.250000  0.609148  0.487406  1
  Se  Se44  1  0.250000  0.954445  0.818830  1
  Se  Se45  1  0.750000  0.510038  0.372925  1
