# generated using pymatgen
data_Sn16P15
_symmetry_space_group_name_H-M   'P 1'
_cell_length_a   6.01865207
_cell_length_b   5.41320240
_cell_length_c   37.41424947
_cell_angle_alpha   99.97698410
_cell_angle_beta   85.77734686
_cell_angle_gamma   132.21280988
_symmetry_Int_Tables_number   1
_chemical_formula_structural   Sn16P15
_chemical_formula_sum   'Sn16 P15'
_cell_volume   887.64724620
_cell_formula_units_Z   1
loop_
 _symmetry_equiv_pos_site_id
 _symmetry_equiv_pos_as_xyz
  1  'x, y, z'
loop_
 _atom_site_type_symbol
 _atom_site_label
 _atom_site_symmetry_multiplicity
 _atom_site_fract_x
 _atom_site_fract_y
 _atom_site_fract_z
 _atom_site_occupancy
  Sn  Sn0  1  0.287882  0.708177  0.057864  1
  Sn  Sn1  1  0.241413  0.653978  0.161959  1
  Sn  Sn2  1  0.288324  0.649645  0.311574  1
  Sn  Sn3  1  0.397183  0.837199  0.443856  1
  Sn  Sn4  1  0.276814  0.640144  0.524220  1
  Sn  Sn5  1  0.186538  0.618021  0.655916  1
  Sn  Sn6  1  0.341243  0.682558  0.814985  1
  Sn  Sn7  1  0.234281  0.671441  0.955105  1
  Sn  Sn8  1  0.665838  0.393219  0.041784  1
  Sn  Sn9  1  0.592184  0.444667  0.191669  1
  Sn  Sn10  1  0.658531  0.406032  0.305760  1
  Sn  Sn11  1  0.729619  0.588886  0.459818  1
  Sn  Sn12  1  0.488515  0.325280  0.560945  1
  Sn  Sn13  1  0.580115  0.345408  0.665266  1
  Sn  Sn14  1  0.715068  0.419083  0.814032  1
  Sn  Sn15  1  0.612149  0.373849  0.949353  1
  P  P16  1  0.087633  0.980577  0.228731  1
  P  P17  1  0.083915  0.536221  0.378864  1
  P  P18  1  0.622523  0.707234  0.624186  1
  P  P19  1  0.567566  0.435347  0.883163  1
  P  P20  1  0.228118  0.396735  0.744457  1
  P  P21  1  0.734360  0.571815  0.378084  1
  P  P22  1  0.498289  0.562546  0.101664  1
  P  P23  1  0.059085  0.029712  0.286026  1
  P  P24  1  0.822974  0.909081  0.147158  1
  P  P25  1  0.843185  0.866500  0.528669  1
  P  P26  1  0.908743  0.075018  0.407501  1
  P  P27  1  0.484439  0.859893  0.718375  1
  P  P28  1  0.343978  0.607472  0.886026  1
  P  P29  1  0.606587  0.762139  0.000829  1
  P  P30  1  0.579909  0.353121  0.740407  1
