# generated using pymatgen
data_H2PbO2
_symmetry_space_group_name_H-M   'P 1'
_cell_length_a   9.87045115
_cell_length_b   4.50524345
_cell_length_c   7.54860122
_cell_angle_alpha   90.00000000
_cell_angle_beta   90.00000000
_cell_angle_gamma   90.00000000
_symmetry_Int_Tables_number   1
_chemical_formula_structural   H2PbO2
_chemical_formula_sum   'H8 Pb4 O8'
_cell_volume   335.67712766
_cell_formula_units_Z   4
loop_
 _symmetry_equiv_pos_site_id
 _symmetry_equiv_pos_as_xyz
  1  'x, y, z'
loop_
 _atom_site_type_symbol
 _atom_site_label
 _atom_site_symmetry_multiplicity
 _atom_site_fract_x
 _atom_site_fract_y
 _atom_site_fract_z
 _atom_site_occupancy
  H  H0  1  0.967193  0.250000  0.227460  1
  H  H1  1  0.467193  0.250000  0.272540  1
  H  H2  1  0.032807  0.750000  0.772540  1
  H  H3  1  0.532807  0.750000  0.727460  1
  H  H4  1  0.702530  0.250000  0.075921  1
  H  H5  1  0.202530  0.250000  0.424079  1
  H  H6  1  0.297470  0.750000  0.924079  1
  H  H7  1  0.797470  0.750000  0.575921  1
  Pb  Pb8  1  0.724875  0.250000  0.411105  1
  Pb  Pb9  1  0.224875  0.250000  0.088895  1
  Pb  Pb10  1  0.275125  0.750000  0.588895  1
  Pb  Pb11  1  0.775125  0.750000  0.911105  1
  O  O12  1  0.057916  0.250000  0.280266  1
  O  O13  1  0.557916  0.250000  0.219734  1
  O  O14  1  0.942084  0.750000  0.719734  1
  O  O15  1  0.442084  0.750000  0.780266  1
  O  O16  1  0.802582  0.250000  0.062983  1
  O  O17  1  0.302582  0.250000  0.437017  1
  O  O18  1  0.197418  0.750000  0.937017  1
  O  O19  1  0.697418  0.750000  0.562983  1
