# generated using pymatgen
data_Fe4H14O13
_symmetry_space_group_name_H-M   'P 1'
_cell_length_a   6.70451731
_cell_length_b   6.68027704
_cell_length_c   6.76059444
_cell_angle_alpha   110.27968930
_cell_angle_beta   110.28983004
_cell_angle_gamma   108.27372311
_symmetry_Int_Tables_number   1
_chemical_formula_structural   Fe4H14O13
_chemical_formula_sum   'Fe4 H14 O13'
_cell_volume   231.77584296
_cell_formula_units_Z   1
loop_
 _symmetry_equiv_pos_site_id
 _symmetry_equiv_pos_as_xyz
  1  'x, y, z'
loop_
 _atom_site_type_symbol
 _atom_site_label
 _atom_site_symmetry_multiplicity
 _atom_site_fract_x
 _atom_site_fract_y
 _atom_site_fract_z
 _atom_site_occupancy
  Fe  Fe0  1  0.995975  0.996402  0.495225  1
  Fe  Fe1  1  0.010382  0.502979  0.008368  1
  Fe  Fe2  1  0.499766  0.996930  0.998947  1
  Fe  Fe3  1  0.497755  0.499541  0.498785  1
  H  H4  1  0.740411  0.058627  0.688812  1
  H  H5  1  0.266290  0.954817  0.314473  1
  H  H6  1  0.348956  0.797812  0.546303  1
  H  H7  1  0.638766  0.196194  0.459178  1
  H  H8  1  0.559681  0.685189  0.242699  1
  H  H9  1  0.316101  0.549751  0.868199  1
  H  H10  1  0.582015  0.349105  0.914627  1
  H  H11  1  0.064752  0.888672  0.822719  1
  H  H12  1  0.804223  0.758887  0.936596  1
  H  H13  1  0.943576  0.128774  0.180406  1
  H  H14  1  0.203110  0.246159  0.057659  1
  H  H15  1  0.868947  0.480218  0.340092  1
  H  H16  1  0.933730  0.551217  0.609072  1
  H  H17  1  0.152363  0.393780  0.553258  1
  O  O18  1  0.860883  0.187632  0.684695  1
  O  O19  1  0.143979  0.824638  0.316691  1
  O  O20  1  0.489220  0.806900  0.674171  1
  O  O21  1  0.503530  0.190999  0.328824  1
  O  O22  1  0.695614  0.699793  0.377585  1
  O  O23  1  0.313657  0.682947  0.994867  1
  O  O24  1  0.700576  0.314341  0.009717  1
  O  O25  1  0.263936  0.326756  0.611631  1
  O  O26  1  0.193458  0.016276  0.827420  1
  O  O27  1  0.803134  0.624981  0.807949  1
  O  O28  1  0.812564  0.995410  0.168847  1
  O  O29  1  0.192643  0.367655  0.186258  1
  O  O30  1  0.995291  0.516115  0.497203  1
