# generated using pymatgen
data_Ba21(Cd2Sb9)2
_symmetry_space_group_name_H-M   'P 1'
_cell_length_a   13.36795536
_cell_length_b   13.36795581
_cell_length_c   37.83666272
_cell_angle_alpha   90.00000000
_cell_angle_beta   90.00000000
_cell_angle_gamma   92.65293652
_symmetry_Int_Tables_number   1
_chemical_formula_structural   Ba21(Cd2Sb9)2
_chemical_formula_sum   'Ba84 Cd16 Sb72'
_cell_volume   6754.24949407
_cell_formula_units_Z   4
loop_
 _symmetry_equiv_pos_site_id
 _symmetry_equiv_pos_as_xyz
  1  'x, y, z'
loop_
 _atom_site_type_symbol
 _atom_site_label
 _atom_site_symmetry_multiplicity
 _atom_site_fract_x
 _atom_site_fract_y
 _atom_site_fract_z
 _atom_site_occupancy
  Ba  Ba0  1  0.895485  0.104515  0.377817  1
  Ba  Ba1  1  0.767514  0.892671  0.670191  1
  Ba  Ba2  1  0.563534  0.757750  0.322922  1
  Ba  Ba3  1  0.392671  0.267514  0.170191  1
  Ba  Ba4  1  0.063459  0.242024  0.075659  1
  Ba  Ba5  1  0.323068  0.001700  0.531447  1
  Ba  Ba6  1  0.498300  0.176932  0.968553  1
  Ba  Ba7  1  0.936541  0.757976  0.924341  1
  Ba  Ba8  1  0.485484  0.269490  0.277494  1
  Ba  Ba9  1  0.267514  0.392671  0.829809  1
  Ba  Ba10  1  0.104515  0.895485  0.622183  1
  Ba  Ba11  1  0.755642  0.244358  0.542465  1
  Ba  Ba12  1  0.411710  0.939926  0.129098  1
  Ba  Ba13  1  0.924546  0.824401  0.439281  1
  Ba  Ba14  1  0.242250  0.436466  0.322922  1
  Ba  Ba15  1  0.269007  0.730993  0.796102  1
  Ba  Ba16  1  0.007319  0.729803  0.718704  1
  Ba  Ba17  1  0.255642  0.744358  0.957535  1
  Ba  Ba18  1  0.988092  0.773101  0.039078  1
  Ba  Ba19  1  0.604515  0.395485  0.877817  1
  Ba  Ba20  1  0.742024  0.563459  0.575659  1
  Ba  Ba21  1  0.560074  0.088290  0.370902  1
  Ba  Ba22  1  0.730510  0.514516  0.277494  1
  Ba  Ba23  1  0.270197  0.992681  0.718704  1
  Ba  Ba24  1  0.324401  0.424546  0.939281  1
  Ba  Ba25  1  0.063534  0.257750  0.177078  1
  Ba  Ba26  1  0.742250  0.936466  0.177078  1
  Ba  Ba27  1  0.892671  0.767514  0.329809  1
  Ba  Ba28  1  0.436541  0.257976  0.575659  1
  Ba  Ba29  1  0.985484  0.769490  0.222506  1
  Ba  Ba30  1  0.769007  0.230993  0.703898  1
  Ba  Ba31  1  0.936466  0.742250  0.822922  1
  Ba  Ba32  1  0.726899  0.511908  0.460922  1
  Ba  Ba33  1  0.730993  0.269007  0.203898  1
  Ba  Ba34  1  0.770197  0.492681  0.781296  1
  Ba  Ba35  1  0.436466  0.242250  0.677078  1
  Ba  Ba36  1  0.773101  0.988092  0.960922  1
  Ba  Ba37  1  0.607329  0.732486  0.829809  1
  Ba  Ba38  1  0.514516  0.730510  0.722506  1
  Ba  Ba39  1  0.488092  0.273101  0.460922  1
  Ba  Ba40  1  0.257750  0.063534  0.822922  1
  Ba  Ba41  1  0.232486  0.107329  0.329809  1
  Ba  Ba42  1  0.269490  0.485484  0.722506  1
  Ba  Ba43  1  0.998300  0.676932  0.531447  1
  Ba  Ba44  1  0.176932  0.498300  0.031447  1
  Ba  Ba45  1  0.911710  0.439926  0.370902  1
  Ba  Ba46  1  0.563459  0.742024  0.424341  1
  Ba  Ba47  1  0.244358  0.755642  0.457535  1
  Ba  Ba48  1  0.939926  0.411710  0.870902  1
  Ba  Ba49  1  0.823068  0.501700  0.968553  1
  Ba  Ba50  1  0.011908  0.226899  0.960922  1
  Ba  Ba51  1  0.395485  0.604515  0.122183  1
  Ba  Ba52  1  0.744358  0.255642  0.042465  1
  Ba  Ba53  1  0.757976  0.936541  0.075659  1
  Ba  Ba54  1  0.757750  0.563534  0.677078  1
  Ba  Ba55  1  0.175599  0.075454  0.439281  1
  Ba  Ba56  1  0.107329  0.232486  0.670191  1
  Ba  Ba57  1  0.424546  0.324401  0.060719  1
  Ba  Ba58  1  0.732486  0.607329  0.170191  1
  Ba  Ba59  1  0.242024  0.063459  0.924341  1
  Ba  Ba60  1  0.230993  0.769007  0.296102  1
  Ba  Ba61  1  0.014516  0.230510  0.777494  1
  Ba  Ba62  1  0.001700  0.323068  0.468553  1
  Ba  Ba63  1  0.501700  0.823068  0.031447  1
  Ba  Ba64  1  0.273101  0.488092  0.539078  1
  Ba  Ba65  1  0.824401  0.924546  0.560719  1
  Ba  Ba66  1  0.229803  0.507319  0.218704  1
  Ba  Ba67  1  0.439926  0.911710  0.629098  1
  Ba  Ba68  1  0.230510  0.014516  0.222506  1
  Ba  Ba69  1  0.676932  0.998300  0.468553  1
  Ba  Ba70  1  0.729803  0.007319  0.281296  1
  Ba  Ba71  1  0.507319  0.229803  0.781296  1
  Ba  Ba72  1  0.575454  0.675599  0.939281  1
  Ba  Ba73  1  0.075454  0.175599  0.560719  1
  Ba  Ba74  1  0.675599  0.575454  0.060719  1
  Ba  Ba75  1  0.588290  0.060074  0.870902  1
  Ba  Ba76  1  0.226899  0.011908  0.039078  1
  Ba  Ba77  1  0.511908  0.726899  0.539078  1
  Ba  Ba78  1  0.769490  0.985484  0.777494  1
  Ba  Ba79  1  0.492681  0.770197  0.218704  1
  Ba  Ba80  1  0.992681  0.270197  0.281296  1
  Ba  Ba81  1  0.060074  0.588290  0.129098  1
  Ba  Ba82  1  0.088290  0.560074  0.629098  1
  Ba  Ba83  1  0.257976  0.436541  0.424341  1
  Cd  Cd84  1  0.611394  0.152357  0.126928  1
  Cd  Cd85  1  0.347643  0.888606  0.373072  1
  Cd  Cd86  1  0.490375  0.509625  0.354389  1
  Cd  Cd87  1  0.509625  0.490375  0.645611  1
  Cd  Cd88  1  0.009625  0.990375  0.854389  1
  Cd  Cd89  1  0.888606  0.347643  0.626928  1
  Cd  Cd90  1  0.648478  0.351522  0.373071  1
  Cd  Cd91  1  0.148478  0.851522  0.126929  1
  Cd  Cd92  1  0.152357  0.611394  0.873072  1
  Cd  Cd93  1  0.652357  0.111394  0.626928  1
  Cd  Cd94  1  0.851522  0.148478  0.873071  1
  Cd  Cd95  1  0.388606  0.847643  0.873072  1
  Cd  Cd96  1  0.111394  0.652357  0.373072  1
  Cd  Cd97  1  0.847643  0.388606  0.126928  1
  Cd  Cd98  1  0.990375  0.009625  0.145611  1
  Cd  Cd99  1  0.351522  0.648478  0.626929  1
  Sb  Sb100  1  0.379226  0.620774  0.876228  1
  Sb  Sb101  1  0.466553  0.920751  0.942601  1
  Sb  Sb102  1  0.535239  0.071146  0.200929  1
  Sb  Sb103  1  0.257223  0.742777  0.689376  1
  Sb  Sb104  1  0.022451  0.977549  0.288369  1
  Sb  Sb105  1  0.754444  0.754444  0.000000  1
  Sb  Sb106  1  0.254698  0.745302  0.563481  1
  Sb  Sb107  1  0.197361  0.075210  0.130024  1
  Sb  Sb108  1  0.533447  0.079249  0.057399  1
  Sb  Sb109  1  0.420751  0.966553  0.442601  1
  Sb  Sb110  1  0.245556  0.245556  0.000000  1
  Sb  Sb111  1  0.242777  0.757223  0.189376  1
  Sb  Sb112  1  0.594157  0.769837  0.121776  1
  Sb  Sb113  1  0.754698  0.245302  0.936519  1
  Sb  Sb114  1  0.069564  0.930436  0.515937  1
  Sb  Sb115  1  0.736676  0.763324  0.250000  1
  Sb  Sb116  1  0.966553  0.420751  0.557399  1
  Sb  Sb117  1  0.245302  0.754698  0.063481  1
  Sb  Sb118  1  0.120774  0.879226  0.376228  1
  Sb  Sb119  1  0.236676  0.263324  0.250000  1
  Sb  Sb120  1  0.424790  0.302639  0.369976  1
  Sb  Sb121  1  0.571146  0.035239  0.700929  1
  Sb  Sb122  1  0.230163  0.405843  0.121776  1
  Sb  Sb123  1  0.697361  0.575210  0.369976  1
  Sb  Sb124  1  0.075210  0.197361  0.869976  1
  Sb  Sb125  1  0.924790  0.802639  0.130024  1
  Sb  Sb126  1  0.079249  0.533447  0.942601  1
  Sb  Sb127  1  0.035239  0.571146  0.299071  1
  Sb  Sb128  1  0.454840  0.545160  0.470046  1
  Sb  Sb129  1  0.954840  0.045160  0.029954  1
  Sb  Sb130  1  0.769837  0.594157  0.878224  1
  Sb  Sb131  1  0.545160  0.454840  0.529954  1
  Sb  Sb132  1  0.930436  0.069564  0.484063  1
  Sb  Sb133  1  0.159380  0.840620  0.874840  1
  Sb  Sb134  1  0.579249  0.033447  0.557399  1
  Sb  Sb135  1  0.964761  0.428854  0.700929  1
  Sb  Sb136  1  0.939235  0.060765  0.223112  1
  Sb  Sb137  1  0.757223  0.242777  0.810624  1
  Sb  Sb138  1  0.340620  0.659380  0.374840  1
  Sb  Sb139  1  0.840620  0.159380  0.125160  1
  Sb  Sb140  1  0.060765  0.939235  0.776888  1
  Sb  Sb141  1  0.405843  0.230163  0.878224  1
  Sb  Sb142  1  0.905843  0.730163  0.621776  1
  Sb  Sb143  1  0.522451  0.477549  0.211631  1
  Sb  Sb144  1  0.928854  0.464761  0.200929  1
  Sb  Sb145  1  0.620774  0.379226  0.123772  1
  Sb  Sb146  1  0.745302  0.254698  0.436519  1
  Sb  Sb147  1  0.263324  0.236676  0.750000  1
  Sb  Sb148  1  0.254444  0.254444  0.500000  1
  Sb  Sb149  1  0.045160  0.954840  0.970046  1
  Sb  Sb150  1  0.094157  0.269837  0.378224  1
  Sb  Sb151  1  0.430436  0.569564  0.015937  1
  Sb  Sb152  1  0.742777  0.257223  0.310624  1
  Sb  Sb153  1  0.763324  0.736676  0.750000  1
  Sb  Sb154  1  0.071146  0.535239  0.799071  1
  Sb  Sb155  1  0.269837  0.094157  0.621776  1
  Sb  Sb156  1  0.569564  0.430436  0.984063  1
  Sb  Sb157  1  0.560765  0.439235  0.723112  1
  Sb  Sb158  1  0.920751  0.466553  0.057399  1
  Sb  Sb159  1  0.745556  0.745556  0.500000  1
  Sb  Sb160  1  0.977549  0.022451  0.711631  1
  Sb  Sb161  1  0.428854  0.964761  0.299071  1
  Sb  Sb162  1  0.477549  0.522451  0.788369  1
  Sb  Sb163  1  0.302639  0.424790  0.630024  1
  Sb  Sb164  1  0.033447  0.579249  0.442601  1
  Sb  Sb165  1  0.879226  0.120774  0.623772  1
  Sb  Sb166  1  0.659380  0.340620  0.625160  1
  Sb  Sb167  1  0.730163  0.905843  0.378224  1
  Sb  Sb168  1  0.575210  0.697361  0.630024  1
  Sb  Sb169  1  0.464761  0.928854  0.799071  1
  Sb  Sb170  1  0.439235  0.560765  0.276888  1
  Sb  Sb171  1  0.802639  0.924790  0.869976  1
