# generated using pymatgen
data_Y5Mg8Cu5
_symmetry_space_group_name_H-M   'P 1'
_cell_length_a   4.00586183
_cell_length_b   7.41774520
_cell_length_c   26.39054581
_cell_angle_alpha   90.00000000
_cell_angle_beta   90.00000000
_cell_angle_gamma   90.00000000
_symmetry_Int_Tables_number   1
_chemical_formula_structural   Y5Mg8Cu5
_chemical_formula_sum   'Y10 Mg16 Cu10'
_cell_volume   784.18088017
_cell_formula_units_Z   2
loop_
 _symmetry_equiv_pos_site_id
 _symmetry_equiv_pos_as_xyz
  1  'x, y, z'
loop_
 _atom_site_type_symbol
 _atom_site_label
 _atom_site_symmetry_multiplicity
 _atom_site_fract_x
 _atom_site_fract_y
 _atom_site_fract_z
 _atom_site_occupancy
  Y  Y0  1  0.500000  0.427030  0.149979  1
  Y  Y1  1  0.500000  0.572970  0.850021  1
  Y  Y2  1  0.500000  0.801385  0.250000  1
  Y  Y3  1  0.500000  0.924130  0.394363  1
  Y  Y4  1  0.500000  0.075870  0.894363  1
  Y  Y5  1  0.500000  0.198615  0.750000  1
  Y  Y6  1  0.500000  0.075870  0.605637  1
  Y  Y7  1  0.500000  0.924130  0.105637  1
  Y  Y8  1  0.500000  0.572970  0.649979  1
  Y  Y9  1  0.500000  0.427030  0.350021  1
  Mg  Mg10  1  0.000000  0.905562  0.810028  1
  Mg  Mg11  1  0.500000  0.299761  0.023557  1
  Mg  Mg12  1  0.000000  0.597240  0.438713  1
  Mg  Mg13  1  0.000000  0.460904  0.250000  1
  Mg  Mg14  1  0.000000  0.094438  0.310028  1
  Mg  Mg15  1  0.500000  0.700239  0.976443  1
  Mg  Mg16  1  0.000000  0.402760  0.938713  1
  Mg  Mg17  1  0.000000  0.597240  0.061287  1
  Mg  Mg18  1  0.000000  0.000000  0.000000  1
  Mg  Mg19  1  0.500000  0.299761  0.476443  1
  Mg  Mg20  1  0.000000  0.402760  0.561287  1
  Mg  Mg21  1  0.500000  0.700239  0.523557  1
  Mg  Mg22  1  0.000000  0.094438  0.189972  1
  Mg  Mg23  1  0.000000  0.539096  0.750000  1
  Mg  Mg24  1  0.000000  0.000000  0.500000  1
  Mg  Mg25  1  0.000000  0.905562  0.689972  1
  Cu  Cu26  1  0.500000  0.217642  0.250000  1
  Cu  Cu27  1  0.000000  0.216310  0.088831  1
  Cu  Cu28  1  0.000000  0.216310  0.411169  1
  Cu  Cu29  1  0.000000  0.283176  0.832861  1
  Cu  Cu30  1  0.000000  0.783690  0.911169  1
  Cu  Cu31  1  0.500000  0.782358  0.750000  1
  Cu  Cu32  1  0.000000  0.716824  0.167139  1
  Cu  Cu33  1  0.000000  0.783690  0.588831  1
  Cu  Cu34  1  0.000000  0.716824  0.332861  1
  Cu  Cu35  1  0.000000  0.283176  0.667139  1
