# generated using pymatgen
data_AlF3
_symmetry_space_group_name_H-M   'P 1'
_cell_length_a   8.25247315
_cell_length_b   3.45923732
_cell_length_c   5.45061117
_cell_angle_alpha   108.34135941
_cell_angle_beta   145.97279859
_cell_angle_gamma   65.38035463
_symmetry_Int_Tables_number   1
_chemical_formula_structural   AlF3
_chemical_formula_sum   'Al2 F6'
_cell_volume   79.01310296
_cell_formula_units_Z   2
loop_
 _symmetry_equiv_pos_site_id
 _symmetry_equiv_pos_as_xyz
  1  'x, y, z'
loop_
 _atom_site_type_symbol
 _atom_site_label
 _atom_site_symmetry_multiplicity
 _atom_site_fract_x
 _atom_site_fract_y
 _atom_site_fract_z
 _atom_site_occupancy
  Al  Al0  1  0.493672  0.285781  -0.011285  1
  Al  Al1  1  0.871151  0.300011  0.876793  1
  F  F2  1  0.282702  0.197427  0.449270  1
  F  F3  1  0.774983  0.468646  0.086709  1
  F  F4  1  0.902289  0.780878  0.897798  1
  F  F5  1  0.370427  0.847437  0.886536  1
  F  F6  1  0.884364  0.107820  0.537592  1
  F  F7  1  0.463275  0.457728  0.306585  1
