# generated using pymatgen
data_Ba4Ta2TiZnO12
_symmetry_space_group_name_H-M   'P 1'
_cell_length_a   8.20319043
_cell_length_b   8.20319111
_cell_length_c   10.10342293
_cell_angle_alpha   66.04864154
_cell_angle_beta   66.04863943
_cell_angle_gamma   89.99999692
_symmetry_Int_Tables_number   1
_chemical_formula_structural   Ba4Ta2TiZnO12
_chemical_formula_sum   'Ba8 Ta4 Ti2 Zn2 O24'
_cell_volume   556.67072324
_cell_formula_units_Z   2
loop_
 _symmetry_equiv_pos_site_id
 _symmetry_equiv_pos_as_xyz
  1  'x, y, z'
loop_
 _atom_site_type_symbol
 _atom_site_label
 _atom_site_symmetry_multiplicity
 _atom_site_fract_x
 _atom_site_fract_y
 _atom_site_fract_z
 _atom_site_occupancy
  Ba  Ba0  1  0.005760  0.000000  1.000000  1
  Ba  Ba1  1  0.005760  0.500000  1.000000  1
  Ba  Ba2  1  0.494240  0.500000  0.000000  1
  Ba  Ba3  1  0.494240  1.000000  0.000000  1
  Ba  Ba4  1  0.250000  0.244240  0.500000  1
  Ba  Ba5  1  0.250000  0.755760  0.500000  1
  Ba  Ba6  1  0.750000  0.244240  0.500000  1
  Ba  Ba7  1  0.750000  0.755760  0.500000  1
  Ta  Ta8  1  0.123941  0.623941  0.252117  1
  Ta  Ta9  1  0.626059  0.126059  0.247883  1
  Ta  Ta10  1  0.376059  0.376059  0.747883  1
  Ta  Ta11  1  0.873941  0.873941  0.752117  1
  Ti  Ti12  1  0.625000  0.625000  0.250000  1
  Ti  Ti13  1  0.875000  0.375000  0.750000  1
  Zn  Zn14  1  0.125000  0.125000  0.250000  1
  Zn  Zn15  1  0.375000  0.875000  0.750000  1
  O  O16  1  0.259051  0.259051  0.981897  1
  O  O17  1  0.240949  0.740949  0.018103  1
  O  O18  1  0.119733  0.379676  0.260533  1
  O  O19  1  0.119733  0.859791  0.260533  1
  O  O20  1  0.390209  0.130267  0.239467  1
  O  O21  1  0.373028  0.621626  0.256748  1
  O  O22  1  0.126972  0.378374  0.743252  1
  O  O23  1  0.109791  0.869733  0.760533  1
  O  O24  1  0.755364  0.255364  0.989272  1
  O  O25  1  0.744636  0.744636  0.010728  1
  O  O26  1  0.505364  0.505364  0.489272  1
  O  O27  1  0.509051  0.009051  0.481897  1
  O  O28  1  0.628374  0.379777  0.243252  1
  O  O29  1  0.380267  0.140209  0.739467  1
  O  O30  1  0.628374  0.876972  0.243252  1
  O  O31  1  0.380267  0.620324  0.739467  1
  O  O32  1  0.870324  0.130267  0.239467  1
  O  O33  1  0.870223  0.621626  0.256748  1
  O  O34  1  0.629777  0.378374  0.743252  1
  O  O35  1  0.629676  0.869733  0.760533  1
  O  O36  1  0.994636  0.494636  0.510728  1
  O  O37  1  0.990949  0.990949  0.518103  1
  O  O38  1  0.871626  0.123028  0.756748  1
  O  O39  1  0.871626  0.620223  0.756748  1
