# generated using pymatgen
data_Sc39N34
_symmetry_space_group_name_H-M   'P 1'
_cell_length_a   3.22026645
_cell_length_b   3.22026472
_cell_length_c   124.64766019
_cell_angle_alpha   59.74882750
_cell_angle_beta   59.74878945
_cell_angle_gamma   60.00013305
_symmetry_Int_Tables_number   1
_chemical_formula_structural   Sc39N34
_chemical_formula_sum   'Sc39 N34'
_cell_volume   910.52853133
_cell_formula_units_Z   1
loop_
 _symmetry_equiv_pos_site_id
 _symmetry_equiv_pos_as_xyz
  1  'x, y, z'
loop_
 _atom_site_type_symbol
 _atom_site_label
 _atom_site_symmetry_multiplicity
 _atom_site_fract_x
 _atom_site_fract_y
 _atom_site_fract_z
 _atom_site_occupancy
  Sc  Sc0  1  0.484272  0.484271  0.014031  1
  Sc  Sc1  1  0.499945  0.499945  0.038466  1
  Sc  Sc2  1  0.515230  0.515230  0.062932  1
  Sc  Sc3  1  0.488273  0.488272  0.090645  1
  Sc  Sc4  1  0.510451  0.510451  0.114582  1
  Sc  Sc5  1  0.489543  0.489544  0.141830  1
  Sc  Sc6  1  0.511794  0.511794  0.165760  1
  Sc  Sc7  1  0.484766  0.484765  0.193480  1
  Sc  Sc8  1  0.500184  0.500184  0.217934  1
  Sc  Sc9  1  0.516098  0.516097  0.242352  1
  Sc  Sc10  1  0.484014  0.484014  0.270460  1
  Sc  Sc11  1  0.491152  0.491153  0.295552  1
  Sc  Sc12  1  0.495827  0.495826  0.320835  1
  Sc  Sc13  1  0.497882  0.497881  0.346317  1
  Sc  Sc14  1  0.498742  0.498743  0.371892  1
  Sc  Sc15  1  0.499293  0.499292  0.397491  1
  Sc  Sc16  1  0.499771  0.499772  0.423094  1
  Sc  Sc17  1  0.500118  0.500117  0.448709  1
  Sc  Sc18  1  0.500153  0.500153  0.474346  1
  Sc  Sc19  1  0.499983  0.499982  0.500002  1
  Sc  Sc20  1  0.499879  0.499880  0.525652  1
  Sc  Sc21  1  0.499934  0.499934  0.551287  1
  Sc  Sc22  1  0.500075  0.500075  0.576917  1
  Sc  Sc23  1  0.500150  0.500149  0.602552  1
  Sc  Sc24  1  0.500144  0.500143  0.628194  1
  Sc  Sc25  1  0.500112  0.500112  0.653838  1
  Sc  Sc26  1  0.500041  0.500041  0.679484  1
  Sc  Sc27  1  0.499999  0.499999  0.705129  1
  Sc  Sc28  1  0.499965  0.499966  0.730773  1
  Sc  Sc29  1  0.499884  0.499884  0.756420  1
  Sc  Sc30  1  0.499821  0.499821  0.782066  1
  Sc  Sc31  1  0.499938  0.499938  0.807696  1
  Sc  Sc32  1  0.500266  0.500265  0.833313  1
  Sc  Sc33  1  0.500595  0.500595  0.858929  1
  Sc  Sc34  1  0.501045  0.501045  0.884534  1
  Sc  Sc35  1  0.502048  0.502048  0.910098  1
  Sc  Sc36  1  0.504291  0.504292  0.935565  1
  Sc  Sc37  1  0.509031  0.509031  0.960843  1
  Sc  Sc38  1  0.516235  0.516236  0.985930  1
  N  N39  1  0.006172  0.006171  0.025167  1
  N  N40  1  0.994073  0.994073  0.051739  1
  N  N41  1  0.999737  0.999737  0.102584  1
  N  N42  1  0.000326  0.000326  0.153821  1
  N  N43  1  0.005958  0.005958  0.204670  1
  N  N44  1  0.993927  0.993927  0.231236  1
  N  N45  1  0.011016  0.011016  0.281203  1
  N  N46  1  0.003002  0.003003  0.333102  1
  N  N47  1  0.005902  0.005903  0.307238  1
  N  N48  1  0.001034  0.001033  0.358895  1
  N  N49  1  -0.000034  -0.000033  0.384618  1
  N  N50  1  -0.000377  -0.000376  0.410285  1
  N  N51  1  -0.000186  -0.000187  0.435911  1
  N  N52  1  0.000119  0.000118  0.461529  1
  N  N53  1  0.000215  0.000215  0.487163  1
  N  N54  1  0.000211  0.000211  0.512805  1
  N  N55  1  0.000241  0.000240  0.538444  1
  N  N56  1  0.000254  0.000253  0.564084  1
  N  N57  1  0.000051  0.000051  0.589740  1
  N  N58  1  0.999734  0.999736  0.615405  1
  N  N59  1  0.999563  0.999562  0.641060  1
  N  N60  1  0.999541  0.999541  0.666702  1
  N  N61  1  0.999616  0.999616  0.692337  1
  N  N62  1  -0.000201  -0.000200  0.717964  1
  N  N63  1  -0.000013  -0.000013  0.743591  1
  N  N64  1  0.000053  0.000053  0.769227  1
  N  N65  1  0.000077  0.000078  0.794866  1
  N  N66  1  0.000140  0.000140  0.820502  1
  N  N67  1  0.000019  0.000020  0.846153  1
  N  N68  1  0.999457  0.999457  0.871837  1
  N  N69  1  0.998434  0.998433  0.897556  1
  N  N70  1  0.996998  0.996996  0.923308  1
  N  N71  1  0.994536  0.994535  0.949138  1
  N  N72  1  0.989464  0.989466  0.975169  1
