# generated using pymatgen
data_CoH9C6(S2O)3
_symmetry_space_group_name_H-M   'P 1'
_cell_length_a   9.66284333
_cell_length_b   11.54872908
_cell_length_c   13.63063593
_cell_angle_alpha   90.00000000
_cell_angle_beta   90.00000000
_cell_angle_gamma   106.29890279
_symmetry_Int_Tables_number   1
_chemical_formula_structural   CoH9C6(S2O)3
_chemical_formula_sum   'Co4 H36 C24 S24 O12'
_cell_volume   1459.95954431
_cell_formula_units_Z   4
loop_
 _symmetry_equiv_pos_site_id
 _symmetry_equiv_pos_as_xyz
  1  'x, y, z'
loop_
 _atom_site_type_symbol
 _atom_site_label
 _atom_site_symmetry_multiplicity
 _atom_site_fract_x
 _atom_site_fract_y
 _atom_site_fract_z
 _atom_site_occupancy
  Co  Co0  1  0.324949  0.734117  0.509702  1
  Co  Co1  1  0.675051  0.265883  0.490299  1
  Co  Co2  1  0.824949  0.234117  0.990298  1
  Co  Co3  1  0.175051  0.765883  0.009702  1
  H  H4  1  0.633200  0.719855  0.869625  1
  H  H5  1  0.039115  0.422842  0.305307  1
  H  H6  1  0.366800  0.280145  0.130375  1
  H  H7  1  0.802736  0.545922  0.771712  1
  H  H8  1  0.266992  0.513201  0.825110  1
  H  H9  1  0.194738  0.376966  0.342815  1
  H  H10  1  0.656702  0.582270  0.249961  1
  H  H11  1  0.156702  0.082270  0.250039  1
  H  H12  1  0.574938  0.527295  0.134926  1
  H  H13  1  0.843298  0.917730  0.749961  1
  H  H14  1  0.766992  0.013201  0.674890  1
  H  H15  1  0.343298  0.417730  0.750039  1
  H  H16  1  0.866800  0.780145  0.369625  1
  H  H17  1  0.743069  0.803722  0.461417  1
  H  H18  1  0.460885  0.077158  0.805307  1
  H  H19  1  0.805262  0.623034  0.657185  1
  H  H20  1  0.756931  0.696278  0.961417  1
  H  H21  1  0.925062  0.972705  0.634926  1
  H  H22  1  0.703191  0.833244  0.961811  1
  H  H23  1  0.296809  0.166756  0.038189  1
  H  H24  1  0.694738  0.876966  0.157185  1
  H  H25  1  0.733008  0.486799  0.174890  1
  H  H26  1  0.960885  0.577158  0.694693  1
  H  H27  1  0.302736  0.045922  0.728288  1
  H  H28  1  0.133200  0.219855  0.630375  1
  H  H29  1  0.305262  0.123034  0.842815  1
  H  H30  1  0.203191  0.333244  0.538189  1
  H  H31  1  0.197264  0.454078  0.228288  1
  H  H32  1  0.243069  0.303722  0.038583  1
  H  H33  1  0.233008  0.986799  0.325110  1
  H  H34  1  0.539115  0.922842  0.194693  1
  H  H35  1  0.256931  0.196278  0.538583  1
  H  H36  1  0.074938  0.027295  0.365074  1
  H  H37  1  0.425062  0.472705  0.865074  1
  H  H38  1  0.796809  0.666756  0.461811  1
  H  H39  1  0.697264  0.954078  0.271712  1
  C  C40  1  0.870316  0.609532  0.719500  1
  C  C41  1  0.569621  0.292074  0.992121  1
  C  C42  1  0.087335  0.857291  0.176262  1
  C  C43  1  0.169186  0.236179  0.554111  1
  C  C44  1  0.133538  0.006752  0.301850  1
  C  C45  1  0.669186  0.736179  0.945889  1
  C  C46  1  0.633538  0.506752  0.198150  1
  C  C47  1  0.491906  0.763583  0.344429  1
  C  C48  1  0.508094  0.236417  0.655571  1
  C  C49  1  0.912665  0.142709  0.823738  1
  C  C50  1  0.830814  0.763821  0.445889  1
  C  C51  1  0.412665  0.642709  0.676262  1
  C  C52  1  0.366462  0.493248  0.801850  1
  C  C53  1  0.629684  0.890468  0.219500  1
  C  C54  1  0.430379  0.707926  0.007879  1
  C  C55  1  0.069621  0.792074  0.507879  1
  C  C56  1  0.370316  0.109532  0.780500  1
  C  C57  1  0.991906  0.263583  0.155571  1
  C  C58  1  0.008094  0.736417  0.844429  1
  C  C59  1  0.866462  0.993248  0.698150  1
  C  C60  1  0.129684  0.390468  0.280500  1
  C  C61  1  0.930379  0.207926  0.492121  1
  C  C62  1  0.330814  0.263821  0.054111  1
  C  C63  1  0.587335  0.357291  0.323738  1
  S  S64  1  0.944094  0.377028  0.099188  1
  S  S65  1  0.508888  0.770884  0.620484  1
  S  S66  1  0.291761  0.644032  0.083800  1
  S  S67  1  0.444094  0.877028  0.400812  1
  S  S68  1  0.754008  0.079977  0.881187  1
  S  S69  1  0.745992  0.420023  0.381187  1
  S  S70  1  0.491112  0.229116  0.379516  1
  S  S71  1  0.555906  0.122972  0.599188  1
  S  S72  1  0.892717  0.311160  0.567798  1
  S  S73  1  0.991112  0.729116  0.120484  1
  S  S74  1  0.708239  0.355968  0.916200  1
  S  S75  1  0.425623  0.629870  0.402611  1
  S  S76  1  0.925623  0.129870  0.097389  1
  S  S77  1  0.008888  0.270884  0.879516  1
  S  S78  1  0.245992  0.920023  0.118813  1
  S  S79  1  0.791761  0.144032  0.416200  1
  S  S80  1  0.607283  0.188840  0.067798  1
  S  S81  1  0.208239  0.855968  0.583800  1
  S  S82  1  0.055906  0.622972  0.900812  1
  S  S83  1  0.074377  0.870130  0.902611  1
  S  S84  1  0.392717  0.811160  0.932202  1
  S  S85  1  0.107283  0.688840  0.432202  1
  S  S86  1  0.574377  0.370130  0.597389  1
  S  S87  1  0.254008  0.579977  0.618813  1
  O  O88  1  0.447791  0.324599  0.988657  1
  O  O89  1  0.074855  0.272338  0.234783  1
  O  O90  1  0.574855  0.772338  0.265217  1
  O  O91  1  0.538434  0.399626  0.244179  1
  O  O92  1  0.925145  0.727662  0.765217  1
  O  O93  1  0.052209  0.175401  0.488657  1
  O  O94  1  0.552209  0.675401  0.011343  1
  O  O95  1  0.425145  0.227662  0.734783  1
  O  O96  1  0.038434  0.899626  0.255821  1
  O  O97  1  0.947791  0.824599  0.511343  1
  O  O98  1  0.461566  0.600374  0.755821  1
  O  O99  1  0.961566  0.100374  0.744179  1
