# generated using pymatgen
data_Na2Al2Si3(HO3)4
_symmetry_space_group_name_H-M   'P 1'
_cell_length_a   8.72228086
_cell_length_b   8.79937453
_cell_length_c   16.05827210
_cell_angle_alpha   86.70780223
_cell_angle_beta   78.74012498
_cell_angle_gamma   64.09072791
_symmetry_Int_Tables_number   1
_chemical_formula_structural   Na2Al2Si3(HO3)4
_chemical_formula_sum   'Na8 Al8 Si12 H16 O48'
_cell_volume   1086.71961477
_cell_formula_units_Z   4
loop_
 _symmetry_equiv_pos_site_id
 _symmetry_equiv_pos_as_xyz
  1  'x, y, z'
loop_
 _atom_site_type_symbol
 _atom_site_label
 _atom_site_symmetry_multiplicity
 _atom_site_fract_x
 _atom_site_fract_y
 _atom_site_fract_z
 _atom_site_occupancy
  Na  Na0  1  0.391522  0.528670  0.153899  1
  Na  Na1  1  0.338035  0.020246  0.174468  1
  Na  Na2  1  0.622461  0.034981  0.265696  1
  Na  Na3  1  0.427603  0.638472  0.535525  1
  Na  Na4  1  0.077857  0.179671  0.698738  1
  Na  Na5  1  0.547154  0.044887  0.701480  1
  Na  Na6  1  0.803684  0.520504  0.505280  1
  Na  Na7  1  0.967186  0.515533  0.949650  1
  Al  Al8  1  0.722196  0.613836  0.171672  1
  Al  Al9  1  0.046741  0.698640  0.439995  1
  Al  Al10  1  0.324062  0.347668  0.351956  1
  Al  Al11  1  0.532439  0.683538  0.918262  1
  Al  Al12  1  0.138191  0.824302  0.965350  1
  Al  Al13  1  0.310269  0.524378  0.835985  1
  Al  Al14  1  0.567767  0.214877  0.499598  1
  Al  Al15  1  0.527113  0.322481  0.950125  1
  Si  Si16  1  0.951216  0.945819  0.137093  1
  Si  Si17  1  0.093505  0.945871  0.549266  1
  Si  Si18  1  0.755464  0.042407  0.041840  1
  Si  Si19  1  0.424142  0.813030  0.329206  1
  Si  Si20  1  0.352105  0.867767  0.809778  1
  Si  Si21  1  0.728910  0.624687  0.716397  1
  Si  Si22  1  0.809646  0.150626  0.576315  1
  Si  Si23  1  0.048154  0.091316  0.361485  1
  Si  Si24  1  0.917099  0.257636  0.253071  1
  Si  Si25  1  0.093788  0.367977  0.111716  1
  Si  Si26  1  0.687570  0.306694  0.765845  1
  Si  Si27  1  0.160367  0.385338  0.545759  1
  H  H28  1  0.077080  0.244157  0.058922  1
  H  H29  1  0.254582  -0.037404  0.553162  1
  H  H30  1  0.894347  0.635593  0.711561  1
  H  H31  1  0.614706  0.790569  0.418293  1
  H  H32  1  0.929939  0.032506  0.414986  1
  H  H33  1  0.084420  0.634166  0.275318  1
  H  H34  1  0.447364  0.389318  0.665729  1
  H  H35  1  0.624158  0.852371  0.058061  1
  H  H36  1  0.402743  0.653522  0.327538  1
  H  H37  1  0.087028  0.179667  0.424965  1
  H  H38  1  0.127018  0.465128  0.769827  1
  H  H39  1  0.866142  0.043531  0.899828  1
  H  H40  1  0.212109  0.733249  0.712442  1
  H  H41  1  0.569402  0.393489  0.271369  1
  H  H42  1  0.143834  0.647199  0.944747  1
  H  H43  1  0.259569  0.152931  0.927223  1
  O  O44  1  0.486781  0.402438  0.749599  1
  O  O45  1  0.051185  0.279176  0.567029  1
  O  O46  1  0.296511  0.344986  0.102347  1
  O  O47  1  0.135380  0.865822  0.071158  1
  O  O48  1  0.143652  0.546626  0.355727  1
  O  O49  1  0.561753  0.794539  0.232515  1
  O  O50  1  0.090719  0.664287  0.211126  1
  O  O51  1  0.489278  0.344619  0.267634  1
  O  O52  1  0.407326  0.006577  0.368517  1
  O  O53  1  0.331690  0.450157  0.032284  1
  O  O54  1  0.030113  0.576207  0.528311  1
  O  O55  1  0.661408  0.240903  0.027212  1
  O  O56  1  0.236188  0.268197  0.942630  1
  O  O57  1  0.253112  0.357057  0.632830  1
  O  O58  1  0.323983  0.155672  0.315089  1
  O  O59  1  0.159919  0.802220  0.472343  1
  O  O60  1  0.608876  -0.029727  0.045743  1
  O  O61  1  0.653394  0.111158  0.395257  1
  O  O62  1  0.383475  0.285008  0.887780  1
  O  O63  1  0.263152  0.744285  0.800025  1
  O  O64  1  0.916648  0.968876  0.948050  1
  O  O65  1  0.198478  0.711370  0.654021  1
  O  O66  1  0.347177  0.323047  0.467383  1
  O  O67  1  0.323033  0.873567  0.920169  1
  O  O68  1  0.413506  0.383631  0.606301  1
  O  O69  1  0.587450  0.681122  0.084015  1
  O  O70  1  0.930198  0.548975  0.103753  1
  O  O71  1  0.112142  0.529456  0.821117  1
  O  O72  1  0.710214  0.315478  0.516649  1
  O  O73  1  0.296696  0.042682  0.767170  1
  O  O74  1  0.751893  0.435626  0.237441  1
  O  O75  1  0.675233  0.063421  0.572764  1
  O  O76  1  0.709704  0.205193  0.855119  1
  O  O77  1  0.784654  0.935689  0.367896  1
  O  O78  1  0.212988  0.930457  0.302786  1
  O  O79  1  0.552383  0.725789  0.407077  1
  O  O80  1  0.089347  0.286800  0.206100  1
  O  O81  1  0.473058  0.525977  0.902791  1
  O  O82  1  0.652046  0.766430  0.636517  1
  O  O83  1  0.815441  0.817536  0.435571  1
  O  O84  1  0.912322  0.109773  0.193110  1
  O  O85  1  0.606145  0.612966  0.647472  1
  O  O86  1  0.575564  0.751957  0.806906  1
  O  O87  1  0.673433  0.628797  0.992048  1
  O  O88  1  -0.080657  0.801533  0.202215  1
  O  O89  1  0.780790  0.435902  0.764044  1
  O  O90  1  0.792564  0.184521  0.680770  1
  O  O91  1  0.043766  0.871381  0.646167  1
