# generated using pymatgen
data_Cs7Fe4F15
_symmetry_space_group_name_H-M   'P 1'
_cell_length_a   7.96583591
_cell_length_b   11.30437483
_cell_length_c   12.00457332
_cell_angle_alpha   90.00000000
_cell_angle_beta   91.69233434
_cell_angle_gamma   90.00000000
_symmetry_Int_Tables_number   1
_chemical_formula_structural   Cs7Fe4F15
_chemical_formula_sum   'Cs14 Fe8 F30'
_cell_volume   1080.52585250
_cell_formula_units_Z   2
loop_
 _symmetry_equiv_pos_site_id
 _symmetry_equiv_pos_as_xyz
  1  'x, y, z'
loop_
 _atom_site_type_symbol
 _atom_site_label
 _atom_site_symmetry_multiplicity
 _atom_site_fract_x
 _atom_site_fract_y
 _atom_site_fract_z
 _atom_site_occupancy
  Cs  Cs0  1  0.501734  0.681179  0.469910  1
  Cs  Cs1  1  0.156681  0.346955  0.803129  1
  Cs  Cs2  1  0.498266  0.181179  0.030090  1
  Cs  Cs3  1  0.327836  0.002147  0.666113  1
  Cs  Cs4  1  0.000000  0.000000  0.000000  1
  Cs  Cs5  1  0.843319  0.846955  0.696871  1
  Cs  Cs6  1  0.327836  0.497853  0.166113  1
  Cs  Cs7  1  0.672164  0.502147  0.833887  1
  Cs  Cs8  1  0.498266  0.318821  0.530090  1
  Cs  Cs9  1  0.501734  0.818821  0.969910  1
  Cs  Cs10  1  0.000000  0.500000  0.500000  1
  Cs  Cs11  1  0.156681  0.153045  0.303129  1
  Cs  Cs12  1  0.672164  0.997853  0.333887  1
  Cs  Cs13  1  0.843319  0.653045  0.196871  1
  Fe  Fe14  1  0.263654  0.827901  0.225280  1
  Fe  Fe15  1  0.077759  0.662563  0.928337  1
  Fe  Fe16  1  0.736346  0.172099  0.774720  1
  Fe  Fe17  1  0.922241  0.162563  0.571663  1
  Fe  Fe18  1  0.077759  0.837437  0.428337  1
  Fe  Fe19  1  0.736346  0.327901  0.274720  1
  Fe  Fe20  1  0.263654  0.672099  0.725280  1
  Fe  Fe21  1  0.922241  0.337437  0.071663  1
  F  F22  1  0.671146  0.023401  0.859992  1
  F  F23  1  0.021202  0.600541  0.756211  1
  F  F24  1  0.173475  0.765993  0.581360  1
  F  F25  1  0.173475  0.734007  0.081360  1
  F  F26  1  0.494384  0.749591  0.721750  1
  F  F27  1  0.821687  0.312015  0.667428  1
  F  F28  1  0.505616  0.249591  0.778250  1
  F  F29  1  0.178313  0.687985  0.332572  1
  F  F30  1  0.687242  0.408531  0.105044  1
  F  F31  1  0.826525  0.234007  0.418640  1
  F  F32  1  0.494384  0.750409  0.221750  1
  F  F33  1  0.978798  0.100541  0.743789  1
  F  F34  1  0.821687  0.187985  0.167428  1
  F  F35  1  0.687242  0.091469  0.605044  1
  F  F36  1  0.147843  0.262950  0.056926  1
  F  F37  1  0.852157  0.737050  0.943074  1
  F  F38  1  0.328854  0.523401  0.640008  1
  F  F39  1  0.328854  0.976599  0.140008  1
  F  F40  1  0.312758  0.908531  0.394956  1
  F  F41  1  0.147843  0.237050  0.556926  1
  F  F42  1  0.505616  0.250409  0.278250  1
  F  F43  1  0.021202  0.899459  0.256211  1
  F  F44  1  0.826525  0.265993  0.918640  1
  F  F45  1  0.852157  0.762950  0.443074  1
  F  F46  1  0.978798  0.399459  0.243789  1
  F  F47  1  0.178313  0.812015  0.832572  1
  F  F48  1  0.671146  0.476599  0.359992  1
  F  F49  1  0.312758  0.591469  0.894956  1
  F  F50  1  0.000000  0.000000  0.500000  1
  F  F51  1  0.000000  0.500000  0.000000  1
