# generated using pymatgen
data_Sb2Mo10O31
_symmetry_space_group_name_H-M   'P 1'
_cell_length_a   7.40808002
_cell_length_b   8.19436415
_cell_length_c   20.43066705
_cell_angle_alpha   89.99921398
_cell_angle_beta   90.00000000
_cell_angle_gamma   90.00000000
_symmetry_Int_Tables_number   1
_chemical_formula_structural   Sb2Mo10O31
_chemical_formula_sum   'Sb4 Mo20 O62'
_cell_volume   1240.23353690
_cell_formula_units_Z   2
loop_
 _symmetry_equiv_pos_site_id
 _symmetry_equiv_pos_as_xyz
  1  'x, y, z'
loop_
 _atom_site_type_symbol
 _atom_site_label
 _atom_site_symmetry_multiplicity
 _atom_site_fract_x
 _atom_site_fract_y
 _atom_site_fract_z
 _atom_site_occupancy
  Sb  Sb0  1  0.679288  0.728373  0.749968  1
  Sb  Sb1  1  0.672318  0.260031  0.750034  1
  Sb  Sb2  1  0.672318  0.739969  0.249966  1
  Sb  Sb3  1  0.679288  0.271627  0.250032  1
  Mo  Mo4  1  0.995532  0.206039  0.589339  1
  Mo  Mo5  1  0.003860  0.706107  0.589644  1
  Mo  Mo6  1  0.498083  0.710774  0.088594  1
  Mo  Mo7  1  0.223637  0.293661  0.750008  1
  Mo  Mo8  1  0.003905  0.706111  0.910339  1
  Mo  Mo9  1  0.995483  0.206041  0.910684  1
  Mo  Mo10  1  0.003860  0.293893  0.410356  1
  Mo  Mo11  1  0.003905  0.293889  0.089661  1
  Mo  Mo12  1  0.231927  0.793684  0.750003  1
  Mo  Mo13  1  0.506241  0.788735  0.910249  1
  Mo  Mo14  1  0.506218  0.211287  0.410249  1
  Mo  Mo15  1  0.498082  0.289237  0.588584  1
  Mo  Mo16  1  0.995532  0.793961  0.410661  1
  Mo  Mo17  1  0.498082  0.710763  0.411416  1
  Mo  Mo18  1  0.231927  0.206316  0.249997  1
  Mo  Mo19  1  0.506241  0.211265  0.089751  1
  Mo  Mo20  1  0.995483  0.793959  0.089316  1
  Mo  Mo21  1  0.498083  0.289226  0.911406  1
  Mo  Mo22  1  0.506218  0.788713  0.589751  1
  Mo  Mo23  1  0.223637  0.706339  0.249992  1
  O  O24  1  0.739459  0.262443  0.620677  1
  O  O25  1  0.932298  0.741996  0.000157  1
  O  O26  1  0.451587  0.745333  0.811269  1
  O  O27  1  0.070639  0.237725  0.316128  1
  O  O28  1  0.742486  0.727811  0.879494  1
  O  O29  1  0.739409  0.737539  0.120709  1
  O  O30  1  0.258443  0.230118  0.573743  1
  O  O31  1  0.973753  0.994209  0.591960  1
  O  O32  1  0.228488  0.507024  0.750002  1
  O  O33  1  0.257101  0.993811  0.250001  1
  O  O34  1  0.019496  0.505407  0.406699  1
  O  O35  1  0.973753  0.005791  0.408040  1
  O  O36  1  0.522410  0.999845  0.404611  1
  O  O37  1  0.973759  0.994247  0.908044  1
  O  O38  1  0.973759  0.005753  0.091956  1
  O  O39  1  0.259906  0.231179  0.073711  1
  O  O40  1  0.446516  0.734608  0.188555  1
  O  O41  1  0.742450  0.727833  0.620540  1
  O  O42  1  0.715576  0.505893  0.249999  1
  O  O43  1  0.451558  0.745338  0.688706  1
  O  O44  1  0.019501  0.505448  0.093308  1
  O  O45  1  0.259889  0.231149  0.426281  1
  O  O46  1  0.739409  0.262461  0.879291  1
  O  O47  1  0.070676  0.762271  0.816137  1
  O  O48  1  0.066445  0.752301  0.315889  1
  O  O49  1  0.522410  0.000155  0.595389  1
  O  O50  1  0.259906  0.768821  0.926289  1
  O  O51  1  0.479401  0.499370  0.086228  1
  O  O52  1  0.258443  0.769882  0.426257  1
  O  O53  1  0.228488  0.492976  0.249998  1
  O  O54  1  0.932298  0.258004  0.999843  1
  O  O55  1  0.451558  0.254662  0.311294  1
  O  O56  1  0.446543  0.265382  0.688584  1
  O  O57  1  0.446543  0.734618  0.311416  1
  O  O58  1  0.932295  0.742020  0.499846  1
  O  O59  1  0.019496  0.494593  0.593301  1
  O  O60  1  0.566055  0.244775  0.500029  1
  O  O61  1  0.479401  0.500630  0.913772  1
  O  O62  1  0.066445  0.247699  0.684111  1
  O  O63  1  0.479404  0.499370  0.413770  1
  O  O64  1  0.019501  0.494552  0.906692  1
  O  O65  1  0.066411  0.752306  0.184117  1
  O  O66  1  0.259889  0.768851  0.573719  1
  O  O67  1  0.070639  0.762275  0.683872  1
  O  O68  1  0.742450  0.272167  0.379460  1
  O  O69  1  0.258417  0.769853  0.073743  1
  O  O70  1  0.522397  0.999845  0.095385  1
  O  O71  1  0.257101  0.006189  0.749999  1
  O  O72  1  0.715576  0.494107  0.750001  1
  O  O73  1  0.066411  0.247694  0.815883  1
  O  O74  1  0.479404  0.500630  0.586230  1
  O  O75  1  0.566059  0.244844  0.999953  1
  O  O76  1  0.446516  0.265392  0.811445  1
  O  O77  1  0.566059  0.755156  0.000047  1
  O  O78  1  0.739459  0.737557  0.379323  1
  O  O79  1  0.932295  0.257980  0.500154  1
  O  O80  1  0.258417  0.230147  0.926257  1
  O  O81  1  0.742486  0.272189  0.120506  1
  O  O82  1  0.566055  0.755225  0.499971  1
  O  O83  1  0.451587  0.254667  0.188731  1
  O  O84  1  0.070676  0.237729  0.183863  1
  O  O85  1  0.522397  0.000155  0.904615  1
