# generated using pymatgen
data_Ba(Ge3Pt)4
_symmetry_space_group_name_H-M   'P 1'
_cell_length_a   7.64508407
_cell_length_b   7.64508433
_cell_length_c   7.64508420
_cell_angle_alpha   109.47121757
_cell_angle_beta   109.47121820
_cell_angle_gamma   109.47122624
_symmetry_Int_Tables_number   1
_chemical_formula_structural   Ba(Ge3Pt)4
_chemical_formula_sum   'Ba1 Ge12 Pt4'
_cell_volume   343.97345383
_cell_formula_units_Z   1
loop_
 _symmetry_equiv_pos_site_id
 _symmetry_equiv_pos_as_xyz
  1  'x, y, z'
loop_
 _atom_site_type_symbol
 _atom_site_label
 _atom_site_symmetry_multiplicity
 _atom_site_fract_x
 _atom_site_fract_y
 _atom_site_fract_z
 _atom_site_occupancy
  Ba  Ba0  1  0.000000  0.000000  0.000000  1
  Ge  Ge1  1  0.643286  0.847192  0.490477  1
  Ge  Ge2  1  0.796094  0.643286  0.152808  1
  Ge  Ge3  1  0.152808  0.509523  0.356714  1
  Ge  Ge4  1  0.643286  0.152808  0.796094  1
  Ge  Ge5  1  0.509523  0.356714  0.152808  1
  Ge  Ge6  1  0.152808  0.796094  0.643286  1
  Ge  Ge7  1  0.356714  0.152808  0.509523  1
  Ge  Ge8  1  0.847192  0.203906  0.356714  1
  Ge  Ge9  1  0.356714  0.847192  0.203906  1
  Ge  Ge10  1  0.203906  0.356714  0.847192  1
  Ge  Ge11  1  0.490477  0.643286  0.847192  1
  Ge  Ge12  1  0.847192  0.490477  0.643286  1
  Pt  Pt13  1  0.500000  0.500000  0.500000  1
  Pt  Pt14  1  0.000000  0.000000  0.500000  1
  Pt  Pt15  1  0.000000  0.500000  0.000000  1
  Pt  Pt16  1  0.500000  0.000000  0.000000  1
