# generated using pymatgen
data_Ba5SrLa2Fe4O15
_symmetry_space_group_name_H-M   'P 1'
_cell_length_a   11.95786113
_cell_length_b   11.95786093
_cell_length_c   14.31294877
_cell_angle_alpha   89.73837360
_cell_angle_beta   90.26162642
_cell_angle_gamma   120.06004066
_symmetry_Int_Tables_number   1
_chemical_formula_structural   Ba5SrLa2Fe4O15
_chemical_formula_sum   'Ba20 Sr4 La8 Fe16 O60'
_cell_volume   1771.32253890
_cell_formula_units_Z   4
loop_
 _symmetry_equiv_pos_site_id
 _symmetry_equiv_pos_as_xyz
  1  'x, y, z'
loop_
 _atom_site_type_symbol
 _atom_site_label
 _atom_site_symmetry_multiplicity
 _atom_site_fract_x
 _atom_site_fract_y
 _atom_site_fract_z
 _atom_site_occupancy
  Ba  Ba0  1  0.172522  0.824655  0.082078  1
  Ba  Ba1  1  0.175345  0.827478  0.582078  1
  Ba  Ba2  1  0.000817  0.998248  0.995417  1
  Ba  Ba3  1  0.000142  0.001355  0.245628  1
  Ba  Ba4  1  0.001752  0.999183  0.495417  1
  Ba  Ba5  1  0.998645  0.999858  0.745628  1
  Ba  Ba6  1  0.175236  0.347431  0.082561  1
  Ba  Ba7  1  0.336361  0.666356  0.242561  1
  Ba  Ba8  1  0.176963  0.347663  0.585777  1
  Ba  Ba9  1  0.333644  0.663639  0.742561  1
  Ba  Ba10  1  0.652337  0.823037  0.085777  1
  Ba  Ba11  1  0.652569  0.824764  0.582561  1
  Ba  Ba12  1  0.348638  0.173880  0.332658  1
  Ba  Ba13  1  0.345774  0.175646  0.831666  1
  Ba  Ba14  1  0.824354  0.654226  0.331666  1
  Ba  Ba15  1  0.663516  0.331432  0.494726  1
  Ba  Ba16  1  0.826120  0.651362  0.832658  1
  Ba  Ba17  1  0.668568  0.336484  0.994726  1
  Ba  Ba18  1  0.823050  0.170858  0.336324  1
  Ba  Ba19  1  0.829142  0.176950  0.836324  1
  Sr  Sr20  1  0.044354  0.522775  0.919627  1
  Sr  Sr21  1  0.477225  0.955646  0.419627  1
  Sr  Sr22  1  0.521234  0.477021  0.169560  1
  Sr  Sr23  1  0.522979  0.478766  0.669560  1
  La  La24  1  0.042445  0.521145  0.420413  1
  La  La25  1  0.478855  0.957555  0.920413  1
  La  La26  1  0.477715  0.520798  0.418765  1
  La  La27  1  0.479202  0.522285  0.918765  1
  La  La28  1  0.521513  0.043315  0.171506  1
  La  La29  1  0.521940  0.042619  0.667271  1
  La  La30  1  0.957381  0.478060  0.167271  1
  La  La31  1  0.956685  0.478487  0.671506  1
  Fe  Fe32  1  0.179885  0.819353  0.330134  1
  Fe  Fe33  1  0.180647  0.820115  0.830134  1
  Fe  Fe34  1  0.177391  0.359056  0.832611  1
  Fe  Fe35  1  0.175844  0.356781  0.332144  1
  Fe  Fe36  1  0.331109  0.666335  0.015456  1
  Fe  Fe37  1  0.333665  0.668891  0.515456  1
  Fe  Fe38  1  0.640944  0.822609  0.332611  1
  Fe  Fe39  1  0.643219  0.824156  0.832144  1
  Fe  Fe40  1  0.358554  0.181496  0.582786  1
  Fe  Fe41  1  0.358744  0.179562  0.079971  1
  Fe  Fe42  1  0.663903  0.331903  0.767154  1
  Fe  Fe43  1  0.668097  0.336097  0.267154  1
  Fe  Fe44  1  0.818504  0.641446  0.082786  1
  Fe  Fe45  1  0.820438  0.641256  0.579971  1
  Fe  Fe46  1  0.820067  0.177259  0.083788  1
  Fe  Fe47  1  0.822740  0.179933  0.583788  1
  O  O48  1  0.096797  0.903559  0.377569  1
  O  O49  1  0.096441  0.903203  0.877569  1
  O  O50  1  0.064061  0.666682  0.264224  1
  O  O51  1  0.068254  0.672040  0.759433  1
  O  O52  1  0.327960  0.931746  0.259433  1
  O  O53  1  0.333318  0.935939  0.764224  1
  O  O54  1  0.061178  0.394661  0.265058  1
  O  O55  1  0.064350  0.392603  0.759794  1
  O  O56  1  0.243499  0.746256  0.422564  1
  O  O57  1  0.253744  0.756501  0.922564  1
  O  O58  1  0.170342  0.586491  0.090241  1
  O  O59  1  0.166165  0.583902  0.585374  1
  O  O60  1  0.090534  0.188959  0.378776  1
  O  O61  1  0.091827  0.191139  0.879948  1
  O  O62  1  0.252361  0.499187  0.922510  1
  O  O63  1  0.244506  0.495054  0.423090  1
  O  O64  1  0.416098  0.833835  0.085374  1
  O  O65  1  0.413509  0.829658  0.590241  1
  O  O66  1  0.415372  0.586370  0.083398  1
  O  O67  1  0.413630  0.584628  0.583398  1
  O  O68  1  0.500813  0.747639  0.422510  1
  O  O69  1  0.504946  0.755494  0.923090  1
  O  O70  1  0.328622  0.396237  0.268377  1
  O  O71  1  0.328593  0.395533  0.767560  1
  O  O72  1  0.192218  0.097403  0.128973  1
  O  O73  1  0.192068  0.098954  0.631224  1
  O  O74  1  0.605339  0.938822  0.765058  1
  O  O75  1  0.607397  0.935650  0.259794  1
  O  O76  1  0.393078  0.327728  0.008871  1
  O  O77  1  0.394270  0.328682  0.510183  1
  O  O78  1  0.604467  0.671407  0.267560  1
  O  O79  1  0.603763  0.671378  0.768377  1
  O  O80  1  0.395394  0.064498  0.013742  1
  O  O81  1  0.395035  0.066251  0.518027  1
  O  O82  1  0.808861  0.908173  0.379948  1
  O  O83  1  0.811041  0.909466  0.878776  1
  O  O84  1  0.671318  0.605730  0.010183  1
  O  O85  1  0.672272  0.606922  0.508871  1
  O  O86  1  0.496051  0.243782  0.172120  1
  O  O87  1  0.498221  0.245119  0.674094  1
  O  O88  1  0.584890  0.414054  0.839997  1
  O  O89  1  0.585946  0.415110  0.339997  1
  O  O90  1  0.754881  0.501779  0.174094  1
  O  O91  1  0.586970  0.170666  0.334117  1
  O  O92  1  0.584028  0.165972  0.837644  1
  O  O93  1  0.756218  0.503949  0.672120  1
  O  O94  1  0.901046  0.807932  0.131224  1
  O  O95  1  0.902597  0.807782  0.628973  1
  O  O96  1  0.834028  0.415972  0.337644  1
  O  O97  1  0.829334  0.413030  0.834117  1
  O  O98  1  0.751659  0.248303  0.173157  1
  O  O99  1  0.751697  0.248341  0.673157  1
  O  O100  1  0.933749  0.604965  0.018027  1
  O  O101  1  0.935502  0.604606  0.513742  1
  O  O102  1  0.666076  0.064284  0.017386  1
  O  O103  1  0.669426  0.064938  0.519906  1
  O  O104  1  0.935062  0.330574  0.019906  1
  O  O105  1  0.935716  0.333924  0.517386  1
  O  O106  1  0.905740  0.093050  0.125963  1
  O  O107  1  0.906950  0.094260  0.625963  1
