# generated using pymatgen
data_Ga7(CuSe4)3
_symmetry_space_group_name_H-M   'P 1'
_cell_length_a   3.91879707
_cell_length_b   11.97417928
_cell_length_c   21.23488341
_cell_angle_alpha   40.31512890
_cell_angle_beta   56.35648220
_cell_angle_gamma   60.52015520
_symmetry_Int_Tables_number   1
_chemical_formula_structural   Ga7(CuSe4)3
_chemical_formula_sum   'Ga7 Cu3 Se12'
_cell_volume   532.19024344
_cell_formula_units_Z   1
loop_
 _symmetry_equiv_pos_site_id
 _symmetry_equiv_pos_as_xyz
  1  'x, y, z'
loop_
 _atom_site_type_symbol
 _atom_site_label
 _atom_site_symmetry_multiplicity
 _atom_site_fract_x
 _atom_site_fract_y
 _atom_site_fract_z
 _atom_site_occupancy
  Ga  Ga0  1  0.011023  0.997744  0.997305  1
  Ga  Ga1  1  0.009349  0.995339  0.498662  1
  Ga  Ga2  1  0.019278  0.822268  0.248297  1
  Ga  Ga3  1  0.999541  0.183622  0.238776  1
  Ga  Ga4  1  0.017004  0.668165  0.994169  1
  Ga  Ga5  1  0.986802  0.500356  0.754492  1
  Ga  Ga6  1  0.991120  0.354166  0.491143  1
  Cu  Cu7  1  0.997778  0.664517  0.501724  1
  Cu  Cu8  1  0.994261  0.824003  0.758032  1
  Cu  Cu9  1  0.000414  0.155947  0.756180  1
  Se  Se10  1  0.236965  0.057540  0.058621  1
  Se  Se11  1  0.262542  0.376929  0.060170  1
  Se  Se12  1  0.230678  0.220956  0.310076  1
  Se  Se13  1  0.239439  0.698148  0.071541  1
  Se  Se14  1  0.236622  0.038206  0.568127  1
  Se  Se15  1  0.257097  0.539801  0.310186  1
  Se  Se16  1  0.231074  0.370319  0.569905  1
  Se  Se17  1  0.240887  0.874891  0.314497  1
  Se  Se18  1  0.256913  0.209025  0.810476  1
  Se  Se19  1  0.256656  0.703853  0.562320  1
  Se  Se20  1  0.239438  0.537532  0.818294  1
  Se  Se21  1  0.257206  0.876502  0.810519  1
