# generated using pymatgen
data_V3H6CNO7
_symmetry_space_group_name_H-M   'P 1'
_cell_length_a   6.73487631
_cell_length_b   10.45251045
_cell_length_c   12.08340994
_cell_angle_alpha   93.67370320
_cell_angle_beta   90.00000000
_cell_angle_gamma   90.00000000
_symmetry_Int_Tables_number   1
_chemical_formula_structural   V3H6CNO7
_chemical_formula_sum   'V12 H24 C4 N4 O28'
_cell_volume   848.88020698
_cell_formula_units_Z   4
loop_
 _symmetry_equiv_pos_site_id
 _symmetry_equiv_pos_as_xyz
  1  'x, y, z'
loop_
 _atom_site_type_symbol
 _atom_site_label
 _atom_site_symmetry_multiplicity
 _atom_site_fract_x
 _atom_site_fract_y
 _atom_site_fract_z
 _atom_site_occupancy
  V  V0  1  0.257520  0.512794  0.100487  1
  V  V1  1  0.254825  0.974345  0.313375  1
  V  V2  1  0.245175  0.474345  0.813375  1
  V  V3  1  0.754825  0.525655  0.186625  1
  V  V4  1  0.032899  0.718569  0.303871  1
  V  V5  1  0.745175  0.025655  0.686625  1
  V  V6  1  0.532899  0.781431  0.196129  1
  V  V7  1  0.757520  0.987206  0.399513  1
  V  V8  1  0.967101  0.281431  0.696129  1
  V  V9  1  0.467101  0.218569  0.803871  1
  V  V10  1  0.242480  0.012794  0.600487  1
  V  V11  1  0.742480  0.487206  0.899513  1
  H  H12  1  0.477911  0.805778  0.920677  1
  H  H13  1  0.080997  0.410862  0.329070  1
  H  H14  1  0.718398  0.559026  0.499358  1
  H  H15  1  0.927721  0.090073  0.122974  1
  H  H16  1  0.919003  0.589138  0.670930  1
  H  H17  1  0.072279  0.909927  0.877026  1
  H  H18  1  0.580997  0.089138  0.170930  1
  H  H19  1  0.022089  0.305778  0.420677  1
  H  H20  1  0.836872  0.740539  0.690112  1
  H  H21  1  0.163128  0.259461  0.309888  1
  H  H22  1  0.419003  0.910862  0.829070  1
  H  H23  1  0.218398  0.940974  0.000642  1
  H  H24  1  0.382489  0.283940  0.466726  1
  H  H25  1  0.572279  0.590073  0.622974  1
  H  H26  1  0.281602  0.440974  0.500642  1
  H  H27  1  0.427721  0.409927  0.377026  1
  H  H28  1  0.117511  0.783940  0.966726  1
  H  H29  1  0.336872  0.759461  0.809888  1
  H  H30  1  0.977911  0.694222  0.579323  1
  H  H31  1  0.663128  0.240539  0.190112  1
  H  H32  1  0.882489  0.216060  0.033274  1
  H  H33  1  0.617511  0.716060  0.533274  1
  H  H34  1  0.781602  0.059026  0.999358  1
  H  H35  1  0.522089  0.194222  0.079323  1
  C  C36  1  0.180225  0.870104  0.933320  1
  C  C37  1  0.819775  0.129896  0.066680  1
  C  C38  1  0.680225  0.629896  0.566680  1
  C  C39  1  0.319775  0.370104  0.433320  1
  N  N40  1  0.635492  0.165818  0.130747  1
  N  N41  1  0.364508  0.834182  0.869253  1
  N  N42  1  0.135492  0.334182  0.369253  1
  N  N43  1  0.864508  0.665818  0.630747  1
  O  O44  1  0.244199  0.303421  0.736241  1
  O  O45  1  0.517964  0.407430  0.848136  1
  O  O46  1  0.451323  0.066555  0.689666  1
  O  O47  1  0.228647  0.092893  0.230181  1
  O  O48  1  0.271353  0.592893  0.730181  1
  O  O49  1  0.780428  0.450404  0.036481  1
  O  O50  1  0.255801  0.803421  0.236241  1
  O  O51  1  0.017964  0.092570  0.651864  1
  O  O52  1  0.084435  0.650049  0.419941  1
  O  O53  1  0.771353  0.907107  0.769819  1
  O  O54  1  0.788018  0.141827  0.391557  1
  O  O55  1  0.548677  0.933445  0.310334  1
  O  O56  1  0.482036  0.592570  0.151864  1
  O  O57  1  0.711982  0.641827  0.891557  1
  O  O58  1  0.288018  0.358173  0.108443  1
  O  O59  1  0.719572  0.950404  0.536481  1
  O  O60  1  0.755801  0.696579  0.263759  1
  O  O61  1  0.744199  0.196579  0.763759  1
  O  O62  1  0.211982  0.858173  0.608443  1
  O  O63  1  0.982036  0.907430  0.348136  1
  O  O64  1  0.048677  0.566555  0.189666  1
  O  O65  1  0.915565  0.349951  0.580059  1
  O  O66  1  0.584435  0.849951  0.080059  1
  O  O67  1  0.219572  0.549596  0.963519  1
  O  O68  1  0.415565  0.150049  0.919941  1
  O  O69  1  0.728647  0.407107  0.269819  1
  O  O70  1  0.280428  0.049596  0.463519  1
  O  O71  1  0.951323  0.433445  0.810334  1
