# generated using pymatgen
data_Pb3O5
_symmetry_space_group_name_H-M   'P 1'
_cell_length_a   8.00657360
_cell_length_b   11.09143485
_cell_length_c   23.00086025
_cell_angle_alpha   90.00000000
_cell_angle_beta   90.00949126
_cell_angle_gamma   90.00000000
_symmetry_Int_Tables_number   1
_chemical_formula_structural   Pb3O5
_chemical_formula_sum   'Pb48 O80'
_cell_volume   2042.57732432
_cell_formula_units_Z   16
loop_
 _symmetry_equiv_pos_site_id
 _symmetry_equiv_pos_as_xyz
  1  'x, y, z'
loop_
 _atom_site_type_symbol
 _atom_site_label
 _atom_site_symmetry_multiplicity
 _atom_site_fract_x
 _atom_site_fract_y
 _atom_site_fract_z
 _atom_site_occupancy
  Pb  Pb0  1  0.749900  0.000035  0.010113  1
  Pb  Pb1  1  0.750473  0.500001  0.990415  1
  Pb  Pb2  1  0.750129  0.500093  0.169454  1
  Pb  Pb3  1  0.498296  0.751456  0.087135  1
  Pb  Pb4  1  0.998296  0.248544  0.087135  1
  Pb  Pb5  1  0.250805  0.500585  0.669708  1
  Pb  Pb6  1  0.499660  0.750210  0.250252  1
  Pb  Pb7  1  0.249710  0.000031  0.509392  1
  Pb  Pb8  1  0.750787  0.499641  0.331756  1
  Pb  Pb9  1  0.502046  0.247854  0.913967  1
  Pb  Pb10  1  0.250129  0.499907  0.169454  1
  Pb  Pb11  1  0.748925  0.999545  0.168741  1
  Pb  Pb12  1  0.500685  0.747888  0.413003  1
  Pb  Pb13  1  0.499666  0.243928  0.076717  1
  Pb  Pb14  1  0.250651  0.499598  0.831760  1
  Pb  Pb15  1  0.748906  0.998593  0.829348  1
  Pb  Pb16  1  0.500616  0.742830  0.923519  1
  Pb  Pb17  1  0.999567  0.748630  0.585911  1
  Pb  Pb18  1  0.999769  0.242490  0.576317  1
  Pb  Pb19  1  0.499769  0.757510  0.576317  1
  Pb  Pb20  1  0.749701  0.999785  0.331145  1
  Pb  Pb21  1  0.250473  0.499999  0.990415  1
  Pb  Pb22  1  0.750805  0.499415  0.669708  1
  Pb  Pb23  1  0.249701  0.000215  0.331145  1
  Pb  Pb24  1  0.000038  0.249965  0.749712  1
  Pb  Pb25  1  0.248925  0.000455  0.168741  1
  Pb  Pb26  1  0.999903  0.750035  0.250285  1
  Pb  Pb27  1  0.250787  0.500359  0.331756  1
  Pb  Pb28  1  0.500700  0.250496  0.749885  1
  Pb  Pb29  1  0.249900  0.999965  0.010113  1
  Pb  Pb30  1  0.999660  0.249790  0.250252  1
  Pb  Pb31  1  0.999666  0.756072  0.076717  1
  Pb  Pb32  1  0.000700  0.749504  0.749885  1
  Pb  Pb33  1  0.750047  0.499986  0.490016  1
  Pb  Pb34  1  0.749710  0.999969  0.509392  1
  Pb  Pb35  1  0.000685  0.252112  0.413003  1
  Pb  Pb36  1  0.500038  0.750035  0.749712  1
  Pb  Pb37  1  0.000616  0.257169  0.923519  1
  Pb  Pb38  1  0.248906  0.001407  0.829348  1
  Pb  Pb39  1  0.000076  0.743936  0.423588  1
  Pb  Pb40  1  0.250047  0.500014  0.490016  1
  Pb  Pb41  1  0.249683  0.999781  0.667620  1
  Pb  Pb42  1  0.749683  0.000219  0.667620  1
  Pb  Pb43  1  0.500076  0.256064  0.423588  1
  Pb  Pb44  1  0.002046  0.752146  0.913967  1
  Pb  Pb45  1  0.750651  0.500402  0.831760  1
  Pb  Pb46  1  0.499567  0.251370  0.585911  1
  Pb  Pb47  1  0.499903  0.249965  0.250285  1
  O  O48  1  0.270822  0.874605  0.592005  1
  O  O49  1  0.703837  0.136947  0.445010  1
  O  O50  1  0.204021  0.638056  0.054214  1
  O  O51  1  0.201757  0.136754  0.946656  1
  O  O52  1  0.000609  0.673500  0.162574  1
  O  O53  1  0.783375  0.626724  0.260323  1
  O  O54  1  0.729055  0.625152  0.908065  1
  O  O55  1  0.770822  0.125395  0.592005  1
  O  O56  1  0.999574  0.142124  0.326226  1
  O  O57  1  0.000974  0.412236  0.328888  1
  O  O58  1  0.218847  0.628730  0.260601  1
  O  O59  1  0.499810  0.642199  0.173867  1
  O  O60  1  0.728287  0.874503  0.592142  1
  O  O61  1  0.498709  0.913009  0.171042  1
  O  O62  1  0.499846  0.086570  0.004494  1
  O  O63  1  0.298164  0.862119  0.947087  1
  O  O64  1  0.203837  0.863053  0.445010  1
  O  O65  1  0.000427  0.642197  0.673499  1
  O  O66  1  0.717079  0.127089  0.239526  1
  O  O67  1  0.499691  0.917114  0.504824  1
  O  O68  1  0.500427  0.357803  0.673499  1
  O  O69  1  0.499034  0.173334  0.337261  1
  O  O70  1  0.999810  0.357801  0.173867  1
  O  O71  1  0.999691  0.082886  0.504824  1
  O  O72  1  0.798898  0.363141  0.553399  1
  O  O73  1  0.779510  0.128544  0.739361  1
  O  O74  1  0.283375  0.373276  0.260323  1
  O  O75  1  0.499574  0.857876  0.326226  1
  O  O76  1  0.228287  0.125497  0.592142  1
  O  O77  1  0.999893  0.857686  0.826409  1
  O  O78  1  0.280337  0.627932  0.760631  1
  O  O79  1  0.279510  0.871456  0.739361  1
  O  O80  1  0.500827  0.415038  0.829587  1
  O  O81  1  0.280118  0.129183  0.239261  1
  O  O82  1  0.000827  0.584962  0.829587  1
  O  O83  1  0.796752  0.636718  0.054822  1
  O  O84  1  0.999189  0.325331  0.662505  1
  O  O85  1  0.500609  0.326500  0.162574  1
  O  O86  1  0.999846  0.913430  0.004494  1
  O  O87  1  0.780118  0.870817  0.239261  1
  O  O88  1  0.775088  0.624088  0.406642  1
  O  O89  1  0.720945  0.628676  0.760617  1
  O  O90  1  0.295531  0.137755  0.445372  1
  O  O91  1  0.296752  0.363282  0.054822  1
  O  O92  1  0.798164  0.137881  0.947087  1
  O  O93  1  0.499893  0.142314  0.826409  1
  O  O94  1  0.200408  0.363489  0.553479  1
  O  O95  1  0.718847  0.371270  0.260601  1
  O  O96  1  0.725604  0.375618  0.406704  1
  O  O97  1  0.000466  0.416517  0.995619  1
  O  O98  1  0.999034  0.826666  0.337261  1
  O  O99  1  0.225604  0.624382  0.406704  1
  O  O100  1  0.499562  0.084805  0.670245  1
  O  O101  1  0.725064  0.124425  0.093377  1
  O  O102  1  0.500011  0.412907  0.495836  1
  O  O103  1  0.229055  0.374848  0.908065  1
  O  O104  1  0.499189  0.674669  0.662505  1
  O  O105  1  0.998709  0.086991  0.171042  1
  O  O106  1  0.000011  0.587093  0.495836  1
  O  O107  1  0.272631  0.625197  0.907758  1
  O  O108  1  0.275088  0.375912  0.406642  1
  O  O109  1  0.700408  0.636511  0.553479  1
  O  O110  1  0.225064  0.875575  0.093377  1
  O  O111  1  0.704021  0.361944  0.054214  1
  O  O112  1  0.273699  0.124586  0.093193  1
  O  O113  1  0.001411  0.174457  0.837638  1
  O  O114  1  0.719401  0.872252  0.739388  1
  O  O115  1  0.501411  0.825543  0.837638  1
  O  O116  1  0.773699  0.875414  0.093193  1
  O  O117  1  0.500974  0.587764  0.328888  1
  O  O118  1  0.780337  0.372068  0.760631  1
  O  O119  1  0.217079  0.872911  0.239526  1
  O  O120  1  0.772631  0.374803  0.907758  1
  O  O121  1  0.298898  0.636859  0.553399  1
  O  O122  1  0.500466  0.583483  0.995619  1
  O  O123  1  0.219401  0.127748  0.739388  1
  O  O124  1  0.999562  0.915195  0.670245  1
  O  O125  1  0.795531  0.862245  0.445372  1
  O  O126  1  0.701757  0.863246  0.946656  1
  O  O127  1  0.220945  0.371324  0.760617  1
