# generated using pymatgen
data_Bi15PO25
_symmetry_space_group_name_H-M   'P 1'
_cell_length_a   44.79144188
_cell_length_b   17.15308433
_cell_length_c   17.15308483
_cell_angle_alpha   50.47160269
_cell_angle_beta   29.49188832
_cell_angle_gamma   29.49188848
_symmetry_Int_Tables_number   1
_chemical_formula_structural   Bi15PO25
_chemical_formula_sum   'Bi60 P4 O100'
_cell_volume   2766.11612276
_cell_formula_units_Z   4
loop_
 _symmetry_equiv_pos_site_id
 _symmetry_equiv_pos_as_xyz
  1  'x, y, z'
loop_
 _atom_site_type_symbol
 _atom_site_label
 _atom_site_symmetry_multiplicity
 _atom_site_fract_x
 _atom_site_fract_y
 _atom_site_fract_z
 _atom_site_occupancy
  Bi  Bi0  1  0.117643  0.303223  0.155285  1
  Bi  Bi1  1  0.022784  0.699654  0.177313  1
  Bi  Bi2  1  0.173403  0.147663  0.342627  1
  Bi  Bi3  1  0.112507  0.494682  0.300145  1
  Bi  Bi4  1  0.076577  0.831262  0.130713  1
  Bi  Bi5  1  0.200989  0.152431  0.495208  1
  Bi  Bi6  1  0.013090  0.799460  0.492033  1
  Bi  Bi7  1  0.318285  0.300168  0.154451  1
  Bi  Bi8  1  0.112306  0.205294  0.864228  1
  Bi  Bi9  1  0.094799  0.504969  0.655977  1
  Bi  Bi10  1  0.207993  0.707433  0.201749  1
  Bi  Bi11  1  0.017460  0.853326  0.700195  1
  Bi  Bi12  1  0.373658  0.144831  0.345586  1
  Bi  Bi13  1  0.154684  0.349112  0.839479  1
  Bi  Bi14  1  0.308837  0.507984  0.303749  1
  Bi  Bi15  1  0.272929  0.844715  0.147938  1
  Bi  Bi16  1  0.098764  0.691671  0.823150  1
  Bi  Bi17  1  0.393484  0.162843  0.504163  1
  Bi  Bi18  1  0.200097  0.822687  0.522341  1
  Bi  Bi19  1  0.514822  0.300838  0.164347  1
  Bi  Bi20  1  0.321066  0.194964  0.852337  1
  Bi  Bi21  1  0.279403  0.522536  0.690192  1
  Bi  Bi22  1  0.412651  0.699855  0.194538  1
  Bi  Bi23  1  0.207290  0.869287  0.700549  1
  Bi  Bi24  1  0.569122  0.148939  0.348239  1
  Bi  Bi25  1  0.353419  0.342777  0.847569  1
  Bi  Bi26  1  0.505123  0.507967  0.307427  1
  Bi  Bi27  1  0.472736  0.845549  0.145717  1
  Bi  Bi28  1  0.317600  0.658933  0.794706  1
  Bi  Bi29  1  0.599769  0.151008  0.495031  1
  Bi  Bi30  1  0.409742  0.798251  0.505684  1
  Bi  Bi31  1  0.717655  0.299805  0.153130  1
  Bi  Bi32  1  0.518489  0.200755  0.855169  1
  Bi  Bi33  1  0.503797  0.490366  0.650888  1
  Bi  Bi34  1  0.612587  0.696251  0.204234  1
  Bi  Bi35  1  0.420866  0.852062  0.696777  1
  Bi  Bi36  1  0.790434  0.131480  0.308329  1
  Bi  Bi37  1  0.556327  0.341320  0.837157  1
  Bi  Bi38  1  0.722438  0.477659  0.300346  1
  Bi  Bi39  1  0.679169  0.835653  0.136491  1
  Bi  Bi40  1  0.516030  0.657373  0.805036  1
  Bi  Bi41  1  0.801938  0.167656  0.477465  1
  Bi  Bi42  1  0.607189  0.805462  0.505318  1
  Bi  Bi43  1  0.907839  0.299451  0.168738  1
  Bi  Bi44  1  0.718061  0.199300  0.851061  1
  Bi  Bi45  1  0.696196  0.504792  0.657223  1
  Bi  Bi46  1  0.812550  0.692573  0.200540  1
  Bi  Bi47  1  0.618453  0.854283  0.699832  1
  Bi  Bi48  1  0.976533  0.135772  0.341067  1
  Bi  Bi49  1  0.750776  0.344023  0.848992  1
  Bi  Bi50  1  0.915425  0.494316  0.292567  1
  Bi  Bi51  1  0.870785  0.846870  0.146674  1
  Bi  Bi52  1  0.719244  0.654414  0.799245  1
  Bi  Bi53  1  0.994163  0.160521  0.509634  1
  Bi  Bi54  1  0.816821  0.795766  0.492016  1
  Bi  Bi55  1  0.921914  0.176850  0.868520  1
  Bi  Bi56  1  0.897647  0.495837  0.658680  1
  Bi  Bi57  1  0.815660  0.863509  0.699162  1
  Bi  Bi58  1  0.969594  0.309808  0.832344  1
  Bi  Bi59  1  0.917361  0.651761  0.800700  1
  P  P60  1  0.200143  0.000000  0.000000  1
  P  P61  1  0.400179  1.000000  1.000000  1
  P  P62  1  0.599984  0.000000  0.000000  1
  P  P63  1  0.799544  1.000000  1.000000  1
  O  O64  1  0.074535  1.000000  1.000000  1
  O  O65  1  0.164840  1.000000  1.000000  1
  O  O66  1  0.039758  0.403724  0.997312  1
  O  O67  1  0.037070  0.002688  0.406412  1
  O  O68  1  0.094609  0.177228  0.173789  1
  O  O69  1  0.281174  0.000000  0.000000  1
  O  O70  1  0.070472  0.259991  0.375043  1
  O  O71  1  0.160185  0.357755  0.113728  1
  O  O72  1  0.030971  0.244260  0.619428  1
  O  O73  1  0.108005  0.000310  0.730134  1
  O  O74  1  0.108315  0.729823  0.999690  1
  O  O75  1  0.365151  1.000000  1.000000  1
  O  O76  1  0.243892  0.390411  0.999953  1
  O  O77  1  0.243845  0.000047  0.390457  1
  O  O78  1  0.057659  0.369987  0.613948  1
  O  O79  1  0.295103  0.175060  0.175359  1
  O  O80  1  0.129994  0.118359  0.737531  1
  O  O81  1  0.126396  0.613041  0.255812  1
  O  O82  1  0.041900  0.596624  0.595443  1
  O  O83  1  0.074194  0.877436  0.248938  1
  O  O84  1  0.074551  0.378285  0.753982  1
  O  O85  1  0.480364  1.000000  1.000000  1
  O  O86  1  0.268924  0.261704  0.376397  1
  O  O87  1  0.143911  0.639050  0.377674  1
  O  O88  1  0.358208  0.359507  0.113507  1
  O  O89  1  0.229451  0.246428  0.623261  1
  O  O90  1  0.271838  0.996561  0.822772  1
  O  O91  1  0.268398  0.826211  0.003439  1
  O  O92  1  0.042658  0.630142  0.885743  1
  O  O93  1  0.181242  0.740604  0.363960  1
  O  O94  1  0.564932  1.000000  1.000000  1
  O  O95  1  0.437961  0.404075  0.001421  1
  O  O96  1  0.439382  0.998579  0.402654  1
  O  O97  1  0.116468  0.757536  0.639262  1
  O  O98  1  0.250381  0.376590  0.625461  1
  O  O99  1  0.494580  0.175166  0.175899  1
  O  O100  1  0.330463  0.115052  0.740009  1
  O  O101  1  0.320403  0.629505  0.259805  1
  O  O102  1  0.224417  0.626029  0.625728  1
  O  O103  1  0.273913  0.886272  0.244027  1
  O  O104  1  0.275231  0.375169  0.755740  1
  O  O105  1  0.680791  1.000000  1.000000  1
  O  O106  1  0.470525  0.259269  0.379253  1
  O  O107  1  0.345357  0.639110  0.376214  1
  O  O108  1  0.556629  0.363188  0.114895  1
  O  O109  1  0.427646  0.243961  0.630013  1
  O  O110  1  0.470163  0.000299  0.824940  1
  O  O111  1  0.470462  0.824641  0.999701  1
  O  O112  1  0.248353  0.619172  0.881641  1
  O  O113  1  0.382208  0.744188  0.357229  1
  O  O114  1  0.764779  1.000000  1.000000  1
  O  O115  1  0.637342  0.404557  0.001181  1
  O  O116  1  0.638524  0.998819  0.403376  1
  O  O117  1  0.323132  0.751062  0.628498  1
  O  O118  1  0.452836  0.375697  0.621715  1
  O  O119  1  0.694655  0.173971  0.176833  1
  O  O120  1  0.530627  0.114694  0.738296  1
  O  O121  1  0.521585  0.622326  0.261376  1
  O  O122  1  0.443482  0.593588  0.596276  1
  O  O123  1  0.471714  0.886493  0.246000  1
  O  O124  1  0.475880  0.376832  0.753571  1
  O  O125  1  0.878196  0.000000  0.000000  1
  O  O126  1  0.672800  0.255601  0.369858  1
  O  O127  1  0.545202  0.636040  0.376644  1
  O  O128  1  0.755730  0.360738  0.118274  1
  O  O129  1  0.626971  0.248871  0.623410  1
  O  O130  1  0.669746  0.000732  0.824834  1
  O  O131  1  0.670479  0.824101  0.999268  1
  O  O132  1  0.445516  0.624957  0.884948  1
  O  O133  1  0.580208  0.740195  0.369700  1
  O  O134  1  0.945981  0.000000  0.000000  1
  O  O135  1  0.850145  0.374272  0.000301  1
  O  O136  1  0.850447  0.999699  0.373971  1
  O  O137  1  0.517940  0.755973  0.642245  1
  O  O138  1  0.650399  0.380572  0.624831  1
  O  O139  1  0.838138  0.269866  0.270176  1
  O  O140  1  0.729793  0.119984  0.740731  1
  O  O141  1  0.721570  0.623786  0.262896  1
  O  O142  1  0.634303  0.609543  0.609589  1
  O  O143  1  0.671524  0.885105  0.248293  1
  O  O144  1  0.671607  0.386052  0.756039  1
  O  O145  1  0.867525  0.262469  0.380828  1
  O  O146  1  0.739437  0.642771  0.386959  1
  O  O147  1  0.951630  0.371502  0.122564  1
  O  O148  1  0.828533  0.246018  0.624303  1
  O  O149  1  0.868626  0.002862  0.826029  1
  O  O150  1  0.871488  0.823167  0.997138  1
  O  O151  1  0.645321  0.623603  0.885306  1
  O  O152  1  0.782961  0.738624  0.360949  1
  O  O153  1  0.717715  0.754000  0.640493  1
  O  O154  1  0.852712  0.376739  0.623168  1
  O  O155  1  0.928401  0.114257  0.744399  1
  O  O156  1  0.921846  0.623356  0.259396  1
  O  O157  1  0.842036  0.597346  0.595925  1
  O  O158  1  0.874004  0.881726  0.242464  1
  O  O159  1  0.875842  0.374539  0.751129  1
  O  O160  1  0.949907  0.630300  0.370495  1
  O  O161  1  0.849777  0.620747  0.880016  1
  O  O162  1  0.984466  0.737104  0.360890  1
  O  O163  1  0.919817  0.751707  0.636812  1
