# generated using pymatgen
data_CdH2SeO4
_symmetry_space_group_name_H-M   'P 1'
_cell_length_a   13.43150145
_cell_length_b   6.04475729
_cell_length_c   5.11912787
_cell_angle_alpha   90.00000000
_cell_angle_beta   90.00000000
_cell_angle_gamma   90.00000000
_symmetry_Int_Tables_number   1
_chemical_formula_structural   CdH2SeO4
_chemical_formula_sum   'Cd4 H8 Se4 O16'
_cell_volume   415.62284310
_cell_formula_units_Z   4
loop_
 _symmetry_equiv_pos_site_id
 _symmetry_equiv_pos_as_xyz
  1  'x, y, z'
loop_
 _atom_site_type_symbol
 _atom_site_label
 _atom_site_symmetry_multiplicity
 _atom_site_fract_x
 _atom_site_fract_y
 _atom_site_fract_z
 _atom_site_occupancy
  Cd  Cd0  1  0.771971  0.250000  0.098010  1
  Cd  Cd1  1  0.271971  0.250000  0.401990  1
  Cd  Cd2  1  0.228029  0.750000  0.901990  1
  Cd  Cd3  1  0.728029  0.750000  0.598010  1
  H  H4  1  0.889373  0.121142  0.537233  1
  H  H5  1  0.389373  0.378858  0.962767  1
  H  H6  1  0.110627  0.621142  0.462767  1
  H  H7  1  0.610627  0.878858  0.037233  1
  H  H8  1  0.110627  0.878858  0.462767  1
  H  H9  1  0.610627  0.621142  0.037233  1
  H  H10  1  0.889373  0.378858  0.537233  1
  H  H11  1  0.389373  0.121142  0.962767  1
  Se  Se12  1  0.907223  0.750000  0.010214  1
  Se  Se13  1  0.407223  0.750000  0.489786  1
  Se  Se14  1  0.092777  0.250000  0.989786  1
  Se  Se15  1  0.592777  0.250000  0.510214  1
  O  O16  1  0.635068  0.250000  0.820906  1
  O  O17  1  0.135068  0.250000  0.679094  1
  O  O18  1  0.364932  0.750000  0.179094  1
  O  O19  1  0.864932  0.750000  0.320906  1
  O  O20  1  0.841283  0.532076  0.857404  1
  O  O21  1  0.341283  0.967924  0.642596  1
  O  O22  1  0.158717  0.032076  0.142596  1
  O  O23  1  0.658717  0.467924  0.357404  1
  O  O24  1  0.158717  0.467924  0.142596  1
  O  O25  1  0.658717  0.032076  0.357404  1
  O  O26  1  0.841283  0.967924  0.857404  1
  O  O27  1  0.341283  0.532076  0.642596  1
  O  O28  1  0.897701  0.250000  0.420662  1
  O  O29  1  0.397701  0.250000  0.079338  1
  O  O30  1  0.102299  0.750000  0.579338  1
  O  O31  1  0.602299  0.750000  0.920662  1
