# generated using pymatgen
data_CdH2(CO2)2
_symmetry_space_group_name_H-M   'P 1'
_cell_length_a   6.82855427
_cell_length_b   6.82855427
_cell_length_c   12.62119182
_cell_angle_alpha   69.69270921
_cell_angle_beta   110.30729079
_cell_angle_gamma   124.49789751
_symmetry_Int_Tables_number   1
_chemical_formula_structural   CdH2(CO2)2
_chemical_formula_sum   'Cd4 H8 C8 O16'
_cell_volume   446.17108114
_cell_formula_units_Z   4
loop_
 _symmetry_equiv_pos_site_id
 _symmetry_equiv_pos_as_xyz
  1  'x, y, z'
loop_
 _atom_site_type_symbol
 _atom_site_label
 _atom_site_symmetry_multiplicity
 _atom_site_fract_x
 _atom_site_fract_y
 _atom_site_fract_z
 _atom_site_occupancy
  Cd  Cd0  1  0.824300  0.193010  0.949460  1
  Cd  Cd1  1  0.193010  0.824300  0.550540  1
  Cd  Cd2  1  0.175700  0.806990  0.050540  1
  Cd  Cd3  1  0.806990  0.175700  0.449460  1
  H  H4  1  0.171894  0.930154  0.773620  1
  H  H5  1  0.930154  0.171894  0.726380  1
  H  H6  1  0.828106  0.069846  0.226380  1
  H  H7  1  0.069846  0.828106  0.273620  1
  H  H8  1  0.552810  0.496343  0.137917  1
  H  H9  1  0.496343  0.552810  0.362083  1
  H  H10  1  0.447190  0.503657  0.862083  1
  H  H11  1  0.503657  0.447190  0.637917  1
  C  C12  1  0.066355  0.730187  0.788782  1
  C  C13  1  0.730187  0.066355  0.711218  1
  C  C14  1  0.933645  0.269813  0.211218  1
  C  C15  1  0.269813  0.933645  0.288782  1
  C  C16  1  0.632267  0.687136  0.091283  1
  C  C17  1  0.687136  0.632267  0.408717  1
  C  C18  1  0.367733  0.312864  0.908717  1
  C  C19  1  0.312864  0.367733  0.591283  1
  O  O20  1  0.005147  0.622959  0.887389  1
  O  O21  1  0.622959  0.005147  0.612611  1
  O  O22  1  0.994853  0.377041  0.112611  1
  O  O23  1  0.377041  0.994853  0.387389  1
  O  O24  1  0.013838  0.621740  0.711281  1
  O  O25  1  0.621740  0.013838  0.788719  1
  O  O26  1  0.986162  0.378260  0.288719  1
  O  O27  1  0.378260  0.986162  0.211281  1
  O  O28  1  0.827546  0.785347  0.056608  1
  O  O29  1  0.785347  0.827546  0.443392  1
  O  O30  1  0.172455  0.214653  0.943392  1
  O  O31  1  0.214653  0.172455  0.556608  1
  O  O32  1  0.529082  0.805137  0.073697  1
  O  O33  1  0.805137  0.529082  0.426303  1
  O  O34  1  0.470918  0.194863  0.926303  1
  O  O35  1  0.194863  0.470918  0.573697  1
