# generated using pymatgen
data_W25O73
_symmetry_space_group_name_H-M   'P 1'
_cell_length_a   3.86089624
_cell_length_b   12.25859102
_cell_length_c   60.11928129
_cell_angle_alpha   93.74101350
_cell_angle_beta   90.00000000
_cell_angle_gamma   90.00000000
_symmetry_Int_Tables_number   1
_chemical_formula_structural   W25O73
_chemical_formula_sum   'W50 O146'
_cell_volume   2839.33130588
_cell_formula_units_Z   2
loop_
 _symmetry_equiv_pos_site_id
 _symmetry_equiv_pos_as_xyz
  1  'x, y, z'
loop_
 _atom_site_type_symbol
 _atom_site_label
 _atom_site_symmetry_multiplicity
 _atom_site_fract_x
 _atom_site_fract_y
 _atom_site_fract_z
 _atom_site_occupancy
  W  W0  1  0.517482  0.211424  0.149871  1
  W  W1  1  0.515706  0.082767  0.830911  1
  W  W2  1  0.497468  0.876501  0.567699  1
  W  W3  1  0.490202  0.412081  0.411027  1
  W  W4  1  0.509798  0.587919  0.588973  1
  W  W5  1  0.484382  0.234748  0.495044  1
  W  W6  1  0.483618  0.125836  0.689713  1
  W  W7  1  0.490202  0.087919  0.088973  1
  W  W8  1  0.517067  0.040793  0.229407  1
  W  W9  1  0.484294  0.917233  0.169089  1
  W  W10  1  0.513207  0.794279  0.108191  1
  W  W11  1  0.484261  0.750000  0.250000  1
  W  W12  1  0.515739  0.250000  0.750000  1
  W  W13  1  0.514289  0.497197  0.871094  1
  W  W14  1  0.483618  0.374164  0.810287  1
  W  W15  1  0.484294  0.582767  0.330911  1
  W  W16  1  0.502532  0.376501  0.067699  1
  W  W17  1  0.502532  0.123499  0.432301  1
  W  W18  1  0.517067  0.459207  0.270593  1
  W  W19  1  0.482156  0.335122  0.210438  1
  W  W20  1  0.485711  0.997197  0.371094  1
  W  W21  1  0.497468  0.623499  0.932301  1
  W  W22  1  0.482933  0.540793  0.729407  1
  W  W23  1  0.482933  0.959207  0.770593  1
  W  W24  1  0.496339  0.529530  0.472999  1
  W  W25  1  0.482518  0.711424  0.649871  1
  W  W26  1  0.503661  0.470470  0.527001  1
  W  W27  1  0.514289  0.002803  0.628906  1
  W  W28  1  0.496339  0.970470  0.027001  1
  W  W29  1  0.486793  0.294279  0.608191  1
  W  W30  1  0.503661  0.029530  0.972999  1
  W  W31  1  0.485711  0.502803  0.128906  1
  W  W32  1  0.510756  0.167108  0.546927  1
  W  W33  1  0.517844  0.664878  0.789562  1
  W  W34  1  0.489244  0.667108  0.046927  1
  W  W35  1  0.510756  0.332892  0.953073  1
  W  W36  1  0.484382  0.265252  0.004956  1
  W  W37  1  0.515618  0.734748  0.995044  1
  W  W38  1  0.516382  0.625836  0.189713  1
  W  W39  1  0.482518  0.788576  0.850129  1
  W  W40  1  0.482156  0.164878  0.289562  1
  W  W41  1  0.517844  0.835122  0.710438  1
  W  W42  1  0.516382  0.874164  0.310287  1
  W  W43  1  0.509798  0.912081  0.911027  1
  W  W44  1  0.513207  0.705721  0.391809  1
  W  W45  1  0.515618  0.765252  0.504956  1
  W  W46  1  0.515706  0.417233  0.669089  1
  W  W47  1  0.486793  0.205721  0.891809  1
  W  W48  1  0.489244  0.832892  0.453073  1
  W  W49  1  0.517482  0.288576  0.350129  1
  O  O50  1  0.004939  0.873889  0.311349  1
  O  O51  1  0.500609  0.440007  0.596833  1
  O  O52  1  0.500563  0.272583  0.678720  1
  O  O53  1  0.500463  0.479629  0.198692  1
  O  O54  1  0.501230  0.433889  0.842195  1
  O  O55  1  0.994730  0.414479  0.413021  1
  O  O56  1  0.499900  0.229746  0.075589  1
  O  O57  1  0.504208  0.882910  0.487120  1
  O  O58  1  0.005904  0.041556  0.229235  1
  O  O59  1  0.501276  0.271223  0.179014  1
  O  O60  1  0.004088  0.170502  0.545061  1
  O  O61  1  0.498724  0.771223  0.679014  1
  O  O62  1  0.000142  0.123900  0.434557  1
  O  O63  1  0.499437  0.727417  0.321280  1
  O  O64  1  0.004939  0.626111  0.188651  1
  O  O65  1  0.498770  0.566111  0.157805  1
  O  O66  1  0.500834  0.686209  0.219440  1
  O  O67  1  0.498746  0.353749  0.637388  1
  O  O68  1  0.496978  0.319638  0.034096  1
  O  O69  1  0.495792  0.382910  0.987120  1
  O  O70  1  0.499635  0.356868  0.138018  1
  O  O71  1  0.006228  0.745231  0.995325  1
  O  O72  1  0.498218  0.739120  0.074811  1
  O  O73  1  0.500112  0.189103  0.219812  1
  O  O74  1  0.994951  0.334989  0.209545  1
  O  O75  1  0.499952  0.101168  0.260067  1
  O  O76  1  0.500563  0.227417  0.821280  1
  O  O77  1  0.499722  0.353879  0.883896  1
  O  O78  1  0.504208  0.617090  0.012880  1
  O  O79  1  0.500278  0.853879  0.383896  1
  O  O80  1  0.495869  0.099704  0.007207  1
  O  O81  1  0.005270  0.914479  0.913021  1
  O  O82  1  0.499166  0.313791  0.780560  1
  O  O83  1  0.995126  0.917655  0.167888  1
  O  O84  1  0.005049  0.665011  0.790455  1
  O  O85  1  0.500834  0.813791  0.280560  1
  O  O86  1  0.511207  0.973811  0.944277  1
  O  O87  1  0.499537  0.520371  0.801308  1
  O  O88  1  0.500048  0.898832  0.739933  1
  O  O89  1  0.505368  0.191408  0.970791  1
  O  O90  1  0.488793  0.473811  0.444277  1
  O  O91  1  0.499537  0.979629  0.698692  1
  O  O92  1  0.502735  0.849258  0.882447  1
  O  O93  1  0.004088  0.329498  0.954939  1
  O  O94  1  0.993772  0.245231  0.495325  1
  O  O95  1  0.003703  0.498349  0.872796  1
  O  O96  1  0.498218  0.760880  0.425189  1
  O  O97  1  0.500100  0.729746  0.575589  1
  O  O98  1  0.501782  0.260880  0.925189  1
  O  O99  1  0.996417  0.207816  0.893631  1
  O  O100  1  0.511207  0.526189  0.555723  1
  O  O101  1  0.995639  0.788931  0.851732  1
  O  O102  1  0.000142  0.376100  0.065443  1
  O  O103  1  0.006228  0.754769  0.504675  1
  O  O104  1  0.005049  0.834989  0.709545  1
  O  O105  1  0.500112  0.310897  0.280188  1
  O  O106  1  0.996297  0.998349  0.372796  1
  O  O107  1  0.003583  0.707816  0.393631  1
  O  O108  1  0.501895  0.023952  0.554904  1
  O  O109  1  0.499230  0.394965  0.739250  1
  O  O110  1  0.004874  0.417655  0.667888  1
  O  O111  1  0.500278  0.646121  0.116104  1
  O  O112  1  0.501254  0.646251  0.362612  1
  O  O113  1  0.499437  0.772583  0.178720  1
  O  O114  1  0.500921  0.061885  0.403593  1
  O  O115  1  0.005270  0.585521  0.586979  1
  O  O116  1  0.499391  0.940007  0.096833  1
  O  O117  1  0.498105  0.523952  0.054904  1
  O  O118  1  0.501895  0.476048  0.945096  1
  O  O119  1  0.994096  0.541556  0.729235  1
  O  O120  1  0.499079  0.938115  0.596407  1
  O  O121  1  0.995787  0.969098  0.025393  1
  O  O122  1  0.993772  0.254769  0.004675  1
  O  O123  1  0.995912  0.670502  0.045061  1
  O  O124  1  0.004834  0.250000  0.750000  1
  O  O125  1  0.500048  0.601168  0.760067  1
  O  O126  1  0.500463  0.020371  0.301308  1
  O  O127  1  0.499230  0.105035  0.760750  1
  O  O128  1  0.504131  0.900296  0.992793  1
  O  O129  1  0.505368  0.308592  0.529209  1
  O  O130  1  0.004213  0.469098  0.525393  1
  O  O131  1  0.498770  0.933889  0.342195  1
  O  O132  1  -0.000142  0.876100  0.565443  1
  O  O133  1  0.499455  0.563806  0.657795  1
  O  O134  1  0.003583  0.792184  0.106369  1
  O  O135  1  0.496978  0.180362  0.465904  1
  O  O136  1  0.500545  0.436194  0.342205  1
  O  O137  1  0.499888  0.689103  0.719812  1
  O  O138  1  0.500536  0.481139  0.698505  1
  O  O139  1  0.500770  0.605035  0.260750  1
  O  O140  1  0.498746  0.146251  0.862612  1
  O  O141  1  0.003703  0.001651  0.627204  1
  O  O142  1  0.501230  0.066111  0.657805  1
  O  O143  1  0.497265  0.150742  0.117553  1
  O  O144  1  0.994951  0.165011  0.290455  1
  O  O145  1  0.996417  0.292184  0.606369  1
  O  O146  1  0.501254  0.853749  0.137388  1
  O  O147  1  0.995061  0.126111  0.688651  1
  O  O148  1  0.004874  0.082345  0.832112  1
  O  O149  1  0.498724  0.728777  0.820986  1
  O  O150  1  0.005904  0.458444  0.270765  1
  O  O151  1  0.499079  0.561885  0.903593  1
  O  O152  1  0.004213  0.030902  0.974607  1
  O  O153  1  0.503022  0.819638  0.534096  1
  O  O154  1  0.499722  0.146121  0.616104  1
  O  O155  1  0.500545  0.063806  0.157795  1
  O  O156  1  0.995912  0.829498  0.454939  1
  O  O157  1  0.500536  0.018861  0.801495  1
  O  O158  1  0.495869  0.400296  0.492793  1
  O  O159  1  0.495792  0.117090  0.512880  1
  O  O160  1  0.499900  0.270254  0.424411  1
  O  O161  1  0.503022  0.680362  0.965904  1
  O  O162  1  0.502735  0.650742  0.617553  1
  O  O163  1  0.498105  0.976048  0.445096  1
  O  O164  1  0.004361  0.288931  0.351732  1
  O  O165  1  0.497265  0.349258  0.382447  1
  O  O166  1  0.499888  0.810897  0.780188  1
  O  O167  1  0.500100  0.770254  0.924411  1
  O  O168  1  0.499391  0.559993  0.403167  1
  O  O169  1  0.994096  0.958444  0.770765  1
  O  O170  1  0.500365  0.643132  0.861982  1
  O  O171  1  0.494632  0.808592  0.029209  1
  O  O172  1  0.995639  0.711069  0.648268  1
  O  O173  1  0.494632  0.691408  0.470791  1
  O  O174  1  0.499166  0.186209  0.719440  1
  O  O175  1  0.994730  0.085521  0.086979  1
  O  O176  1  0.995787  0.530902  0.474607  1
  O  O177  1  0.501276  0.228777  0.320986  1
  O  O178  1  0.996297  0.501651  0.127204  1
  O  O179  1  0.499464  0.518861  0.301495  1
  O  O180  1  0.488793  0.026189  0.055723  1
  O  O181  1  0.499952  0.398832  0.239933  1
  O  O182  1  0.499635  0.143132  0.361982  1
  O  O183  1  0.499455  0.936194  0.842205  1
  O  O184  1  0.995126  0.582345  0.332112  1
  O  O185  1  0.500609  0.059993  0.903167  1
  O  O186  1  0.499464  0.981139  0.198505  1
  O  O187  1  0.995061  0.373889  0.811349  1
  O  O188  1  0.995166  0.750000  0.250000  1
  O  O189  1  0.004361  0.211069  0.148268  1
  O  O190  1  0.504131  0.599704  0.507207  1
  O  O191  1  0.500770  0.894965  0.239250  1
  O  O192  1  0.500365  0.856868  0.638018  1
  O  O193  1  0.500921  0.438115  0.096407  1
  O  O194  1  0.501782  0.239120  0.574811  1
  O  O195  1  -0.000142  0.623900  0.934557  1
