# generated using pymatgen
data_Ba4Nd7Si12BN27
_symmetry_space_group_name_H-M   'P 1'
_cell_length_a   12.33682678
_cell_length_b   12.33682712
_cell_length_c   5.47572887
_cell_angle_alpha   90.00000000
_cell_angle_beta   90.00000000
_cell_angle_gamma   119.99999909
_symmetry_Int_Tables_number   1
_chemical_formula_structural   Ba4Nd7Si12BN27
_chemical_formula_sum   'Ba4 Nd7 Si12 B1 N27'
_cell_volume   721.73790953
_cell_formula_units_Z   1
loop_
 _symmetry_equiv_pos_site_id
 _symmetry_equiv_pos_as_xyz
  1  'x, y, z'
loop_
 _atom_site_type_symbol
 _atom_site_label
 _atom_site_symmetry_multiplicity
 _atom_site_fract_x
 _atom_site_fract_y
 _atom_site_fract_z
 _atom_site_occupancy
  Ba  Ba0  1  0.921436  0.488863  0.500000  1
  Ba  Ba1  1  0.511137  0.432573  0.500000  1
  Ba  Ba2  1  0.333333  0.666667  0.500000  1
  Ba  Ba3  1  0.567427  0.078564  0.500000  1
  Nd  Nd4  1  0.780217  0.023844  0.000000  1
  Nd  Nd5  1  0.677396  0.705626  0.000000  1
  Nd  Nd6  1  0.028230  0.322604  0.000000  1
  Nd  Nd7  1  0.000000  0.000000  0.500000  1
  Nd  Nd8  1  0.976156  0.756373  0.000000  1
  Nd  Nd9  1  0.243627  0.219783  0.000000  1
  Nd  Nd10  1  0.294374  0.971770  0.000000  1
  Si  Si11  1  0.493247  0.796483  0.000000  1
  Si  Si12  1  0.757702  0.263297  0.000000  1
  Si  Si13  1  0.678659  0.871372  0.500000  1
  Si  Si14  1  0.875476  0.186017  0.500000  1
  Si  Si15  1  0.813983  0.689459  0.500000  1
  Si  Si16  1  0.736703  0.494405  0.000000  1
  Si  Si17  1  0.192713  0.321341  0.500000  1
  Si  Si18  1  0.303237  0.506753  0.000000  1
  Si  Si19  1  0.128628  0.807287  0.500000  1
  Si  Si20  1  0.310541  0.124524  0.500000  1
  Si  Si21  1  0.203517  0.696763  0.000000  1
  Si  Si22  1  0.505595  0.242298  0.000000  1
  B  B23  1  0.000000  0.000000  0.000000  1
  N  N24  1  0.247620  0.962839  0.500000  1
  N  N25  1  0.133978  0.727457  0.245685  1
  N  N26  1  0.133978  0.727457  0.754315  1
  N  N27  1  0.037161  0.284781  0.500000  1
  N  N28  1  0.187048  0.550226  0.000000  1
  N  N29  1  0.873542  0.888965  0.000000  1
  N  N30  1  0.015423  0.126458  0.000000  1
  N  N31  1  0.363178  0.812952  0.000000  1
  N  N32  1  0.272543  0.406521  0.245685  1
  N  N33  1  0.272543  0.406521  0.754315  1
  N  N34  1  0.205933  0.183598  0.500000  1
  N  N35  1  0.111035  0.984577  0.000000  1
  N  N36  1  0.449774  0.636822  0.000000  1
  N  N37  1  0.593479  0.866022  0.754315  1
  N  N38  1  0.593479  0.866022  0.245685  1
  N  N39  1  0.400194  0.179630  0.241190  1
  N  N40  1  0.400194  0.179630  0.758810  1
  N  N41  1  0.715219  0.752380  0.500000  1
  N  N42  1  0.576758  0.402184  0.000000  1
  N  N43  1  0.779436  0.599806  0.241190  1
  N  N44  1  0.779436  0.599806  0.758810  1
  N  N45  1  0.597816  0.174574  0.000000  1
  N  N46  1  0.977664  0.794067  0.500000  1
  N  N47  1  0.825426  0.423242  0.000000  1
  N  N48  1  0.820370  0.220564  0.758810  1
  N  N49  1  0.820370  0.220564  0.241190  1
  N  N50  1  0.816402  0.022336  0.500000  1
