# generated using pymatgen
data_Sr4Bi14O25
_symmetry_space_group_name_H-M   'P 1'
_cell_length_a   10.68338478
_cell_length_b   10.99409738
_cell_length_c   62.80246476
_cell_angle_alpha   22.35672158
_cell_angle_beta   22.38818162
_cell_angle_gamma   19.58891005
_symmetry_Int_Tables_number   1
_chemical_formula_structural   Sr4Bi14O25
_chemical_formula_sum   'Sr4 Bi14 O25'
_cell_volume   854.52807191
_cell_formula_units_Z   1
loop_
 _symmetry_equiv_pos_site_id
 _symmetry_equiv_pos_as_xyz
  1  'x, y, z'
loop_
 _atom_site_type_symbol
 _atom_site_label
 _atom_site_symmetry_multiplicity
 _atom_site_fract_x
 _atom_site_fract_y
 _atom_site_fract_z
 _atom_site_occupancy
  Sr  Sr0  1  0.965832  0.047924  0.163890  1
  Sr  Sr1  1  0.002345  0.103786  0.321440  1
  Sr  Sr2  1  0.668681  0.985970  0.555502  1
  Sr  Sr3  1  0.230094  0.562893  0.705147  1
  Bi  Bi4  1  0.974382  0.927721  0.010514  1
  Bi  Bi5  1  0.154676  0.236611  0.042722  1
  Bi  Bi6  1  0.119163  0.313556  0.211152  1
  Bi  Bi7  1  0.801591  0.763254  0.122867  1
  Bi  Bi8  1  0.112576  0.360522  0.383146  1
  Bi  Bi9  1  0.827829  0.781467  0.287809  1
  Bi  Bi10  1  -0.136516  0.262732  0.595237  1
  Bi  Bi11  1  0.178411  0.738996  0.430767  1
  Bi  Bi12  1  0.470123  0.960632  0.470409  1
  Bi  Bi13  1  0.231769  0.674159  0.841188  1
  Bi  Bi14  1  0.507452  0.436354  0.758414  1
  Bi  Bi15  1  0.044891  0.126696  0.906644  1
  Bi  Bi16  1  0.568915  0.745624  0.833875  1
  Bi  Bi17  1  0.570315  0.807664  0.988925  1
  O  O18  1  0.318896  0.274582  0.047197  1
  O  O19  1  0.507431  0.010509  0.654251  1
  O  O20  1  0.232911  0.382813  0.213554  1
  O  O21  1  0.686258  0.706246  0.118183  1
  O  O22  1  0.350880  0.647829  0.455220  1
  O  O23  1  0.478207  0.562428  0.104986  1
  O  O24  1  0.224316  0.359138  0.413119  1
  O  O25  1  0.722198  0.765839  0.274068  1
  O  O26  1  0.832598  0.334190  0.788115  1
  O  O27  1  0.821124  0.032021  0.321491  1
  O  O28  1  0.165988  0.547752  0.516921  1
  O  O29  1  0.782580  0.652498  0.435556  1
  O  O30  1  0.012219  0.219635  0.033186  1
  O  O31  1  0.102607  0.346338  0.698011  1
  O  O32  1  0.986926  0.277479  0.627705  1
  O  O33  1  0.152628  0.356972  0.656017  1
  O  O34  1  0.362256  0.726790  0.619762  1
  O  O35  1  0.465388  0.004396  0.700227  1
  O  O36  1  0.123792  0.170635  0.920763  1
  O  O37  1  0.525902  0.862697  0.787703  1
  O  O38  1  0.250595  0.326223  0.926917  1
  O  O39  1  0.518983  0.007368  0.494127  1
  O  O40  1  0.081954  0.116405  0.191008  1
  O  O41  1  0.826276  0.434451  0.977152  1
  O  O42  1  0.006659  0.366207  0.365763  1
