# generated using pymatgen
data_K3Nb7O19
_symmetry_space_group_name_H-M   'P 1'
_cell_length_a   6.55780812
_cell_length_b   14.38488300
_cell_length_c   19.54298501
_cell_angle_alpha   99.21095052
_cell_angle_beta   92.27180282
_cell_angle_gamma   84.93075381
_symmetry_Int_Tables_number   1
_chemical_formula_structural   K3Nb7O19
_chemical_formula_sum   'K12 Nb28 O76'
_cell_volume   1812.05559625
_cell_formula_units_Z   4
loop_
 _symmetry_equiv_pos_site_id
 _symmetry_equiv_pos_as_xyz
  1  'x, y, z'
loop_
 _atom_site_type_symbol
 _atom_site_label
 _atom_site_symmetry_multiplicity
 _atom_site_fract_x
 _atom_site_fract_y
 _atom_site_fract_z
 _atom_site_occupancy
  K  K0  1  0.575832  0.877025  0.735577  1
  K  K1  1  0.792752  0.270598  0.965669  1
  K  K2  1  0.757055  0.574399  0.343887  1
  K  K3  1  0.739355  0.739243  0.531445  1
  K  K4  1  0.424168  0.122975  0.264423  1
  K  K5  1  0.261373  0.586664  0.842810  1
  K  K6  1  0.098545  0.849608  0.233105  1
  K  K7  1  0.260645  0.260757  0.468555  1
  K  K8  1  0.738627  0.413336  0.157190  1
  K  K9  1  0.242945  0.425601  0.656113  1
  K  K10  1  0.207248  0.729402  0.034331  1
  K  K11  1  0.901455  0.150392  0.766895  1
  Nb  Nb12  1  0.733370  0.403546  0.798019  1
  Nb  Nb13  1  0.674079  0.684410  0.174793  1
  Nb  Nb14  1  0.325921  0.315590  0.825207  1
  Nb  Nb15  1  0.737894  0.076500  0.410656  1
  Nb  Nb16  1  0.764776  0.913827  0.089289  1
  Nb  Nb17  1  0.209731  0.539049  0.489013  1
  Nb  Nb18  1  0.708418  0.541805  0.988621  1
  Nb  Nb19  1  0.693892  0.010794  0.561351  1
  Nb  Nb20  1  0.196443  0.853086  0.856368  1
  Nb  Nb21  1  0.767751  0.760751  0.890524  1
  Nb  Nb22  1  0.266630  0.596454  0.201981  1
  Nb  Nb23  1  0.790269  0.460951  0.510987  1
  Nb  Nb24  1  0.235224  0.086173  0.910711  1
  Nb  Nb25  1  0.803557  0.146914  0.143632  1
  Nb  Nb26  1  0.262106  0.923500  0.589344  1
  Nb  Nb27  1  0.272365  0.754195  0.391760  1
  Nb  Nb28  1  0.759305  0.617521  0.696578  1
  Nb  Nb29  1  0.298014  0.155226  0.643202  1
  Nb  Nb30  1  0.197946  0.004935  0.059280  1
  Nb  Nb31  1  0.232249  0.239249  0.109476  1
  Nb  Nb32  1  0.825828  0.303654  0.328888  1
  Nb  Nb33  1  0.291582  0.458195  0.011379  1
  Nb  Nb34  1  0.306108  0.989206  0.438649  1
  Nb  Nb35  1  0.727635  0.245805  0.608240  1
  Nb  Nb36  1  0.802054  0.995065  0.940720  1
  Nb  Nb37  1  0.240695  0.382479  0.303422  1
  Nb  Nb38  1  0.174172  0.696346  0.671112  1
  Nb  Nb39  1  0.701986  0.844774  0.356798  1
  O  O40  1  0.222898  0.461188  0.391319  1
  O  O41  1  0.854258  0.044881  0.042019  1
  O  O42  1  0.196103  0.791155  0.765319  1
  O  O43  1  0.710393  0.475619  0.887959  1
  O  O44  1  0.926049  0.244102  0.098715  1
  O  O45  1  0.074951  0.903646  0.094741  1
  O  O46  1  0.729038  0.309817  0.697460  1
  O  O47  1  0.257365  0.191230  0.868943  1
  O  O48  1  0.238144  0.298233  0.200835  1
  O  O49  1  0.073951  0.755898  0.901285  1
  O  O50  1  0.009752  0.355244  0.806050  1
  O  O51  1  0.731871  0.971105  0.331909  1
  O  O52  1  0.876975  0.729637  0.662120  1
  O  O53  1  0.708268  0.620775  0.079944  1
  O  O54  1  0.471546  0.819157  0.882479  1
  O  O55  1  0.264190  0.490430  0.252653  1
  O  O56  1  0.108728  0.436553  0.527401  1
  O  O57  1  0.238486  0.981284  0.833207  1
  O  O58  1  0.291732  0.379225  0.920056  1
  O  O59  1  0.965264  0.967891  0.573473  1
  O  O60  1  0.225713  0.658574  0.442361  1
  O  O61  1  0.533397  0.044070  0.929332  1
  O  O62  1  0.601684  0.583337  0.217974  1
  O  O63  1  0.350741  0.048415  0.539905  1
  O  O64  1  0.421998  0.250470  0.596342  1
  O  O65  1  0.289607  0.524381  0.112041  1
  O  O66  1  0.578002  0.749530  0.403658  1
  O  O67  1  0.226841  0.127967  0.014282  1
  O  O68  1  0.990248  0.644756  0.193950  1
  O  O69  1  0.204696  0.626484  0.577539  1
  O  O70  1  0.774939  0.178070  0.368679  1
  O  O71  1  0.145742  0.955119  0.957981  1
  O  O72  1  0.795304  0.373516  0.422461  1
  O  O73  1  0.000000  0.500000  0.000000  1
  O  O74  1  0.925049  0.096354  0.905259  1
  O  O75  1  0.364461  0.889250  0.358338  1
  O  O76  1  0.022793  0.186000  0.615558  1
  O  O77  1  0.908921  0.402317  0.285045  1
  O  O78  1  0.611644  0.433368  0.021767  1
  O  O79  1  0.977207  0.814000  0.384442  1
  O  O80  1  0.761856  0.701767  0.799165  1
  O  O81  1  0.731956  0.663813  0.942147  1
  O  O82  1  0.225061  0.821930  0.631321  1
  O  O83  1  0.857818  0.897945  0.858384  1
  O  O84  1  0.773159  0.872033  0.985718  1
  O  O85  1  0.268044  0.336187  0.057853  1
  O  O86  1  0.891272  0.563447  0.472599  1
  O  O87  1  0.761514  0.018716  0.166793  1
  O  O88  1  0.292897  0.220725  0.733345  1
  O  O89  1  0.466603  0.955930  0.070668  1
  O  O90  1  0.528454  0.180843  0.117521  1
  O  O91  1  0.123025  0.270363  0.337880  1
  O  O92  1  0.034736  0.032109  0.426527  1
  O  O93  1  0.735810  0.509570  0.747347  1
  O  O94  1  0.707103  0.779275  0.266655  1
  O  O95  1  0.484872  0.670723  0.687468  1
  O  O96  1  0.426598  0.089437  0.402321  1
  O  O97  1  0.777102  0.538812  0.608681  1
  O  O98  1  0.388356  0.566632  0.978233  1
  O  O99  1  0.618144  0.284851  0.832276  1
  O  O100  1  0.635539  0.110750  0.641662  1
  O  O101  1  0.381856  0.715149  0.167724  1
  O  O102  1  0.268129  0.028895  0.668091  1
  O  O103  1  0.573402  0.910563  0.597679  1
  O  O104  1  0.649259  0.951585  0.460095  1
  O  O105  1  0.742635  0.808770  0.131057  1
  O  O106  1  0.724621  0.129009  0.512124  1
  O  O107  1  0.500000  0.500000  0.500000  1
  O  O108  1  0.275379  0.870991  0.487876  1
  O  O109  1  0.515128  0.329277  0.312532  1
  O  O110  1  0.091079  0.597683  0.714955  1
  O  O111  1  0.774287  0.341426  0.557639  1
  O  O112  1  0.270962  0.690183  0.302540  1
  O  O113  1  0.803897  0.208845  0.234681  1
  O  O114  1  0.142182  0.102055  0.141616  1
  O  O115  1  0.398316  0.416663  0.782026  1
