# generated using pymatgen
data_Rb4N4O3
_symmetry_space_group_name_H-M   'P 1'
_cell_length_a   4.20796298
_cell_length_b   4.09281992
_cell_length_c   16.31949388
_cell_angle_alpha   90.05289310
_cell_angle_beta   84.12621833
_cell_angle_gamma   104.84472922
_symmetry_Int_Tables_number   1
_chemical_formula_structural   Rb4N4O3
_chemical_formula_sum   'Rb4 N4 O3'
_cell_volume   270.16069561
_cell_formula_units_Z   1
loop_
 _symmetry_equiv_pos_site_id
 _symmetry_equiv_pos_as_xyz
  1  'x, y, z'
loop_
 _atom_site_type_symbol
 _atom_site_label
 _atom_site_symmetry_multiplicity
 _atom_site_fract_x
 _atom_site_fract_y
 _atom_site_fract_z
 _atom_site_occupancy
  Rb  Rb0  1  0.504969  0.519021  0.111339  1
  Rb  Rb1  1  0.560233  0.519307  0.368154  1
  Rb  Rb2  1  0.511283  0.508268  0.894127  1
  Rb  Rb3  1  0.617389  0.543847  0.623774  1
  N  N4  1  0.137697  0.893590  0.274244  1
  N  N5  1  0.139646  0.884251  0.732521  1
  N  N6  1  0.935878  0.089050  0.002955  1
  N  N7  1  0.145089  0.042947  0.527533  1
  O  O8  1  0.437236  0.008529  0.244992  1
  O  O9  1  0.408251  0.978957  0.495127  1
  O  O10  1  0.410330  0.012233  0.760234  1
