# generated using pymatgen
data_K3Y3(BO3)4
_symmetry_space_group_name_H-M   'P 1'
_cell_length_a   10.66447370
_cell_length_b   14.03317680
_cell_length_c   17.67154109
_cell_angle_alpha   90.00000000
_cell_angle_beta   90.00000000
_cell_angle_gamma   110.49243914
_symmetry_Int_Tables_number   1
_chemical_formula_structural   K3Y3(BO3)4
_chemical_formula_sum   'K24 Y24 B32 O96'
_cell_volume   2477.30168476
_cell_formula_units_Z   8
loop_
 _symmetry_equiv_pos_site_id
 _symmetry_equiv_pos_as_xyz
  1  'x, y, z'
loop_
 _atom_site_type_symbol
 _atom_site_label
 _atom_site_symmetry_multiplicity
 _atom_site_fract_x
 _atom_site_fract_y
 _atom_site_fract_z
 _atom_site_occupancy
  K  K0  1  0.081008  0.906171  0.172441  1
  K  K1  1  0.090063  0.406785  0.822508  1
  K  K2  1  0.299712  0.398965  0.533282  1
  K  K3  1  0.606179  0.459831  0.289135  1
  K  K4  1  0.393821  0.040169  0.789135  1
  K  K5  1  0.918992  0.593829  0.672441  1
  K  K6  1  0.918992  0.093829  0.827559  1
  K  K7  1  0.293054  0.899563  0.463099  1
  K  K8  1  0.393585  0.044737  0.289027  1
  K  K9  1  0.606415  0.955263  0.710973  1
  K  K10  1  0.606179  0.959831  0.210865  1
  K  K11  1  0.909937  0.593215  0.177492  1
  K  K12  1  0.293054  0.399563  0.036901  1
  K  K13  1  0.393585  0.544737  0.210973  1
  K  K14  1  0.606415  0.455263  0.789027  1
  K  K15  1  0.700288  0.101035  0.033282  1
  K  K16  1  0.090063  0.906785  0.677492  1
  K  K17  1  0.706946  0.100437  0.536901  1
  K  K18  1  0.706946  0.600437  0.963099  1
  K  K19  1  0.909937  0.093215  0.322508  1
  K  K20  1  0.299712  0.898965  0.966718  1
  K  K21  1  0.393821  0.540169  0.710865  1
  K  K22  1  0.700288  0.601035  0.466718  1
  K  K23  1  0.081008  0.406171  0.327559  1
  Y  Y24  1  0.291104  0.752384  0.153328  1
  Y  Y25  1  0.709758  0.750192  0.144277  1
  Y  Y26  1  0.167804  0.611410  0.484768  1
  Y  Y27  1  0.708896  0.747616  0.653328  1
  Y  Y28  1  0.290242  0.249808  0.855723  1
  Y  Y29  1  0.523392  0.760340  0.379211  1
  Y  Y30  1  0.476608  0.739660  0.879211  1
  Y  Y31  1  0.000815  0.745294  0.844596  1
  Y  Y32  1  0.167804  0.111410  0.015232  1
  Y  Y33  1  0.708896  0.247616  0.846672  1
  Y  Y34  1  0.999185  0.254706  0.155404  1
  Y  Y35  1  0.523392  0.260340  0.120789  1
  Y  Y36  1  0.157019  0.119824  0.513706  1
  Y  Y37  1  0.832196  0.888590  0.984768  1
  Y  Y38  1  0.290242  0.749808  0.644277  1
  Y  Y39  1  0.157019  0.619824  0.986294  1
  Y  Y40  1  0.999185  0.754706  0.344596  1
  Y  Y41  1  0.291104  0.252384  0.346672  1
  Y  Y42  1  0.000815  0.245294  0.655404  1
  Y  Y43  1  0.842981  0.380176  0.013706  1
  Y  Y44  1  0.842981  0.880176  0.486294  1
  Y  Y45  1  0.832196  0.388590  0.515232  1
  Y  Y46  1  0.709758  0.250192  0.355723  1
  Y  Y47  1  0.476608  0.239660  0.620789  1
  B  B48  1  0.230412  0.218957  0.194401  1
  B  B49  1  0.498012  0.753292  0.044489  1
  B  B50  1  0.377148  0.514404  0.382026  1
  B  B51  1  0.383207  0.017514  0.614175  1
  B  B52  1  0.000265  0.757638  0.538930  1
  B  B53  1  0.999735  0.742362  0.038930  1
  B  B54  1  0.769588  0.281043  0.694401  1
  B  B55  1  0.118146  0.500799  0.122446  1
  B  B56  1  0.234470  0.220205  0.703700  1
  B  B57  1  0.000265  0.257638  0.961070  1
  B  B58  1  0.501988  0.746708  0.544489  1
  B  B59  1  0.765530  0.779795  0.296300  1
  B  B60  1  0.616793  0.982486  0.385825  1
  B  B61  1  0.383207  0.517514  0.885825  1
  B  B62  1  0.765530  0.279795  0.203700  1
  B  B63  1  0.999735  0.242362  0.461070  1
  B  B64  1  0.616793  0.482486  0.114175  1
  B  B65  1  0.868208  0.516549  0.382808  1
  B  B66  1  0.131792  0.483451  0.617192  1
  B  B67  1  0.118146  0.000799  0.377554  1
  B  B68  1  0.881854  0.499201  0.877554  1
  B  B69  1  0.868208  0.016549  0.117192  1
  B  B70  1  0.622852  0.485596  0.617974  1
  B  B71  1  0.769588  0.781043  0.805599  1
  B  B72  1  0.881854  0.999201  0.622446  1
  B  B73  1  0.622852  0.985596  0.882026  1
  B  B74  1  0.377148  0.014404  0.117974  1
  B  B75  1  0.131792  0.983451  0.882808  1
  B  B76  1  0.501988  0.246708  0.955511  1
  B  B77  1  0.234470  0.720205  0.796300  1
  B  B78  1  0.498012  0.253292  0.455511  1
  B  B79  1  0.230412  0.718957  0.305599  1
  O  O80  1  0.649058  0.784003  0.780801  1
  O  O81  1  0.346402  0.916061  0.636811  1
  O  O82  1  0.954836  0.043273  0.055467  1
  O  O83  1  0.859967  0.770498  0.750759  1
  O  O84  1  0.190449  0.715996  0.380524  1
  O  O85  1  0.497542  0.092934  0.129531  1
  O  O86  1  0.724926  0.972115  0.924960  1
  O  O87  1  0.011455  0.499185  0.076421  1
  O  O88  1  0.644296  0.080312  0.848931  1
  O  O89  1  0.649058  0.284003  0.719199  1
  O  O90  1  0.766586  0.913411  0.610163  1
  O  O91  1  0.139798  0.729118  0.744698  1
  O  O92  1  0.494188  0.412922  0.136370  1
  O  O93  1  0.774023  0.417689  0.387337  1
  O  O94  1  0.006020  0.797351  0.466847  1
  O  O95  1  0.499232  0.747012  0.623126  1
  O  O96  1  0.140033  0.729502  0.250759  1
  O  O97  1  0.993980  0.702649  0.966847  1
  O  O98  1  0.644296  0.580312  0.651069  1
  O  O99  1  0.102127  0.725925  0.565910  1
  O  O100  1  0.653598  0.083940  0.363189  1
  O  O101  1  0.225977  0.582311  0.612663  1
  O  O102  1  0.774023  0.917689  0.112663  1
  O  O103  1  0.500768  0.752988  0.123126  1
  O  O104  1  0.860202  0.270882  0.255302  1
  O  O105  1  0.703633  0.948475  0.427574  1
  O  O106  1  0.502458  0.407066  0.629531  1
  O  O107  1  0.505812  0.087078  0.636370  1
  O  O108  1  0.296367  0.051525  0.572426  1
  O  O109  1  0.133439  0.416268  0.672146  1
  O  O110  1  0.133439  0.916268  0.827854  1
  O  O111  1  0.988545  0.500815  0.923579  1
  O  O112  1  0.866561  0.083732  0.172146  1
  O  O113  1  0.190449  0.215996  0.119476  1
  O  O114  1  0.494188  0.912922  0.363630  1
  O  O115  1  0.296367  0.551525  0.927574  1
  O  O116  1  0.988545  0.000815  0.576421  1
  O  O117  1  0.786574  0.277893  0.126769  1
  O  O118  1  0.859967  0.270498  0.749241  1
  O  O119  1  0.786574  0.777893  0.373231  1
  O  O120  1  0.350942  0.715997  0.280801  1
  O  O121  1  0.617019  0.249136  0.993219  1
  O  O122  1  0.213426  0.722107  0.873231  1
  O  O123  1  0.352088  0.714347  0.767454  1
  O  O124  1  0.102127  0.225925  0.934090  1
  O  O125  1  0.233414  0.086589  0.389837  1
  O  O126  1  0.809551  0.784004  0.880524  1
  O  O127  1  0.233414  0.586589  0.110163  1
  O  O128  1  0.889473  0.755891  0.581090  1
  O  O129  1  0.611828  0.756113  0.004437  1
  O  O130  1  0.502458  0.907066  0.870469  1
  O  O131  1  0.703633  0.448475  0.072426  1
  O  O132  1  0.647912  0.285653  0.232546  1
  O  O133  1  0.993980  0.202649  0.533153  1
  O  O134  1  0.110527  0.744109  0.081090  1
  O  O135  1  0.860202  0.770882  0.244698  1
  O  O136  1  0.889473  0.255891  0.918910  1
  O  O137  1  0.355704  0.419688  0.348931  1
  O  O138  1  0.499232  0.247012  0.876874  1
  O  O139  1  0.110527  0.244109  0.418910  1
  O  O140  1  0.139798  0.229118  0.755302  1
  O  O141  1  0.011455  0.999185  0.423579  1
  O  O142  1  0.809551  0.284004  0.619476  1
  O  O143  1  0.954836  0.543273  0.444533  1
  O  O144  1  0.500768  0.252988  0.376874  1
  O  O145  1  0.724926  0.472115  0.575040  1
  O  O146  1  0.116333  0.925759  0.327497  1
  O  O147  1  0.388172  0.243887  0.995563  1
  O  O148  1  0.350942  0.215997  0.219199  1
  O  O149  1  0.766586  0.413411  0.889837  1
  O  O150  1  0.883667  0.574241  0.827497  1
  O  O151  1  0.883667  0.074241  0.672503  1
  O  O152  1  0.505812  0.587078  0.863630  1
  O  O153  1  0.897873  0.774075  0.065910  1
  O  O154  1  0.275074  0.527885  0.424960  1
  O  O155  1  0.617019  0.749136  0.506781  1
  O  O156  1  0.140033  0.229502  0.249241  1
  O  O157  1  0.497542  0.592934  0.370469  1
  O  O158  1  0.866561  0.583732  0.327854  1
  O  O159  1  0.382981  0.250864  0.493219  1
  O  O160  1  0.653598  0.583939  0.136811  1
  O  O161  1  0.006020  0.297351  0.033153  1
  O  O162  1  0.647912  0.785653  0.267454  1
  O  O163  1  0.355704  0.919688  0.151069  1
  O  O164  1  0.275074  0.027885  0.075040  1
  O  O165  1  0.116333  0.425759  0.172503  1
  O  O166  1  0.346402  0.416060  0.863189  1
  O  O167  1  0.382981  0.750864  0.006781  1
  O  O168  1  0.352088  0.214347  0.732546  1
  O  O169  1  0.611828  0.256113  0.495563  1
  O  O170  1  0.388172  0.743887  0.504437  1
  O  O171  1  0.045164  0.456727  0.555467  1
  O  O172  1  0.213426  0.222107  0.626769  1
  O  O173  1  0.225977  0.082311  0.887337  1
  O  O174  1  0.897873  0.274075  0.434090  1
  O  O175  1  0.045164  0.956727  0.944533  1
