# generated using pymatgen
data_As9Pb7S20
_symmetry_space_group_name_H-M   'P 1'
_cell_length_a   8.39523690
_cell_length_b   8.35949323
_cell_length_c   25.95194978
_cell_angle_alpha   90.00000000
_cell_angle_beta   90.00000000
_cell_angle_gamma   89.41511405
_symmetry_Int_Tables_number   1
_chemical_formula_structural   As9Pb7S20
_chemical_formula_sum   'As18 Pb14 S40'
_cell_volume   1821.21102006
_cell_formula_units_Z   2
loop_
 _symmetry_equiv_pos_site_id
 _symmetry_equiv_pos_as_xyz
  1  'x, y, z'
loop_
 _atom_site_type_symbol
 _atom_site_label
 _atom_site_symmetry_multiplicity
 _atom_site_fract_x
 _atom_site_fract_y
 _atom_site_fract_z
 _atom_site_occupancy
  As  As0  1  0.267131  0.402150  0.223591  1
  As  As1  1  0.265535  0.621053  0.341648  1
  As  As2  1  0.884904  0.931927  0.350577  1
  As  As3  1  0.936124  0.171391  0.143675  1
  As  As4  1  0.063876  0.828609  0.643675  1
  As  As5  1  0.069658  0.371124  0.636450  1
  As  As6  1  0.115096  0.068073  0.850577  1
  As  As7  1  0.734465  0.378947  0.841648  1
  As  As8  1  0.563245  0.874357  0.455674  1
  As  As9  1  0.381049  0.881496  0.733066  1
  As  As10  1  0.732869  0.597850  0.723591  1
  As  As11  1  0.557639  0.423646  0.449432  1
  As  As12  1  0.930342  0.628876  0.136450  1
  As  As13  1  0.618951  0.118504  0.233066  1
  As  As14  1  0.887447  0.353855  0.361052  1
  As  As15  1  0.442361  0.576354  0.949432  1
  As  As16  1  0.436755  0.125643  0.955674  1
  As  As17  1  0.112553  0.646145  0.861052  1
  Pb  Pb18  1  0.351693  0.358811  0.759609  1
  Pb  Pb19  1  0.951538  0.125474  0.500477  1
  Pb  Pb20  1  0.286476  0.118200  0.372070  1
  Pb  Pb21  1  0.948606  0.624500  0.494509  1
  Pb  Pb22  1  0.539283  0.377292  0.088286  1
  Pb  Pb23  1  0.183852  0.875176  0.224582  1
  Pb  Pb24  1  0.444434  0.114523  0.587453  1
  Pb  Pb25  1  0.555566  0.885477  0.087453  1
  Pb  Pb26  1  0.648307  0.641189  0.259609  1
  Pb  Pb27  1  0.048462  0.874526  0.000477  1
  Pb  Pb28  1  0.816148  0.124824  0.724583  1
  Pb  Pb29  1  0.051394  0.375500  0.994509  1
  Pb  Pb30  1  0.713524  0.881800  0.872070  1
  Pb  Pb31  1  0.460717  0.622708  0.588286  1
  S  S32  1  0.790476  0.136014  0.070568  1
  S  S33  1  0.293262  0.618816  0.021346  1
  S  S34  1  0.706738  0.381184  0.521346  1
  S  S35  1  0.976161  0.898679  0.799031  1
  S  S36  1  0.405405  0.649207  0.476414  1
  S  S37  1  0.733764  0.902407  0.193681  1
  S  S38  1  0.900831  0.181975  0.612226  1
  S  S39  1  0.723736  0.872244  0.526781  1
  S  S40  1  0.258533  0.858937  0.896458  1
  S  S41  1  0.736284  0.569892  0.400434  1
  S  S42  1  0.909583  0.638402  0.918083  1
  S  S43  1  0.209524  0.863986  0.570568  1
  S  S44  1  0.587757  0.607427  0.800865  1
  S  S45  1  0.233190  0.373293  0.565261  1
  S  S46  1  0.583420  0.168380  0.808229  1
  S  S47  1  0.766810  0.626707  0.065261  1
  S  S48  1  0.594595  0.350793  0.976414  1
  S  S49  1  0.589547  0.401850  0.685028  1
  S  S50  1  0.084262  0.392769  0.116365  1
  S  S51  1  0.276264  0.127756  0.026781  1
  S  S52  1  0.938446  0.388141  0.785124  1
  S  S53  1  0.023839  0.101321  0.299031  1
  S  S54  1  0.416580  0.831620  0.308229  1
  S  S55  1  0.243791  0.674972  0.692279  1
  S  S56  1  0.927908  0.129371  0.910339  1
  S  S57  1  0.090417  0.361598  0.418083  1
  S  S58  1  0.390867  0.150832  0.184566  1
  S  S59  1  0.412243  0.392573  0.300865  1
  S  S60  1  0.099169  0.818025  0.112226  1
  S  S61  1  0.741467  0.141063  0.396458  1
  S  S62  1  0.061554  0.611859  0.285124  1
  S  S63  1  0.072092  0.870629  0.410339  1
  S  S64  1  0.756209  0.325028  0.192278  1
  S  S65  1  0.609133  0.849168  0.684566  1
  S  S66  1  0.391394  0.068548  0.479772  1
  S  S67  1  0.915738  0.607231  0.616365  1
  S  S68  1  0.608606  0.931452  0.979772  1
  S  S69  1  0.410453  0.598150  0.185028  1
  S  S70  1  0.266236  0.097593  0.693681  1
  S  S71  1  0.263716  0.430108  0.900434  1
