# generated using pymatgen
data_Mo2Cl4O
_symmetry_space_group_name_H-M   'P 1'
_cell_length_a   9.31979583
_cell_length_b   6.13701827
_cell_length_c   6.47362073
_cell_angle_alpha   58.82559036
_cell_angle_beta   46.11155547
_cell_angle_gamma   45.83950094
_symmetry_Int_Tables_number   1
_chemical_formula_structural   Mo2Cl4O
_chemical_formula_sum   'Mo2 Cl4 O1'
_cell_volume   191.00170778
_cell_formula_units_Z   1
loop_
 _symmetry_equiv_pos_site_id
 _symmetry_equiv_pos_as_xyz
  1  'x, y, z'
loop_
 _atom_site_type_symbol
 _atom_site_label
 _atom_site_symmetry_multiplicity
 _atom_site_fract_x
 _atom_site_fract_y
 _atom_site_fract_z
 _atom_site_occupancy
  Mo  Mo0  1  0.320468  0.612429  0.568224  1
  Mo  Mo1  1  0.725766  0.813506  0.562658  1
  Cl  Cl2  1  0.948898  0.688401  0.072218  1
  Cl  Cl3  1  0.660887  0.530193  0.051906  1
  Cl  Cl4  1  0.382467  0.901337  0.647056  1
  Cl  Cl5  1  0.096600  0.738426  0.400652  1
  O  O6  1  0.523915  0.215709  0.697285  1
