# generated using pymatgen
data_Ce11MnS16
_symmetry_space_group_name_H-M   'P 1'
_cell_length_a   29.54287662
_cell_length_b   8.49942536
_cell_length_c   8.56200589
_cell_angle_alpha   90.00000000
_cell_angle_beta   54.57530038
_cell_angle_gamma   54.87263482
_symmetry_Int_Tables_number   1
_chemical_formula_structural   Ce11MnS16
_chemical_formula_sum   'Ce22 Mn2 S32'
_cell_volume   1240.52221298
_cell_formula_units_Z   2
loop_
 _symmetry_equiv_pos_site_id
 _symmetry_equiv_pos_as_xyz
  1  'x, y, z'
loop_
 _atom_site_type_symbol
 _atom_site_label
 _atom_site_symmetry_multiplicity
 _atom_site_fract_x
 _atom_site_fract_y
 _atom_site_fract_z
 _atom_site_occupancy
  Ce  Ce0  1  0.998975  0.124284  0.745732  1
  Ce  Ce1  1  0.059643  0.633638  0.378875  1
  Ce  Ce2  1  0.124623  0.251026  0.627454  1
  Ce  Ce3  1  0.250668  0.369345  0.246292  1
  Ce  Ce4  1  0.190357  0.872209  0.121125  1
  Ce  Ce5  1  0.251025  0.120183  0.754268  1
  Ce  Ce6  1  0.125377  0.749517  0.872546  1
  Ce  Ce7  1  0.313970  0.624682  0.365148  1
  Ce  Ce8  1  0.375000  0.250000  0.621303  1
  Ce  Ce9  1  0.498975  0.379817  0.258370  1
  Ce  Ce10  1  0.436030  0.875318  0.121026  1
  Ce  Ce11  1  0.499332  0.130655  0.748965  1
  Ce  Ce12  1  0.559643  0.627791  0.382554  1
  Ce  Ce13  1  0.625377  0.248974  0.625944  1
  Ce  Ce14  1  0.751025  0.375716  0.241630  1
  Ce  Ce15  1  0.690357  0.866362  0.117446  1
  Ce  Ce16  1  0.750668  0.127982  0.751035  1
  Ce  Ce17  1  0.624623  0.750483  0.874056  1
  Ce  Ce18  1  0.813970  0.619439  0.378974  1
  Ce  Ce19  1  0.999332  0.372018  0.253708  1
  Ce  Ce20  1  0.936030  0.880561  0.134852  1
  Ce  Ce21  1  0.875000  0.750000  0.878697  1
  Mn  Mn22  1  0.375000  0.750000  0.873396  1
  Mn  Mn23  1  0.875000  0.250000  0.626604  1
  S  S24  1  0.086522  0.501459  0.003269  1
  S  S25  1  0.038304  0.347496  0.498754  1
  S  S26  1  0.029612  0.011446  0.359092  1
  S  S27  1  0.220388  0.129893  0.140908  1
  S  S28  1  0.211696  0.500713  0.001246  1
  S  S29  1  0.087264  0.649333  0.650452  1
  S  S30  1  0.162736  -0.001611  0.849548  1
  S  S31  1  0.163478  0.847546  0.496731  1
  S  S32  1  0.340452  0.507547  -0.014060  1
  S  S33  1  0.287404  0.350361  0.498608  1
  S  S34  1  0.285269  0.006975  0.361819  1
  S  S35  1  0.462596  0.149639  0.148225  1
  S  S36  1  0.464731  0.493025  0.002893  1
  S  S37  1  0.409548  -0.007547  0.847748  1
  S  S38  1  0.336505  0.648237  0.644554  1
  S  S39  1  0.413495  0.851763  0.490575  1
  S  S40  1  0.587264  0.501611  0.000492  1
  S  S41  1  0.529612  0.370107  0.522461  1
  S  S42  1  0.538304  -0.000713  0.348029  1
  S  S43  1  0.711696  0.152504  0.151971  1
  S  S44  1  0.720388  0.488554  -0.022461  1
  S  S45  1  0.663478  -0.001459  0.849356  1
  S  S46  1  0.586522  0.652454  0.650644  1
  S  S47  1  0.662736  0.850667  0.499508  1
  S  S48  1  0.836505  0.505742  0.009425  1
  S  S49  1  0.785269  0.351950  0.497107  1
  S  S50  1  0.787404  0.000022  0.351775  1
  S  S51  1  0.964731  0.148050  0.138181  1
  S  S52  1  0.962596  0.499978  0.001392  1
  S  S53  1  0.913495  -0.005742  0.855446  1
  S  S54  1  0.840452  0.630645  0.652252  1
  S  S55  1  0.909548  0.869355  0.514060  1
