# generated using pymatgen
data_Fe2Te3
_symmetry_space_group_name_H-M   'P 1'
_cell_length_a   11.15522489
_cell_length_b   6.44047218
_cell_length_c   6.23519564
_cell_angle_alpha   58.90482860
_cell_angle_beta   53.39049903
_cell_angle_gamma   30.00000124
_symmetry_Int_Tables_number   1
_chemical_formula_structural   Fe2Te3
_chemical_formula_sum   'Fe4 Te6'
_cell_volume   179.79576928
_cell_formula_units_Z   2
loop_
 _symmetry_equiv_pos_site_id
 _symmetry_equiv_pos_as_xyz
  1  'x, y, z'
loop_
 _atom_site_type_symbol
 _atom_site_label
 _atom_site_symmetry_multiplicity
 _atom_site_fract_x
 _atom_site_fract_y
 _atom_site_fract_z
 _atom_site_occupancy
  Fe  Fe0  1  -0.008506  0.000000  0.025519  1
  Fe  Fe1  1  0.675173  0.000000  -0.025519  1
  Fe  Fe2  1  0.175173  0.000000  0.474481  1
  Fe  Fe3  1  0.491494  0.000000  0.525519  1
  Te  Te4  1  0.083333  0.332318  0.750000  1
  Te  Te5  1  0.251015  0.664637  0.250000  1
  Te  Te6  1  0.415652  0.335363  0.750000  1
  Te  Te7  1  0.583333  0.667682  0.250000  1
  Te  Te8  1  0.751015  0.332318  0.750000  1
  Te  Te9  1  0.915652  0.667682  0.250000  1
