# generated using pymatgen
data_ThMn4(CuO4)3
_symmetry_space_group_name_H-M   'P 1'
_cell_length_a   6.49406205
_cell_length_b   6.49383956
_cell_length_c   6.49387305
_cell_angle_alpha   109.44401295
_cell_angle_beta   109.60584241
_cell_angle_gamma   109.36777312
_symmetry_Int_Tables_number   1
_chemical_formula_structural   ThMn4(CuO4)3
_chemical_formula_sum   'Th1 Mn4 Cu3 O12'
_cell_volume   210.80318274
_cell_formula_units_Z   1
loop_
 _symmetry_equiv_pos_site_id
 _symmetry_equiv_pos_as_xyz
  1  'x, y, z'
loop_
 _atom_site_type_symbol
 _atom_site_label
 _atom_site_symmetry_multiplicity
 _atom_site_fract_x
 _atom_site_fract_y
 _atom_site_fract_z
 _atom_site_occupancy
  Th  Th0  1  0.000010  0.000009  0.000008  1
  Mn  Mn1  1  0.000036  0.000006  0.499993  1
  Mn  Mn2  1  0.500013  0.000004  0.000016  1
  Mn  Mn3  1  0.499910  0.499985  0.499982  1
  Mn  Mn4  1  0.000026  0.499994  0.000040  1
  Cu  Cu5  1  0.499984  -0.000012  0.499993  1
  Cu  Cu6  1  0.499979  0.500005  0.000006  1
  Cu  Cu7  1  0.000031  0.500003  0.499994  1
  O  O8  1  0.300210  0.129395  0.829166  1
  O  O9  1  0.699785  0.528963  0.829174  1
  O  O10  1  0.828893  0.700257  0.529134  1
  O  O11  1  0.171108  0.299742  0.470861  1
  O  O12  1  0.300215  0.471036  0.170820  1
  O  O13  1  0.699791  0.870607  0.170826  1
  O  O14  1  0.171110  0.700246  0.871355  1
  O  O15  1  0.470753  0.171458  0.299301  1
  O  O16  1  0.872156  0.171455  0.700697  1
  O  O17  1  0.529252  0.828543  0.700697  1
  O  O18  1  0.127842  0.828546  0.299299  1
  O  O19  1  0.828893  0.299759  0.128640  1
