# generated using pymatgen
data_Sr10Cu5Bi10O29
_symmetry_space_group_name_H-M   'P 1'
_cell_length_a   5.42379721
_cell_length_b   14.00262018
_cell_length_c   25.24005940
_cell_angle_alpha   81.76791280
_cell_angle_beta   83.73930813
_cell_angle_gamma   78.58009853
_symmetry_Int_Tables_number   1
_chemical_formula_structural   Sr10Cu5Bi10O29
_chemical_formula_sum   'Sr20 Cu10 Bi20 O58'
_cell_volume   1853.15959843
_cell_formula_units_Z   2
loop_
 _symmetry_equiv_pos_site_id
 _symmetry_equiv_pos_as_xyz
  1  'x, y, z'
loop_
 _atom_site_type_symbol
 _atom_site_label
 _atom_site_symmetry_multiplicity
 _atom_site_fract_x
 _atom_site_fract_y
 _atom_site_fract_z
 _atom_site_occupancy
  Sr  Sr0  1  0.165820  0.160394  0.489918  1
  Sr  Sr1  1  0.155025  0.579166  0.069354  1
  Sr  Sr2  1  0.791243  0.254124  0.128660  1
  Sr  Sr3  1  0.805950  0.422293  0.927531  1
  Sr  Sr4  1  0.644651  0.492146  0.170474  1
  Sr  Sr5  1  0.175456  0.940648  0.678123  1
  Sr  Sr6  1  0.658507  0.661578  0.969844  1
  Sr  Sr7  1  0.671174  0.840548  0.773718  1
  Sr  Sr8  1  0.815969  0.840028  0.513381  1
  Sr  Sr9  1  0.664535  0.048270  0.583900  1
  Sr  Sr10  1  0.309768  0.508147  0.827451  1
  Sr  Sr11  1  0.173132  0.747343  0.870947  1
  Sr  Sr12  1  0.153838  0.383975  0.282011  1
  Sr  Sr13  1  0.298421  0.956253  0.419419  1
  Sr  Sr14  1  0.823051  0.615817  0.717890  1
  Sr  Sr15  1  0.282238  0.162367  0.226659  1
  Sr  Sr16  1  0.290268  0.339856  0.028865  1
  Sr  Sr17  1  0.654499  0.271438  0.391639  1
  Sr  Sr18  1  0.320422  0.727969  0.611137  1
  Sr  Sr19  1  0.791517  0.059361  0.323092  1
  Cu  Cu20  1  0.751380  0.825417  0.645007  1
  Cu  Cu21  1  0.728975  0.059930  0.452972  1
  Cu  Cu22  1  0.218569  0.175783  0.355789  1
  Cu  Cu23  1  0.745748  0.625044  0.844943  1
  Cu  Cu24  1  0.724268  0.458849  0.050607  1
  Cu  Cu25  1  0.234563  0.541171  0.948125  1
  Cu  Cu26  1  0.240503  0.941915  0.548707  1
  Cu  Cu27  1  0.214067  0.376206  0.154789  1
  Cu  Cu28  1  0.251165  0.721108  0.744398  1
  Cu  Cu29  1  0.713621  0.279862  0.256170  1
  Bi  Bi30  1  0.037030  0.023168  0.819665  1
  Bi  Bi31  1  0.945168  0.540506  0.572321  1
  Bi  Bi32  1  0.608011  0.616925  0.315307  1
  Bi  Bi33  1  0.966187  0.682081  0.217985  1
  Bi  Bi34  1  0.511488  0.416573  0.681907  1
  Bi  Bi35  1  0.479874  0.654563  0.468568  1
  Bi  Bi36  1  0.551438  0.768073  0.107309  1
  Bi  Bi37  1  0.020966  0.850154  0.010293  1
  Bi  Bi38  1  0.591498  0.342637  0.533615  1
  Bi  Bi39  1  0.885595  0.978478  0.178536  1
  Bi  Bi40  1  0.428276  0.232446  0.890708  1
  Bi  Bi41  1  0.912350  0.770512  0.368906  1
  Bi  Bi42  1  0.848928  0.328075  0.775392  1
  Bi  Bi43  1  0.576960  0.119337  0.726652  1
  Bi  Bi44  1  0.574581  0.933927  0.912967  1
  Bi  Bi45  1  0.039388  0.461871  0.429758  1
  Bi  Bi46  1  0.420274  0.068049  0.084076  1
  Bi  Bi47  1  0.427282  0.885876  0.265907  1
  Bi  Bi48  1  0.886844  0.150737  0.987329  1
  Bi  Bi49  1  0.029403  0.224088  0.633199  1
  O  O50  1  0.594793  0.692043  0.189618  1
  O  O51  1  0.160113  0.890947  0.787199  1
  O  O52  1  0.099406  0.537121  0.201531  1
  O  O53  1  0.846386  0.459864  0.805981  1
  O  O54  1  0.187450  0.342599  0.389517  1
  O  O55  1  0.960872  0.330922  0.206992  1
  O  O56  1  0.977535  0.502184  0.000081  1
  O  O57  1  0.305667  0.367083  0.919915  1
  O  O58  1  0.476137  0.116108  0.403591  1
  O  O59  1  0.997347  0.775900  0.696462  1
  O  O60  1  0.913765  0.665493  0.607976  1
  O  O61  1  0.619708  0.988791  0.693186  1
  O  O62  1  0.478632  0.308693  0.811107  1
  O  O63  1  0.500949  0.767210  0.692873  1
  O  O64  1  0.620003  0.800821  0.881581  1
  O  O65  1  0.500486  0.669248  0.793050  1
  O  O66  1  0.996217  0.884935  0.597235  1
  O  O67  1  0.979048  0.110077  0.730434  1
  O  O68  1  0.483937  0.999585  0.499842  1
  O  O69  1  0.303465  0.006184  0.307955  1
  O  O70  1  0.323923  0.788532  0.495163  1
  O  O71  1  0.976081  0.932397  0.908726  1
  O  O72  1  0.984152  0.000584  0.500832  1
  O  O73  1  0.298593  0.198169  0.118413  1
  O  O74  1  0.638811  0.204280  0.640408  1
  O  O75  1  0.502155  0.880820  0.594774  1
  O  O76  1  0.967642  0.419154  0.102940  1
  O  O77  1  0.956407  0.234815  0.308270  1
  O  O78  1  0.938206  0.544441  0.353522  1
  O  O79  1  0.465921  0.333166  0.205949  1
  O  O80  1  0.864921  0.461426  0.649300  1
  O  O81  1  0.558959  0.582866  0.549922  1
  O  O82  1  0.986484  0.584388  0.897109  1
  O  O83  1  0.467738  0.416424  0.102297  1
  O  O84  1  0.812674  0.064298  0.094997  1
  O  O85  1  0.478237  0.978216  0.186059  1
  O  O86  1  0.850285  0.282236  0.019057  1
  O  O87  1  0.150471  0.716121  0.981104  1
  O  O88  1  0.594425  0.631553  0.080189  1
  O  O89  1  0.629383  0.851812  0.999695  1
  O  O90  1  0.480420  0.497368  0.998798  1
  O  O91  1  0.978457  0.117465  0.405602  1
  O  O92  1  0.816055  0.902953  0.399543  1
  O  O93  1  0.005892  0.667677  0.793911  1
  O  O94  1  0.489997  0.581899  0.896478  1
  O  O95  1  0.839020  0.107800  0.213244  1
  O  O96  1  0.951759  0.771922  0.094866  1
  O  O97  1  0.484546  0.147151  0.001977  1
  O  O98  1  0.465864  0.223711  0.303610  1
  O  O99  1  0.819579  0.226802  0.906020  1
  O  O100  1  0.522553  0.749277  0.357212  1
  O  O101  1  0.641372  0.018536  0.818447  1
  O  O102  1  0.983386  0.309830  0.550008  1
  O  O103  1  0.156148  0.094962  0.598715  1
  O  O104  1  0.607027  0.213114  0.501503  1
  O  O105  1  0.822058  0.882931  0.270844  1
  O  O106  1  0.681102  0.416430  0.452014  1
  O  O107  1  0.856352  0.690289  0.451628  1
