# generated using pymatgen
data_AgC3N3O
_symmetry_space_group_name_H-M   'P 1'
_cell_length_a   8.04371841
_cell_length_b   10.41635934
_cell_length_c   11.69432246
_cell_angle_alpha   90.00000000
_cell_angle_beta   90.00000000
_cell_angle_gamma   90.00000000
_symmetry_Int_Tables_number   1
_chemical_formula_structural   AgC3N3O
_chemical_formula_sum   'Ag8 C24 N24 O8'
_cell_volume   979.82355839
_cell_formula_units_Z   8
loop_
 _symmetry_equiv_pos_site_id
 _symmetry_equiv_pos_as_xyz
  1  'x, y, z'
loop_
 _atom_site_type_symbol
 _atom_site_label
 _atom_site_symmetry_multiplicity
 _atom_site_fract_x
 _atom_site_fract_y
 _atom_site_fract_z
 _atom_site_occupancy
  Ag  Ag0  1  0.213830  0.078515  0.995105  1
  Ag  Ag1  1  0.713830  0.421485  0.995105  1
  Ag  Ag2  1  0.786170  0.921485  0.004895  1
  Ag  Ag3  1  0.286170  0.578515  0.004895  1
  Ag  Ag4  1  0.213830  0.578515  0.504895  1
  Ag  Ag5  1  0.286170  0.078515  0.495105  1
  Ag  Ag6  1  0.786170  0.421485  0.495105  1
  Ag  Ag7  1  0.713830  0.921485  0.504895  1
  C  C8  1  0.261036  0.803104  0.797211  1
  C  C9  1  0.430117  0.895023  0.156367  1
  C  C10  1  0.733756  0.127202  0.805006  1
  C  C11  1  0.761036  0.196896  0.702789  1
  C  C12  1  0.738964  0.696896  0.297211  1
  C  C13  1  0.430117  0.395023  0.343633  1
  C  C14  1  0.069883  0.895023  0.656367  1
  C  C15  1  0.930117  0.604977  0.156367  1
  C  C16  1  0.766244  0.127202  0.305006  1
  C  C17  1  0.238964  0.303104  0.202789  1
  C  C18  1  0.233756  0.372798  0.805006  1
  C  C19  1  0.738964  0.196896  0.202789  1
  C  C20  1  0.266244  0.372798  0.305006  1
  C  C21  1  0.569883  0.604977  0.656367  1
  C  C22  1  0.238964  0.803104  0.297211  1
  C  C23  1  0.766244  0.627202  0.194994  1
  C  C24  1  0.069883  0.395023  0.843633  1
  C  C25  1  0.761036  0.696896  0.797211  1
  C  C26  1  0.733756  0.627202  0.694994  1
  C  C27  1  0.569883  0.104977  0.843633  1
  C  C28  1  0.233756  0.872798  0.694994  1
  C  C29  1  0.930117  0.104977  0.343633  1
  C  C30  1  0.261036  0.303104  0.702789  1
  C  C31  1  0.266244  0.872798  0.194994  1
  N  N32  1  0.562969  0.916091  0.120860  1
  N  N33  1  0.642225  0.078541  0.371159  1
  N  N34  1  0.357775  0.421459  0.871159  1
  N  N35  1  0.212344  0.247946  0.117473  1
  N  N36  1  0.357775  0.921459  0.628841  1
  N  N37  1  0.712344  0.752054  0.382527  1
  N  N38  1  0.062969  0.583909  0.120860  1
  N  N39  1  0.142225  0.421459  0.371159  1
  N  N40  1  0.787656  0.252054  0.617473  1
  N  N41  1  0.712344  0.252054  0.117473  1
  N  N42  1  0.062969  0.083909  0.379140  1
  N  N43  1  0.857775  0.078541  0.871159  1
  N  N44  1  0.287656  0.747946  0.882527  1
  N  N45  1  0.937031  0.916091  0.620860  1
  N  N46  1  0.787656  0.752054  0.882527  1
  N  N47  1  0.437031  0.583909  0.620860  1
  N  N48  1  0.142225  0.921459  0.128841  1
  N  N49  1  0.562969  0.416091  0.379140  1
  N  N50  1  0.287656  0.247946  0.617473  1
  N  N51  1  0.212344  0.747946  0.382527  1
  N  N52  1  0.857775  0.578541  0.628841  1
  N  N53  1  0.642225  0.578541  0.128841  1
  N  N54  1  0.937031  0.416091  0.879140  1
  N  N55  1  0.437031  0.083909  0.879140  1
  O  O56  1  0.507539  0.897934  0.657883  1
  O  O57  1  0.007539  0.102066  0.842117  1
  O  O58  1  0.007539  0.602066  0.657883  1
  O  O59  1  0.492461  0.602066  0.157883  1
  O  O60  1  0.992461  0.397934  0.342117  1
  O  O61  1  0.992461  0.897934  0.157883  1
  O  O62  1  0.507539  0.397934  0.842117  1
  O  O63  1  0.492461  0.102066  0.342117  1
