# generated using pymatgen
data_Fe3WC14(SO7)2
_symmetry_space_group_name_H-M   'P 1'
_cell_length_a   9.04386551
_cell_length_b   11.65363651
_cell_length_c   11.65363656
_cell_angle_alpha   79.15348606
_cell_angle_beta   84.13342911
_cell_angle_gamma   84.13342658
_symmetry_Int_Tables_number   1
_chemical_formula_structural   Fe3WC14(SO7)2
_chemical_formula_sum   'Fe6 W2 C28 S4 O28'
_cell_volume   1195.62648711
_cell_formula_units_Z   2
loop_
 _symmetry_equiv_pos_site_id
 _symmetry_equiv_pos_as_xyz
  1  'x, y, z'
loop_
 _atom_site_type_symbol
 _atom_site_label
 _atom_site_symmetry_multiplicity
 _atom_site_fract_x
 _atom_site_fract_y
 _atom_site_fract_z
 _atom_site_occupancy
  Fe  Fe0  1  0.563140  0.147511  0.147511  1
  Fe  Fe1  1  0.212067  0.740160  0.970836  1
  Fe  Fe2  1  0.436860  0.852489  0.852489  1
  Fe  Fe3  1  0.787933  0.029164  0.259840  1
  Fe  Fe4  1  0.787933  0.259840  0.029164  1
  Fe  Fe5  1  0.212067  0.970836  0.740160  1
  W  W6  1  0.248015  0.634205  0.634205  1
  W  W7  1  0.751985  0.365795  0.365795  1
  C  C8  1  0.206277  0.738369  0.128546  1
  C  C9  1  0.722763  0.007789  0.415000  1
  C  C10  1  0.580927  0.772464  0.772464  1
  C  C11  1  0.584401  0.289918  0.481316  1
  C  C12  1  0.017167  0.729417  0.969340  1
  C  C13  1  0.776101  0.476730  0.476730  1
  C  C14  1  0.481641  0.199280  0.012131  1
  C  C15  1  0.419073  0.227536  0.227536  1
  C  C16  1  0.277237  0.992211  0.585000  1
  C  C17  1  0.982833  0.030660  0.270583  1
  C  C18  1  0.518359  0.987869  0.800720  1
  C  C19  1  0.223899  0.523270  0.523270  1
  C  C20  1  0.017167  0.969340  0.729417  1
  C  C21  1  0.206277  0.128546  0.738369  1
  C  C22  1  0.415599  0.518684  0.710082  1
  C  C23  1  0.914797  0.253534  0.450485  1
  C  C24  1  0.518359  0.800720  0.987869  1
  C  C25  1  0.085203  0.549515  0.746466  1
  C  C26  1  0.793723  0.871454  0.261631  1
  C  C27  1  0.584401  0.481316  0.289918  1
  C  C28  1  0.914797  0.450485  0.253534  1
  C  C29  1  0.793723  0.261631  0.871454  1
  C  C30  1  0.085203  0.746466  0.549515  1
  C  C31  1  0.481641  0.012131  0.199280  1
  C  C32  1  0.277237  0.585000  0.992211  1
  C  C33  1  0.982833  0.270583  0.030660  1
  C  C34  1  0.415599  0.710082  0.518684  1
  C  C35  1  0.722763  0.415000  0.007789  1
  S  S36  1  0.257954  0.775037  0.775037  1
  S  S37  1  0.221885  0.937195  0.937195  1
  S  S38  1  0.778115  0.062805  0.062805  1
  S  S39  1  0.742046  0.224963  0.224963  1
  O  O40  1  0.193725  0.739388  0.227897  1
  O  O41  1  0.512963  0.747105  0.453673  1
  O  O42  1  0.891023  0.724752  0.964411  1
  O  O43  1  0.206121  0.460048  0.460048  1
  O  O44  1  0.793879  0.539952  0.539952  1
  O  O45  1  0.006742  0.193458  0.501424  1
  O  O46  1  0.487037  0.546327  0.252895  1
  O  O47  1  0.993258  0.806542  0.498576  1
  O  O48  1  0.321056  0.009752  0.487283  1
  O  O49  1  0.324476  0.277561  0.277561  1
  O  O50  1  0.678944  0.512717  0.990248  1
  O  O51  1  0.675524  0.722439  0.722439  1
  O  O52  1  0.108977  0.035589  0.275248  1
  O  O53  1  0.891023  0.964411  0.724752  1
  O  O54  1  0.578972  0.769340  0.072795  1
  O  O55  1  0.806275  0.772103  0.260612  1
  O  O56  1  0.321056  0.487283  0.009752  1
  O  O57  1  0.006742  0.501424  0.193458  1
  O  O58  1  0.578972  0.072795  0.769340  1
  O  O59  1  0.993258  0.498576  0.806542  1
  O  O60  1  0.421028  0.927205  0.230660  1
  O  O61  1  0.108977  0.275248  0.035589  1
  O  O62  1  0.487037  0.252895  0.546327  1
  O  O63  1  0.806275  0.260612  0.772103  1
  O  O64  1  0.193725  0.227897  0.739388  1
  O  O65  1  0.678944  0.990248  0.512717  1
  O  O66  1  0.421028  0.230660  0.927205  1
  O  O67  1  0.512963  0.453673  0.747105  1
