# generated using pymatgen
data_Cd7Te7Cl8O17
_symmetry_space_group_name_H-M   'P 1'
_cell_length_a   6.81130818
_cell_length_b   14.79659504
_cell_length_c   28.55554112
_cell_angle_alpha   90.00000000
_cell_angle_beta   90.00000000
_cell_angle_gamma   90.00000000
_symmetry_Int_Tables_number   1
_chemical_formula_structural   Cd7Te7Cl8O17
_chemical_formula_sum   'Cd28 Te28 Cl32 O68'
_cell_volume   2877.94647733
_cell_formula_units_Z   4
loop_
 _symmetry_equiv_pos_site_id
 _symmetry_equiv_pos_as_xyz
  1  'x, y, z'
loop_
 _atom_site_type_symbol
 _atom_site_label
 _atom_site_symmetry_multiplicity
 _atom_site_fract_x
 _atom_site_fract_y
 _atom_site_fract_z
 _atom_site_occupancy
  Cd  Cd0  1  0.389106  0.410107  0.082258  1
  Cd  Cd1  1  0.094773  0.889341  0.149492  1
  Cd  Cd2  1  0.103728  0.926938  0.010010  1
  Cd  Cd3  1  0.362566  0.078106  0.308115  1
  Cd  Cd4  1  0.362566  0.421894  0.808115  1
  Cd  Cd5  1  0.096232  0.901351  0.733896  1
  Cd  Cd6  1  0.903768  0.098649  0.233896  1
  Cd  Cd7  1  0.903768  0.401351  0.733896  1
  Cd  Cd8  1  0.382763  0.073893  0.444663  1
  Cd  Cd9  1  0.905227  0.110659  0.649492  1
  Cd  Cd10  1  0.637434  0.921894  0.808115  1
  Cd  Cd11  1  0.896272  0.426938  0.010010  1
  Cd  Cd12  1  0.610894  0.910107  0.082258  1
  Cd  Cd13  1  0.863421  0.433382  0.870991  1
  Cd  Cd14  1  0.103728  0.573062  0.510010  1
  Cd  Cd15  1  0.637434  0.578106  0.308115  1
  Cd  Cd16  1  0.617237  0.573893  0.444663  1
  Cd  Cd17  1  0.863421  0.066618  0.370991  1
  Cd  Cd18  1  0.382763  0.426107  0.944663  1
  Cd  Cd19  1  0.896272  0.073062  0.510010  1
  Cd  Cd20  1  0.389106  0.089893  0.582258  1
  Cd  Cd21  1  0.094773  0.610659  0.649492  1
  Cd  Cd22  1  0.617237  0.926107  0.944663  1
  Cd  Cd23  1  0.136579  0.933382  0.870991  1
  Cd  Cd24  1  0.136579  0.566618  0.370991  1
  Cd  Cd25  1  0.096232  0.598649  0.233896  1
  Cd  Cd26  1  0.905227  0.389341  0.149492  1
  Cd  Cd27  1  0.610894  0.589893  0.582258  1
  Te  Te28  1  0.041027  0.881238  0.433802  1
  Te  Te29  1  0.026346  0.604458  0.785216  1
  Te  Te30  1  0.424398  0.407079  0.235415  1
  Te  Te31  1  0.578042  0.888598  0.518597  1
  Te  Te32  1  0.958973  0.118762  0.933802  1
  Te  Te33  1  0.973654  0.395542  0.285216  1
  Te  Te34  1  0.575602  0.907079  0.235415  1
  Te  Te35  1  0.964201  0.095608  0.099199  1
  Te  Te36  1  0.958973  0.381238  0.433802  1
  Te  Te37  1  0.428155  0.081318  0.151842  1
  Te  Te38  1  0.421958  0.111402  0.018597  1
  Te  Te39  1  0.421958  0.388598  0.518597  1
  Te  Te40  1  0.489758  0.380432  0.381420  1
  Te  Te41  1  0.026346  0.895542  0.285216  1
  Te  Te42  1  0.973654  0.104458  0.785216  1
  Te  Te43  1  0.571845  0.581318  0.151842  1
  Te  Te44  1  0.571845  0.918682  0.651842  1
  Te  Te45  1  0.489758  0.119568  0.881420  1
  Te  Te46  1  0.510242  0.880432  0.381420  1
  Te  Te47  1  0.035799  0.904392  0.599199  1
  Te  Te48  1  0.035799  0.595608  0.099199  1
  Te  Te49  1  0.041027  0.618762  0.933802  1
  Te  Te50  1  0.510242  0.619568  0.881420  1
  Te  Te51  1  0.575602  0.592921  0.735415  1
  Te  Te52  1  0.578042  0.611402  0.018597  1
  Te  Te53  1  0.964201  0.404392  0.599199  1
  Te  Te54  1  0.428155  0.418682  0.651842  1
  Te  Te55  1  0.424398  0.092921  0.735415  1
  Cl  Cl56  1  0.214005  0.312993  0.006727  1
  Cl  Cl57  1  0.216311  0.307260  0.749331  1
  Cl  Cl58  1  0.785995  0.812993  0.006727  1
  Cl  Cl59  1  0.221264  0.296063  0.135592  1
  Cl  Cl60  1  0.718250  0.189967  0.567507  1
  Cl  Cl61  1  0.262832  0.743943  0.190796  1
  Cl  Cl62  1  0.189331  0.322265  0.879118  1
  Cl  Cl63  1  0.216311  0.192740  0.249331  1
  Cl  Cl64  1  0.737168  0.243943  0.190796  1
  Cl  Cl65  1  0.715908  0.337895  0.941660  1
  Cl  Cl66  1  0.284092  0.837895  0.941660  1
  Cl  Cl67  1  0.783689  0.692740  0.249331  1
  Cl  Cl68  1  0.785995  0.687007  0.506727  1
  Cl  Cl69  1  0.310256  0.677128  0.311932  1
  Cl  Cl70  1  0.281750  0.689967  0.567507  1
  Cl  Cl71  1  0.778736  0.796063  0.135592  1
  Cl  Cl72  1  0.715908  0.162105  0.441660  1
  Cl  Cl73  1  0.221264  0.203937  0.635592  1
  Cl  Cl74  1  0.689744  0.177128  0.311932  1
  Cl  Cl75  1  0.689744  0.322872  0.811932  1
  Cl  Cl76  1  0.810669  0.822265  0.879118  1
  Cl  Cl77  1  0.262832  0.756057  0.690796  1
  Cl  Cl78  1  0.189331  0.177735  0.379118  1
  Cl  Cl79  1  0.810669  0.677735  0.379118  1
  Cl  Cl80  1  0.778736  0.703937  0.635592  1
  Cl  Cl81  1  0.783689  0.807260  0.749331  1
  Cl  Cl82  1  0.310256  0.822872  0.811932  1
  Cl  Cl83  1  0.284092  0.662105  0.441660  1
  Cl  Cl84  1  0.718250  0.310033  0.067507  1
  Cl  Cl85  1  0.281750  0.810033  0.067507  1
  Cl  Cl86  1  0.214005  0.187007  0.506727  1
  Cl  Cl87  1  0.737168  0.256057  0.690796  1
  O  O88  1  0.500593  0.988328  0.018150  1
  O  O89  1  0.212067  0.621776  0.877500  1
  O  O90  1  0.837432  0.585434  0.999378  1
  O  O91  1  0.531521  0.115675  0.948690  1
  O  O92  1  0.967117  0.981322  0.805925  1
  O  O93  1  0.398530  0.953534  0.150767  1
  O  O94  1  0.961258  0.926523  0.222629  1
  O  O95  1  0.787933  0.121776  0.877500  1
  O  O96  1  0.398400  0.965580  0.723326  1
  O  O97  1  0.051201  0.433143  0.660085  1
  O  O98  1  0.398530  0.546466  0.650767  1
  O  O99  1  0.162568  0.414566  0.499378  1
  O  O100  1  0.499407  0.011672  0.518150  1
  O  O101  1  0.279492  0.097065  0.794563  1
  O  O102  1  0.492176  0.508459  0.373566  1
  O  O103  1  0.948799  0.933143  0.660085  1
  O  O104  1  0.499407  0.488328  0.018150  1
  O  O105  1  0.657463  0.430374  0.272791  1
  O  O106  1  0.967117  0.518678  0.305925  1
  O  O107  1  0.957556  0.526496  0.578323  1
  O  O108  1  0.342537  0.930374  0.272791  1
  O  O109  1  0.601600  0.034420  0.223326  1
  O  O110  1  0.601470  0.453534  0.150767  1
  O  O111  1  0.342537  0.569626  0.772791  1
  O  O112  1  0.910615  0.995079  0.947181  1
  O  O113  1  0.664945  0.433051  0.613413  1
  O  O114  1  0.910615  0.504921  0.447181  1
  O  O115  1  0.948799  0.566857  0.160085  1
  O  O116  1  0.038742  0.426523  0.222629  1
  O  O117  1  0.601600  0.465580  0.723326  1
  O  O118  1  0.492176  0.991541  0.873566  1
  O  O119  1  0.042444  0.026496  0.578323  1
  O  O120  1  0.507824  0.491541  0.873566  1
  O  O121  1  0.507824  0.008459  0.373566  1
  O  O122  1  0.468479  0.615675  0.948690  1
  O  O123  1  0.720508  0.902935  0.294563  1
  O  O124  1  0.657463  0.069626  0.772791  1
  O  O125  1  0.335055  0.566949  0.113413  1
  O  O126  1  0.664945  0.066949  0.113413  1
  O  O127  1  0.601470  0.046466  0.650767  1
  O  O128  1  0.089385  0.495079  0.947181  1
  O  O129  1  0.038742  0.073477  0.722629  1
  O  O130  1  0.162568  0.085434  0.999378  1
  O  O131  1  0.787933  0.378224  0.377500  1
  O  O132  1  0.398400  0.534420  0.223326  1
  O  O133  1  0.212067  0.878224  0.377500  1
  O  O134  1  0.828290  0.587374  0.893408  1
  O  O135  1  0.289255  0.405864  0.588149  1
  O  O136  1  0.171710  0.412626  0.393408  1
  O  O137  1  0.710745  0.594136  0.088149  1
  O  O138  1  0.335055  0.933051  0.613413  1
  O  O139  1  0.531521  0.384325  0.448690  1
  O  O140  1  0.279492  0.402935  0.294563  1
  O  O141  1  0.468479  0.884325  0.448690  1
  O  O142  1  0.051201  0.066857  0.160085  1
  O  O143  1  0.042444  0.473504  0.078323  1
  O  O144  1  0.720508  0.597065  0.794563  1
  O  O145  1  0.289255  0.094136  0.088149  1
  O  O146  1  0.032883  0.018678  0.305925  1
  O  O147  1  0.837432  0.914566  0.499378  1
  O  O148  1  0.828290  0.912626  0.393408  1
  O  O149  1  0.500593  0.511672  0.518150  1
  O  O150  1  0.961258  0.573477  0.722629  1
  O  O151  1  0.032883  0.481322  0.805925  1
  O  O152  1  0.710745  0.905864  0.588149  1
  O  O153  1  0.171710  0.087374  0.893408  1
  O  O154  1  0.089385  0.004921  0.447181  1
  O  O155  1  0.957556  0.973504  0.078323  1
