# generated using pymatgen
data_Y(PO3)3
_symmetry_space_group_name_H-M   'P 1'
_cell_length_a   8.27153861
_cell_length_b   6.85808320
_cell_length_c   7.73193990
_cell_angle_alpha   71.85166047
_cell_angle_beta   72.90429145
_cell_angle_gamma   72.44158185
_symmetry_Int_Tables_number   1
_chemical_formula_structural   Y(PO3)3
_chemical_formula_sum   'Y2 P6 O18'
_cell_volume   387.56762788
_cell_formula_units_Z   2
loop_
 _symmetry_equiv_pos_site_id
 _symmetry_equiv_pos_as_xyz
  1  'x, y, z'
loop_
 _atom_site_type_symbol
 _atom_site_label
 _atom_site_symmetry_multiplicity
 _atom_site_fract_x
 _atom_site_fract_y
 _atom_site_fract_z
 _atom_site_occupancy
  Y  Y0  1  0.235566  0.138447  0.951618  1
  Y  Y1  1  0.926515  0.482170  0.344386  1
  P  P2  1  0.063536  0.931502  0.663376  1
  P  P3  1  0.347413  0.555180  0.091019  1
  P  P4  1  0.599222  0.200038  0.179835  1
  P  P5  1  0.691457  0.494601  0.834003  1
  P  P6  1  0.949861  0.673696  0.873356  1
  P  P7  1  0.897124  0.008328  0.369034  1
  O  O8  1  -0.000322  0.151442  0.214058  1
  O  O9  1  0.217898  0.429163  0.114824  1
  O  O10  1  0.942099  0.775578  0.398384  1
  O  O11  1  0.288081  0.777026  0.105608  1
  O  O12  1  0.063639  0.465281  0.838497  1
  O  O13  1  0.470801  0.408871  0.234791  1
  O  O14  1  0.515246  0.070074  0.130284  1
  O  O15  1  0.211416  0.840860  0.527678  1
  O  O16  1  0.695374  0.098279  0.345692  1
  O  O17  1  0.485121  0.550794  0.887124  1
  O  O18  1  0.465417  0.082178  0.741264  1
  O  O19  1  0.893951  0.071946  0.554357  1
  O  O20  1  0.763654  0.446896  0.649178  1
  O  O21  1  0.692877  0.569106  0.272288  1
  O  O22  1  0.741398  0.295316  0.002121  1
  O  O23  1  0.080919  0.074542  0.768213  1
  O  O24  1  0.751881  0.683815  0.850819  1
  O  O25  1  0.919857  0.724873  0.058193  1
