# generated using pymatgen
data_Tb8O13
_symmetry_space_group_name_H-M   'P 1'
_cell_length_a   9.44448869
_cell_length_b   9.39560130
_cell_length_c   9.44104634
_cell_angle_alpha   108.66311721
_cell_angle_beta   108.61159834
_cell_angle_gamma   111.53019757
_symmetry_Int_Tables_number   1
_chemical_formula_structural   Tb8O13
_chemical_formula_sum   'Tb16 O26'
_cell_volume   641.36862277
_cell_formula_units_Z   2
loop_
 _symmetry_equiv_pos_site_id
 _symmetry_equiv_pos_as_xyz
  1  'x, y, z'
loop_
 _atom_site_type_symbol
 _atom_site_label
 _atom_site_symmetry_multiplicity
 _atom_site_fract_x
 _atom_site_fract_y
 _atom_site_fract_z
 _atom_site_occupancy
  Tb  Tb0  1  0.274587  0.747562  0.530052  1
  Tb  Tb1  1  0.192603  0.466685  0.713716  1
  Tb  Tb2  1  0.010668  0.518049  0.989323  1
  Tb  Tb3  1  -0.000547  0.225925  0.259126  1
  Tb  Tb4  1  0.473365  0.743948  0.252947  1
  Tb  Tb5  1  0.240869  0.270876  0.976781  1
  Tb  Tb6  1  0.755654  0.987570  0.781651  1
  Tb  Tb7  1  0.490765  0.495527  0.482012  1
  Tb  Tb8  1  0.525794  0.025762  0.013594  1
  Tb  Tb9  1  0.267157  0.999247  0.259364  1
  Tb  Tb10  1  0.812413  0.773231  0.038579  1
  Tb  Tb11  1  0.524637  0.260302  0.778511  1
  Tb  Tb12  1  0.984339  0.737290  0.724627  1
  Tb  Tb13  1  0.998701  0.994964  0.506719  1
  Tb  Tb14  1  0.729309  0.509582  0.246264  1
  Tb  Tb15  1  0.732468  0.264406  0.483454  1
  O  O16  1  0.023729  0.754521  0.484663  1
  O  O17  1  0.267607  0.764212  0.787575  1
  O  O18  1  0.990886  0.997673  0.751645  1
  O  O19  1  0.041732  0.787197  0.998498  1
  O  O20  1  0.228191  0.745946  0.274338  1
  O  O21  1  0.502403  0.010133  0.750326  1
  O  O22  1  0.241520  0.486146  0.494650  1
  O  O23  1  0.267895  0.256821  0.725414  1
  O  O24  1  0.531374  0.773474  0.512947  1
  O  O25  1  0.262029  0.525790  0.987411  1
  O  O26  1  0.248941  0.224889  0.207976  1
  O  O27  1  0.713303  0.704643  0.758075  1
  O  O28  1  0.483895  0.249385  0.521124  1
  O  O29  1  0.479466  0.496409  0.241746  1
  O  O30  1  0.727650  0.771200  0.255649  1
  O  O31  1  0.474651  0.235722  0.003184  1
  O  O32  1  0.739092  0.507001  0.489141  1
  O  O33  1  0.502717  0.994877  0.236925  1
  O  O34  1  0.757896  0.221962  0.732039  1
  O  O35  1  0.974749  0.490296  0.734816  1
  O  O36  1  0.001099  0.278604  0.028301  1
  O  O37  1  0.763813  0.506850  0.007427  1
  O  O38  1  0.042442  0.006475  0.288349  1
  O  O39  1  0.787913  0.293153  0.250280  1
  O  O40  1  0.742331  0.975051  0.014771  1
  O  O41  1  0.950694  0.210143  0.490510  1
