# generated using pymatgen
data_CuReO4
_symmetry_space_group_name_H-M   'P 1'
_cell_length_a   7.81205072
_cell_length_b   10.53387661
_cell_length_c   10.53030735
_cell_angle_alpha   82.16626076
_cell_angle_beta   68.17545408
_cell_angle_gamma   68.30864836
_symmetry_Int_Tables_number   1
_chemical_formula_structural   CuReO4
_chemical_formula_sum   'Cu8 Re8 O32'
_cell_volume   747.47823556
_cell_formula_units_Z   8
loop_
 _symmetry_equiv_pos_site_id
 _symmetry_equiv_pos_as_xyz
  1  'x, y, z'
loop_
 _atom_site_type_symbol
 _atom_site_label
 _atom_site_symmetry_multiplicity
 _atom_site_fract_x
 _atom_site_fract_y
 _atom_site_fract_z
 _atom_site_occupancy
  Cu  Cu0  1  0.685331  0.719121  0.043138  1
  Cu  Cu1  1  0.475995  0.221067  0.456584  1
  Cu  Cu2  1  0.948633  0.956777  0.280606  1
  Cu  Cu3  1  0.156678  0.778604  0.547242  1
  Cu  Cu4  1  0.447644  0.280283  0.954811  1
  Cu  Cu5  1  0.183612  0.050605  0.721403  1
  Cu  Cu6  1  0.653471  0.545364  0.778480  1
  Cu  Cu7  1  0.979580  0.452551  0.223182  1
  Re  Re8  1  0.350943  0.546343  0.259330  1
  Re  Re9  1  0.849951  0.257144  0.546167  1
  Re  Re10  1  0.360495  0.046367  0.240187  1
  Re  Re11  1  0.857072  0.241861  0.046877  1
  Re  Re12  1  0.647270  0.954553  0.758203  1
  Re  Re13  1  0.655375  0.742149  0.454456  1
  Re  Re14  1  0.146874  0.757967  0.954922  1
  Re  Re15  1  0.153121  0.454654  0.743099  1
  O  O16  1  0.205345  0.603441  0.673492  1
  O  O17  1  0.108839  0.888851  0.833979  1
  O  O18  1  0.639668  0.316594  0.006165  1
  O  O19  1  0.964997  0.681159  0.995893  1
  O  O20  1  0.894423  0.496125  0.819597  1
  O  O21  1  0.267432  0.384487  0.865366  1
  O  O22  1  0.207080  0.505917  0.185230  1
  O  O23  1  0.192419  0.666141  0.391854  1
  O  O24  1  0.243119  0.335550  0.610344  1
  O  O25  1  0.481798  0.396766  0.328039  1
  O  O26  1  0.141429  0.007284  0.315218  1
  O  O27  1  0.463320  0.997025  0.683489  1
  O  O28  1  0.516727  0.616707  0.136033  1
  O  O29  1  0.125765  0.829100  0.104174  1
  O  O30  1  0.691387  0.390341  0.665409  1
  O  O31  1  0.057912  0.173516  0.897028  1
  O  O32  1  0.631467  0.103584  0.826544  1
  O  O33  1  0.981074  0.325706  0.396049  1
  O  O34  1  0.770579  0.863882  0.382673  1
  O  O35  1  0.829845  0.109662  0.166329  1
  O  O36  1  0.397470  0.819516  0.494267  1
  O  O37  1  0.883384  0.882774  0.635220  1
  O  O38  1  0.899570  0.364811  0.117831  1
  O  O39  1  0.708026  0.181092  0.505443  1
  O  O40  1  0.333864  0.166046  0.107925  1
  O  O41  1  0.746674  0.609155  0.335672  1
  O  O42  1  0.014989  0.134126  0.616995  1
  O  O43  1  0.559004  0.896353  0.170885  1
  O  O44  1  0.403988  0.116079  0.363375  1
  O  O45  1  0.383598  0.634907  0.887114  1
  O  O46  1  0.605910  0.835725  0.891019  1
  O  O47  1  0.703919  0.674003  0.604880  1
