# generated using pymatgen
data_CsTaI6
_symmetry_space_group_name_H-M   'P 1'
_cell_length_a   7.43749972
_cell_length_b   7.98633677
_cell_length_c   14.38164611
_cell_angle_alpha   100.18236508
_cell_angle_beta   90.00000000
_cell_angle_gamma   117.75158482
_symmetry_Int_Tables_number   1
_chemical_formula_structural   CsTaI6
_chemical_formula_sum   'Cs2 Ta2 I12'
_cell_volume   740.74965341
_cell_formula_units_Z   2
loop_
 _symmetry_equiv_pos_site_id
 _symmetry_equiv_pos_as_xyz
  1  'x, y, z'
loop_
 _atom_site_type_symbol
 _atom_site_label
 _atom_site_symmetry_multiplicity
 _atom_site_fract_x
 _atom_site_fract_y
 _atom_site_fract_z
 _atom_site_occupancy
  Cs  Cs0  1  0.410986  0.500000  0.750000  1
  Cs  Cs1  1  0.589014  0.500000  0.250000  1
  Ta  Ta2  1  0.000000  0.000000  0.000000  1
  Ta  Ta3  1  0.500000  0.000000  0.500000  1
  I  I4  1  0.184280  0.659475  0.398066  1
  I  I5  1  0.975195  0.659475  0.898066  1
  I  I6  1  0.024805  0.340525  0.101934  1
  I  I7  1  0.305332  0.927049  0.663970  1
  I  I8  1  0.694668  0.072951  0.336030  1
  I  I9  1  0.292479  0.197829  0.465659  1
  I  I10  1  0.707521  0.802171  0.534341  1
  I  I11  1  0.815720  0.340525  0.601934  1
  I  I12  1  0.405350  0.197829  0.965659  1
  I  I13  1  0.878283  0.072951  0.836030  1
  I  I14  1  0.121717  0.927049  0.163970  1
  I  I15  1  0.594650  0.802171  0.034341  1
