# generated using pymatgen
data_LiEuTiO4
_symmetry_space_group_name_H-M   'P 1'
_cell_length_a   5.30601044
_cell_length_b   5.35771642
_cell_length_c   11.99035961
_cell_angle_alpha   89.98282071
_cell_angle_beta   90.00003378
_cell_angle_gamma   89.99988768
_symmetry_Int_Tables_number   1
_chemical_formula_structural   LiEuTiO4
_chemical_formula_sum   'Li4 Eu4 Ti4 O16'
_cell_volume   340.86311797
_cell_formula_units_Z   4
loop_
 _symmetry_equiv_pos_site_id
 _symmetry_equiv_pos_as_xyz
  1  'x, y, z'
loop_
 _atom_site_type_symbol
 _atom_site_label
 _atom_site_symmetry_multiplicity
 _atom_site_fract_x
 _atom_site_fract_y
 _atom_site_fract_z
 _atom_site_occupancy
  Eu  Eu0  1  0.249998  0.518750  0.115406  1
  Eu  Eu1  1  0.750003  0.481408  0.884631  1
  Eu  Eu2  1  0.750001  0.981769  0.115415  1
  Eu  Eu3  1  0.250004  0.018394  0.884627  1
  Li  Li4  1  0.500017  0.749985  0.490597  1
  Li  Li5  1  0.999983  0.749985  0.490597  1
  Li  Li6  1  -0.000008  0.249975  0.509395  1
  Li  Li7  1  0.500008  0.249975  0.509395  1
  Ti  Ti8  1  0.249999  0.505830  0.710261  1
  Ti  Ti9  1  0.750001  0.994174  0.710301  1
  Ti  Ti10  1  0.749999  0.494190  0.289723  1
  Ti  Ti11  1  0.250000  0.005826  0.289733  1
  O  O12  1  0.000039  0.250021  0.741628  1
  O  O13  1  0.499980  0.249994  0.242096  1
  O  O14  1  0.000018  0.249992  0.242096  1
  O  O15  1  0.250000  0.954355  0.072803  1
  O  O16  1  0.749999  0.545415  0.072847  1
  O  O17  1  0.250000  0.511108  0.560836  1
  O  O18  1  0.499959  0.250020  0.741627  1
  O  O19  1  0.499970  0.749954  0.258395  1
  O  O20  1  0.749998  0.045643  0.926993  1
  O  O21  1  0.249999  0.011101  0.439116  1
  O  O22  1  0.499979  0.749992  0.757928  1
  O  O23  1  0.750000  0.488857  0.439110  1
  O  O24  1  0.000023  0.749992  0.757928  1
  O  O25  1  0.249999  0.454475  0.927238  1
  O  O26  1  0.000031  0.749953  0.258395  1
  O  O27  1  0.750000  0.988869  0.560884  1
