# generated using pymatgen
data_CuP2H12N2(O4F)2
_symmetry_space_group_name_H-M   'P 1'
_cell_length_a   7.25969882
_cell_length_b   7.25969882
_cell_length_c   7.49739803
_cell_angle_alpha   70.89671564
_cell_angle_beta   109.10328436
_cell_angle_gamma   137.21231748
_symmetry_Int_Tables_number   1
_chemical_formula_structural   CuP2H12N2(O4F)2
_chemical_formula_sum   'Cu1 P2 H12 N2 O8 F2'
_cell_volume   251.28314269
_cell_formula_units_Z   1
loop_
 _symmetry_equiv_pos_site_id
 _symmetry_equiv_pos_as_xyz
  1  'x, y, z'
loop_
 _atom_site_type_symbol
 _atom_site_label
 _atom_site_symmetry_multiplicity
 _atom_site_fract_x
 _atom_site_fract_y
 _atom_site_fract_z
 _atom_site_occupancy
  Cu  Cu0  1  0.000000  0.000000  0.000000  1
  P  P1  1  0.376210  0.623790  0.783771  1
  P  P2  1  0.623790  0.376210  0.216229  1
  H  H3  1  0.132327  0.168717  0.654109  1
  H  H4  1  0.831283  0.867673  0.654109  1
  H  H5  1  0.867673  0.831283  0.345891  1
  H  H6  1  0.168717  0.132327  0.345891  1
  H  H7  1  0.814981  0.498622  0.821173  1
  H  H8  1  0.501378  0.185019  0.821173  1
  H  H9  1  0.185019  0.501378  0.178827  1
  H  H10  1  0.498622  0.814981  0.178827  1
  H  H11  1  0.626698  0.373302  0.611513  1
  H  H12  1  0.373302  0.626698  0.388487  1
  H  H13  1  0.753545  0.246455  0.769362  1
  H  H14  1  0.246455  0.753545  0.230638  1
  N  N15  1  0.674636  0.325364  0.755758  1
  N  N16  1  0.325364  0.674636  0.244242  1
  O  O17  1  0.437997  0.562003  0.648349  1
  O  O18  1  0.562003  0.437997  0.351651  1
  O  O19  1  0.624717  0.857181  0.900638  1
  O  O20  1  0.142819  0.375283  0.900638  1
  O  O21  1  0.375283  0.142819  0.099362  1
  O  O22  1  0.857181  0.624717  0.099362  1
  O  O23  1  0.024661  0.975339  0.707840  1
  O  O24  1  0.975339  0.024661  0.292160  1
  F  F25  1  0.253482  0.746518  0.644311  1
  F  F26  1  0.746518  0.253482  0.355689  1
