# generated using pymatgen
data_Ce2UTe4
_symmetry_space_group_name_H-M   'P 1'
_cell_length_a   8.20956560
_cell_length_b   8.20956550
_cell_length_c   8.20956545
_cell_angle_alpha   109.41607865
_cell_angle_beta   109.58156770
_cell_angle_gamma   109.41607795
_symmetry_Int_Tables_number   1
_chemical_formula_structural   Ce2UTe4
_chemical_formula_sum   'Ce4 U2 Te8'
_cell_volume   425.92917405
_cell_formula_units_Z   2
loop_
 _symmetry_equiv_pos_site_id
 _symmetry_equiv_pos_as_xyz
  1  'x, y, z'
loop_
 _atom_site_type_symbol
 _atom_site_label
 _atom_site_symmetry_multiplicity
 _atom_site_fract_x
 _atom_site_fract_y
 _atom_site_fract_z
 _atom_site_occupancy
  Ce  Ce0  1  0.250000  0.625436  0.375436  1
  Ce  Ce1  1  0.750000  0.874564  0.124564  1
  Ce  Ce2  1  0.624564  0.374564  0.250000  1
  Ce  Ce3  1  0.875436  0.125436  0.750000  1
  U  U4  1  0.125000  0.750000  0.875000  1
  U  U5  1  0.375000  0.250000  0.625000  1
  Te  Te6  1  0.155538  0.151340  0.155634  1
  Te  Te7  1  0.344462  0.500096  0.995802  1
  Te  Te8  1  0.655634  0.651340  0.655538  1
  Te  Te9  1  0.495802  0.000096  0.844462  1
  Te  Te10  1  0.495707  0.999904  0.344366  1
  Te  Te11  1  0.004198  0.848660  0.504293  1
  Te  Te12  1  0.844366  0.499904  0.995707  1
  Te  Te13  1  0.004293  0.348660  0.504198  1
