# generated using pymatgen
data_C2Se(SN)2
_symmetry_space_group_name_H-M   'P 1'
_cell_length_a   4.79430685
_cell_length_b   9.99159639
_cell_length_c   13.66814175
_cell_angle_alpha   90.00000000
_cell_angle_beta   90.00000000
_cell_angle_gamma   90.00000000
_symmetry_Int_Tables_number   1
_chemical_formula_structural   C2Se(SN)2
_chemical_formula_sum   'C8 Se4 S8 N8'
_cell_volume   654.74197380
_cell_formula_units_Z   4
loop_
 _symmetry_equiv_pos_site_id
 _symmetry_equiv_pos_as_xyz
  1  'x, y, z'
loop_
 _atom_site_type_symbol
 _atom_site_label
 _atom_site_symmetry_multiplicity
 _atom_site_fract_x
 _atom_site_fract_y
 _atom_site_fract_z
 _atom_site_occupancy
  C  C0  1  0.981839  0.704499  0.385802  1
  C  C1  1  0.018161  0.295501  0.885802  1
  C  C2  1  0.518161  0.204499  0.114198  1
  C  C3  1  0.481839  0.795501  0.885802  1
  C  C4  1  0.981839  0.704499  0.114198  1
  C  C5  1  0.018161  0.295501  0.614198  1
  C  C6  1  0.518161  0.204499  0.385802  1
  C  C7  1  0.481839  0.795501  0.614198  1
  N  N8  1  0.146255  0.195613  0.892783  1
  N  N9  1  0.853745  0.804387  0.392783  1
  N  N10  1  0.353745  0.695613  0.607217  1
  N  N11  1  0.353745  0.695613  0.892783  1
  N  N12  1  0.853745  0.804387  0.107217  1
  N  N13  1  0.146255  0.195613  0.607217  1
  N  N14  1  0.646255  0.304387  0.392783  1
  N  N15  1  0.646255  0.304387  0.107217  1
  S  S16  1  0.326090  0.064675  0.376998  1
  S  S17  1  0.826090  0.435325  0.623002  1
  S  S18  1  0.173910  0.564675  0.123002  1
  S  S19  1  0.673910  0.935325  0.876998  1
  S  S20  1  0.673910  0.935325  0.623002  1
  S  S21  1  0.173910  0.564675  0.376998  1
  S  S22  1  0.826090  0.435325  0.876998  1
  S  S23  1  0.326090  0.064675  0.123002  1
  Se  Se24  1  0.456086  0.034001  0.750000  1
  Se  Se25  1  0.956086  0.465999  0.250000  1
  Se  Se26  1  0.043914  0.534001  0.750000  1
  Se  Se27  1  0.543914  0.965999  0.250000  1
