# generated using pymatgen
data_Li49Cu8N19
_symmetry_space_group_name_H-M   'P 1'
_cell_length_a   3.68689352
_cell_length_b   3.68689336
_cell_length_c   71.48810935
_cell_angle_alpha   90.00000000
_cell_angle_beta   90.00000000
_cell_angle_gamma   120.00000139
_symmetry_Int_Tables_number   1
_chemical_formula_structural   Li49Cu8N19
_chemical_formula_sum   'Li49 Cu8 N19'
_cell_volume   841.56101518
_cell_formula_units_Z   1
loop_
 _symmetry_equiv_pos_site_id
 _symmetry_equiv_pos_as_xyz
  1  'x, y, z'
loop_
 _atom_site_type_symbol
 _atom_site_label
 _atom_site_symmetry_multiplicity
 _atom_site_fract_x
 _atom_site_fract_y
 _atom_site_fract_z
 _atom_site_occupancy
  Li  Li0  1  0.000000  0.000000  0.026270  1
  Li  Li1  1  0.000000  0.000000  0.131194  1
  Li  Li2  1  0.333333  0.666667  0.998625  1
  Li  Li3  1  0.000000  0.000000  0.184139  1
  Li  Li4  1  0.333333  0.666667  0.053939  1
  Li  Li5  1  0.000000  0.000000  0.236708  1
  Li  Li6  1  0.333333  0.666667  0.103971  1
  Li  Li7  1  0.000000  0.000000  0.289254  1
  Li  Li8  1  0.333333  0.666667  0.157887  1
  Li  Li9  1  0.000000  0.000000  0.342105  1
  Li  Li10  1  0.333333  0.666667  0.210461  1
  Li  Li11  1  0.000000  0.000000  0.394957  1
  Li  Li12  1  0.000000  0.000000  0.447502  1
  Li  Li13  1  0.333333  0.666667  0.263042  1
  Li  Li14  1  0.333333  0.666667  0.315505  1
  Li  Li15  1  0.000000  0.000000  0.553017  1
  Li  Li16  1  0.333333  0.666667  0.368705  1
  Li  Li17  1  0.333333  0.666667  0.421169  1
  Li  Li18  1  0.333333  0.666667  0.473749  1
  Li  Li19  1  0.333333  0.666667  0.526324  1
  Li  Li20  1  0.333333  0.666667  0.580239  1
  Li  Li21  1  0.333333  0.666667  0.630272  1
  Li  Li22  1  0.333333  0.666667  0.685586  1
  Li  Li23  1  0.333333  0.666667  0.736887  1
  Li  Li24  1  0.333333  0.666667  0.789483  1
  Li  Li25  1  0.333333  0.666667  0.842105  1
  Li  Li26  1  0.333333  0.666667  0.894728  1
  Li  Li27  1  0.333333  0.666667  0.947323  1
  Li  Li28  1  0.666667  0.333333  0.998625  1
  Li  Li29  1  0.666667  0.333333  0.053939  1
  Li  Li30  1  0.666667  0.333333  0.103971  1
  Li  Li31  1  0.666667  0.333333  0.157887  1
  Li  Li32  1  0.666667  0.333333  0.263042  1
  Li  Li33  1  0.666667  0.333333  0.210461  1
  Li  Li34  1  0.666667  0.333333  0.315505  1
  Li  Li35  1  0.666667  0.333333  0.368705  1
  Li  Li36  1  0.666667  0.333333  0.421169  1
  Li  Li37  1  0.666667  0.333333  0.473749  1
  Li  Li38  1  0.666667  0.333333  0.526324  1
  Li  Li39  1  0.666667  0.333333  0.580239  1
  Li  Li40  1  0.666667  0.333333  0.630272  1
  Li  Li41  1  0.666667  0.333333  0.685586  1
  Li  Li42  1  0.666667  0.333333  0.789483  1
  Li  Li43  1  0.666667  0.333333  0.736887  1
  Li  Li44  1  0.666667  0.333333  0.842105  1
  Li  Li45  1  0.666667  0.333333  0.894728  1
  Li  Li46  1  0.666667  0.333333  0.947323  1
  Li  Li47  1  0.000000  0.000000  0.500072  1
  Li  Li48  1  0.000000  0.000000  0.657941  1
  Cu  Cu49  1  0.000000  0.000000  0.078888  1
  Cu  Cu50  1  0.000000  0.000000  0.605322  1
  Cu  Cu51  1  0.000000  0.000000  0.763205  1
  Cu  Cu52  1  0.000000  0.000000  0.815793  1
  Cu  Cu53  1  0.000000  0.000000  0.868417  1
  Cu  Cu54  1  0.000000  0.000000  0.921006  1
  Cu  Cu55  1  0.000000  0.000000  0.973528  1
  Cu  Cu56  1  0.000000  0.000000  0.710682  1
  N  N57  1  0.000000  0.000000  0.999893  1
  N  N58  1  0.000000  0.000000  0.052656  1
  N  N59  1  0.000000  0.000000  0.105172  1
  N  N60  1  0.000000  0.000000  0.210452  1
  N  N61  1  0.000000  0.000000  0.368606  1
  N  N62  1  0.000000  0.000000  0.421224  1
  N  N63  1  0.000000  0.000000  0.579038  1
  N  N64  1  0.000000  0.000000  0.736940  1
  N  N65  1  0.000000  0.000000  0.789510  1
  N  N66  1  0.000000  0.000000  0.842105  1
  N  N67  1  0.000000  0.000000  0.894701  1
  N  N68  1  0.000000  0.000000  0.157806  1
  N  N69  1  0.000000  0.000000  0.262987  1
  N  N70  1  0.000000  0.000000  0.315604  1
  N  N71  1  0.000000  0.000000  0.473758  1
  N  N72  1  0.000000  0.000000  0.526405  1
  N  N73  1  0.000000  0.000000  0.631555  1
  N  N74  1  0.000000  0.000000  0.684318  1
  N  N75  1  0.000000  0.000000  0.947270  1
