# generated using pymatgen
data_AgIrF7
_symmetry_space_group_name_H-M   'P 1'
_cell_length_a   7.26461718
_cell_length_b   7.88550329
_cell_length_c   10.54797026
_cell_angle_alpha   90.00746235
_cell_angle_beta   90.00003561
_cell_angle_gamma   90.00003102
_symmetry_Int_Tables_number   1
_chemical_formula_structural   AgIrF7
_chemical_formula_sum   'Ag4 Ir4 F28'
_cell_volume   604.24218698
_cell_formula_units_Z   4
loop_
 _symmetry_equiv_pos_site_id
 _symmetry_equiv_pos_as_xyz
  1  'x, y, z'
loop_
 _atom_site_type_symbol
 _atom_site_label
 _atom_site_symmetry_multiplicity
 _atom_site_fract_x
 _atom_site_fract_y
 _atom_site_fract_z
 _atom_site_occupancy
  Ag  Ag0  1  0.250000  0.636319  0.256397  1
  Ag  Ag1  1  0.750000  0.363663  0.743625  1
  Ag  Ag2  1  0.750000  0.863628  0.756374  1
  Ag  Ag3  1  0.250000  0.136370  0.243660  1
  Ir  Ir4  1  0.250000  0.798690  0.941545  1
  Ir  Ir5  1  0.749999  0.201662  0.058547  1
  Ir  Ir6  1  0.249999  0.298962  0.558397  1
  Ir  Ir7  1  0.750000  0.701252  0.441481  1
  F  F8  1  0.750000  0.917351  0.367914  1
  F  F9  1  0.568315  0.773033  0.562467  1
  F  F10  1  0.931125  0.622768  0.322746  1
  F  F11  1  0.750000  0.480322  0.516006  1
  F  F12  1  0.068208  0.226893  0.437444  1
  F  F13  1  0.068711  0.377287  0.677354  1
  F  F14  1  0.431289  0.377287  0.677355  1
  F  F15  1  0.250000  0.019805  0.016055  1
  F  F16  1  0.931671  0.272969  0.937605  1
  F  F17  1  0.431746  0.726982  0.062450  1
  F  F18  1  0.250000  0.388928  0.190336  1
  F  F19  1  0.750000  0.417066  0.132015  1
  F  F20  1  0.750000  0.980084  0.983901  1
  F  F21  1  0.568329  0.272969  0.937604  1
  F  F22  1  0.250000  0.082476  0.632148  1
  F  F23  1  0.568815  0.122720  0.177271  1
  F  F24  1  0.750000  0.110668  0.690379  1
  F  F25  1  0.250000  0.519790  0.483971  1
  F  F26  1  0.068759  0.877286  0.822666  1
  F  F27  1  0.250000  0.889286  0.309660  1
  F  F28  1  0.931185  0.122721  0.177271  1
  F  F29  1  0.431241  0.877287  0.822666  1
  F  F30  1  0.931686  0.773033  0.562468  1
  F  F31  1  0.068255  0.726982  0.062451  1
  F  F32  1  0.568875  0.622767  0.322745  1
  F  F33  1  0.431792  0.226893  0.437444  1
  F  F34  1  0.750000  0.611110  0.809678  1
  F  F35  1  0.250000  0.582692  0.867906  1
