# generated using pymatgen
data_UCo5Sn
_symmetry_space_group_name_H-M   'P 1'
_cell_length_a   4.79833045
_cell_length_b   10.28124605
_cell_length_c   15.98305127
_cell_angle_alpha   90.00000000
_cell_angle_beta   90.00000000
_cell_angle_gamma   90.00000000
_symmetry_Int_Tables_number   1
_chemical_formula_structural   UCo5Sn
_chemical_formula_sum   'U8 Co40 Sn8'
_cell_volume   788.48892719
_cell_formula_units_Z   8
loop_
 _symmetry_equiv_pos_site_id
 _symmetry_equiv_pos_as_xyz
  1  'x, y, z'
loop_
 _atom_site_type_symbol
 _atom_site_label
 _atom_site_symmetry_multiplicity
 _atom_site_fract_x
 _atom_site_fract_y
 _atom_site_fract_z
 _atom_site_occupancy
  U  U0  1  0.000000  0.611471  0.243948  1
  U  U1  1  0.000000  0.000000  0.500000  1
  U  U2  1  0.500000  0.111471  0.256052  1
  U  U3  1  0.000000  0.388529  0.756052  1
  U  U4  1  0.500000  0.888529  0.743948  1
  U  U5  1  0.500000  0.500000  0.500000  1
  U  U6  1  0.000000  0.000000  0.000000  1
  U  U7  1  0.500000  0.500000  0.000000  1
  Co  Co8  1  0.747385  0.633438  0.840240  1
  Co  Co9  1  0.500000  0.574903  0.171292  1
  Co  Co10  1  0.752615  0.133438  0.659760  1
  Co  Co11  1  0.250739  0.743136  0.091199  1
  Co  Co12  1  0.500000  0.346082  0.652794  1
  Co  Co13  1  0.000000  0.699998  0.718889  1
  Co  Co14  1  0.000000  0.846082  0.847206  1
  Co  Co15  1  0.247385  0.133438  0.659760  1
  Co  Co16  1  0.500000  0.800002  0.218889  1
  Co  Co17  1  0.000000  0.542907  0.597657  1
  Co  Co18  1  0.500000  0.189021  0.535327  1
  Co  Co19  1  0.249261  0.756864  0.591199  1
  Co  Co20  1  0.750739  0.756864  0.591199  1
  Co  Co21  1  0.500000  0.425097  0.828708  1
  Co  Co22  1  0.000000  0.925097  0.671292  1
  Co  Co23  1  0.252615  0.366562  0.159760  1
  Co  Co24  1  0.500000  0.810979  0.464673  1
  Co  Co25  1  0.749261  0.256864  0.908801  1
  Co  Co26  1  0.500000  0.042907  0.902343  1
  Co  Co27  1  0.000000  0.074903  0.328708  1
  Co  Co28  1  0.000000  0.463963  0.917737  1
  Co  Co29  1  0.500000  0.957093  0.097657  1
  Co  Co30  1  0.000000  0.310979  0.035327  1
  Co  Co31  1  0.750739  0.243136  0.408801  1
  Co  Co32  1  0.500000  0.653918  0.347206  1
  Co  Co33  1  0.000000  0.300002  0.281111  1
  Co  Co34  1  0.000000  0.153918  0.152794  1
  Co  Co35  1  0.000000  0.457093  0.402343  1
  Co  Co36  1  0.500000  0.199998  0.781111  1
  Co  Co37  1  0.000000  0.536037  0.082263  1
  Co  Co38  1  0.249261  0.243136  0.408801  1
  Co  Co39  1  0.252615  0.633438  0.840240  1
  Co  Co40  1  0.247385  0.866562  0.340240  1
  Co  Co41  1  0.250739  0.256864  0.908801  1
  Co  Co42  1  0.749261  0.743136  0.091199  1
  Co  Co43  1  0.500000  0.963963  0.582263  1
  Co  Co44  1  0.752615  0.866562  0.340240  1
  Co  Co45  1  0.000000  0.689021  0.964673  1
  Co  Co46  1  0.500000  0.036037  0.417737  1
  Co  Co47  1  0.747385  0.366562  0.159760  1
  Sn  Sn48  1  0.500000  0.586891  0.692357  1
  Sn  Sn49  1  0.000000  0.696973  0.444856  1
  Sn  Sn50  1  0.500000  0.803027  0.944856  1
  Sn  Sn51  1  0.500000  0.196973  0.055144  1
  Sn  Sn52  1  0.500000  0.413109  0.307643  1
  Sn  Sn53  1  0.000000  0.303027  0.555144  1
  Sn  Sn54  1  0.000000  0.086891  0.807643  1
  Sn  Sn55  1  0.000000  0.913109  0.192357  1
