# generated using pymatgen
data_Ce14Si11Ni6
_symmetry_space_group_name_H-M   'P 1'
_cell_length_a   4.14532231
_cell_length_b   16.98707181
_cell_length_c   20.96836597
_cell_angle_alpha   113.30202064
_cell_angle_beta   89.99668267
_cell_angle_gamma   97.00789778
_symmetry_Int_Tables_number   1
_chemical_formula_structural   Ce14Si11Ni6
_chemical_formula_sum   'Ce28 Si22 Ni12'
_cell_volume   1344.07620692
_cell_formula_units_Z   2
loop_
 _symmetry_equiv_pos_site_id
 _symmetry_equiv_pos_as_xyz
  1  'x, y, z'
loop_
 _atom_site_type_symbol
 _atom_site_label
 _atom_site_symmetry_multiplicity
 _atom_site_fract_x
 _atom_site_fract_y
 _atom_site_fract_z
 _atom_site_occupancy
  Ce  Ce0  1  0.285961  0.577515  0.575477  1
  Ce  Ce1  1  0.714368  0.427469  0.624895  1
  Ce  Ce2  1  0.288313  0.575550  0.976517  1
  Ce  Ce3  1  0.896105  0.789674  0.221352  1
  Ce  Ce4  1  0.891694  0.783793  0.038106  1
  Ce  Ce5  1  0.504992  0.007526  0.680974  1
  Ce  Ce6  1  0.291898  0.581954  0.176122  1
  Ce  Ce7  1  0.107089  0.216589  0.962027  1
  Ce  Ce8  1  0.385081  0.768832  0.352589  1
  Ce  Ce9  1  0.495918  0.991947  0.318588  1
  Ce  Ce10  1  0.286337  0.577313  0.771864  1
  Ce  Ce11  1  0.606890  0.216135  0.283767  1
  Ce  Ce12  1  0.887204  0.771919  0.851022  1
  Ce  Ce13  1  0.606796  0.219385  0.461821  1
  Ce  Ce14  1  0.707395  0.422903  0.227876  1
  Ce  Ce15  1  0.115084  0.228973  0.149767  1
  Ce  Ce16  1  0.615823  0.231417  0.646866  1
  Ce  Ce17  1  0.393251  0.783429  0.716261  1
  Ce  Ce18  1  0.710115  0.417363  0.822983  1
  Ce  Ce19  1  0.501218  0.000228  0.499704  1
  Ce  Ce20  1  0.997847  0.992058  0.817342  1
  Ce  Ce21  1  0.390031  0.780330  0.537340  1
  Ce  Ce22  1  0.006040  0.008185  0.182610  1
  Ce  Ce23  1  0.709828  0.425546  0.024039  1
  Ce  Ce24  1  0.106171  0.210342  0.778121  1
  Ce  Ce25  1  0.709203  0.421547  0.424042  1
  Ce  Ce26  1  0.283996  0.572484  0.373583  1
  Ce  Ce27  1  0.002198  0.000515  0.000337  1
  Si  Si28  1  0.567780  0.134052  0.840791  1
  Si  Si29  1  0.184505  0.373017  0.507598  1
  Si  Si30  1  0.576382  0.152003  0.037219  1
  Si  Si31  1  0.809320  0.626038  0.491442  1
  Si  Si32  1  0.926524  0.850330  0.464805  1
  Si  Si33  1  0.073400  0.150118  0.534796  1
  Si  Si34  1  0.044610  0.088919  0.621966  1
  Si  Si35  1  0.546611  0.088348  0.123990  1
  Si  Si36  1  0.816347  0.637699  0.693865  1
  Si  Si37  1  0.425038  0.848607  0.963246  1
  Si  Si38  1  0.458471  0.912489  0.876577  1
  Si  Si39  1  0.808692  0.618152  0.890079  1
  Si  Si40  1  0.187444  0.373358  0.709232  1
  Si  Si41  1  0.186171  0.371117  0.909818  1
  Si  Si42  1  0.433986  0.866480  0.158705  1
  Si  Si43  1  0.955788  0.910958  0.377358  1
  Si  Si44  1  0.185660  0.381925  0.109811  1
  Si  Si45  1  0.935006  0.865659  0.657535  1
  Si  Si46  1  0.063632  0.133268  0.341939  1
  Si  Si47  1  0.816720  0.629458  0.090360  1
  Si  Si48  1  0.179074  0.362112  0.306160  1
  Si  Si49  1  0.813720  0.627489  0.289466  1
  Ni  Ni50  1  0.856492  0.710010  0.614204  1
  Ni  Ni51  1  0.347968  0.695911  0.914686  1
  Ni  Ni52  1  0.970149  0.937370  0.580808  1
  Ni  Ni53  1  0.470234  0.935926  0.080032  1
  Ni  Ni54  1  0.646976  0.304733  0.085852  1
  Ni  Ni55  1  0.034147  0.062404  0.419010  1
  Ni  Ni56  1  0.646472  0.290220  0.885840  1
  Ni  Ni57  1  0.357901  0.710815  0.114825  1
  Ni  Ni58  1  0.533199  0.065244  0.920024  1
  Ni  Ni59  1  0.143367  0.288204  0.385167  1
  Ni  Ni60  1  0.154136  0.301588  0.583766  1
  Ni  Ni61  1  0.848061  0.698556  0.415634  1
