# generated using pymatgen
data_H9BrO4
_symmetry_space_group_name_H-M   'P 1'
_cell_length_a   7.17209172
_cell_length_b   11.31158914
_cell_length_c   7.58852644
_cell_angle_alpha   87.87143307
_cell_angle_beta   109.42419787
_cell_angle_gamma   86.04170958
_symmetry_Int_Tables_number   1
_chemical_formula_structural   H9BrO4
_chemical_formula_sum   'H36 Br4 O16'
_cell_volume   578.03138235
_cell_formula_units_Z   4
loop_
 _symmetry_equiv_pos_site_id
 _symmetry_equiv_pos_as_xyz
  1  'x, y, z'
loop_
 _atom_site_type_symbol
 _atom_site_label
 _atom_site_symmetry_multiplicity
 _atom_site_fract_x
 _atom_site_fract_y
 _atom_site_fract_z
 _atom_site_occupancy
  H  H0  1  0.326254  0.174489  0.959662  1
  H  H1  1  0.363138  0.308562  0.015264  1
  H  H2  1  0.652375  0.843639  0.998277  1
  H  H3  1  0.834734  0.762143  0.993532  1
  H  H4  1  0.974018  0.172921  0.150860  1
  H  H5  1  0.805663  0.253446  0.949907  1
  H  H6  1  0.071095  0.258069  0.037786  1
  H  H7  1  0.011422  0.696623  0.827345  1
  H  H8  1  0.132470  0.766254  0.995287  1
  H  H9  1  0.606804  0.162993  0.825809  1
  H  H10  1  0.662747  0.252579  0.691191  1
  H  H11  1  0.441013  0.802154  0.182467  1
  H  H12  1  0.433302  0.662252  0.193094  1
  H  H13  1  0.614650  0.318756  0.360460  1
  H  H14  1  0.811747  0.239985  0.471443  1
  H  H15  1  0.207993  0.774643  0.531108  1
  H  H16  1  0.354225  0.745968  0.404774  1
  H  H17  1  0.393925  0.663449  0.613212  1
  H  H18  1  0.140684  0.163878  0.580511  1
  H  H19  1  0.090676  0.266116  0.692157  1
  H  H20  1  0.837052  0.741513  0.289154  1
  H  H21  1  0.882005  0.654403  0.476038  1
  H  H22  1  0.338538  0.443889  0.542204  1
  H  H23  1  0.186161  0.334019  0.489127  1
  H  H24  1  0.629092  0.892514  0.629274  1
  H  H25  1  0.768412  0.828177  0.509192  1
  H  H26  1  0.619174  0.529326  0.698756  1
  H  H27  1  0.485330  0.527201  0.827353  1
  H  H28  1  0.564592  0.129757  0.339007  1
  H  H29  1  0.600111  0.979368  0.404986  1
  H  H30  1  0.369426  0.049846  0.284603  1
  H  H31  1  0.884521  0.513382  0.171821  1
  H  H32  1  0.020062  0.519469  0.050196  1
  H  H33  1  0.158240  0.452074  0.321850  1
  H  H34  1  0.996446  0.032078  0.937392  1
  H  H35  1  0.931943  0.997413  0.732075  1
  Br  Br36  1  0.926971  0.506192  0.724783  1
  Br  Br37  1  0.091115  0.002501  0.285696  1
  Br  Br38  1  0.553713  0.483190  0.139977  1
  Br  Br39  1  0.454320  0.003554  0.823585  1
  O  O40  1  0.260694  0.252873  0.969519  1
  O  O41  1  0.728084  0.766581  0.051831  1
  O  O42  1  0.949844  0.252747  0.078190  1
  O  O43  1  0.010100  0.772676  0.886044  1
  O  O44  1  0.643907  0.246935  0.815037  1
  O  O45  1  0.368754  0.739748  0.214169  1
  O  O46  1  0.665052  0.245058  0.441732  1
  O  O47  1  0.345620  0.747960  0.541133  1
  O  O48  1  0.074389  0.244857  0.562869  1
  O  O49  1  0.894020  0.735405  0.430676  1
  O  O50  1  0.261080  0.395104  0.438535  1
  O  O51  1  0.698435  0.903016  0.538083  1
  O  O52  1  0.475890  0.540869  0.693505  1
  O  O53  1  0.513689  0.051094  0.292302  1
  O  O54  1  0.022703  0.526473  0.181173  1
  O  O55  1  0.958502  0.066159  0.808075  1
