# generated using pymatgen
data_K6Yb3(PS4)5
_symmetry_space_group_name_H-M   'P 1'
_cell_length_a   12.97824922
_cell_length_b   15.34970929
_cell_length_c   23.79647392
_cell_angle_alpha   79.83557646
_cell_angle_beta   74.16023506
_cell_angle_gamma   64.99614667
_symmetry_Int_Tables_number   1
_chemical_formula_structural   K6Yb3(PS4)5
_chemical_formula_sum   'K24 Yb12 P20 S80'
_cell_volume   4122.96664207
_cell_formula_units_Z   4
loop_
 _symmetry_equiv_pos_site_id
 _symmetry_equiv_pos_as_xyz
  1  'x, y, z'
loop_
 _atom_site_type_symbol
 _atom_site_label
 _atom_site_symmetry_multiplicity
 _atom_site_fract_x
 _atom_site_fract_y
 _atom_site_fract_z
 _atom_site_occupancy
  Yb  Yb0  1  0.503855  0.350155  0.622353  1
  Yb  Yb1  1  0.865190  0.313594  0.937992  1
  Yb  Yb2  1  0.523727  0.850090  0.122341  1
  Yb  Yb3  1  0.200755  0.777176  0.756970  1
  Yb  Yb4  1  0.496145  0.649845  0.377647  1
  Yb  Yb5  1  0.265104  0.277290  0.256975  1
  Yb  Yb6  1  0.134810  0.686406  0.062008  1
  Yb  Yb7  1  0.734896  0.722710  0.743025  1
  Yb  Yb8  1  0.476273  0.149910  0.877659  1
  Yb  Yb9  1  0.883288  0.813611  0.438006  1
  Yb  Yb10  1  0.116712  0.186389  0.561994  1
  Yb  Yb11  1  0.799245  0.222824  0.243030  1
  K  K12  1  0.210325  0.459185  0.478047  1
  K  K13  1  0.855825  0.092796  0.769774  1
  K  K14  1  0.776220  0.007023  0.638466  1
  K  K15  1  0.135605  0.414125  0.731349  1
  K  K16  1  0.506801  0.139448  0.426131  1
  K  K17  1  0.147592  0.040810  0.021981  1
  K  K18  1  0.501692  0.741701  0.922270  1
  K  K19  1  0.498308  0.258299  0.077730  1
  K  K20  1  0.719188  0.914009  0.231636  1
  K  K21  1  0.223780  0.992977  0.361534  1
  K  K22  1  0.281713  0.592744  0.269904  1
  K  K23  1  0.834237  0.241773  0.422341  1
  K  K24  1  0.280812  0.085991  0.768364  1
  K  K25  1  0.072255  0.360516  0.073856  1
  K  K26  1  0.421514  0.493027  0.861415  1
  K  K27  1  0.864395  0.585875  0.268651  1
  K  K28  1  0.144175  0.907204  0.230226  1
  K  K29  1  0.718287  0.407256  0.730096  1
  K  K30  1  0.165763  0.758227  0.577659  1
  K  K31  1  0.493199  0.860552  0.573869  1
  K  K32  1  0.578486  0.506973  0.138585  1
  K  K33  1  0.927745  0.639484  0.926144  1
  K  K34  1  0.789675  0.540815  0.521953  1
  K  K35  1  0.852408  0.959190  0.978019  1
  P  P36  1  0.666191  0.435857  0.310079  1
  P  P37  1  0.178214  0.260955  0.906380  1
  P  P38  1  0.806143  0.270822  0.591109  1
  P  P39  1  0.331925  0.770778  0.091046  1
  P  P40  1  0.205665  0.482025  0.163437  1
  P  P41  1  0.654345  0.760878  0.406397  1
  P  P42  1  0.167820  0.756301  0.906157  1
  P  P43  1  0.830131  0.743677  0.593921  1
  P  P44  1  0.668075  0.229222  0.908954  1
  P  P45  1  0.851105  0.018028  0.336564  1
  P  P46  1  0.333809  0.564143  0.689921  1
  P  P47  1  0.169869  0.256323  0.406079  1
  P  P48  1  0.148895  0.981972  0.663436  1
  P  P49  1  0.794335  0.517975  0.836563  1
  P  P50  1  0.587825  0.935973  0.810099  1
  P  P51  1  0.412175  0.064027  0.189901  1
  P  P52  1  0.821786  0.739045  0.093620  1
  P  P53  1  0.193857  0.729178  0.408891  1
  P  P54  1  0.832180  0.243699  0.093843  1
  P  P55  1  0.345655  0.239122  0.593603  1
  S  S56  1  0.049428  0.341115  0.469920  1
  S  S57  1  0.446067  0.296309  0.529950  1
  S  S58  1  0.191803  0.598317  0.758048  1
  S  S59  1  0.093269  0.239891  0.346252  1
  S  S60  1  0.906208  0.584793  0.798839  1
  S  S61  1  0.860420  0.158892  0.030088  1
  S  S62  1  0.679380  0.260090  0.153778  1
  S  S63  1  0.300644  0.521132  0.622806  1
  S  S64  1  0.606181  0.777442  0.328876  1
  S  S65  1  0.712526  0.722594  0.171105  1
  S  S66  1  0.906731  0.760109  0.653748  1
  S  S67  1  0.080089  0.848820  0.451290  1
  S  S68  1  0.249725  0.474883  0.074974  1
  S  S69  1  0.293754  0.768202  0.334056  1
  S  S70  1  0.963428  0.087503  0.305489  1
  S  S71  1  0.320620  0.739910  0.846222  1
  S  S72  1  0.926469  0.877918  0.315796  1
  S  S73  1  0.365300  0.110684  0.570081  1
  S  S74  1  0.619681  0.348842  0.951285  1
  S  S75  1  0.093792  0.415207  0.201161  1
  S  S76  1  0.375485  0.680861  0.661743  1
  S  S77  1  0.819591  0.376459  0.053719  1
  S  S78  1  0.303431  0.633085  0.460185  1
  S  S79  1  0.634700  0.889316  0.429919  1
  S  S80  1  0.706246  0.231798  0.665944  1
  S  S81  1  0.120217  0.622045  0.184334  1
  S  S82  1  0.799387  0.025217  0.425062  1
  S  S83  1  0.709918  0.084840  0.298872  1
  S  S84  1  0.696569  0.366915  0.539815  1
  S  S85  1  0.465298  0.449234  0.719857  1
  S  S86  1  0.718226  0.819072  0.838242  1
  S  S87  1  0.444659  0.978798  0.877177  1
  S  S88  1  0.290611  0.313170  0.364529  1
  S  S89  1  0.272447  0.203570  0.970083  1
  S  S90  1  0.896870  0.337790  0.611787  1
  S  S91  1  0.031677  0.813268  0.864438  1
  S  S92  1  0.555341  0.021202  0.122823  1
  S  S93  1  0.281774  0.180928  0.161758  1
  S  S94  1  0.808197  0.401683  0.241952  1
  S  S95  1  0.046080  0.389231  0.929937  1
  S  S96  1  0.634396  0.050644  0.780077  1
  S  S97  1  0.699356  0.478868  0.377194  1
  S  S98  1  0.036572  0.912497  0.694511  1
  S  S99  1  0.919911  0.151180  0.548710  1
  S  S100  1  0.365604  0.949356  0.219923  1
  S  S101  1  0.643463  0.587495  0.805413  1
  S  S102  1  0.879783  0.377955  0.815666  1
  S  S103  1  0.604063  0.268159  0.833979  1
  S  S104  1  0.380319  0.651158  0.048715  1
  S  S105  1  0.953920  0.610769  0.070063  1
  S  S106  1  0.950572  0.658885  0.530080  1
  S  S107  1  0.103888  0.171973  0.897245  1
  S  S108  1  0.553933  0.703691  0.470050  1
  S  S109  1  0.287474  0.277406  0.828895  1
  S  S110  1  0.451858  0.098233  0.258083  1
  S  S111  1  0.290082  0.915160  0.701128  1
  S  S112  1  0.153573  0.837697  0.111898  1
  S  S113  1  0.826916  0.672000  0.397260  1
  S  S114  1  0.750183  0.876534  0.553689  1
  S  S115  1  0.073531  0.122082  0.684204  1
  S  S116  1  0.249817  0.123466  0.446311  1
  S  S117  1  0.709389  0.686830  0.635471  1
  S  S118  1  0.103130  0.662210  0.388213  1
  S  S119  1  0.393819  0.222558  0.671124  1
  S  S120  1  0.896112  0.828027  0.102755  1
  S  S121  1  0.356537  0.412505  0.194587  1
  S  S122  1  0.200613  0.974783  0.574938  1
  S  S123  1  0.846427  0.162303  0.888101  1
  S  S124  1  0.603368  0.133120  0.960136  1
  S  S125  1  0.395937  0.731841  0.166021  1
  S  S126  1  0.173084  0.328000  0.602740  1
  S  S127  1  0.968323  0.186732  0.135562  1
  S  S128  1  0.624515  0.319139  0.338257  1
  S  S129  1  0.396632  0.866880  0.039864  1
  S  S130  1  0.534702  0.550766  0.280143  1
  S  S131  1  0.180409  0.623541  0.946281  1
  S  S132  1  0.727553  0.796430  0.029917  1
  S  S133  1  0.139580  0.841108  0.969912  1
  S  S134  1  0.548142  0.901767  0.741917  1
  S  S135  1  0.750275  0.525117  0.925026  1
