# generated using pymatgen
data_SiO2
_symmetry_space_group_name_H-M   'P 1'
_cell_length_a   12.72915593
_cell_length_b   12.72915593
_cell_length_c   26.40793274
_cell_angle_alpha   90.00000000
_cell_angle_beta   90.00000000
_cell_angle_gamma   90.00000000
_symmetry_Int_Tables_number   1
_chemical_formula_structural   SiO2
_chemical_formula_sum   'Si64 O128'
_cell_volume   4278.91459528
_cell_formula_units_Z   64
loop_
 _symmetry_equiv_pos_site_id
 _symmetry_equiv_pos_as_xyz
  1  'x, y, z'
loop_
 _atom_site_type_symbol
 _atom_site_label
 _atom_site_symmetry_multiplicity
 _atom_site_fract_x
 _atom_site_fract_y
 _atom_site_fract_z
 _atom_site_occupancy
  Si  Si0  1  0.953193  0.796337  0.055269  1
  Si  Si1  1  0.203663  0.953193  0.305269  1
  Si  Si2  1  0.796337  0.046807  0.805269  1
  Si  Si3  1  0.953193  0.203663  0.444731  1
  Si  Si4  1  0.046807  0.796337  0.944731  1
  Si  Si5  1  0.046807  0.203663  0.555269  1
  Si  Si6  1  0.796337  0.953193  0.694731  1
  Si  Si7  1  0.203663  0.046807  0.194731  1
  Si  Si8  1  0.953950  0.542497  0.055427  1
  Si  Si9  1  0.457503  0.953950  0.305427  1
  Si  Si10  1  0.542497  0.046050  0.805427  1
  Si  Si11  1  0.953950  0.457503  0.444573  1
  Si  Si12  1  0.046050  0.542497  0.944573  1
  Si  Si13  1  0.046050  0.457503  0.555427  1
  Si  Si14  1  0.542497  0.953950  0.694573  1
  Si  Si15  1  0.457503  0.046050  0.194573  1
  Si  Si16  1  0.714414  0.792317  0.058470  1
  Si  Si17  1  0.207683  0.714414  0.308470  1
  Si  Si18  1  0.792317  0.285586  0.808470  1
  Si  Si19  1  0.714414  0.207683  0.441530  1
  Si  Si20  1  0.285586  0.792317  0.941530  1
  Si  Si21  1  0.285586  0.207683  0.558470  1
  Si  Si22  1  0.792317  0.714414  0.691530  1
  Si  Si23  1  0.207683  0.285586  0.191530  1
  Si  Si24  1  0.715231  0.544685  0.059196  1
  Si  Si25  1  0.455315  0.715231  0.309196  1
  Si  Si26  1  0.544685  0.284769  0.809196  1
  Si  Si27  1  0.715231  0.455315  0.440804  1
  Si  Si28  1  0.284769  0.544685  0.940804  1
  Si  Si29  1  0.284769  0.455315  0.559196  1
  Si  Si30  1  0.544685  0.715231  0.690804  1
  Si  Si31  1  0.455315  0.284769  0.190804  1
  Si  Si32  1  0.332076  0.789071  0.058992  1
  Si  Si33  1  0.210929  0.332076  0.308992  1
  Si  Si34  1  0.789071  0.667924  0.808992  1
  Si  Si35  1  0.332076  0.210929  0.441008  1
  Si  Si36  1  0.667924  0.789071  0.941008  1
  Si  Si37  1  0.667924  0.210929  0.558992  1
  Si  Si38  1  0.789071  0.332076  0.691008  1
  Si  Si39  1  0.210929  0.667924  0.191008  1
  Si  Si40  1  0.333045  0.540329  0.058147  1
  Si  Si41  1  0.459671  0.333045  0.308147  1
  Si  Si42  1  0.540329  0.666955  0.808147  1
  Si  Si43  1  0.333045  0.459671  0.441853  1
  Si  Si44  1  0.666955  0.540329  0.941853  1
  Si  Si45  1  0.666955  0.459671  0.558147  1
  Si  Si46  1  0.540329  0.333045  0.691853  1
  Si  Si47  1  0.459671  0.666955  0.191853  1
  Si  Si48  1  0.527222  0.859650  0.125487  1
  Si  Si49  1  0.140350  0.527222  0.375487  1
  Si  Si50  1  0.859650  0.472778  0.875487  1
  Si  Si51  1  0.527222  0.140350  0.374513  1
  Si  Si52  1  0.472778  0.859650  0.874513  1
  Si  Si53  1  0.472778  0.140350  0.625487  1
  Si  Si54  1  0.859650  0.527222  0.624513  1
  Si  Si55  1  0.140350  0.472778  0.124513  1
  Si  Si56  1  0.527408  0.472592  0.125000  1
  Si  Si57  1  0.527408  0.527408  0.375000  1
  Si  Si58  1  0.472592  0.472592  0.875000  1
  Si  Si59  1  0.472592  0.527408  0.625000  1
  Si  Si60  1  0.138909  0.861091  0.125000  1
  Si  Si61  1  0.138909  0.138909  0.375000  1
  Si  Si62  1  0.861091  0.861091  0.875000  1
  Si  Si63  1  0.861091  0.138909  0.625000  1
  O  O64  1  0.833221  0.839591  0.059727  1
  O  O65  1  0.160409  0.833221  0.309727  1
  O  O66  1  0.839591  0.166779  0.809727  1
  O  O67  1  0.833221  0.160409  0.440273  1
  O  O68  1  0.166779  0.839591  0.940273  1
  O  O69  1  0.166779  0.160409  0.559727  1
  O  O70  1  0.839591  0.833221  0.690273  1
  O  O71  1  0.160409  0.166779  0.190273  1
  O  O72  1  0.000000  0.827248  0.000000  1
  O  O73  1  0.172752  0.000000  0.250000  1
  O  O74  1  0.827248  0.000000  0.750000  1
  O  O75  1  0.000000  0.172752  0.500000  1
  O  O76  1  0.023669  0.850710  0.099292  1
  O  O77  1  0.149290  0.023669  0.349292  1
  O  O78  1  0.850710  0.976331  0.849292  1
  O  O79  1  0.023669  0.149290  0.400708  1
  O  O80  1  0.976331  0.850710  0.900708  1
  O  O81  1  0.976331  0.149290  0.599292  1
  O  O82  1  0.850710  0.023669  0.650708  1
  O  O83  1  0.149290  0.976331  0.150708  1
  O  O84  1  0.954740  0.669440  0.062241  1
  O  O85  1  0.330560  0.954740  0.312241  1
  O  O86  1  0.669440  0.045260  0.812241  1
  O  O87  1  0.954740  0.330560  0.437759  1
  O  O88  1  0.045260  0.669440  0.937759  1
  O  O89  1  0.045260  0.330560  0.562241  1
  O  O90  1  0.669440  0.954740  0.687759  1
  O  O91  1  0.330560  0.045260  0.187759  1
  O  O92  1  0.834446  0.498457  0.060592  1
  O  O93  1  0.501543  0.834446  0.310592  1
  O  O94  1  0.498457  0.165554  0.810592  1
  O  O95  1  0.834446  0.501543  0.439408  1
  O  O96  1  0.165554  0.498457  0.939408  1
  O  O97  1  0.165554  0.501543  0.560592  1
  O  O98  1  0.498457  0.834446  0.689408  1
  O  O99  1  0.501543  0.165554  0.189408  1
  O  O100  1  0.000000  0.511705  0.000000  1
  O  O101  1  0.488295  0.000000  0.250000  1
  O  O102  1  0.511705  0.000000  0.750000  1
  O  O103  1  0.000000  0.488295  0.500000  1
  O  O104  1  0.025614  0.488611  0.099019  1
  O  O105  1  0.511389  0.025614  0.349019  1
  O  O106  1  0.488611  0.974386  0.849019  1
  O  O107  1  0.025614  0.511389  0.400981  1
  O  O108  1  0.974386  0.488611  0.900981  1
  O  O109  1  0.974386  0.511389  0.599019  1
  O  O110  1  0.488611  0.025614  0.650981  1
  O  O111  1  0.511389  0.974386  0.150981  1
  O  O112  1  0.642048  0.855757  0.098747  1
  O  O113  1  0.144243  0.642048  0.348747  1
  O  O114  1  0.855757  0.357952  0.848747  1
  O  O115  1  0.642048  0.144243  0.401253  1
  O  O116  1  0.357952  0.855757  0.901253  1
  O  O117  1  0.357952  0.144243  0.598747  1
  O  O118  1  0.855757  0.642048  0.651253  1
  O  O119  1  0.144243  0.357952  0.151253  1
  O  O120  1  0.717335  0.668744  0.074072  1
  O  O121  1  0.331256  0.717335  0.324072  1
  O  O122  1  0.668744  0.282665  0.824072  1
  O  O123  1  0.717335  0.331256  0.425928  1
  O  O124  1  0.282665  0.668744  0.925928  1
  O  O125  1  0.282665  0.331256  0.574072  1
  O  O126  1  0.668744  0.717335  0.675928  1
  O  O127  1  0.331256  0.282665  0.175928  1
  O  O128  1  0.664990  0.804190  0.001821  1
  O  O129  1  0.195810  0.664990  0.251821  1
  O  O130  1  0.804190  0.335010  0.751821  1
  O  O131  1  0.664990  0.195810  0.498179  1
  O  O132  1  0.335010  0.804190  0.998179  1
  O  O133  1  0.335010  0.195810  0.501821  1
  O  O134  1  0.804190  0.664990  0.748179  1
  O  O135  1  0.195810  0.335010  0.248179  1
  O  O136  1  0.643576  0.482830  0.100184  1
  O  O137  1  0.517170  0.643576  0.350184  1
  O  O138  1  0.482830  0.356424  0.850184  1
  O  O139  1  0.643576  0.517170  0.399816  1
  O  O140  1  0.356424  0.482830  0.899816  1
  O  O141  1  0.356424  0.517170  0.600184  1
  O  O142  1  0.482830  0.643576  0.649816  1
  O  O143  1  0.517170  0.356424  0.149816  1
  O  O144  1  0.665373  0.528964  0.002848  1
  O  O145  1  0.471036  0.665373  0.252848  1
  O  O146  1  0.528964  0.334627  0.752848  1
  O  O147  1  0.665373  0.471036  0.497152  1
  O  O148  1  0.334627  0.528964  0.997152  1
  O  O149  1  0.334627  0.471036  0.502848  1
  O  O150  1  0.528964  0.665373  0.747152  1
  O  O151  1  0.471036  0.334627  0.247152  1
  O  O152  1  0.436989  0.840631  0.082766  1
  O  O153  1  0.159369  0.436989  0.332766  1
  O  O154  1  0.840631  0.563011  0.832766  1
  O  O155  1  0.436989  0.159369  0.417234  1
  O  O156  1  0.563011  0.840631  0.917234  1
  O  O157  1  0.563011  0.159369  0.582766  1
  O  O158  1  0.840631  0.436989  0.667234  1
  O  O159  1  0.159369  0.563011  0.167234  1
  O  O160  1  0.327600  0.664514  0.072872  1
  O  O161  1  0.335486  0.327600  0.322872  1
  O  O162  1  0.664514  0.672400  0.822872  1
  O  O163  1  0.327600  0.335486  0.427128  1
  O  O164  1  0.672400  0.664514  0.927128  1
  O  O165  1  0.672400  0.335486  0.572872  1
  O  O166  1  0.664514  0.327600  0.677128  1
  O  O167  1  0.335486  0.672400  0.177128  1
  O  O168  1  0.228890  0.847105  0.081641  1
  O  O169  1  0.152895  0.228890  0.331641  1
  O  O170  1  0.847105  0.771110  0.831641  1
  O  O171  1  0.228890  0.152895  0.418359  1
  O  O172  1  0.771110  0.847105  0.918359  1
  O  O173  1  0.771110  0.152895  0.581641  1
  O  O174  1  0.847105  0.228890  0.668359  1
  O  O175  1  0.152895  0.771110  0.168359  1
  O  O176  1  0.438853  0.488330  0.080979  1
  O  O177  1  0.511670  0.438853  0.330979  1
  O  O178  1  0.488330  0.561147  0.830979  1
  O  O179  1  0.438853  0.511670  0.419021  1
  O  O180  1  0.561147  0.488330  0.919021  1
  O  O181  1  0.561147  0.511670  0.580979  1
  O  O182  1  0.488330  0.438853  0.669021  1
  O  O183  1  0.511670  0.561147  0.169021  1
  O  O184  1  0.230797  0.480602  0.080928  1
  O  O185  1  0.519398  0.230797  0.330928  1
  O  O186  1  0.480602  0.769203  0.830928  1
  O  O187  1  0.230797  0.519398  0.419072  1
  O  O188  1  0.769203  0.480602  0.919072  1
  O  O189  1  0.769203  0.519398  0.580928  1
  O  O190  1  0.480602  0.230797  0.669072  1
  O  O191  1  0.519398  0.769203  0.169072  1
