# generated using pymatgen
data_K5Th(PS4)3
_symmetry_space_group_name_H-M   'P 1'
_cell_length_a   9.84923440
_cell_length_b   11.58655937
_cell_length_c   20.30838475
_cell_angle_alpha   90.00000000
_cell_angle_beta   90.12470817
_cell_angle_gamma   90.00000000
_symmetry_Int_Tables_number   1
_chemical_formula_structural   K5Th(PS4)3
_chemical_formula_sum   'K20 Th4 P12 S48'
_cell_volume   2317.56177233
_cell_formula_units_Z   4
loop_
 _symmetry_equiv_pos_site_id
 _symmetry_equiv_pos_as_xyz
  1  'x, y, z'
loop_
 _atom_site_type_symbol
 _atom_site_label
 _atom_site_symmetry_multiplicity
 _atom_site_fract_x
 _atom_site_fract_y
 _atom_site_fract_z
 _atom_site_occupancy
  K  K0  1  0.358980  0.407890  0.916373  1
  K  K1  1  0.880510  0.359375  0.579261  1
  K  K2  1  0.619490  0.859375  0.920739  1
  K  K3  1  0.181338  0.903825  0.902765  1
  K  K4  1  0.858980  0.092110  0.416373  1
  K  K5  1  0.318662  0.403825  0.597235  1
  K  K6  1  0.170629  0.892144  0.249718  1
  K  K7  1  0.141020  0.907890  0.583627  1
  K  K8  1  0.681338  0.596175  0.402765  1
  K  K9  1  0.329371  0.392144  0.250282  1
  K  K10  1  0.641020  0.592110  0.083627  1
  K  K11  1  0.885509  0.344139  0.258055  1
  K  K12  1  0.380510  0.140625  0.079261  1
  K  K13  1  0.670629  0.607856  0.749718  1
  K  K14  1  0.829371  0.107856  0.750282  1
  K  K15  1  0.614491  0.844139  0.241945  1
  K  K16  1  0.385509  0.155861  0.758055  1
  K  K17  1  0.119490  0.640625  0.420739  1
  K  K18  1  0.114491  0.655861  0.741945  1
  K  K19  1  0.818662  0.096175  0.097235  1
  Th  Th20  1  0.892853  0.351699  0.918641  1
  Th  Th21  1  0.392853  0.148301  0.418641  1
  Th  Th22  1  0.607147  0.851699  0.581359  1
  Th  Th23  1  0.107147  0.648301  0.081359  1
  P  P24  1  0.092299  0.328910  0.081062  1
  P  P25  1  0.902830  0.668996  0.237507  1
  P  P26  1  0.402830  0.831004  0.737507  1
  P  P27  1  0.620824  0.189404  0.920868  1
  P  P28  1  0.907701  0.671091  0.918938  1
  P  P29  1  0.097170  0.331004  0.762493  1
  P  P30  1  0.879176  0.689404  0.579132  1
  P  P31  1  0.379176  0.810596  0.079132  1
  P  P32  1  0.592299  0.171091  0.581062  1
  P  P33  1  0.597170  0.168996  0.262493  1
  P  P34  1  0.120824  0.310596  0.420868  1
  P  P35  1  0.407701  0.828909  0.418938  1
  S  S36  1  0.073099  0.568654  0.218291  1
  S  S37  1  0.239091  0.935684  0.419595  1
  S  S38  1  0.093247  0.229527  0.997364  1
  S  S39  1  0.425458  0.063096  0.568409  1
  S  S40  1  0.644172  0.297365  0.840850  1
  S  S41  1  0.444303  0.102093  0.919246  1
  S  S42  1  0.426901  0.068654  0.281709  1
  S  S43  1  0.944303  0.397907  0.419246  1
  S  S44  1  0.094335  0.228006  0.160599  1
  S  S45  1  0.094127  0.223105  0.844306  1
  S  S46  1  0.739091  0.564316  0.919595  1
  S  S47  1  0.916921  0.762562  0.321081  1
  S  S48  1  0.772377  0.076145  0.261718  1
  S  S49  1  0.926901  0.431346  0.781709  1
  S  S50  1  0.272377  0.423855  0.761718  1
  S  S51  1  0.593247  0.270473  0.497364  1
  S  S52  1  0.555697  0.897907  0.080754  1
  S  S53  1  0.906753  0.770473  0.002636  1
  S  S54  1  0.573099  0.931346  0.718291  1
  S  S55  1  0.760909  0.064316  0.580405  1
  S  S56  1  0.074542  0.563096  0.931591  1
  S  S57  1  0.594335  0.271994  0.660599  1
  S  S58  1  0.355828  0.702635  0.159150  1
  S  S59  1  0.583079  0.262562  0.178919  1
  S  S60  1  0.405665  0.728006  0.339401  1
  S  S61  1  0.855828  0.797365  0.659150  1
  S  S62  1  0.702237  0.595112  0.578337  1
  S  S63  1  0.797763  0.095112  0.921663  1
  S  S64  1  0.905873  0.776895  0.155694  1
  S  S65  1  0.356944  0.702776  0.999092  1
  S  S66  1  0.083079  0.237438  0.678919  1
  S  S67  1  0.416921  0.737438  0.821081  1
  S  S68  1  0.297763  0.404888  0.421663  1
  S  S69  1  0.202237  0.904888  0.078337  1
  S  S70  1  0.574542  0.936904  0.431591  1
  S  S71  1  0.144172  0.202635  0.340850  1
  S  S72  1  0.405873  0.723105  0.655694  1
  S  S73  1  0.406753  0.729527  0.502636  1
  S  S74  1  0.143056  0.202776  0.500908  1
  S  S75  1  0.925458  0.436904  0.068409  1
  S  S76  1  0.727623  0.576145  0.238282  1
  S  S77  1  0.643056  0.297224  0.000908  1
  S  S78  1  0.905665  0.771994  0.839401  1
  S  S79  1  0.856944  0.797224  0.499092  1
  S  S80  1  0.594127  0.276895  0.344306  1
  S  S81  1  0.055697  0.602093  0.580754  1
  S  S82  1  0.227623  0.923855  0.738282  1
  S  S83  1  0.260909  0.435684  0.080405  1
