# generated using pymatgen
data_Eu(Ni3S4)2
_symmetry_space_group_name_H-M   'P 1'
_cell_length_a   6.22594995
_cell_length_b   6.22803906
_cell_length_c   6.23416109
_cell_angle_alpha   89.54644687
_cell_angle_beta   89.50603789
_cell_angle_gamma   89.52889960
_symmetry_Int_Tables_number   1
_chemical_formula_structural   Eu(Ni3S4)2
_chemical_formula_sum   'Eu1 Ni6 S8'
_cell_volume   241.70786709
_cell_formula_units_Z   1
loop_
 _symmetry_equiv_pos_site_id
 _symmetry_equiv_pos_as_xyz
  1  'x, y, z'
loop_
 _atom_site_type_symbol
 _atom_site_label
 _atom_site_symmetry_multiplicity
 _atom_site_fract_x
 _atom_site_fract_y
 _atom_site_fract_z
 _atom_site_occupancy
  Eu  Eu0  1  -0.000320  0.000650  0.999553  1
  Ni  Ni1  1  0.407232  0.193650  0.568751  1
  Ni  Ni2  1  0.569248  0.407422  0.193196  1
  Ni  Ni3  1  0.592935  0.806282  0.431408  1
  Ni  Ni4  1  0.807157  0.430729  0.592307  1
  Ni  Ni5  1  0.192863  0.569178  0.407867  1
  Ni  Ni6  1  0.430885  0.592391  0.806724  1
  S  S7  1  0.147432  0.384354  0.729279  1
  S  S8  1  0.270929  0.852331  0.615456  1
  S  S9  1  0.744936  0.744854  0.744849  1
  S  S10  1  0.255096  0.255131  0.255432  1
  S  S11  1  0.852611  0.615663  0.270741  1
  S  S12  1  0.383641  0.728661  0.147323  1
  S  S13  1  0.729102  0.147651  0.384341  1
  S  S14  1  0.616253  0.271051  0.852774  1
