# generated using pymatgen
data_SrLa7Cu4(SnO6)4
_symmetry_space_group_name_H-M   'P 1'
_cell_length_a   7.89655267
_cell_length_b   7.90199720
_cell_length_c   8.51734180
_cell_angle_alpha   91.27913079
_cell_angle_beta   90.00000000
_cell_angle_gamma   90.00000000
_symmetry_Int_Tables_number   1
_chemical_formula_structural   SrLa7Cu4(SnO6)4
_chemical_formula_sum   'Sr1 La7 Cu4 Sn4 O24'
_cell_volume   531.33722985
_cell_formula_units_Z   1
loop_
 _symmetry_equiv_pos_site_id
 _symmetry_equiv_pos_as_xyz
  1  'x, y, z'
loop_
 _atom_site_type_symbol
 _atom_site_label
 _atom_site_symmetry_multiplicity
 _atom_site_fract_x
 _atom_site_fract_y
 _atom_site_fract_z
 _atom_site_occupancy
  Sr  Sr0  1  0.250000  0.275792  0.766625  1
  La  La1  1  0.250000  0.281924  0.206347  1
  La  La2  1  0.250000  0.766162  0.197071  1
  La  La3  1  0.250000  0.788248  0.756299  1
  La  La4  1  0.750000  0.213363  0.244798  1
  La  La5  1  0.750000  0.230939  0.801941  1
  La  La6  1  0.750000  0.717899  0.787490  1
  La  La7  1  0.750000  0.723690  0.233267  1
  Cu  Cu8  1  0.000191  0.000127  0.998300  1
  Cu  Cu9  1  0.000922  0.499564  0.998398  1
  Cu  Cu10  1  0.499809  0.000127  0.998300  1
  Cu  Cu11  1  0.499078  0.499564  0.998398  1
  Sn  Sn12  1  0.000867  0.499212  0.500770  1
  Sn  Sn13  1  0.000210  0.000168  0.500922  1
  Sn  Sn14  1  0.499790  0.000168  0.500922  1
  Sn  Sn15  1  0.499133  0.499212  0.500770  1
  O  O16  1  0.029549  0.750403  0.962907  1
  O  O17  1  0.045158  0.248516  0.426202  1
  O  O18  1  0.044117  0.040391  0.737608  1
  O  O19  1  0.049829  0.555315  0.268055  1
  O  O20  1  0.250000  0.026405  0.034397  1
  O  O21  1  0.250000  0.532621  0.581251  1
  O  O22  1  0.250000  0.480964  0.990343  1
  O  O23  1  0.250000  0.923460  0.461116  1
  O  O24  1  0.450171  0.555315  0.268055  1
  O  O25  1  0.455883  0.040391  0.737608  1
  O  O26  1  0.454842  0.248516  0.426202  1
  O  O27  1  0.470451  0.750403  0.962907  1
  O  O28  1  0.532472  0.249599  0.038974  1
  O  O29  1  0.548601  0.750423  0.568100  1
  O  O30  1  0.550936  0.950651  0.265173  1
  O  O31  1  0.557678  0.449293  0.732642  1
  O  O32  1  0.750000  0.078663  0.536705  1
  O  O33  1  0.750000  0.473806  0.415481  1
  O  O34  1  0.750000  0.528308  0.018357  1
  O  O35  1  0.750000  0.970429  0.972412  1
  O  O36  1  0.942322  0.449293  0.732642  1
  O  O37  1  0.949064  0.950651  0.265173  1
  O  O38  1  0.951399  0.750423  0.568100  1
  O  O39  1  0.967528  0.249599  0.038974  1
