# generated using pymatgen
data_K3Ba2Pr2(BiO5)3
_symmetry_space_group_name_H-M   'P 1'
_cell_length_a   6.28651922
_cell_length_b   6.28650457
_cell_length_c   31.39736720
_cell_angle_alpha   59.96282277
_cell_angle_beta   59.96263100
_cell_angle_gamma   59.99997076
_symmetry_Int_Tables_number   1
_chemical_formula_structural   K3Ba2Pr2(BiO5)3
_chemical_formula_sum   'K6 Ba4 Pr4 Bi6 O30'
_cell_volume   876.90534611
_cell_formula_units_Z   2
loop_
 _symmetry_equiv_pos_site_id
 _symmetry_equiv_pos_as_xyz
  1  'x, y, z'
loop_
 _atom_site_type_symbol
 _atom_site_label
 _atom_site_symmetry_multiplicity
 _atom_site_fract_x
 _atom_site_fract_y
 _atom_site_fract_z
 _atom_site_occupancy
  K  K0  1  0.256209  0.256216  0.046273  1
  K  K1  1  0.251190  0.251193  0.249286  1
  K  K2  1  0.748838  0.748842  0.550697  1
  K  K3  1  0.246816  0.246811  0.851912  1
  K  K4  1  0.743769  0.743781  0.753732  1
  K  K5  1  0.753074  0.753077  0.948154  1
  Ba  Ba6  1  0.755077  0.755073  0.146954  1
  Ba  Ba7  1  0.249215  0.249215  0.450471  1
  Ba  Ba8  1  0.750654  0.750657  0.349607  1
  Ba  Ba9  1  0.245129  0.245132  0.652922  1
  Pr  Pr10  1  0.507166  0.507165  0.095700  1
  Pr  Pr11  1  0.503114  0.503115  0.298131  1
  Pr  Pr12  1  0.496622  0.496624  0.502022  1
  Pr  Pr13  1  0.493100  0.493098  0.704141  1
  Bi  Bi14  1  0.004430  0.004430  0.997342  1
  Bi  Bi15  1  0.002763  0.002762  0.198343  1
  Bi  Bi16  1  -0.000050  -0.000051  0.400030  1
  Bi  Bi17  1  0.997350  0.997350  0.601590  1
  Bi  Bi18  1  0.995522  0.995522  0.802687  1
  Bi  Bi19  1  0.499968  0.499967  0.900020  1
  O  O20  1  0.241652  0.241651  0.151059  1
  O  O21  1  0.229196  0.767429  0.047189  1
  O  O22  1  0.767430  0.229196  0.047189  1
  O  O23  1  0.241651  0.761403  0.151058  1
  O  O24  1  0.239344  0.239344  0.354498  1
  O  O25  1  0.236306  0.764125  0.247088  1
  O  O26  1  0.761404  0.241652  0.151059  1
  O  O27  1  0.767429  0.767428  0.047189  1
  O  O28  1  0.764126  0.236306  0.247088  1
  O  O29  1  0.239345  0.748822  0.354498  1
  O  O30  1  0.235817  0.235819  0.552935  1
  O  O31  1  0.251068  0.760740  0.445491  1
  O  O32  1  0.748824  0.239343  0.354498  1
  O  O33  1  0.764126  0.764126  0.247088  1
  O  O34  1  0.760740  0.251068  0.445491  1
  O  O35  1  0.235818  0.763690  0.552935  1
  O  O36  1  0.232506  0.232504  0.752811  1
  O  O37  1  0.238453  0.758444  0.648932  1
  O  O38  1  0.763692  0.235816  0.552935  1
  O  O39  1  0.760740  0.760741  0.445490  1
  O  O40  1  0.758444  0.238453  0.648932  1
  O  O41  1  0.232504  0.770935  0.752811  1
  O  O42  1  0.252537  0.252534  0.948453  1
  O  O43  1  0.247433  0.747438  0.851538  1
  O  O44  1  0.770935  0.232502  0.752811  1
  O  O45  1  0.758445  0.758444  0.648932  1
  O  O46  1  0.747440  0.247433  0.851538  1
  O  O47  1  0.252537  0.752661  0.948454  1
  O  O48  1  0.752661  0.252535  0.948454  1
  O  O49  1  0.747439  0.747438  0.851539  1
