# generated using pymatgen
data_BaNb8O14
_symmetry_space_group_name_H-M   'P 1'
_cell_length_a   9.67372247
_cell_length_b   10.45045858
_cell_length_c   13.20147306
_cell_angle_alpha   113.53619494
_cell_angle_beta   90.00000000
_cell_angle_gamma   90.00000000
_symmetry_Int_Tables_number   1
_chemical_formula_structural   BaNb8O14
_chemical_formula_sum   'Ba4 Nb32 O56'
_cell_volume   1223.57263891
_cell_formula_units_Z   4
loop_
 _symmetry_equiv_pos_site_id
 _symmetry_equiv_pos_as_xyz
  1  'x, y, z'
loop_
 _atom_site_type_symbol
 _atom_site_label
 _atom_site_symmetry_multiplicity
 _atom_site_fract_x
 _atom_site_fract_y
 _atom_site_fract_z
 _atom_site_occupancy
  Ba  Ba0  1  0.985807  0.651529  0.271919  1
  Ba  Ba1  1  0.014193  0.348471  0.728081  1
  Ba  Ba2  1  0.514193  0.151529  0.271919  1
  Ba  Ba3  1  0.485807  0.848471  0.728081  1
  Nb  Nb4  1  0.116516  0.341126  0.002658  1
  Nb  Nb5  1  0.116436  0.717939  0.758954  1
  Nb  Nb6  1  0.118423  0.954411  0.242264  1
  Nb  Nb7  1  0.111922  0.908993  0.634135  1
  Nb  Nb8  1  0.123068  0.251778  0.362643  1
  Nb  Nb9  1  0.124897  0.140662  0.132089  1
  Nb  Nb10  1  0.122261  0.012535  0.865728  1
  Nb  Nb11  1  0.154028  0.574046  0.493043  1
  Nb  Nb12  1  0.345972  0.074046  0.493043  1
  Nb  Nb13  1  0.375103  0.640662  0.132089  1
  Nb  Nb14  1  0.377739  0.512535  0.865728  1
  Nb  Nb15  1  0.376932  0.751778  0.362643  1
  Nb  Nb16  1  0.388078  0.408993  0.634135  1
  Nb  Nb17  1  0.381577  0.454411  0.242264  1
  Nb  Nb18  1  0.383564  0.217939  0.758954  1
  Nb  Nb19  1  0.383484  0.841126  0.002658  1
  Nb  Nb20  1  0.616516  0.158874  0.997342  1
  Nb  Nb21  1  0.616436  0.782061  0.241046  1
  Nb  Nb22  1  0.618423  0.545589  0.757736  1
  Nb  Nb23  1  0.611922  0.591007  0.365865  1
  Nb  Nb24  1  0.623068  0.248222  0.637357  1
  Nb  Nb25  1  0.622261  0.487465  0.134272  1
  Nb  Nb26  1  0.624897  0.359338  0.867911  1
  Nb  Nb27  1  0.654028  0.925954  0.506957  1
  Nb  Nb28  1  0.845972  0.425954  0.506957  1
  Nb  Nb29  1  0.875103  0.859338  0.867911  1
  Nb  Nb30  1  0.877739  0.987465  0.134272  1
  Nb  Nb31  1  0.876932  0.748222  0.637357  1
  Nb  Nb32  1  0.888078  0.091007  0.365865  1
  Nb  Nb33  1  0.881577  0.045589  0.757736  1
  Nb  Nb34  1  0.883564  0.282061  0.241046  1
  Nb  Nb35  1  0.883484  0.658874  0.997342  1
  O  O36  1  0.000000  0.000000  0.000000  1
  O  O37  1  0.000000  0.500000  0.000000  1
  O  O38  1  0.987066  0.263517  0.492569  1
  O  O39  1  0.012934  0.736483  0.507431  1
  O  O40  1  -0.000299  0.068037  0.637762  1
  O  O41  1  0.000971  0.434561  0.382686  1
  O  O42  1  0.006979  0.314679  0.125611  1
  O  O43  1  0.006312  0.193376  0.876314  1
  O  O44  1  0.228134  0.179597  0.998740  1
  O  O45  1  0.246824  0.780023  0.248788  1
  O  O46  1  0.244459  0.531947  0.749872  1
  O  O47  1  0.245603  0.351610  0.873305  1
  O  O48  1  0.241650  0.475069  0.120083  1
  O  O49  1  0.255903  0.092812  0.368404  1
  O  O50  1  0.238251  0.719740  0.622502  1
  O  O51  1  0.257213  0.916950  0.502280  1
  O  O52  1  0.242787  0.416950  0.502280  1
  O  O53  1  0.244097  0.592812  0.368404  1
  O  O54  1  0.261749  0.219740  0.622502  1
  O  O55  1  0.258350  0.975069  0.120083  1
  O  O56  1  0.254397  0.851610  0.873305  1
  O  O57  1  0.253176  0.280023  0.248788  1
  O  O58  1  0.255541  0.031947  0.749872  1
  O  O59  1  0.271866  0.679597  0.998740  1
  O  O60  1  0.493688  0.693376  0.876314  1
  O  O61  1  0.493021  0.814679  0.125611  1
  O  O62  1  0.500299  0.568037  0.637762  1
  O  O63  1  0.499029  0.934561  0.382686  1
  O  O64  1  0.500000  0.500000  0.000000  1
  O  O65  1  0.500000  0.000000  0.000000  1
  O  O66  1  0.487066  0.236483  0.507431  1
  O  O67  1  0.512934  0.763517  0.492569  1
  O  O68  1  0.500971  0.065439  0.617314  1
  O  O69  1  0.499701  0.431963  0.362238  1
  O  O70  1  0.506979  0.185321  0.874389  1
  O  O71  1  0.506312  0.306624  0.123686  1
  O  O72  1  0.728134  0.320403  0.001260  1
  O  O73  1  0.746824  0.719977  0.751212  1
  O  O74  1  0.744459  0.968053  0.250128  1
  O  O75  1  0.745603  0.148390  0.126695  1
  O  O76  1  0.741650  0.024931  0.879917  1
  O  O77  1  0.738251  0.780260  0.377498  1
  O  O78  1  0.755903  0.407188  0.631596  1
  O  O79  1  0.757213  0.583050  0.497720  1
  O  O80  1  0.742787  0.083050  0.497720  1
  O  O81  1  0.761749  0.280260  0.377498  1
  O  O82  1  0.744097  0.907188  0.631596  1
  O  O83  1  0.754397  0.648390  0.126695  1
  O  O84  1  0.758350  0.524931  0.879917  1
  O  O85  1  0.753176  0.219977  0.751212  1
  O  O86  1  0.755541  0.468053  0.250128  1
  O  O87  1  0.771866  0.820403  0.001260  1
  O  O88  1  0.993021  0.685321  0.874389  1
  O  O89  1  0.993688  0.806624  0.123686  1
  O  O90  1  0.999029  0.565439  0.617314  1
  O  O91  1  0.000299  0.931963  0.362238  1
