# generated using pymatgen
data_La8Al4I7
_symmetry_space_group_name_H-M   'P 1'
_cell_length_a   4.33109034
_cell_length_b   18.14227223
_cell_length_c   25.57596870
_cell_angle_alpha   77.33887429
_cell_angle_beta   85.16405689
_cell_angle_gamma   83.14909972
_symmetry_Int_Tables_number   1
_chemical_formula_structural   La8Al4I7
_chemical_formula_sum   'La24 Al12 I21'
_cell_volume   1943.27329470
_cell_formula_units_Z   3
loop_
 _symmetry_equiv_pos_site_id
 _symmetry_equiv_pos_as_xyz
  1  'x, y, z'
loop_
 _atom_site_type_symbol
 _atom_site_label
 _atom_site_symmetry_multiplicity
 _atom_site_fract_x
 _atom_site_fract_y
 _atom_site_fract_z
 _atom_site_occupancy
  La  La0  1  0.402230  0.898619  0.297718  1
  La  La1  1  0.597558  0.101205  0.701741  1
  La  La2  1  0.357954  0.302666  0.978753  1
  La  La3  1  0.009870  0.738290  0.237437  1
  La  La4  1  0.977882  0.128040  0.918680  1
  La  La5  1  0.385952  0.588977  0.640991  1
  La  La6  1  0.812143  0.780232  0.601854  1
  La  La7  1  0.391695  0.743381  0.473843  1
  La  La8  1  0.187203  0.220184  0.397934  1
  La  La9  1  0.637192  0.697978  0.020802  1
  La  La10  1  0.210370  0.515297  0.065131  1
  La  La11  1  0.998274  0.427293  0.576559  1
  La  La12  1  0.582446  0.953042  0.877192  1
  La  La13  1  0.003701  0.571358  0.423427  1
  La  La14  1  0.614137  0.411034  0.358527  1
  La  La15  1  0.607826  0.256575  0.525775  1
  La  La16  1  0.790726  0.485915  0.935104  1
  La  La17  1  0.829127  0.094824  0.246109  1
  La  La18  1  0.173913  0.904370  0.753174  1
  La  La19  1  0.374222  0.438656  0.812632  1
  La  La20  1  0.623845  0.561871  0.187242  1
  La  La21  1  0.988709  0.261708  0.762525  1
  La  La22  1  0.415107  0.046481  0.122412  1
  La  La23  1  0.019313  0.872146  0.081009  1
  Al  Al24  1  0.441747  0.256398  0.860825  1
  Al  Al25  1  0.102378  0.672865  0.117031  1
  Al  Al26  1  0.088872  0.367554  0.453637  1
  Al  Al27  1  0.522558  0.132931  0.822066  1
  Al  Al28  1  0.928528  0.940677  0.199993  1
  Al  Al29  1  0.475057  0.866848  0.177540  1
  Al  Al30  1  0.555095  0.743493  0.139101  1
  Al  Al31  1  0.459896  0.557538  0.523173  1
  Al  Al32  1  0.540573  0.441592  0.476787  1
  Al  Al33  1  0.894625  0.327595  0.882672  1
  Al  Al34  1  0.070225  0.058957  0.799569  1
  Al  Al35  1  0.911849  0.632495  0.545640  1
  I  I36  1  0.079166  0.546791  0.294687  1
  I  I37  1  0.098788  0.832812  0.959153  1
  I  I38  1  0.804932  0.578559  0.810614  1
  I  I39  1  0.921538  0.452879  0.705103  1
  I  I40  1  0.707011  0.110143  0.469027  1
  I  I41  1  0.688735  0.799651  0.828778  1
  I  I42  1  0.781129  0.377050  0.057711  1
  I  I43  1  0.299752  0.056546  0.343209  1
  I  I44  1  0.285382  0.736325  0.700276  1
  I  I45  1  0.132471  0.133845  0.598628  1
  I  I46  1  0.702952  0.943928  0.655986  1
  I  I47  1  0.866529  0.866924  0.400582  1
  I  I48  1  0.314450  0.199567  0.171252  1
  I  I49  1  0.293209  0.890107  0.530294  1
  I  I50  1  0.471557  0.705853  0.347756  1
  I  I51  1  0.526161  0.293438  0.652166  1
  I  I52  1  0.896038  0.167660  0.040695  1
  I  I53  1  0.217790  0.623844  0.942214  1
  I  I54  1  0.713920  0.263407  0.299882  1
  I  I55  1  0.192757  0.421612  0.189238  1
  I  I56  1  0.498119  0.000247  0.999616  1
