# generated using pymatgen
data_H7NO6
_symmetry_space_group_name_H-M   'P 1'
_cell_length_a   9.60835831
_cell_length_b   15.17284850
_cell_length_c   4.01665101
_cell_angle_alpha   89.99664266
_cell_angle_beta   89.97268027
_cell_angle_gamma   89.97971978
_symmetry_Int_Tables_number   1
_chemical_formula_structural   H7NO6
_chemical_formula_sum   'H28 N4 O24'
_cell_volume   585.57204260
_cell_formula_units_Z   4
loop_
 _symmetry_equiv_pos_site_id
 _symmetry_equiv_pos_as_xyz
  1  'x, y, z'
loop_
 _atom_site_type_symbol
 _atom_site_label
 _atom_site_symmetry_multiplicity
 _atom_site_fract_x
 _atom_site_fract_y
 _atom_site_fract_z
 _atom_site_occupancy
  H  H0  1  0.724208  0.665175  0.902236  1
  H  H1  1  0.804614  0.601185  0.154623  1
  H  H2  1  0.775871  0.334765  0.402084  1
  H  H3  1  0.695397  0.398772  0.654663  1
  H  H4  1  0.304641  0.898744  0.845203  1
  H  H5  1  0.224208  0.834790  0.097949  1
  H  H6  1  0.275936  0.165311  0.598943  1
  H  H7  1  0.196739  0.100791  0.347206  1
  H  H8  1  0.798651  0.930802  0.128923  1
  H  H9  1  0.686850  0.005844  0.119377  1
  H  H10  1  0.701364  0.069167  0.629288  1
  H  H11  1  0.813356  0.994192  0.618737  1
  H  H12  1  0.298641  0.569178  0.870877  1
  H  H13  1  0.186770  0.494207  0.880997  1
  H  H14  1  0.201307  0.430838  0.370818  1
  H  H15  1  0.313165  0.505839  0.380958  1
  H  H16  1  0.544642  0.806364  0.524295  1
  H  H17  1  0.433764  0.859180  0.258936  1
  H  H18  1  0.599778  0.895009  0.292089  1
  H  H19  1  0.955679  0.193478  0.024089  1
  H  H20  1  0.066601  0.140597  0.758843  1
  H  H21  1  0.900444  0.104983  0.791754  1
  H  H22  1  0.044604  0.693589  0.475583  1
  H  H23  1  0.099739  0.605003  0.707828  1
  H  H24  1  0.933678  0.640824  0.741105  1
  H  H25  1  0.455544  0.306452  0.975698  1
  H  H26  1  0.400328  0.395057  0.207908  1
  H  H27  1  0.566369  0.359232  0.241102  1
  N  N28  1  0.976932  0.839123  0.330893  1
  N  N29  1  0.523065  0.160924  0.831115  1
  N  N30  1  0.476987  0.660826  0.669108  1
  N  N31  1  0.023135  0.339100  0.169086  1
  O  O32  1  0.876584  0.816675  0.507491  1
  O  O33  1  0.623498  0.183225  0.007471  1
  O  O34  1  0.376654  0.683293  0.492644  1
  O  O35  1  0.123583  0.316648  0.992669  1
  O  O36  1  0.083560  0.787201  0.302270  1
  O  O37  1  0.416608  0.212889  0.802642  1
  O  O38  1  0.583527  0.712741  0.697634  1
  O  O39  1  0.916591  0.287159  0.197647  1
  O  O40  1  0.979487  0.911832  0.175905  1
  O  O41  1  0.520382  0.088162  0.676114  1
  O  O42  1  0.479563  0.588105  0.823926  1
  O  O43  1  0.020447  0.411829  0.323874  1
  O  O44  1  0.817432  0.644640  0.979725  1
  O  O45  1  0.682570  0.355354  0.479545  1
  O  O46  1  0.317503  0.855427  0.020637  1
  O  O47  1  0.183295  0.144463  0.520701  1
  O  O48  1  0.698405  0.942608  0.077007  1
  O  O49  1  0.801646  0.057426  0.576693  1
  O  O50  1  0.198390  0.557444  0.923098  1
  O  O51  1  0.301542  0.442600  0.423071  1
  O  O52  1  0.517136  0.866349  0.425664  1
  O  O53  1  0.982952  0.133546  0.925572  1
  O  O54  1  0.017153  0.633648  0.574176  1
  O  O55  1  0.483013  0.366428  0.074332  1
