# generated using pymatgen
data_BaSrCuCO4
_symmetry_space_group_name_H-M   'P 1'
_cell_length_a   6.31088258
_cell_length_b   6.38489331
_cell_length_c   6.83159282
_cell_angle_alpha   76.27711838
_cell_angle_beta   93.15301129
_cell_angle_gamma   98.45930402
_symmetry_Int_Tables_number   1
_chemical_formula_structural   BaSrCuCO4
_chemical_formula_sum   'Ba2 Sr2 Cu2 C2 O8'
_cell_volume   264.44924066
_cell_formula_units_Z   2
loop_
 _symmetry_equiv_pos_site_id
 _symmetry_equiv_pos_as_xyz
  1  'x, y, z'
loop_
 _atom_site_type_symbol
 _atom_site_label
 _atom_site_symmetry_multiplicity
 _atom_site_fract_x
 _atom_site_fract_y
 _atom_site_fract_z
 _atom_site_occupancy
  Ba  Ba0  1  0.983470  0.206145  0.673953  1
  Ba  Ba1  1  0.048699  0.924021  0.231879  1
  Sr  Sr2  1  0.529902  0.460629  0.178078  1
  Sr  Sr3  1  0.439115  0.651435  0.673543  1
  Cu  Cu4  1  0.092711  0.490083  0.118521  1
  Cu  Cu5  1  0.509521  0.092747  0.901827  1
  C  C6  1  0.389522  0.099156  0.465644  1
  C  C7  1  0.481172  0.140714  0.623323  1
  O  O8  1  0.165083  0.538640  0.390031  1
  O  O9  1  0.278848  0.750201  0.989167  1
  O  O10  1  0.849359  0.283008  0.192135  1
  O  O11  1  0.756518  0.275304  0.984801  1
  O  O12  1  0.771191  0.775237  0.873380  1
  O  O13  1  0.245532  0.340348  0.949665  1
  O  O14  1  0.841239  0.742295  0.679121  1
  O  O15  1  0.427119  0.857038  0.125931  1
