# generated using pymatgen
data_Ti8Se3
_symmetry_space_group_name_H-M   'P 1'
_cell_length_a   3.44064999
_cell_length_b   12.88632058
_cell_length_c   16.93800352
_cell_angle_alpha   81.67057983
_cell_angle_beta   84.17064303
_cell_angle_gamma   82.32810447
_symmetry_Int_Tables_number   1
_chemical_formula_structural   Ti8Se3
_chemical_formula_sum   'Ti32 Se12'
_cell_volume   733.81900664
_cell_formula_units_Z   4
loop_
 _symmetry_equiv_pos_site_id
 _symmetry_equiv_pos_as_xyz
  1  'x, y, z'
loop_
 _atom_site_type_symbol
 _atom_site_label
 _atom_site_symmetry_multiplicity
 _atom_site_fract_x
 _atom_site_fract_y
 _atom_site_fract_z
 _atom_site_occupancy
  Ti  Ti0  1  0.074475  0.418163  0.432888  1
  Ti  Ti1  1  0.701894  0.060470  0.535743  1
  Ti  Ti2  1  0.168479  0.003998  0.659045  1
  Ti  Ti3  1  0.790389  0.289202  0.130021  1
  Ti  Ti4  1  0.298106  0.939530  0.464257  1
  Ti  Ti5  1  0.738300  0.566986  0.956413  1
  Ti  Ti6  1  0.065298  0.923742  0.945662  1
  Ti  Ti7  1  0.510192  0.896408  0.083207  1
  Ti  Ti8  1  0.224455  0.155038  0.396051  1
  Ti  Ti9  1  0.904607  0.777487  0.413299  1
  Ti  Ti10  1  0.512024  0.401160  0.574792  1
  Ti  Ti11  1  0.831521  0.996002  0.340955  1
  Ti  Ti12  1  0.925525  0.581837  0.567112  1
  Ti  Ti13  1  0.261700  0.433014  0.043587  1
  Ti  Ti14  1  0.487976  0.598840  0.425208  1
  Ti  Ti15  1  0.349295  0.105164  0.196246  1
  Ti  Ti16  1  0.650705  0.894836  0.803754  1
  Ti  Ti17  1  0.333638  0.485920  0.846804  1
  Ti  Ti18  1  0.437965  0.836979  0.287092  1
  Ti  Ti19  1  0.209611  0.710798  0.869979  1
  Ti  Ti20  1  0.666362  0.514080  0.153196  1
  Ti  Ti21  1  0.489808  0.103592  0.916793  1
  Ti  Ti22  1  0.127716  0.677768  0.066800  1
  Ti  Ti23  1  0.562035  0.163021  0.712908  1
  Ti  Ti24  1  0.953981  0.374713  0.717326  1
  Ti  Ti25  1  0.872284  0.322232  0.933200  1
  Ti  Ti26  1  0.197469  0.359393  0.245670  1
  Ti  Ti27  1  0.802531  0.640607  0.754330  1
  Ti  Ti28  1  0.046019  0.625287  0.282674  1
  Ti  Ti29  1  0.095393  0.222513  0.586701  1
  Ti  Ti30  1  0.934702  0.076258  0.054338  1
  Ti  Ti31  1  0.775545  0.844962  0.603949  1
  Se  Se32  1  0.242018  0.796715  0.719249  1
  Se  Se33  1  0.607485  0.468959  0.316071  1
  Se  Se34  1  0.632540  0.265504  0.469415  1
  Se  Se35  1  0.369563  0.225267  0.035607  1
  Se  Se36  1  0.929799  0.949040  0.191363  1
  Se  Se37  1  0.630437  0.774733  0.964393  1
  Se  Se38  1  0.554633  0.714738  0.175996  1
  Se  Se39  1  0.392515  0.531041  0.683929  1
  Se  Se40  1  0.445367  0.285262  0.824004  1
  Se  Se41  1  0.070201  0.050960  0.808637  1
  Se  Se42  1  0.757982  0.203285  0.280751  1
  Se  Se43  1  0.367460  0.734496  0.530585  1
