# generated using pymatgen
data_Te(HO2)2
_symmetry_space_group_name_H-M   'P 1'
_cell_length_a   5.96187453
_cell_length_b   4.97577139
_cell_length_c   5.25799659
_cell_angle_alpha   90.00000000
_cell_angle_beta   112.25284006
_cell_angle_gamma   90.00000000
_symmetry_Int_Tables_number   1
_chemical_formula_structural   Te(HO2)2
_chemical_formula_sum   'Te2 H4 O8'
_cell_volume   144.36109679
_cell_formula_units_Z   2
loop_
 _symmetry_equiv_pos_site_id
 _symmetry_equiv_pos_as_xyz
  1  'x, y, z'
loop_
 _atom_site_type_symbol
 _atom_site_label
 _atom_site_symmetry_multiplicity
 _atom_site_fract_x
 _atom_site_fract_y
 _atom_site_fract_z
 _atom_site_occupancy
  Te  Te0  1  0.997989  0.500812  0.524310  1
  Te  Te1  1  0.997989  0.999188  0.024310  1
  H  H2  1  0.378690  0.325843  0.504889  1
  H  H3  1  0.620176  0.764027  0.752735  1
  H  H4  1  0.620176  0.735973  0.252735  1
  H  H5  1  0.378690  0.174157  0.004889  1
  O  O6  1  0.330126  0.370435  0.660772  1
  O  O7  1  0.668047  0.867496  0.926120  1
  O  O8  1  0.668047  0.632504  0.426120  1
  O  O9  1  0.330126  0.129565  0.160772  1
  O  O10  1  0.889166  0.189454  0.675312  1
  O  O11  1  0.103880  0.681944  0.878122  1
  O  O12  1  0.103880  0.818056  0.378122  1
  O  O13  1  0.889166  0.310546  0.175312  1
