# generated using pymatgen
data_KMg4Al9(SiO4)9
_symmetry_space_group_name_H-M   'P 1'
_cell_length_a   9.88681842
_cell_length_b   9.85865113
_cell_length_c   9.50690159
_cell_angle_alpha   89.98077092
_cell_angle_beta   90.01217210
_cell_angle_gamma   119.65695956
_symmetry_Int_Tables_number   1
_chemical_formula_structural   KMg4Al9(SiO4)9
_chemical_formula_sum   'K1 Mg4 Al9 Si9 O36'
_cell_volume   805.25704614
_cell_formula_units_Z   1
loop_
 _symmetry_equiv_pos_site_id
 _symmetry_equiv_pos_as_xyz
  1  'x, y, z'
loop_
 _atom_site_type_symbol
 _atom_site_label
 _atom_site_symmetry_multiplicity
 _atom_site_fract_x
 _atom_site_fract_y
 _atom_site_fract_z
 _atom_site_occupancy
  K  K0  1  0.990868  0.996372  0.835392  1
  Mg  Mg1  1  0.332020  0.666761  0.750916  1
  Mg  Mg2  1  0.331997  0.666554  0.249659  1
  Mg  Mg3  1  0.677669  0.334866  0.751557  1
  Mg  Mg4  1  0.676823  0.334630  0.249547  1
  Al  Al5  1  0.998083  0.497480  0.749959  1
  Al  Al6  1  0.503491  0.001230  0.748352  1
  Al  Al7  1  0.503139  0.501932  0.249519  1
  Al  Al8  1  0.503350  0.501770  0.750920  1
  Al  Al9  1  0.502184  0.000968  0.252214  1
  Al  Al10  1  0.893121  0.630450  0.000405  1
  Al  Al11  1  0.737132  0.116106  0.000578  1
  Al  Al12  1  0.997804  0.497203  0.250688  1
  Al  Al13  1  0.891505  0.257669  0.500144  1
  Si  Si14  1  0.104931  0.732524  0.500150  1
  Si  Si15  1  0.270206  0.896627  0.999327  1
  Si  Si16  1  0.113563  0.378564  0.999332  1
  Si  Si17  1  0.268415  0.373180  0.500465  1
  Si  Si18  1  0.621010  0.884159  0.500469  1
  Si  Si19  1  0.378257  0.268831  0.999889  1
  Si  Si20  1  0.621432  0.735662  0.998838  1
  Si  Si21  1  0.367116  0.102871  0.500350  1
  Si  Si22  1  0.734832  0.624329  0.500138  1
  O  O23  1  0.084991  0.789596  0.993551  1
  O  O24  1  0.219934  0.922396  0.501965  1
  O  O25  1  0.136872  0.656268  0.358206  1
  O  O26  1  0.136753  0.656182  0.641947  1
  O  O27  1  0.142778  0.487145  0.141573  1
  O  O28  1  0.144272  0.489350  0.858348  1
  O  O29  1  0.349768  0.866294  0.858322  1
  O  O30  1  0.348130  0.866122  0.141604  1
  O  O31  1  0.085830  0.302670  0.503440  1
  O  O32  1  0.233312  0.306054  0.996076  1
  O  O33  1  0.510088  0.854775  0.359561  1
  O  O34  1  0.509358  0.854180  0.640737  1
  O  O35  1  0.350429  0.483714  0.359585  1
  O  O36  1  0.351120  0.483857  0.640686  1
  O  O37  1  0.510601  0.651463  0.140123  1
  O  O38  1  0.507695  0.649811  0.859573  1
  O  O39  1  0.307053  0.229262  0.501944  1
  O  O40  1  0.690289  0.920274  0.993336  1
  O  O41  1  0.306417  0.080167  0.996116  1
  O  O42  1  0.690542  0.763627  0.501934  1
  O  O43  1  0.481694  0.344757  0.143225  1
  O  O44  1  0.482676  0.344942  0.856916  1
  O  O45  1  0.656459  0.517817  0.358293  1
  O  O46  1  0.656551  0.517791  0.641994  1
  O  O47  1  0.472884  0.130932  0.359734  1
  O  O48  1  0.472704  0.130538  0.641066  1
  O  O49  1  0.763667  0.701272  0.992966  1
  O  O50  1  0.924015  0.698888  0.501921  1
  O  O51  1  0.649762  0.142563  0.850716  1
  O  O52  1  0.648846  0.141889  0.149577  1
  O  O53  1  0.862619  0.515928  0.148466  1
  O  O54  1  0.862881  0.516609  0.851440  1
  O  O55  1  0.862420  0.347215  0.354674  1
  O  O56  1  0.862969  0.346866  0.646269  1
  O  O57  1  0.763586  0.057627  0.503651  1
  O  O58  1  0.941086  0.230417  0.993359  1
