# generated using pymatgen
data_TeHO3
_symmetry_space_group_name_H-M   'P 1'
_cell_length_a   11.70574397
_cell_length_b   8.42263795
_cell_length_c   4.97360086
_cell_angle_alpha   90.00000000
_cell_angle_beta   89.98560293
_cell_angle_gamma   90.00000000
_symmetry_Int_Tables_number   1
_chemical_formula_structural   TeHO3
_chemical_formula_sum   'Te8 H8 O24'
_cell_volume   490.36342468
_cell_formula_units_Z   8
loop_
 _symmetry_equiv_pos_site_id
 _symmetry_equiv_pos_as_xyz
  1  'x, y, z'
loop_
 _atom_site_type_symbol
 _atom_site_label
 _atom_site_symmetry_multiplicity
 _atom_site_fract_x
 _atom_site_fract_y
 _atom_site_fract_z
 _atom_site_occupancy
  Te  Te0  1  0.611477  0.450277  0.981199  1
  Te  Te1  1  0.388459  0.549289  0.481405  1
  Te  Te2  1  0.888459  0.950711  0.481405  1
  Te  Te3  1  0.111477  0.049723  0.981199  1
  Te  Te4  1  0.898147  0.327889  0.848607  1
  Te  Te5  1  0.102031  0.672489  0.348511  1
  Te  Te6  1  0.602031  0.827511  0.348511  1
  Te  Te7  1  0.398147  0.172111  0.848607  1
  H  H8  1  0.873842  0.511584  0.480026  1
  H  H9  1  0.126711  0.490234  0.978468  1
  H  H10  1  0.626711  0.009766  0.978468  1
  H  H11  1  0.373842  0.988416  0.480026  1
  H  H12  1  0.679781  0.319542  0.406151  1
  H  H13  1  0.321579  0.682874  0.905530  1
  H  H14  1  0.821579  0.817126  0.905530  1
  H  H15  1  0.179781  0.180458  0.406151  1
  O  O16  1  0.740432  0.452126  0.747455  1
  O  O17  1  0.259288  0.547489  0.248747  1
  O  O18  1  0.759288  0.952511  0.248747  1
  O  O19  1  0.240432  0.047874  0.747455  1
  O  O20  1  0.940762  0.445760  0.523662  1
  O  O21  1  0.059520  0.555201  0.023170  1
  O  O22  1  0.559520  0.944799  0.023170  1
  O  O23  1  0.440762  0.054240  0.523662  1
  O  O24  1  0.331279  0.354512  0.662139  1
  O  O25  1  0.668843  0.644803  0.162503  1
  O  O26  1  0.168843  0.855197  0.162503  1
  O  O27  1  0.831279  0.145488  0.662139  1
  O  O28  1  0.478931  0.412107  0.232702  1
  O  O29  1  0.520912  0.587668  0.732988  1
  O  O30  1  0.020912  0.912332  0.732988  1
  O  O31  1  0.978931  0.087893  0.232702  1
  O  O32  1  0.557647  0.263347  0.790493  1
  O  O33  1  0.442229  0.736419  0.290907  1
  O  O34  1  0.942229  0.763581  0.290907  1
  O  O35  1  0.057647  0.236653  0.790493  1
  O  O36  1  0.705404  0.320810  0.216325  1
  O  O37  1  0.294299  0.678293  0.717131  1
  O  O38  1  0.794299  0.821707  0.717131  1
  O  O39  1  0.205404  0.179190  0.216325  1
