# generated using pymatgen
data_BaZn2(PO4)2
_symmetry_space_group_name_H-M   'P 1'
_cell_length_a   8.70714066
_cell_length_b   9.28517935
_cell_length_c   9.90729203
_cell_angle_alpha   90.00000000
_cell_angle_beta   90.00000000
_cell_angle_gamma   91.49192772
_symmetry_Int_Tables_number   1
_chemical_formula_structural   BaZn2(PO4)2
_chemical_formula_sum   'Ba4 Zn8 P8 O32'
_cell_volume   800.70690235
_cell_formula_units_Z   4
loop_
 _symmetry_equiv_pos_site_id
 _symmetry_equiv_pos_as_xyz
  1  'x, y, z'
loop_
 _atom_site_type_symbol
 _atom_site_label
 _atom_site_symmetry_multiplicity
 _atom_site_fract_x
 _atom_site_fract_y
 _atom_site_fract_z
 _atom_site_occupancy
  O  O0  1  0.274437  0.195362  0.419833  1
  O  O1  1  0.725563  0.304638  0.919833  1
  O  O2  1  0.725563  0.804638  0.580167  1
  O  O3  1  0.274437  0.695362  0.080167  1
  O  O4  1  0.203532  0.489074  0.654786  1
  O  O5  1  0.796468  0.010926  0.154786  1
  O  O6  1  0.796468  0.510926  0.345214  1
  O  O7  1  0.203532  0.989074  0.845214  1
  O  O8  1  0.553882  0.615525  0.690996  1
  O  O9  1  0.446118  0.884475  0.190996  1
  O  O10  1  0.446118  0.384475  0.309004  1
  O  O11  1  0.553882  0.115525  0.809004  1
  O  O12  1  0.924288  0.544819  0.697136  1
  O  O13  1  0.075712  0.955181  0.197136  1
  O  O14  1  0.075712  0.455181  0.302864  1
  O  O15  1  0.924288  0.044819  0.802864  1
  O  O16  1  0.455385  0.368699  0.867197  1
  O  O17  1  0.544615  0.131301  0.367197  1
  O  O18  1  0.544615  0.631301  0.132803  1
  O  O19  1  0.455385  0.868699  0.632803  1
  O  O20  1  0.993088  0.799272  0.890146  1
  O  O21  1  0.006912  0.700728  0.390146  1
  O  O22  1  0.006912  0.200728  0.109854  1
  O  O23  1  0.993088  0.299272  0.609854  1
  O  O24  1  0.505582  0.806465  0.949152  1
  O  O25  1  0.494418  0.693535  0.449152  1
  O  O26  1  0.494418  0.193535  0.050848  1
  O  O27  1  0.505582  0.306465  0.550848  1
  O  O28  1  0.055868  0.873604  0.646934  1
  O  O29  1  0.944132  0.626396  0.146934  1
  O  O30  1  0.944132  0.126396  0.353066  1
  O  O31  1  0.055868  0.373604  0.853066  1
  P  P32  1  0.558383  0.741567  0.588836  1
  P  P33  1  0.441617  0.758433  0.088836  1
  P  P34  1  0.558383  0.241567  0.911164  1
  P  P35  1  0.441617  0.258433  0.411164  1
  P  P36  1  0.047846  0.426266  0.703684  1
  P  P37  1  0.952154  0.073734  0.203684  1
  P  P38  1  0.952154  0.573734  0.296316  1
  P  P39  1  0.047846  0.926266  0.796316  1
  Zn  Zn40  1  0.415945  0.440678  0.681458  1
  Zn  Zn41  1  0.584055  0.559322  0.318542  1
  Zn  Zn42  1  0.926083  0.708282  0.575112  1
  Zn  Zn43  1  0.584055  0.059321  0.181458  1
  Zn  Zn44  1  0.073917  0.291718  0.424888  1
  Zn  Zn45  1  0.926083  0.208282  0.924888  1
  Zn  Zn46  1  0.073917  0.791718  0.075112  1
  Zn  Zn47  1  0.415945  0.940678  0.818542  1
  Ba  Ba48  1  0.746721  0.604682  0.916857  1
  Ba  Ba49  1  0.253279  0.895318  0.416857  1
  Ba  Ba50  1  0.253279  0.395318  0.083143  1
  Ba  Ba51  1  0.746721  0.104682  0.583143  1
