# generated using pymatgen
data_Ca4YFe5O13
_symmetry_space_group_name_H-M   'P 1'
_cell_length_a   5.58054636
_cell_length_b   5.60235242
_cell_length_c   37.43706380
_cell_angle_alpha   90.00000000
_cell_angle_beta   90.00000000
_cell_angle_gamma   90.00000000
_symmetry_Int_Tables_number   1
_chemical_formula_structural   Ca4YFe5O13
_chemical_formula_sum   'Ca16 Y4 Fe20 O52'
_cell_volume   1170.43937853
_cell_formula_units_Z   4
loop_
 _symmetry_equiv_pos_site_id
 _symmetry_equiv_pos_as_xyz
  1  'x, y, z'
loop_
 _atom_site_type_symbol
 _atom_site_label
 _atom_site_symmetry_multiplicity
 _atom_site_fract_x
 _atom_site_fract_y
 _atom_site_fract_z
 _atom_site_occupancy
  Ca  Ca0  1  0.470211  0.019000  0.043235  1
  Ca  Ca1  1  0.539049  0.979188  0.845474  1
  Ca  Ca2  1  0.029789  0.519000  0.956765  1
  Ca  Ca3  1  0.960951  0.479188  0.154526  1
  Ca  Ca4  1  0.960951  0.479188  0.345474  1
  Ca  Ca5  1  0.039049  0.520812  0.654526  1
  Ca  Ca6  1  0.029789  0.519000  0.543235  1
  Ca  Ca7  1  0.970211  0.481000  0.043235  1
  Ca  Ca8  1  0.529789  0.981000  0.543235  1
  Ca  Ca9  1  0.539049  0.979188  0.654526  1
  Ca  Ca10  1  0.039049  0.520812  0.845474  1
  Ca  Ca11  1  0.970211  0.481000  0.456765  1
  Ca  Ca12  1  0.529789  0.981000  0.956765  1
  Ca  Ca13  1  0.460951  0.020812  0.345474  1
  Ca  Ca14  1  0.470211  0.019000  0.456765  1
  Ca  Ca15  1  0.460951  0.020812  0.154526  1
  Y  Y16  1  0.061923  0.476243  0.250000  1
  Y  Y17  1  0.438077  0.976243  0.750000  1
  Y  Y18  1  0.938077  0.523757  0.750000  1
  Y  Y19  1  0.561923  0.023757  0.250000  1
  Fe  Fe20  1  0.507110  0.516426  0.301496  1
  Fe  Fe21  1  0.992890  0.016426  0.698504  1
  Fe  Fe22  1  0.450007  0.560401  0.400393  1
  Fe  Fe23  1  0.507110  0.516426  0.198504  1
  Fe  Fe24  1  0.549993  0.439599  0.599607  1
  Fe  Fe25  1  0.992890  0.016426  0.801496  1
  Fe  Fe26  1  0.500000  0.500000  0.000000  1
  Fe  Fe27  1  0.007110  0.983574  0.198504  1
  Fe  Fe28  1  0.549993  0.439599  0.900393  1
  Fe  Fe29  1  0.492890  0.483574  0.801496  1
  Fe  Fe30  1  0.007110  0.983574  0.301496  1
  Fe  Fe31  1  0.000000  0.000000  0.000000  1
  Fe  Fe32  1  0.450007  0.560401  0.099607  1
  Fe  Fe33  1  0.049993  0.060401  0.900393  1
  Fe  Fe34  1  0.950007  0.939599  0.099607  1
  Fe  Fe35  1  0.000000  0.000000  0.500000  1
  Fe  Fe36  1  0.500000  0.500000  0.500000  1
  Fe  Fe37  1  0.950007  0.939599  0.400393  1
  Fe  Fe38  1  0.492890  0.483574  0.698504  1
  Fe  Fe39  1  0.049993  0.060401  0.599607  1
  O  O40  1  0.782654  0.291715  0.687346  1
  O  O41  1  0.717346  0.791715  0.312654  1
  O  O42  1  0.956998  0.913154  0.642776  1
  O  O43  1  0.282654  0.208285  0.812654  1
  O  O44  1  0.205952  0.712846  0.789772  1
  O  O45  1  0.294048  0.212846  0.289772  1
  O  O46  1  0.456998  0.586846  0.642776  1
  O  O47  1  0.038084  0.120703  0.750000  1
  O  O48  1  0.035700  0.081206  0.056122  1
  O  O49  1  0.794048  0.287154  0.210228  1
  O  O50  1  0.035700  0.081206  0.443878  1
  O  O51  1  0.728618  0.772043  0.492476  1
  O  O52  1  0.543002  0.413154  0.142776  1
  O  O53  1  0.543002  0.413154  0.357224  1
  O  O54  1  0.961916  0.879297  0.250000  1
  O  O55  1  0.456998  0.586846  0.857224  1
  O  O56  1  0.461916  0.620703  0.250000  1
  O  O57  1  0.782654  0.291715  0.812654  1
  O  O58  1  0.717346  0.791715  0.187346  1
  O  O59  1  0.464300  0.581206  0.556122  1
  O  O60  1  0.956998  0.913154  0.857224  1
  O  O61  1  0.294048  0.212846  0.210228  1
  O  O62  1  0.228618  0.727957  0.492476  1
  O  O63  1  0.794048  0.287154  0.289772  1
  O  O64  1  0.603867  0.873403  0.400840  1
  O  O65  1  0.771382  0.272043  0.507524  1
  O  O66  1  0.535700  0.418794  0.056122  1
  O  O67  1  0.603867  0.873403  0.099160  1
  O  O68  1  0.103867  0.626597  0.099160  1
  O  O69  1  0.705952  0.787154  0.710228  1
  O  O70  1  0.964300  0.918794  0.943878  1
  O  O71  1  0.538084  0.379297  0.750000  1
  O  O72  1  0.771382  0.272043  0.992476  1
  O  O73  1  0.464300  0.581206  0.943878  1
  O  O74  1  0.728618  0.772043  0.007524  1
  O  O75  1  0.896133  0.373403  0.900840  1
  O  O76  1  0.217346  0.708285  0.312654  1
  O  O77  1  0.228618  0.727957  0.007524  1
  O  O78  1  0.896133  0.373403  0.599160  1
  O  O79  1  0.103867  0.626597  0.400840  1
  O  O80  1  0.282654  0.208285  0.687346  1
  O  O81  1  0.043002  0.086846  0.142776  1
  O  O82  1  0.705952  0.787154  0.789772  1
  O  O83  1  0.043002  0.086846  0.357224  1
  O  O84  1  0.535700  0.418794  0.443878  1
  O  O85  1  0.964300  0.918794  0.556122  1
  O  O86  1  0.271382  0.227957  0.992476  1
  O  O87  1  0.396133  0.126597  0.900840  1
  O  O88  1  0.396133  0.126597  0.599160  1
  O  O89  1  0.205952  0.712846  0.710228  1
  O  O90  1  0.217346  0.708285  0.187346  1
  O  O91  1  0.271382  0.227957  0.507524  1
