# generated using pymatgen
data_Ba16Tb8Nb5(SnO16)3
_symmetry_space_group_name_H-M   'P 1'
_cell_length_a   6.08105182
_cell_length_b   6.08102641
_cell_length_c   48.75567314
_cell_angle_alpha   119.93230196
_cell_angle_beta   119.93231503
_cell_angle_gamma   89.99643833
_symmetry_Int_Tables_number   1
_chemical_formula_structural   Ba16Tb8Nb5(SnO16)3
_chemical_formula_sum   'Ba16 Tb8 Nb5 Sn3 O48'
_cell_volume   1277.51328130
_cell_formula_units_Z   1
loop_
 _symmetry_equiv_pos_site_id
 _symmetry_equiv_pos_as_xyz
  1  'x, y, z'
loop_
 _atom_site_type_symbol
 _atom_site_label
 _atom_site_symmetry_multiplicity
 _atom_site_fract_x
 _atom_site_fract_y
 _atom_site_fract_z
 _atom_site_occupancy
  Tb  Tb0  1  0.996129  0.996124  0.874030  1
  Tb  Tb1  1  -0.000202  -0.000203  0.749951  1
  Tb  Tb2  1  0.998083  0.998086  0.624522  1
  Tb  Tb3  1  0.000311  0.000311  0.500076  1
  Tb  Tb4  1  0.001863  0.001863  0.375467  1
  Tb  Tb5  1  0.003278  0.003278  0.250823  1
  Tb  Tb6  1  0.496210  0.496209  0.124053  1
  Tb  Tb7  1  0.501591  0.501594  0.000400  1
  Ba  Ba8  1  0.250570  0.750562  0.937640  1
  Ba  Ba9  1  0.249804  0.749796  0.812449  1
  Ba  Ba10  1  0.750569  0.250576  0.937641  1
  Ba  Ba11  1  0.248288  0.748287  0.687075  1
  Ba  Ba12  1  0.749795  0.249800  0.812449  1
  Ba  Ba13  1  0.245574  0.745560  0.561398  1
  Ba  Ba14  1  0.748283  0.248284  0.687075  1
  Ba  Ba15  1  0.253914  0.753918  0.438473  1
  Ba  Ba16  1  0.745568  0.245584  0.561400  1
  Ba  Ba17  1  0.250409  0.750407  0.312606  1
  Ba  Ba18  1  0.753930  0.253924  0.438476  1
  Ba  Ba19  1  0.252805  0.752808  0.188198  1
  Ba  Ba20  1  0.750405  0.250409  0.312606  1
  Ba  Ba21  1  0.248313  0.748316  0.062085  1
  Ba  Ba22  1  0.752808  0.252807  0.188198  1
  Ba  Ba23  1  0.748325  0.248317  0.062085  1
  Nb  Nb24  1  0.501411  0.501410  0.875349  1
  Nb  Nb25  1  0.498039  0.498037  0.749510  1
  Nb  Nb26  1  0.499348  0.499348  0.624839  1
  Nb  Nb27  1  0.501744  0.501745  0.375438  1
  Nb  Nb28  1  0.002611  0.002606  0.125653  1
  Sn  Sn29  1  0.500351  0.500351  0.500082  1
  Sn  Sn30  1  0.499735  0.499745  0.249934  1
  Sn  Sn31  1  0.998137  0.998135  0.999524  1
  O  O32  1  0.247496  0.247504  0.936880  1
  O  O33  1  0.253738  0.723412  0.874305  1
  O  O34  1  0.271037  0.253775  0.874312  1
  O  O35  1  0.264689  0.264693  0.816171  1
  O  O36  1  0.741590  0.741580  0.935392  1
  O  O37  1  0.723399  0.740688  0.874300  1
  O  O38  1  0.255735  0.727436  0.750083  1
  O  O39  1  0.740711  0.271020  0.874306  1
  O  O40  1  0.273239  0.255751  0.750085  1
  O  O41  1  0.263369  0.263373  0.690841  1
  O  O42  1  0.732600  0.732595  0.808152  1
  O  O43  1  0.727409  0.744885  0.750076  1
  O  O44  1  0.258819  0.729527  0.625727  1
  O  O45  1  0.744913  0.273207  0.750079  1
  O  O46  1  0.276301  0.258832  0.625728  1
  O  O47  1  0.266121  0.266132  0.566530  1
  O  O48  1  0.738174  0.738171  0.684545  1
  O  O49  1  0.729490  0.746929  0.625716  1
  O  O50  1  0.250593  0.733088  0.500117  1
  O  O51  1  0.746972  0.276288  0.625725  1
  O  O52  1  0.267798  0.250575  0.500106  1
  O  O53  1  0.257885  0.257890  0.439477  1
  O  O54  1  0.743203  0.743197  0.560795  1
  O  O55  1  0.733099  0.750334  0.500114  1
  O  O56  1  0.255799  0.726627  0.374952  1
  O  O57  1  0.750315  0.267819  0.500111  1
  O  O58  1  0.273027  0.255863  0.374963  1
  O  O59  1  0.268049  0.268055  0.317007  1
  O  O60  1  0.736215  0.736207  0.434055  1
  O  O61  1  0.726610  0.743783  0.374949  1
  O  O62  1  0.251572  0.730582  0.249846  1
  O  O63  1  0.743810  0.272977  0.374951  1
  O  O64  1  0.268146  0.251572  0.249841  1
  O  O65  1  0.242250  0.242251  0.185565  1
  O  O66  1  0.742212  0.742202  0.310546  1
  O  O67  1  0.730590  0.747158  0.249844  1
  O  O68  1  0.228110  0.757840  0.125380  1
  O  O69  1  0.747117  0.268107  0.249833  1
  O  O70  1  0.245169  0.228106  0.125377  1
  O  O71  1  0.238373  0.238382  0.059589  1
  O  O72  1  0.750384  0.750383  0.187600  1
  O  O73  1  0.757879  0.774956  0.125389  1
  O  O74  1  0.230033  0.749291  0.999503  1
  O  O75  1  0.774948  0.245206  0.125384  1
  O  O76  1  0.246723  0.230044  0.999495  1
  O  O77  1  0.771059  0.771060  0.067763  1
  O  O78  1  0.749287  0.765960  0.999495  1
  O  O79  1  0.765943  0.246691  0.999494  1
