# generated using pymatgen
data_Na3Ca2Ta3Ti2O15
_symmetry_space_group_name_H-M   'P 1'
_cell_length_a   5.48879760
_cell_length_b   5.56912014
_cell_length_c   38.93469391
_cell_angle_alpha   89.95954681
_cell_angle_beta   90.05547670
_cell_angle_gamma   90.08547660
_symmetry_Int_Tables_number   1
_chemical_formula_structural   Na3Ca2Ta3Ti2O15
_chemical_formula_sum   'Na12 Ca8 Ta12 Ti8 O60'
_cell_volume   1190.14471700
_cell_formula_units_Z   4
loop_
 _symmetry_equiv_pos_site_id
 _symmetry_equiv_pos_as_xyz
  1  'x, y, z'
loop_
 _atom_site_type_symbol
 _atom_site_label
 _atom_site_symmetry_multiplicity
 _atom_site_fract_x
 _atom_site_fract_y
 _atom_site_fract_z
 _atom_site_occupancy
  Na  Na0  1  0.009351  0.983796  0.150511  1
  Na  Na1  1  0.009856  0.979638  0.350093  1
  Na  Na2  1  0.005977  0.974594  0.549701  1
  Na  Na3  1  0.012027  0.979854  0.751217  1
  Na  Na4  1  0.012439  0.962953  0.952044  1
  Na  Na5  1  0.494623  0.487848  0.350214  1
  Na  Na6  1  0.499268  0.490644  0.151235  1
  Na  Na7  1  0.480019  0.477916  0.551069  1
  Na  Na8  1  0.491726  0.481670  0.751622  1
  Na  Na9  1  0.496780  0.468300  0.951192  1
  Na  Na10  1  0.500161  0.524363  0.646472  1
  Na  Na11  1  0.509803  0.524677  0.847272  1
  Ca  Ca12  1  0.517478  0.539280  0.050859  1
  Ca  Ca13  1  0.509052  0.538414  0.250463  1
  Ca  Ca14  1  0.510497  0.538528  0.449760  1
  Ca  Ca15  1  0.994628  0.052907  0.050749  1
  Ca  Ca16  1  0.988628  0.053750  0.250267  1
  Ca  Ca17  1  0.990059  0.053580  0.449594  1
  Ca  Ca18  1  0.981878  0.045872  0.646365  1
  Ca  Ca19  1  0.990830  0.043519  0.847438  1
  Ta  Ta20  1  0.498837  0.007686  0.101009  1
  Ta  Ta21  1  0.495236  0.006938  0.300699  1
  Ta  Ta22  1  0.496604  0.008196  0.500589  1
  Ta  Ta23  1  0.497269  0.995717  0.900041  1
  Ta  Ta24  1  0.495607  0.002014  0.700128  1
  Ta  Ta25  1  0.503013  0.005683  -0.000685  1
  Ta  Ta26  1  0.495834  0.009378  0.199529  1
  Ta  Ta27  1  0.496077  0.008617  0.399119  1
  Ta  Ta28  1  0.486288  0.997906  0.599194  1
  Ta  Ta29  1  0.499949  0.005054  0.799299  1
  Ta  Ta30  1  0.000105  0.505807  0.698919  1
  Ta  Ta31  1  0.000052  0.499462  0.900839  1
  Ti  Ti32  1  0.014143  0.511055  0.001568  1
  Ti  Ti33  1  0.006332  0.514272  0.103776  1
  Ti  Ti34  1  0.005998  0.515034  0.399149  1
  Ti  Ti35  1  0.004855  0.515104  0.500007  1
  Ti  Ti36  1  0.002997  0.512553  0.798423  1
  Ti  Ti37  1  0.007533  0.515788  0.201019  1
  Ti  Ti38  1  0.001689  0.513408  0.302315  1
  Ti  Ti39  1  0.983494  0.504592  0.596398  1
  O  O40  1  0.083955  0.480087  0.049864  1
  O  O41  1  0.079096  0.479219  0.249630  1
  O  O42  1  0.079809  0.480194  0.449055  1
  O  O43  1  0.069966  0.479734  0.649731  1
  O  O44  1  0.072347  0.479960  0.850876  1
  O  O45  1  0.212987  0.211202  0.393415  1
  O  O46  1  0.214741  0.220331  0.592868  1
  O  O47  1  0.220120  0.218375  0.794291  1
  O  O48  1  0.210015  0.208585  0.194458  1
  O  O49  1  0.213689  0.209526  0.106433  1
  O  O50  1  0.211371  0.209873  0.306165  1
  O  O51  1  0.210428  0.208633  0.505085  1
  O  O52  1  0.217835  0.216655  0.706834  1
  O  O53  1  0.213049  0.201754  0.995109  1
  O  O54  1  0.216018  0.207353  0.907340  1
  O  O55  1  0.290120  0.709143  0.107365  1
  O  O56  1  0.285873  0.710374  0.194297  1
  O  O57  1  0.285291  0.709014  0.306436  1
  O  O58  1  0.283930  0.711246  0.393050  1
  O  O59  1  0.268409  0.721943  0.591907  1
  O  O60  1  0.286309  0.707166  0.505538  1
  O  O61  1  0.288279  0.712020  0.908805  1
  O  O62  1  0.293997  0.705360  0.994216  1
  O  O63  1  0.283399  0.718218  0.707457  1
  O  O64  1  0.273610  0.721805  0.792819  1
  O  O65  1  0.422216  0.972401  0.050808  1
  O  O66  1  0.415701  0.975989  0.250320  1
  O  O67  1  0.414803  0.986839  0.649723  1
  O  O68  1  0.415627  0.974535  0.449332  1
  O  O69  1  0.420460  0.979626  0.850625  1
  O  O70  1  0.578665  0.007613  0.350028  1
  O  O71  1  0.577870  0.010995  0.150609  1
  O  O72  1  0.573072  0.009986  0.549017  1
  O  O73  1  0.574621  0.011288  0.749289  1
  O  O74  1  0.578403  0.012801  0.950382  1
  O  O75  1  0.716036  0.275568  0.010925  1
  O  O76  1  0.720038  0.276339  0.091323  1
  O  O77  1  0.716680  0.274782  0.290507  1
  O  O78  1  0.713988  0.276530  0.210250  1
  O  O79  1  0.724282  0.268247  0.606869  1
  O  O80  1  0.717167  0.275032  0.409200  1
  O  O81  1  0.716106  0.274332  0.489044  1
  O  O82  1  0.722613  0.273768  0.690815  1
  O  O83  1  0.729033  0.265583  0.808446  1
  O  O84  1  0.722278  0.271234  0.891889  1
  O  O85  1  0.785193  0.777124  0.091515  1
  O  O86  1  0.788640  0.778365  0.010031  1
  O  O87  1  0.778958  0.776647  0.210047  1
  O  O88  1  0.779535  0.774928  0.290510  1
  O  O89  1  0.781259  0.776978  0.489484  1
  O  O90  1  0.784989  0.786200  0.690351  1
  O  O91  1  0.779265  0.774817  0.409162  1
  O  O92  1  0.774378  0.775412  0.607521  1
  O  O93  1  0.788717  0.783302  0.891843  1
  O  O94  1  0.779315  0.774006  0.808241  1
  O  O95  1  0.934101  0.513561  0.150481  1
  O  O96  1  0.930529  0.513224  0.349730  1
  O  O97  1  0.923698  0.512173  0.548289  1
  O  O98  1  0.927614  0.509267  0.749865  1
  O  O99  1  0.932512  0.506371  0.951013  1
