# generated using pymatgen
data_La8Al4I7
_symmetry_space_group_name_H-M   'P 1'
_cell_length_a   4.33090927
_cell_length_b   18.13862759
_cell_length_c   25.54661690
_cell_angle_alpha   77.18568167
_cell_angle_beta   85.16662638
_cell_angle_gamma   83.14162818
_symmetry_Int_Tables_number   1
_chemical_formula_structural   La8Al4I7
_chemical_formula_sum   'La24 Al12 I21'
_cell_volume   1939.41106340
_cell_formula_units_Z   3
loop_
 _symmetry_equiv_pos_site_id
 _symmetry_equiv_pos_as_xyz
  1  'x, y, z'
loop_
 _atom_site_type_symbol
 _atom_site_label
 _atom_site_symmetry_multiplicity
 _atom_site_fract_x
 _atom_site_fract_y
 _atom_site_fract_z
 _atom_site_occupancy
  La  La0  1  0.402340  0.899326  0.297718  1
  La  La1  1  0.598075  0.100124  0.702100  1
  La  La2  1  0.355030  0.302859  0.978277  1
  La  La3  1  0.014055  0.738277  0.236982  1
  La  La4  1  0.971920  0.128639  0.918728  1
  La  La5  1  0.387191  0.588859  0.641019  1
  La  La6  1  0.810743  0.780097  0.601972  1
  La  La7  1  0.393844  0.742831  0.473941  1
  La  La8  1  0.190790  0.219990  0.397421  1
  La  La9  1  0.640956  0.697119  0.021381  1
  La  La10  1  0.206857  0.514042  0.065365  1
  La  La11  1  0.997763  0.427946  0.576864  1
  La  La12  1  0.585626  0.953368  0.876704  1
  La  La13  1  0.004189  0.570767  0.423617  1
  La  La14  1  0.615299  0.411091  0.358961  1
  La  La15  1  0.607426  0.255781  0.526001  1
  La  La16  1  0.788360  0.485504  0.934324  1
  La  La17  1  0.828708  0.095856  0.245448  1
  La  La18  1  0.170648  0.904489  0.753434  1
  La  La19  1  0.372311  0.438682  0.812355  1
  La  La20  1  0.626560  0.561513  0.187449  1
  La  La21  1  0.983192  0.262116  0.762503  1
  La  La22  1  0.415358  0.047328  0.121734  1
  La  La23  1  0.022856  0.871420  0.080648  1
  Al  Al24  1  0.436416  0.256659  0.860655  1
  Al  Al25  1  0.104526  0.672479  0.117574  1
  Al  Al26  1  0.088680  0.366860  0.454173  1
  Al  Al27  1  0.519528  0.133603  0.821973  1
  Al  Al28  1  0.929973  0.941525  0.199475  1
  Al  Al29  1  0.477947  0.867251  0.177481  1
  Al  Al30  1  0.558055  0.743899  0.138849  1
  Al  Al31  1  0.461397  0.557624  0.523352  1
  Al  Al32  1  0.540324  0.440993  0.477180  1
  Al  Al33  1  0.890371  0.327670  0.882173  1
  Al  Al34  1  0.068774  0.059567  0.799760  1
  Al  Al35  1  0.913119  0.632231  0.545970  1
  I  I36  1  0.082628  0.546802  0.294698  1
  I  I37  1  0.108334  0.832116  0.958446  1
  I  I38  1  0.804811  0.578730  0.810428  1
  I  I39  1  0.921011  0.452842  0.705425  1
  I  I40  1  0.711219  0.109633  0.468866  1
  I  I41  1  0.684811  0.799524  0.828596  1
  I  I42  1  0.777984  0.376515  0.056996  1
  I  I43  1  0.301076  0.057595  0.342651  1
  I  I44  1  0.283065  0.735445  0.700651  1
  I  I45  1  0.133013  0.132879  0.599372  1
  I  I46  1  0.700989  0.942619  0.656084  1
  I  I47  1  0.867979  0.866741  0.400670  1
  I  I48  1  0.311737  0.200915  0.170473  1
  I  I49  1  0.292019  0.889885  0.529934  1
  I  I50  1  0.476923  0.705668  0.347885  1
  I  I51  1  0.523688  0.293251  0.652198  1
  I  I52  1  0.892681  0.168166  0.040371  1
  I  I53  1  0.215791  0.622889  0.942588  1
  I  I54  1  0.716431  0.264344  0.298972  1
  I  I55  1  0.198094  0.421148  0.189330  1
  I  I56  1  0.496888  0.999452  0.999487  1
