# generated using pymatgen
data_ZnH6C2(SO3)2
_symmetry_space_group_name_H-M   'P 1'
_cell_length_a   6.95888486
_cell_length_b   6.95888486
_cell_length_c   9.12393474
_cell_angle_alpha   74.58561774
_cell_angle_beta   105.41438226
_cell_angle_gamma   74.49529872
_symmetry_Int_Tables_number   1
_chemical_formula_structural   ZnH6C2(SO3)2
_chemical_formula_sum   'Zn2 H12 C4 S4 O12'
_cell_volume   382.50704098
_cell_formula_units_Z   2
loop_
 _symmetry_equiv_pos_site_id
 _symmetry_equiv_pos_as_xyz
  1  'x, y, z'
loop_
 _atom_site_type_symbol
 _atom_site_label
 _atom_site_symmetry_multiplicity
 _atom_site_fract_x
 _atom_site_fract_y
 _atom_site_fract_z
 _atom_site_occupancy
  Zn  Zn0  1  0.857358  0.853065  0.061406  1
  Zn  Zn1  1  0.146935  0.142642  0.561406  1
  H  H2  1  0.837957  0.091140  0.332415  1
  H  H3  1  0.908860  0.162043  0.832415  1
  H  H4  1  0.661341  0.928461  0.741326  1
  H  H5  1  0.071539  0.338659  0.241326  1
  H  H6  1  0.528050  0.395684  0.209979  1
  H  H7  1  0.604316  0.471950  0.709979  1
  H  H8  1  0.533228  0.376299  0.410936  1
  H  H9  1  0.623701  0.466772  0.910936  1
  H  H10  1  0.998303  0.530967  0.823838  1
  H  H11  1  0.469033  0.001697  0.323838  1
  H  H12  1  0.906580  0.769185  0.643939  1
  H  H13  1  0.230815  0.093420  0.143939  1
  C  C14  1  0.632263  0.357198  0.336350  1
  C  C15  1  0.642802  0.367737  0.836350  1
  C  C16  1  0.942218  0.706410  0.775918  1
  C  C17  1  0.293590  0.057782  0.275918  1
  S  S18  1  0.756319  0.565961  0.330203  1
  S  S19  1  0.434039  0.243681  0.830203  1
  S  S20  1  0.171773  0.778467  0.873874  1
  S  S21  1  0.221533  0.828227  0.373874  1
  O  O22  1  0.832354  0.566353  0.183475  1
  O  O23  1  0.433647  0.167646  0.683475  1
  O  O24  1  0.951908  0.450279  0.489862  1
  O  O25  1  0.549721  0.048092  0.989862  1
  O  O26  1  0.791384  0.152259  0.410717  1
  O  O27  1  0.847741  0.208616  0.910717  1
  O  O28  1  0.150722  0.752275  0.040947  1
  O  O29  1  0.247725  0.849278  0.540947  1
  O  O30  1  0.085230  0.023000  0.773142  1
  O  O31  1  0.977000  0.914770  0.273142  1
  O  O32  1  0.768830  0.788414  0.822115  1
  O  O33  1  0.211586  0.231170  0.322115  1
