# generated using pymatgen
data_Sb8Pb5S17
_symmetry_space_group_name_H-M   'P 1'
_cell_length_a   9.10064484
_cell_length_b   9.10064511
_cell_length_c   20.48912006
_cell_angle_alpha   78.00217359
_cell_angle_beta   78.00217314
_cell_angle_gamma   82.23997057
_symmetry_Int_Tables_number   1
_chemical_formula_structural   Sb8Pb5S17
_chemical_formula_sum   'Sb16 Pb10 S34'
_cell_volume   1616.12391036
_cell_formula_units_Z   2
loop_
 _symmetry_equiv_pos_site_id
 _symmetry_equiv_pos_as_xyz
  1  'x, y, z'
loop_
 _atom_site_type_symbol
 _atom_site_label
 _atom_site_symmetry_multiplicity
 _atom_site_fract_x
 _atom_site_fract_y
 _atom_site_fract_z
 _atom_site_occupancy
  Sb  Sb0  1  0.816752  0.207233  0.970125  1
  Sb  Sb1  1  0.917114  0.538204  0.586678  1
  Sb  Sb2  1  0.792767  0.183248  0.529875  1
  Sb  Sb3  1  0.077080  0.828294  0.667929  1
  Sb  Sb4  1  0.487017  0.522443  0.599772  1
  Sb  Sb5  1  0.477557  0.512983  0.900228  1
  Sb  Sb6  1  0.183248  0.792767  0.029875  1
  Sb  Sb7  1  0.082886  0.461796  0.413322  1
  Sb  Sb8  1  0.522443  0.487017  0.099772  1
  Sb  Sb9  1  0.512983  0.477557  0.400228  1
  Sb  Sb10  1  0.461796  0.082886  0.913322  1
  Sb  Sb11  1  0.538204  0.917114  0.086678  1
  Sb  Sb12  1  0.922920  0.171706  0.332071  1
  Sb  Sb13  1  0.207233  0.816752  0.470125  1
  Sb  Sb14  1  0.171706  0.922920  0.832071  1
  Sb  Sb15  1  0.828294  0.077080  0.167929  1
  Pb  Pb16  1  0.176316  0.823684  0.250000  1
  Pb  Pb17  1  0.848046  0.674399  0.951099  1
  Pb  Pb18  1  0.823684  0.176316  0.750000  1
  Pb  Pb19  1  0.674399  0.848046  0.451099  1
  Pb  Pb20  1  0.394192  0.138567  0.324002  1
  Pb  Pb21  1  0.861433  0.605808  0.175998  1
  Pb  Pb22  1  0.151954  0.325601  0.048901  1
  Pb  Pb23  1  0.138567  0.394192  0.824002  1
  Pb  Pb24  1  0.325601  0.151954  0.548901  1
  Pb  Pb25  1  0.605808  0.861433  0.675998  1
  S  S26  1  0.896939  0.842958  0.059396  1
  S  S27  1  0.687160  0.534526  0.675929  1
  S  S28  1  0.861319  0.848401  0.254303  1
  S  S29  1  0.029680  0.747232  0.397494  1
  S  S30  1  0.440470  0.816801  0.563941  1
  S  S31  1  0.448017  0.914389  0.830736  1
  S  S32  1  0.465474  0.312840  0.824071  1
  S  S33  1  0.183199  0.559530  0.936059  1
  S  S34  1  0.842958  0.896939  0.559396  1
  S  S35  1  0.848401  0.861319  0.754303  1
  S  S36  1  0.151599  0.138681  0.245697  1
  S  S37  1  0.551983  0.085611  0.169264  1
  S  S38  1  0.571209  0.193269  0.622935  1
  S  S39  1  0.308660  0.478589  0.501823  1
  S  S40  1  0.691340  0.521411  0.498177  1
  S  S41  1  0.085611  0.551983  0.669264  1
  S  S42  1  0.806731  0.428791  0.877065  1
  S  S43  1  0.521411  0.691340  0.998177  1
  S  S44  1  0.257749  0.742251  0.750000  1
  S  S45  1  0.478589  0.308660  0.001823  1
  S  S46  1  0.534526  0.687160  0.175929  1
  S  S47  1  0.559530  0.183199  0.436059  1
  S  S48  1  0.103061  0.157042  0.940604  1
  S  S49  1  0.157042  0.103061  0.440604  1
  S  S50  1  0.193269  0.571209  0.122935  1
  S  S51  1  0.312840  0.465474  0.324071  1
  S  S52  1  0.747232  0.029680  0.897494  1
  S  S53  1  0.970320  0.252768  0.602506  1
  S  S54  1  0.252768  0.970320  0.102506  1
  S  S55  1  0.816801  0.440470  0.063941  1
  S  S56  1  0.428791  0.806731  0.377065  1
  S  S57  1  0.742251  0.257749  0.250000  1
  S  S58  1  0.138681  0.151599  0.745697  1
  S  S59  1  0.914389  0.448017  0.330736  1
