# generated using pymatgen
data_Ba3(H6Ir)2
_symmetry_space_group_name_H-M   'P 1'
_cell_length_a   5.53452970
_cell_length_b   5.53469823
_cell_length_c   8.93821830
_cell_angle_alpha   90.00013851
_cell_angle_beta   89.99860682
_cell_angle_gamma   120.00107646
_symmetry_Int_Tables_number   1
_chemical_formula_structural   Ba3(H6Ir)2
_chemical_formula_sum   'Ba3 H12 Ir2'
_cell_volume   237.11091542
_cell_formula_units_Z   1
loop_
 _symmetry_equiv_pos_site_id
 _symmetry_equiv_pos_as_xyz
  1  'x, y, z'
loop_
 _atom_site_type_symbol
 _atom_site_label
 _atom_site_symmetry_multiplicity
 _atom_site_fract_x
 _atom_site_fract_y
 _atom_site_fract_z
 _atom_site_occupancy
  Ba  Ba0  1  0.000000  0.000000  0.000000  1
  Ba  Ba1  1  0.666666  0.333333  0.357397  1
  Ba  Ba2  1  0.333334  0.666667  0.642603  1
  H  H3  1  0.187389  0.812599  0.348584  1
  H  H4  1  0.625221  0.812611  0.348583  1
  H  H5  1  0.187389  0.374791  0.348583  1
  H  H6  1  0.812611  0.187401  0.651416  1
  H  H7  1  0.374779  0.187389  0.651417  1
  H  H8  1  0.812611  0.625209  0.651417  1
  H  H9  1  0.527413  0.054838  0.872335  1
  H  H10  1  0.527413  0.472575  0.872335  1
  H  H11  1  0.945162  0.472581  0.872335  1
  H  H12  1  0.472587  0.945162  0.127665  1
  H  H13  1  0.472587  0.527425  0.127665  1
  H  H14  1  0.054838  0.527419  0.127665  1
  Ir  Ir15  1  0.666663  0.333334  0.758991  1
  Ir  Ir16  1  0.333337  0.666666  0.241009  1
