# generated using pymatgen
data_Ba5Ho8Zn4O21
_symmetry_space_group_name_H-M   'P 1'
_cell_length_a   5.73978941
_cell_length_b   10.20909242
_cell_length_c   10.20909243
_cell_angle_alpha   85.46754674
_cell_angle_beta   73.67343800
_cell_angle_gamma   73.67343797
_symmetry_Int_Tables_number   1
_chemical_formula_structural   Ba5Ho8Zn4O21
_chemical_formula_sum   'Ba5 Ho8 Zn4 O21'
_cell_volume   550.95821021
_cell_formula_units_Z   1
loop_
 _symmetry_equiv_pos_site_id
 _symmetry_equiv_pos_as_xyz
  1  'x, y, z'
loop_
 _atom_site_type_symbol
 _atom_site_label
 _atom_site_symmetry_multiplicity
 _atom_site_fract_x
 _atom_site_fract_y
 _atom_site_fract_z
 _atom_site_occupancy
  O  O0  1  0.100004  0.891492  0.405515  1
  O  O1  1  0.505519  0.594485  0.891492  1
  O  O2  1  0.991495  0.405515  0.108508  1
  O  O3  1  0.397011  0.108508  0.594485  1
  O  O4  1  0.899996  0.108508  0.594485  1
  O  O5  1  0.494481  0.405515  0.108508  1
  O  O6  1  0.008505  0.594485  0.891492  1
  O  O7  1  0.602989  0.891492  0.405515  1
  O  O8  1  0.927139  0.870506  0.774252  1
  O  O9  1  0.701391  0.225748  0.870506  1
  O  O10  1  0.797645  0.774252  0.129494  1
  O  O11  1  0.571897  0.129494  0.225748  1
  O  O12  1  0.072861  0.129494  0.225748  1
  O  O13  1  0.298609  0.774252  0.129494  1
  O  O14  1  0.202355  0.225748  0.870506  1
  O  O15  1  0.428103  0.870506  0.774252  1
  O  O16  1  0.371513  0.666564  0.590410  1
  O  O17  1  0.500000  0.000000  0.000000  1
  O  O18  1  0.628487  0.333436  0.409590  1
  O  O19  1  0.038077  0.590410  0.333436  1
  O  O20  1  0.961923  0.409590  0.666564  1
  Zn  Zn21  1  0.959484  0.790182  0.290850  1
  Zn  Zn22  1  0.250334  0.709150  0.790182  1
  Zn  Zn23  1  0.749666  0.290850  0.209818  1
  Zn  Zn24  1  0.040516  0.209818  0.709150  1
  Ba  Ba25  1  0.464642  0.395804  0.674912  1
  Ba  Ba26  1  0.139554  0.325088  0.395804  1
  Ba  Ba27  1  0.860446  0.674912  0.604196  1
  Ba  Ba28  1  0.535358  0.604196  0.325088  1
  Ba  Ba29  1  0.000000  0.000000  0.000000  1
  Ho  Ho30  1  0.588686  0.053240  0.769388  1
  Ho  Ho31  1  0.358074  0.230612  0.053240  1
  Ho  Ho32  1  0.641926  0.769388  0.946760  1
  Ho  Ho33  1  0.411314  0.946760  0.230612  1
  Ho  Ho34  1  0.752593  0.079324  0.415489  1
  Ho  Ho35  1  0.168082  0.584511  0.079324  1
  Ho  Ho36  1  0.831918  0.415489  0.920676  1
  Ho  Ho37  1  0.247407  0.920676  0.584511  1
