# generated using pymatgen
data_Ca(H8O5)2
_symmetry_space_group_name_H-M   'P 1'
_cell_length_a   6.00216838
_cell_length_b   6.80079091
_cell_length_c   11.00213237
_cell_angle_alpha   90.06784700
_cell_angle_beta   87.03986229
_cell_angle_gamma   88.58434443
_symmetry_Int_Tables_number   1
_chemical_formula_structural   Ca(H8O5)2
_chemical_formula_sum   'Ca2 H32 O20'
_cell_volume   448.36396714
_cell_formula_units_Z   2
loop_
 _symmetry_equiv_pos_site_id
 _symmetry_equiv_pos_as_xyz
  1  'x, y, z'
loop_
 _atom_site_type_symbol
 _atom_site_label
 _atom_site_symmetry_multiplicity
 _atom_site_fract_x
 _atom_site_fract_y
 _atom_site_fract_z
 _atom_site_occupancy
  Ca  Ca0  1  0.024163  0.952112  0.265282  1
  Ca  Ca1  1  0.995845  0.006415  0.742921  1
  H  H2  1  0.296933  0.406411  0.365476  1
  H  H3  1  0.949535  0.279267  0.391301  1
  H  H4  1  0.964314  0.549141  0.393123  1
  H  H5  1  0.718997  0.667380  0.380040  1
  H  H6  1  0.639115  0.239089  0.366815  1
  H  H7  1  0.507142  0.979583  0.361236  1
  H  H8  1  0.345089  0.869316  0.453863  1
  H  H9  1  0.847828  0.338616  0.940537  1
  H  H10  1  0.040724  0.357470  0.842910  1
  H  H11  1  0.238064  0.634046  0.858953  1
  H  H12  1  0.964195  0.668671  0.878217  1
  H  H13  1  0.353974  0.264260  0.858231  1
  H  H14  1  0.273030  0.117694  0.965895  1
  H  H15  1  0.534298  0.984851  0.861957  1
  H  H16  1  0.705562  0.920987  0.957586  1
  H  H17  1  0.864067  0.700562  0.552458  1
  H  H18  1  0.962601  0.557033  0.648327  1
  H  H19  1  0.255209  0.370506  0.645411  1
  H  H20  1  0.096058  0.334262  0.535233  1
  H  H21  1  0.451841  0.958242  0.624465  1
  H  H22  1  0.375613  0.738612  0.651677  1
  H  H23  1  0.618401  0.233341  0.647004  1
  H  H24  1  0.700781  0.117595  0.520431  1
  H  H25  1  0.146796  0.733127  0.034568  1
  H  H26  1  0.044076  0.575594  0.121791  1
  H  H27  1  0.024788  0.269316  0.111743  1
  H  H28  1  0.777338  0.367144  0.158730  1
  H  H29  1  0.533923  0.983888  0.131682  1
  H  H30  1  0.647463  0.774463  0.131226  1
  H  H31  1  0.328907  0.243100  0.147583  1
  H  H32  1  0.627625  0.570478  0.713644  1
  H  H33  1  0.358154  0.574685  0.194678  1
  O  O34  1  0.068690  0.377066  0.403987  1
  O  O35  1  0.875177  0.696937  0.390307  1
  O  O36  1  0.737419  0.123176  0.381013  1
  O  O37  1  0.363267  0.905491  0.366359  1
  O  O38  1  0.880817  0.332055  0.851086  1
  O  O39  1  0.101757  0.742789  0.883941  1
  O  O40  1  0.301025  0.123162  0.874702  1
  O  O41  1  0.682923  0.915674  0.869691  1
  O  O42  1  0.870210  0.679758  0.642431  1
  O  O43  1  0.110560  0.314249  0.628891  1
  O  O44  1  0.324467  0.866123  0.616646  1
  O  O45  1  0.672194  0.104712  0.615319  1
  O  O46  1  0.141062  0.695069  0.123325  1
  O  O47  1  0.901619  0.374398  0.097722  1
  O  O48  1  0.682758  0.914213  0.125427  1
  O  O49  1  0.241658  0.130336  0.122913  1
  O  O50  1  0.463744  0.452014  0.346719  1
  O  O51  1  0.392288  0.489541  0.835988  1
  O  O52  1  0.473619  0.516644  0.708696  1
  O  O53  1  0.475088  0.471554  0.213704  1
