# generated using pymatgen
data_Mg3In
_symmetry_space_group_name_H-M   'P 1'
_cell_length_a   11.17692303
_cell_length_b   11.17692303
_cell_length_c   11.17692309
_cell_angle_alpha   32.78025478
_cell_angle_beta   32.78025478
_cell_angle_gamma   32.78025317
_symmetry_Int_Tables_number   1
_chemical_formula_structural   Mg3In
_chemical_formula_sum   'Mg12 In4'
_cell_volume   364.10513940
_cell_formula_units_Z   4
loop_
 _symmetry_equiv_pos_site_id
 _symmetry_equiv_pos_as_xyz
  1  'x, y, z'
loop_
 _atom_site_type_symbol
 _atom_site_label
 _atom_site_symmetry_multiplicity
 _atom_site_fract_x
 _atom_site_fract_y
 _atom_site_fract_z
 _atom_site_occupancy
  Mg  Mg0  1  0.999952  0.499912  0.499912  1
  Mg  Mg1  1  0.499912  0.499912  0.999952  1
  Mg  Mg2  1  0.499912  0.999952  0.499912  1
  Mg  Mg3  1  0.416571  0.916459  0.916459  1
  Mg  Mg4  1  0.916459  0.916459  0.416571  1
  Mg  Mg5  1  0.916459  0.416571  0.916459  1
  Mg  Mg6  1  0.833429  0.333541  0.333541  1
  Mg  Mg7  1  0.333541  0.333541  0.833429  1
  Mg  Mg8  1  0.333541  0.833429  0.333541  1
  Mg  Mg9  1  0.250048  0.750088  0.750088  1
  Mg  Mg10  1  0.750088  0.750088  0.250048  1
  Mg  Mg11  1  0.750088  0.250048  0.750088  1
  In  In12  1  0.999820  0.999820  0.999820  1
  In  In13  1  0.250180  0.250180  0.250180  1
  In  In14  1  0.416566  0.416566  0.416566  1
  In  In15  1  0.833434  0.833434  0.833434  1
