# generated using pymatgen
data_Cs4Zr3Te16
_symmetry_space_group_name_H-M   'P 1'
_cell_length_a   12.21720817
_cell_length_b   15.91374234
_cell_length_c   19.78484872
_cell_angle_alpha   90.00001023
_cell_angle_beta   90.00000568
_cell_angle_gamma   101.77777327
_symmetry_Int_Tables_number   1
_chemical_formula_structural   Cs4Zr3Te16
_chemical_formula_sum   'Cs16 Zr12 Te64'
_cell_volume   3765.61618790
_cell_formula_units_Z   4
loop_
 _symmetry_equiv_pos_site_id
 _symmetry_equiv_pos_as_xyz
  1  'x, y, z'
loop_
 _atom_site_type_symbol
 _atom_site_label
 _atom_site_symmetry_multiplicity
 _atom_site_fract_x
 _atom_site_fract_y
 _atom_site_fract_z
 _atom_site_occupancy
  Cs  Cs0  1  0.580820  0.414046  0.154178  1
  Cs  Cs1  1  0.919180  0.085954  0.654178  1
  Cs  Cs2  1  0.635538  0.943147  0.859220  1
  Cs  Cs3  1  0.149710  0.895467  0.859940  1
  Cs  Cs4  1  0.579464  0.845890  0.373163  1
  Cs  Cs5  1  0.864462  0.556852  0.359219  1
  Cs  Cs6  1  0.920536  0.654110  0.873163  1
  Cs  Cs7  1  0.850290  0.104533  0.140060  1
  Cs  Cs8  1  0.420536  0.154110  0.626837  1
  Cs  Cs9  1  0.080820  0.914046  0.345822  1
  Cs  Cs10  1  0.135537  0.443147  0.640780  1
  Cs  Cs11  1  0.364462  0.056852  0.140780  1
  Cs  Cs12  1  0.350290  0.604533  0.359940  1
  Cs  Cs13  1  0.079464  0.345890  0.126837  1
  Cs  Cs14  1  0.419180  0.585954  0.845822  1
  Cs  Cs15  1  0.649710  0.395467  0.640060  1
  Zr  Zr16  1  0.349464  0.248533  0.883922  1
  Zr  Zr17  1  0.849464  0.748533  0.616078  1
  Zr  Zr18  1  0.029380  0.269292  0.885405  1
  Zr  Zr19  1  0.207186  0.791978  0.617109  1
  Zr  Zr20  1  0.529380  0.769292  0.614595  1
  Zr  Zr21  1  0.970620  0.730708  0.114595  1
  Zr  Zr22  1  0.707186  0.291978  0.882891  1
  Zr  Zr23  1  0.650536  0.751467  0.116078  1
  Zr  Zr24  1  0.792814  0.208022  0.382891  1
  Zr  Zr25  1  0.150536  0.251467  0.383922  1
  Zr  Zr26  1  0.470620  0.230708  0.385405  1
  Zr  Zr27  1  0.292814  0.708022  0.117109  1
  Te  Te28  1  0.833150  0.157486  0.947481  1
  Te  Te29  1  0.876548  0.301794  0.770893  1
  Te  Te30  1  0.175268  0.957220  0.676289  1
  Te  Te31  1  0.849829  0.850128  0.041721  1
  Te  Te32  1  0.591102  0.108045  0.452631  1
  Te  Te33  1  0.324732  0.542780  0.176289  1
  Te  Te34  1  0.774271  0.229862  0.532933  1
  Te  Te35  1  0.380829  0.353583  0.761403  1
  Te  Te36  1  0.671159  0.182721  0.763584  1
  Te  Te37  1  0.123452  0.698206  0.229107  1
  Te  Te38  1  0.820766  0.768226  0.227242  1
  Te  Te39  1  0.037808  0.889491  0.567747  1
  Te  Te40  1  0.421006  0.045460  0.347468  1
  Te  Te41  1  0.725729  0.270139  0.032933  1
  Te  Te42  1  0.623452  0.198206  0.270893  1
  Te  Te43  1  0.828841  0.317279  0.263584  1
  Te  Te44  1  0.665049  0.724498  0.965914  1
  Te  Te45  1  0.166850  0.842514  0.052519  1
  Te  Te46  1  0.078994  0.454540  0.847468  1
  Te  Te47  1  0.334951  0.275503  0.034086  1
  Te  Te48  1  0.889725  0.587699  0.680324  1
  Te  Te49  1  0.462192  0.610509  0.067747  1
  Te  Te50  1  0.921006  0.545460  0.152532  1
  Te  Te51  1  0.679234  0.731774  0.727242  1
  Te  Te52  1  0.389725  0.087699  0.819676  1
  Te  Te53  1  0.537808  0.389491  0.932253  1
  Te  Te54  1  0.225729  0.770139  0.467067  1
  Te  Te55  1  0.675268  0.457220  0.823711  1
  Te  Te56  1  0.481649  0.848980  0.066682  1
  Te  Te57  1  0.224095  0.385144  0.945746  1
  Te  Te58  1  0.328841  0.817279  0.236416  1
  Te  Te59  1  0.165049  0.224497  0.534086  1
  Te  Te60  1  0.880829  0.853583  0.738597  1
  Te  Te61  1  0.349828  0.350129  0.458278  1
  Te  Te62  1  0.908898  0.391955  0.952631  1
  Te  Te63  1  0.619171  0.646417  0.238597  1
  Te  Te64  1  0.274271  0.729862  0.967067  1
  Te  Te65  1  0.519532  0.418610  0.353782  1
  Te  Te66  1  0.962192  0.110509  0.432253  1
  Te  Te67  1  0.119171  0.146417  0.261403  1
  Te  Te68  1  0.578994  0.954540  0.652532  1
  Te  Te69  1  0.650172  0.649872  0.541722  1
  Te  Te70  1  0.980468  0.081390  0.853782  1
  Te  Te71  1  0.333150  0.657486  0.552519  1
  Te  Te72  1  0.480468  0.581390  0.646218  1
  Te  Te73  1  0.724095  0.885144  0.554254  1
  Te  Te74  1  0.408898  0.891955  0.547369  1
  Te  Te75  1  0.018351  0.651021  0.566682  1
  Te  Te76  1  0.775905  0.614856  0.054254  1
  Te  Te77  1  0.150172  0.149872  0.958279  1
  Te  Te78  1  0.179234  0.231774  0.772758  1
  Te  Te79  1  0.320766  0.268226  0.272758  1
  Te  Te80  1  0.518351  0.151021  0.933318  1
  Te  Te81  1  0.376547  0.801794  0.729107  1
  Te  Te82  1  0.981649  0.348979  0.433318  1
  Te  Te83  1  0.824732  0.042780  0.323710  1
  Te  Te84  1  0.171159  0.682721  0.736415  1
  Te  Te85  1  0.091102  0.608045  0.047369  1
  Te  Te86  1  0.666850  0.342514  0.447481  1
  Te  Te87  1  0.019532  0.918609  0.146218  1
  Te  Te88  1  0.610275  0.912301  0.180324  1
  Te  Te89  1  0.110275  0.412301  0.319676  1
  Te  Te90  1  0.834951  0.775503  0.465914  1
  Te  Te91  1  0.275905  0.114857  0.445746  1
