# generated using pymatgen
data_Sr2EuGaCu2O7
_symmetry_space_group_name_H-M   'P 1'
_cell_length_a   5.48151510
_cell_length_b   5.56005789
_cell_length_c   12.37813496
_cell_angle_alpha   103.11392372
_cell_angle_beta   102.74792936
_cell_angle_gamma   90.01772310
_symmetry_Int_Tables_number   1
_chemical_formula_structural   Sr2EuGaCu2O7
_chemical_formula_sum   'Sr4 Eu2 Ga2 Cu4 O14'
_cell_volume   357.85565759
_cell_formula_units_Z   2
loop_
 _symmetry_equiv_pos_site_id
 _symmetry_equiv_pos_as_xyz
  1  'x, y, z'
loop_
 _atom_site_type_symbol
 _atom_site_label
 _atom_site_symmetry_multiplicity
 _atom_site_fract_x
 _atom_site_fract_y
 _atom_site_fract_z
 _atom_site_occupancy
  Eu  Eu0  1  0.502024  0.500080  0.999363  1
  Eu  Eu1  1  0.002085  0.999636  0.999819  1
  Sr  Sr2  1  0.152171  0.165881  0.302717  1
  Sr  Sr3  1  0.349471  0.363905  0.697050  1
  Sr  Sr4  1  0.652913  0.638284  0.302264  1
  Sr  Sr5  1  0.851764  0.833095  0.697118  1
  Ga  Ga6  1  0.716672  0.177554  0.500767  1
  Ga  Ga7  1  0.215235  0.824058  0.498575  1
  Cu  Cu8  1  0.075778  0.571853  0.144008  1
  Cu  Cu9  1  0.575774  0.071072  0.143714  1
  Cu  Cu10  1  0.429574  0.929383  0.855672  1
  Cu  Cu11  1  0.929115  0.426985  0.854158  1
  O  O12  1  0.858325  0.360069  0.647578  1
  O  O13  1  0.687158  0.685855  0.873128  1
  O  O14  1  0.818174  0.814312  0.131980  1
  O  O15  1  0.686711  0.184915  0.868338  1
  O  O16  1  0.319001  0.816877  0.131976  1
  O  O17  1  0.210828  0.643188  0.352233  1
  O  O18  1  0.862888  0.860085  0.500255  1
  O  O19  1  0.185970  0.184834  0.866905  1
  O  O20  1  0.714189  0.212507  0.353062  1
  O  O21  1  0.315843  0.310688  0.124330  1
  O  O22  1  0.186959  0.690055  0.874008  1
  O  O23  1  0.362438  0.143224  0.499577  1
  O  O24  1  0.359461  0.789874  0.647090  1
  O  O25  1  0.815369  0.311961  0.124247  1
