# generated using pymatgen
data_Na3Ce5Cl18
_symmetry_space_group_name_H-M   'P 1'
_cell_length_a   7.60451578
_cell_length_b   7.60451583
_cell_length_c   13.01329575
_cell_angle_alpha   90.00000000
_cell_angle_beta   90.00000000
_cell_angle_gamma   119.99999982
_symmetry_Int_Tables_number   1
_chemical_formula_structural   Na3Ce5Cl18
_chemical_formula_sum   'Na3 Ce5 Cl18'
_cell_volume   651.72002563
_cell_formula_units_Z   1
loop_
 _symmetry_equiv_pos_site_id
 _symmetry_equiv_pos_as_xyz
  1  'x, y, z'
loop_
 _atom_site_type_symbol
 _atom_site_label
 _atom_site_symmetry_multiplicity
 _atom_site_fract_x
 _atom_site_fract_y
 _atom_site_fract_z
 _atom_site_occupancy
  Na  Na0  1  0.333333  0.666667  0.750000  1
  Na  Na1  1  0.000000  0.000000  0.612373  1
  Na  Na2  1  0.000000  0.000000  0.887627  1
  Ce  Ce3  1  0.333333  0.666667  0.084556  1
  Ce  Ce4  1  0.333333  0.666667  0.415444  1
  Ce  Ce5  1  0.666667  0.333333  0.584347  1
  Ce  Ce6  1  0.666667  0.333333  0.250000  1
  Ce  Ce7  1  0.666667  0.333333  0.915653  1
  Cl  Cl8  1  0.305560  0.912258  0.250000  1
  Cl  Cl9  1  0.311889  0.921351  0.575914  1
  Cl  Cl10  1  0.311889  0.921351  0.924086  1
  Cl  Cl11  1  0.087742  0.393302  0.250000  1
  Cl  Cl12  1  0.078649  0.390538  0.575914  1
  Cl  Cl13  1  0.078649  0.390538  0.924086  1
  Cl  Cl14  1  0.392184  0.305186  0.085518  1
  Cl  Cl15  1  0.392184  0.305186  0.414482  1
  Cl  Cl16  1  0.381503  0.283504  0.750000  1
  Cl  Cl17  1  0.606698  0.694440  0.250000  1
  Cl  Cl18  1  0.609462  0.688111  0.575914  1
  Cl  Cl19  1  0.609462  0.688111  0.924086  1
  Cl  Cl20  1  0.913001  0.607816  0.085518  1
  Cl  Cl21  1  0.902000  0.618497  0.750000  1
  Cl  Cl22  1  0.913001  0.607816  0.414482  1
  Cl  Cl23  1  0.694814  0.086999  0.085518  1
  Cl  Cl24  1  0.694814  0.086999  0.414482  1
  Cl  Cl25  1  0.716496  0.098000  0.750000  1
