# generated using pymatgen
data_Na3MgC2BrO6
_symmetry_space_group_name_H-M   'P 1'
_cell_length_a   10.19037169
_cell_length_b   10.19036284
_cell_length_c   10.19036393
_cell_angle_alpha   59.99990917
_cell_angle_beta   59.99987213
_cell_angle_gamma   60.00002718
_symmetry_Int_Tables_number   1
_chemical_formula_structural   Na3MgC2BrO6
_chemical_formula_sum   'Na12 Mg4 C8 Br4 O24'
_cell_volume   748.26208687
_cell_formula_units_Z   4
loop_
 _symmetry_equiv_pos_site_id
 _symmetry_equiv_pos_as_xyz
  1  'x, y, z'
loop_
 _atom_site_type_symbol
 _atom_site_label
 _atom_site_symmetry_multiplicity
 _atom_site_fract_x
 _atom_site_fract_y
 _atom_site_fract_z
 _atom_site_occupancy
  Na  Na0  1  0.634915  0.634915  0.115085  1
  Na  Na1  1  0.365086  0.884914  0.365084  1
  Na  Na2  1  0.884914  0.365085  0.884916  1
  Na  Na3  1  0.634914  0.115086  0.115086  1
  Na  Na4  1  0.634915  0.115086  0.634915  1
  Na  Na5  1  0.365086  0.365085  0.884914  1
  Na  Na6  1  0.115086  0.115085  0.634914  1
  Na  Na7  1  0.884915  0.884915  0.365085  1
  Na  Na8  1  0.115086  0.634914  0.115085  1
  Na  Na9  1  0.365085  0.884915  0.884915  1
  Na  Na10  1  0.884914  0.365085  0.365086  1
  Na  Na11  1  0.115086  0.634915  0.634915  1
  Mg  Mg12  1  0.499999  0.500001  1.000000  1
  Mg  Mg13  1  0.500000  -0.000001  0.500001  1
  Mg  Mg14  1  1.000000  0.500000  0.499999  1
  Mg  Mg15  1  0.500000  0.499999  0.500000  1
  C  C16  1  0.716098  0.351700  0.716101  1
  C  C17  1  0.351700  0.716099  0.716100  1
  C  C18  1  0.716098  0.716100  0.716101  1
  C  C19  1  0.283902  0.648300  0.283899  1
  C  C20  1  0.283902  0.283900  0.648299  1
  C  C21  1  0.283902  0.283901  0.283898  1
  C  C22  1  0.716098  0.716100  0.351701  1
  C  C23  1  0.648299  0.283901  0.283901  1
  Br  Br24  1  0.000000  0.000000  0.500000  1
  Br  Br25  1  0.500000  0.000000  1.000000  1
  Br  Br26  1  0.000000  0.500000  1.000000  1
  Br  Br27  1  1.000000  0.000000  0.000000  1
  O  O28  1  0.863682  0.643235  0.643235  1
  O  O29  1  0.136321  0.356762  0.356764  1
  O  O30  1  0.643241  0.349846  0.643240  1
  O  O31  1  0.136320  0.650153  0.356765  1
  O  O32  1  0.863679  0.349848  0.643237  1
  O  O33  1  0.356761  0.136323  0.356764  1
  O  O34  1  0.356757  0.650153  0.136332  1
  O  O35  1  0.356760  0.650154  0.356762  1
  O  O36  1  0.643241  0.349847  0.863672  1
  O  O37  1  0.356757  0.356758  0.136332  1
  O  O38  1  0.650153  0.356763  0.136320  1
  O  O39  1  0.650153  0.356759  0.356758  1
  O  O40  1  0.356757  0.356758  0.650153  1
  O  O41  1  0.643243  0.643240  0.863671  1
  O  O42  1  0.643238  0.863678  0.349847  1
  O  O43  1  0.356760  0.136324  0.650153  1
  O  O44  1  0.863678  0.643239  0.349847  1
  O  O45  1  0.349846  0.643239  0.643239  1
  O  O46  1  0.349847  0.863675  0.643238  1
  O  O47  1  0.136320  0.356763  0.650153  1
  O  O48  1  0.349847  0.643240  0.863673  1
  O  O49  1  0.643243  0.643243  0.349847  1
  O  O50  1  0.643242  0.863671  0.643240  1
  O  O51  1  0.650153  0.136326  0.356759  1
