# generated using pymatgen
data_Zn6Sb5
_symmetry_space_group_name_H-M   'P 1'
_cell_length_a   8.26978689
_cell_length_b   8.26978658
_cell_length_c   8.26978699
_cell_angle_alpha   95.67191315
_cell_angle_beta   95.67191282
_cell_angle_gamma   95.67191442
_symmetry_Int_Tables_number   1
_chemical_formula_structural   Zn6Sb5
_chemical_formula_sum   'Zn12 Sb10'
_cell_volume   556.66304002
_cell_formula_units_Z   2
loop_
 _symmetry_equiv_pos_site_id
 _symmetry_equiv_pos_as_xyz
  1  'x, y, z'
loop_
 _atom_site_type_symbol
 _atom_site_label
 _atom_site_symmetry_multiplicity
 _atom_site_fract_x
 _atom_site_fract_y
 _atom_site_fract_z
 _atom_site_occupancy
  Zn  Zn0  1  0.631979  0.622902  0.999737  1
  Zn  Zn1  1  0.122902  0.131979  0.499737  1
  Zn  Zn2  1  0.877098  0.868021  0.500263  1
  Zn  Zn3  1  0.868021  0.500263  0.877098  1
  Zn  Zn4  1  0.000263  0.368021  0.377098  1
  Zn  Zn5  1  0.499737  0.122902  0.131979  1
  Zn  Zn6  1  0.622902  0.999737  0.631979  1
  Zn  Zn7  1  0.999737  0.631979  0.622902  1
  Zn  Zn8  1  0.500263  0.877098  0.868021  1
  Zn  Zn9  1  0.377098  0.000263  0.368021  1
  Zn  Zn10  1  0.368021  0.377098  0.000263  1
  Zn  Zn11  1  0.131979  0.499737  0.122902  1
  Sb  Sb12  1  0.620645  0.250000  0.879355  1
  Sb  Sb13  1  0.879355  0.620645  0.250000  1
  Sb  Sb14  1  0.375346  0.375346  0.375346  1
  Sb  Sb15  1  0.124654  0.124654  0.124654  1
  Sb  Sb16  1  0.379355  0.750000  0.120645  1
  Sb  Sb17  1  0.875346  0.875346  0.875346  1
  Sb  Sb18  1  0.750000  0.120645  0.379355  1
  Sb  Sb19  1  0.624654  0.624654  0.624654  1
  Sb  Sb20  1  0.250000  0.879355  0.620645  1
  Sb  Sb21  1  0.120645  0.379355  0.750000  1
