# generated using pymatgen
data_GdGaGe2O7
_symmetry_space_group_name_H-M   'P 1'
_cell_length_a   6.63629573
_cell_length_b   7.31708208
_cell_length_c   11.56147090
_cell_angle_alpha   96.48859144
_cell_angle_beta   90.00000000
_cell_angle_gamma   90.00000000
_symmetry_Int_Tables_number   1
_chemical_formula_structural   GdGaGe2O7
_chemical_formula_sum   'Gd4 Ga4 Ge8 O28'
_cell_volume   557.80945697
_cell_formula_units_Z   4
loop_
 _symmetry_equiv_pos_site_id
 _symmetry_equiv_pos_as_xyz
  1  'x, y, z'
loop_
 _atom_site_type_symbol
 _atom_site_label
 _atom_site_symmetry_multiplicity
 _atom_site_fract_x
 _atom_site_fract_y
 _atom_site_fract_z
 _atom_site_occupancy
  Gd  Gd0  1  0.355643  0.770796  0.526163  1
  Gd  Gd1  1  0.855643  0.729204  0.973837  1
  Gd  Gd2  1  0.644357  0.229204  0.473837  1
  Gd  Gd3  1  0.144357  0.270796  0.026163  1
  Ga  Ga4  1  0.400285  0.480833  0.268725  1
  Ga  Ga5  1  0.099715  0.980833  0.768725  1
  Ga  Ga6  1  0.599715  0.519167  0.731275  1
  Ga  Ga7  1  0.900285  0.019167  0.231275  1
  Ge  Ge8  1  0.158762  0.241162  0.457262  1
  Ge  Ge9  1  0.841238  0.758838  0.542738  1
  Ge  Ge10  1  0.910615  0.579459  0.277774  1
  Ge  Ge11  1  0.589385  0.079459  0.777774  1
  Ge  Ge12  1  0.658762  0.258838  0.042738  1
  Ge  Ge13  1  0.410615  0.920541  0.222226  1
  Ge  Ge14  1  0.089385  0.420541  0.722226  1
  Ge  Ge15  1  0.341238  0.741162  0.957262  1
  O  O16  1  0.170834  0.569903  0.980719  1
  O  O17  1  0.889272  0.560752  0.781109  1
  O  O18  1  0.688316  0.464820  0.312043  1
  O  O19  1  0.670834  0.930097  0.519281  1
  O  O20  1  0.998156  0.676787  0.421227  1
  O  O21  1  0.158355  0.908111  0.921460  1
  O  O22  1  0.188316  0.035180  0.187957  1
  O  O23  1  0.610728  0.060752  0.281109  1
  O  O24  1  0.501844  0.176787  0.921227  1
  O  O25  1  0.841645  0.091889  0.078540  1
  O  O26  1  0.001844  0.323213  0.578773  1
  O  O27  1  0.341645  0.408111  0.421460  1
  O  O28  1  0.377827  0.737848  0.309974  1
  O  O29  1  0.445712  0.337108  0.125177  1
  O  O30  1  0.054288  0.837108  0.625177  1
  O  O31  1  0.811684  0.964820  0.812043  1
  O  O32  1  0.554288  0.662892  0.874823  1
  O  O33  1  0.122173  0.237848  0.809974  1
  O  O34  1  0.945712  0.162892  0.374823  1
  O  O35  1  0.329166  0.069903  0.480719  1
  O  O36  1  0.110728  0.439248  0.218891  1
  O  O37  1  0.311684  0.535180  0.687957  1
  O  O38  1  0.498156  0.823213  0.078773  1
  O  O39  1  0.622173  0.262152  0.690026  1
  O  O40  1  0.389272  0.939248  0.718891  1
  O  O41  1  0.877827  0.762152  0.190026  1
  O  O42  1  0.829166  0.430097  0.019281  1
  O  O43  1  0.658355  0.591889  0.578540  1
