# generated using pymatgen
data_Na3MgAlSi7O18
_symmetry_space_group_name_H-M   'P 1'
_cell_length_a   5.31539250
_cell_length_b   19.32199211
_cell_length_c   14.95478841
_cell_angle_alpha   25.37933257
_cell_angle_beta   72.76286427
_cell_angle_gamma   76.74116087
_symmetry_Int_Tables_number   1
_chemical_formula_structural   Na3MgAlSi7O18
_chemical_formula_sum   'Na6 Mg2 Al2 Si14 O36'
_cell_volume   625.97176730
_cell_formula_units_Z   2
loop_
 _symmetry_equiv_pos_site_id
 _symmetry_equiv_pos_as_xyz
  1  'x, y, z'
loop_
 _atom_site_type_symbol
 _atom_site_label
 _atom_site_symmetry_multiplicity
 _atom_site_fract_x
 _atom_site_fract_y
 _atom_site_fract_z
 _atom_site_occupancy
  Na  Na0  1  0.249702  0.034646  0.297882  1
  Na  Na1  1  0.250298  0.367176  0.300296  1
  Na  Na2  1  0.250000  0.697101  0.302899  1
  Na  Na3  1  0.750000  0.295840  0.704160  1
  Na  Na4  1  0.750243  0.632873  0.702555  1
  Na  Na5  1  0.749757  0.968302  0.696271  1
  Mg  Mg6  1  0.750683  0.237543  0.094929  1
  Mg  Mg7  1  0.749317  0.570016  0.097512  1
  Al  Al8  1  0.250000  0.092703  0.907297  1
  Al  Al9  1  0.750000  0.902308  0.097692  1
  Si  Si10  1  0.263605  0.143572  0.384169  1
  Si  Si11  1  0.232636  0.001302  0.802698  1
  Si  Si12  1  0.264841  0.478772  0.380664  1
  Si  Si13  1  0.235159  0.338210  0.802353  1
  Si  Si14  1  0.267364  0.805303  0.390697  1
  Si  Si15  1  0.775389  0.330277  0.195059  1
  Si  Si16  1  0.249018  0.427073  0.906712  1
  Si  Si17  1  0.236395  0.671314  0.800945  1
  Si  Si18  1  0.729912  0.184654  0.623870  1
  Si  Si19  1  0.777853  0.664536  0.195580  1
  Si  Si20  1  0.250982  0.760859  0.905356  1
  Si  Si21  1  0.722147  0.524653  0.615231  1
  Si  Si22  1  0.770088  0.993180  0.198296  1
  Si  Si23  1  0.724611  0.855613  0.619051  1
  O  O24  1  0.007001  0.103097  0.661314  1
  O  O25  1  0.343215  0.230066  0.177169  1
  O  O26  1  0.002701  0.443279  0.662471  1
  O  O27  1  0.207314  0.284651  0.623013  1
  O  O28  1  0.703341  0.143095  0.088963  1
  O  O29  1  0.339268  0.565121  0.174418  1
  O  O30  1  0.498502  0.206685  0.356411  1
  O  O31  1  0.877012  0.032881  0.037186  1
  O  O32  1  0.001498  0.769780  0.667124  1
  O  O33  1  0.160732  0.304660  0.955801  1
  O  O34  1  0.510062  0.121744  0.642424  1
  O  O35  1  0.292686  0.192317  0.900018  1
  O  O36  1  0.192055  0.610074  0.639704  1
  O  O37  1  0.801937  0.044741  0.387536  1
  O  O38  1  0.698063  0.477018  0.090705  1
  O  O39  1  0.368211  0.880395  0.194582  1
  O  O40  1  0.497299  0.549028  0.345223  1
  O  O41  1  0.904418  0.382024  0.021565  1
  O  O42  1  0.156785  0.637301  0.955465  1
  O  O43  1  0.511805  0.463498  0.629018  1
  O  O44  1  0.622988  0.102946  0.826987  1
  O  O45  1  0.304075  0.526951  0.892900  1
  O  O46  1  0.195925  0.946802  0.633347  1
  O  O47  1  0.796659  0.375152  0.392789  1
  O  O48  1  0.702683  0.808069  0.100792  1
  O  O49  1  0.492999  0.867509  0.368080  1
  O  O50  1  0.903693  0.719224  0.018879  1
  O  O51  1  0.987786  0.222011  0.351013  1
  O  O52  1  0.131789  0.955371  0.969653  1
  O  O53  1  0.512214  0.795034  0.631942  1
  O  O54  1  0.596307  0.457329  0.804567  1
  O  O55  1  0.307945  0.859850  0.890373  1
  O  O56  1  0.797317  0.716931  0.374208  1
  O  O57  1  0.988195  0.556013  0.351470  1
  O  O58  1  0.595582  0.785614  0.810797  1
  O  O59  1  0.989938  0.885914  0.349918  1
