# generated using pymatgen
data_Rb2Sc(NO3)5
_symmetry_space_group_name_H-M   'P 1'
_cell_length_a   11.14569541
_cell_length_b   11.14569514
_cell_length_c   9.51952823
_cell_angle_alpha   90.00000000
_cell_angle_beta   90.00000000
_cell_angle_gamma   120.00000077
_symmetry_Int_Tables_number   1
_chemical_formula_structural   Rb2Sc(NO3)5
_chemical_formula_sum   'Rb6 Sc3 N15 O45'
_cell_volume   1024.14249044
_cell_formula_units_Z   3
loop_
 _symmetry_equiv_pos_site_id
 _symmetry_equiv_pos_as_xyz
  1  'x, y, z'
loop_
 _atom_site_type_symbol
 _atom_site_label
 _atom_site_symmetry_multiplicity
 _atom_site_fract_x
 _atom_site_fract_y
 _atom_site_fract_z
 _atom_site_occupancy
  Rb  Rb0  1  0.136265  0.333407  0.666672  1
  Rb  Rb1  1  0.383329  0.049921  0.833484  1
  Rb  Rb2  1  0.666592  0.616671  0.500150  1
  Rb  Rb3  1  0.950079  0.333408  0.166817  1
  Rb  Rb4  1  0.197141  0.863735  0.333338  1
  Rb  Rb5  1  0.666593  0.802859  0.000005  1
  Sc  Sc6  1  0.666730  0.014477  0.500292  1
  Sc  Sc7  1  0.985523  0.652253  0.833624  1
  Sc  Sc8  1  0.347747  0.333270  0.166959  1
  N  N9  1  0.921308  0.010883  0.438831  1
  N  N10  1  0.343382  0.587841  0.226747  1
  N  N11  1  0.414463  0.434249  0.894005  1
  N  N12  1  0.585250  0.333192  0.165999  1
  N  N13  1  0.918913  0.686756  0.106430  1
  N  N14  1  0.565751  0.980214  0.227338  1
  N  N15  1  0.767843  0.081087  0.773097  1
  N  N16  1  0.412159  0.755541  0.560080  1
  N  N17  1  0.989117  0.910425  0.772165  1
  N  N18  1  0.313244  0.232157  0.439763  1
  N  N19  1  0.019786  0.585537  0.560672  1
  N  N20  1  0.244459  0.656618  0.893414  1
  N  N21  1  0.747942  0.414750  0.832666  1
  N  N22  1  0.089575  0.078692  0.105498  1
  N  N23  1  0.666808  0.252058  0.499333  1
  O  O24  1  0.303443  0.318914  0.922401  1
  O  O25  1  0.004867  0.509028  0.667549  1
  O  O26  1  0.210995  0.747308  0.851021  1
  O  O27  1  0.583175  0.148408  0.575991  1
  O  O28  1  0.388274  0.853984  0.577793  1
  O  O29  1  0.252692  0.463686  0.184354  1
  O  O30  1  0.038392  0.556186  0.440927  1
  O  O31  1  0.146016  0.534290  0.911126  1
  O  O32  1  0.666817  0.362262  0.497988  1
  O  O33  1  0.750761  0.231375  0.423905  1
  O  O34  1  0.829329  0.158383  0.666838  1
  O  O35  1  0.317703  0.347492  0.411041  1
  O  O36  1  0.965892  0.992010  0.086745  1
  O  O37  1  0.536314  0.789005  0.517687  1
  O  O38  1  0.480613  0.249239  0.090571  1
  O  O39  1  0.122855  0.203083  0.147131  1
  O  O40  1  0.816097  0.109459  0.893062  1
  O  O41  1  0.681086  0.984530  0.255734  1
  O  O42  1  0.325538  0.631891  0.579465  1
  O  O43  1  0.890541  0.706638  0.226395  1
  O  O44  1  0.187685  0.054328  0.087919  1
  O  O45  1  0.565233  0.416825  0.242658  1
  O  O46  1  0.841617  0.670945  0.000171  1
  O  O47  1  0.080228  0.877145  0.813798  1
  O  O48  1  0.007990  0.973882  0.420079  1
  O  O49  1  0.796917  0.919772  0.480464  1
  O  O50  1  0.866643  0.812315  0.754586  1
  O  O51  1  0.368109  0.693647  0.912798  1
  O  O52  1  0.029789  0.682297  0.077708  1
  O  O53  1  0.015470  0.696557  0.589068  1
  O  O54  1  0.490972  0.495839  0.000882  1
  O  O55  1  0.306353  0.674462  0.246131  1
  O  O56  1  0.517795  0.961608  0.107593  1
  O  O57  1  0.465710  0.611726  0.244459  1
  O  O58  1  0.329055  0.170671  0.333504  1
  O  O59  1  0.443814  0.482206  0.774260  1
  O  O60  1  0.026118  0.034108  0.753412  1
  O  O61  1  0.768625  0.519387  0.757238  1
  O  O62  1  0.504161  0.995133  0.334215  1
  O  O63  1  0.637738  0.304555  0.831321  1
  O  O64  1  0.293362  0.183903  0.559729  1
  O  O65  1  0.652508  0.970211  0.744374  1
  O  O66  1  0.695445  0.333183  0.164654  1
  O  O67  1  0.851592  0.434767  0.909325  1
  O  O68  1  0.945672  0.133357  0.421253  1
