# generated using pymatgen
data_H4NClO4
_symmetry_space_group_name_H-M   'P 1'
_cell_length_a   9.35744097
_cell_length_b   7.57347309
_cell_length_c   5.90014812
_cell_angle_alpha   90.00000000
_cell_angle_beta   90.00000000
_cell_angle_gamma   90.00000000
_symmetry_Int_Tables_number   1
_chemical_formula_structural   H4NClO4
_chemical_formula_sum   'H16 N4 Cl4 O16'
_cell_volume   418.13362854
_cell_formula_units_Z   4
loop_
 _symmetry_equiv_pos_site_id
 _symmetry_equiv_pos_as_xyz
  1  'x, y, z'
loop_
 _atom_site_type_symbol
 _atom_site_label
 _atom_site_symmetry_multiplicity
 _atom_site_fract_x
 _atom_site_fract_y
 _atom_site_fract_z
 _atom_site_occupancy
  H  H0  1  0.303426  0.072766  0.827671  1
  H  H1  1  0.696574  0.927234  0.327671  1
  H  H2  1  0.196574  0.572766  0.327671  1
  H  H3  1  0.803426  0.427234  0.827671  1
  H  H4  1  0.397256  0.126422  0.592816  1
  H  H5  1  0.602744  0.873578  0.092816  1
  H  H6  1  0.102744  0.626422  0.092816  1
  H  H7  1  0.897256  0.373578  0.592816  1
  H  H8  1  0.351164  0.283393  0.778802  1
  H  H9  1  0.648836  0.716607  0.278802  1
  H  H10  1  0.148836  0.783393  0.278802  1
  H  H11  1  0.851164  0.216607  0.778802  1
  H  H12  1  0.225173  0.190213  0.617352  1
  H  H13  1  0.774827  0.809787  0.117352  1
  H  H14  1  0.274827  0.690213  0.117352  1
  H  H15  1  0.725173  0.309787  0.617352  1
  N  N16  1  0.318902  0.166978  0.704426  1
  N  N17  1  0.681098  0.833022  0.204426  1
  N  N18  1  0.181098  0.666978  0.204426  1
  N  N19  1  0.818902  0.333022  0.704426  1
  Cl  Cl20  1  0.568183  0.307960  0.200681  1
  Cl  Cl21  1  0.431817  0.692040  0.700681  1
  Cl  Cl22  1  0.931817  0.807960  0.700681  1
  Cl  Cl23  1  0.068183  0.192040  0.200681  1
  O  O24  1  0.582206  0.190851  0.400788  1
  O  O25  1  0.417794  0.809149  0.900788  1
  O  O26  1  0.917794  0.690851  0.900788  1
  O  O27  1  0.082206  0.309149  0.400788  1
  O  O28  1  0.685659  0.435518  0.205462  1
  O  O29  1  0.314341  0.564482  0.705462  1
  O  O30  1  0.814341  0.935518  0.705462  1
  O  O31  1  0.185659  0.064482  0.205462  1
  O  O32  1  0.577710  0.199956  0.995575  1
  O  O33  1  0.422290  0.800044  0.495575  1
  O  O34  1  0.922290  0.699956  0.495575  1
  O  O35  1  0.077710  0.300044  0.995575  1
  O  O36  1  0.431391  0.398062  0.208726  1
  O  O37  1  0.568609  0.601938  0.708726  1
  O  O38  1  0.068609  0.898062  0.708726  1
  O  O39  1  0.931391  0.101938  0.208726  1
