# generated using pymatgen
data_MgH16C4S4N2(O4F3)4
_symmetry_space_group_name_H-M   'P 1'
_cell_length_a   7.43584206
_cell_length_b   16.26985706
_cell_length_c   13.75185451
_cell_angle_alpha   90.00000000
_cell_angle_beta   98.07180941
_cell_angle_gamma   90.00000000
_symmetry_Int_Tables_number   1
_chemical_formula_structural   MgH16C4S4N2(O4F3)4
_chemical_formula_sum   'Mg2 H32 C8 S8 N4 O32 F24'
_cell_volume   1647.21805460
_cell_formula_units_Z   2
loop_
 _symmetry_equiv_pos_site_id
 _symmetry_equiv_pos_as_xyz
  1  'x, y, z'
loop_
 _atom_site_type_symbol
 _atom_site_label
 _atom_site_symmetry_multiplicity
 _atom_site_fract_x
 _atom_site_fract_y
 _atom_site_fract_z
 _atom_site_occupancy
  Mg  Mg0  1  0.000000  0.000000  0.000000  1
  Mg  Mg1  1  0.500000  0.500000  0.500000  1
  H  H2  1  0.740406  0.033290  0.748861  1
  H  H3  1  0.793842  0.227494  0.303491  1
  H  H4  1  0.121312  0.164098  0.624867  1
  H  H5  1  0.240406  0.466710  0.248861  1
  H  H6  1  0.553054  0.599390  0.661090  1
  H  H7  1  0.878688  0.835902  0.375133  1
  H  H8  1  0.767435  0.138393  0.863399  1
  H  H9  1  0.206158  0.772506  0.696509  1
  H  H10  1  0.446946  0.400610  0.338910  1
  H  H11  1  0.762594  0.310854  0.354499  1
  H  H12  1  0.737406  0.810854  0.145501  1
  H  H13  1  0.557802  0.839091  0.788935  1
  H  H14  1  0.759594  0.533290  0.751139  1
  H  H15  1  0.232565  0.861607  0.136601  1
  H  H16  1  0.706158  0.727494  0.196509  1
  H  H17  1  0.946946  0.099390  0.838910  1
  H  H18  1  0.342011  0.787404  0.400484  1
  H  H19  1  0.942198  0.339091  0.711065  1
  H  H20  1  0.657989  0.212596  0.599516  1
  H  H21  1  0.293842  0.272506  0.803491  1
  H  H22  1  0.259594  0.966710  0.251139  1
  H  H23  1  0.378688  0.664098  0.875133  1
  H  H24  1  0.157989  0.287404  0.099516  1
  H  H25  1  0.237406  0.689146  0.645501  1
  H  H26  1  0.621312  0.335902  0.124867  1
  H  H27  1  0.442198  0.160909  0.211065  1
  H  H28  1  0.732565  0.638393  0.636601  1
  H  H29  1  0.053054  0.900610  0.161090  1
  H  H30  1  0.057802  0.660909  0.288935  1
  H  H31  1  0.842011  0.712596  0.900484  1
  H  H32  1  0.262594  0.189146  0.854499  1
  H  H33  1  0.267435  0.361607  0.363399  1
  C  C34  1  0.886746  0.887790  0.426207  1
  C  C35  1  0.014655  0.641491  0.151352  1
  C  C36  1  0.514655  0.858509  0.651352  1
  C  C37  1  -0.014655  0.358509  0.848648  1
  C  C38  1  0.613254  0.387790  0.073793  1
  C  C39  1  0.113254  0.112210  0.573793  1
  C  C40  1  0.485345  0.141491  0.348648  1
  C  C41  1  0.386746  0.612210  0.926207  1
  S  S42  1  0.699435  0.650219  0.418540  1
  S  S43  1  0.309821  0.748032  0.313837  1
  S  S44  1  0.300565  0.349781  0.581460  1
  S  S45  1  0.199435  0.849781  0.918540  1
  S  S46  1  0.190179  0.248032  0.186163  1
  S  S47  1  0.690179  0.251968  0.686163  1
  S  S48  1  0.800565  0.150219  0.081460  1
  S  S49  1  0.809821  0.751968  0.813837  1
  N  N50  1  0.628725  0.801613  0.848301  1
  N  N51  1  0.371275  0.198387  0.151699  1
  N  N52  1  0.128724  0.698387  0.348301  1
  N  N53  1  0.871275  0.301613  0.651699  1
  O  O54  1  0.239923  0.248277  0.857620  1
  O  O55  1  0.180688  0.028919  0.789143  1
  O  O56  1  0.676372  0.585659  0.647981  1
  O  O57  1  0.760077  0.751723  0.142380  1
  O  O58  1  0.368506  0.272370  0.637720  1
  O  O59  1  0.806957  0.596729  0.360419  1
  O  O60  1  0.693043  0.096729  0.139581  1
  O  O61  1  0.180274  0.069883  0.869062  1
  O  O62  1  0.095696  0.695509  0.433777  1
  O  O63  1  0.131494  0.772370  0.862280  1
  O  O64  1  0.631494  0.727630  0.362280  1
  O  O65  1  0.868506  0.227630  0.137720  1
  O  O66  1  0.260077  0.748277  0.642380  1
  O  O67  1  0.193043  0.403271  0.639581  1
  O  O68  1  0.823628  0.085659  0.852019  1
  O  O69  1  0.819312  0.971081  0.210857  1
  O  O70  1  0.022697  0.898114  0.933973  1
  O  O71  1  -0.095696  0.304491  0.566223  1
  O  O72  1  0.522697  0.601886  0.433973  1
  O  O73  1  0.739923  0.251723  0.357620  1
  O  O74  1  0.477303  0.398114  0.566027  1
  O  O75  1  0.680274  0.430117  0.369062  1
  O  O76  1  0.595696  0.804491  0.933777  1
  O  O77  1  0.680688  0.471081  0.289143  1
  O  O78  1  -0.022697  0.101886  0.066027  1
  O  O79  1  0.176372  0.914341  0.147981  1
  O  O80  1  0.306957  0.903271  0.860419  1
  O  O81  1  0.319726  0.569883  0.630938  1
  O  O82  1  0.819726  0.930117  0.130938  1
  O  O83  1  0.319312  0.528919  0.710857  1
  O  O84  1  0.323628  0.414341  0.352019  1
  O  O85  1  0.404304  0.195509  0.066223  1
  F  F86  1  0.509236  0.555575  0.904697  1
  F  F87  1  0.702330  0.993619  0.698163  1
  F  F88  1  0.221296  0.575947  0.921395  1
  F  F89  1  0.060418  0.137963  0.480468  1
  F  F90  1  0.129176  0.679369  0.099941  1
  F  F91  1  0.278704  0.075947  0.578605  1
  F  F92  1  0.870824  0.320631  0.900059  1
  F  F93  1  0.797670  0.493619  0.801837  1
  F  F94  1  0.439582  0.637963  0.019532  1
  F  F95  1  0.490764  0.444425  0.095303  1
  F  F96  1  0.297669  0.006381  0.301837  1
  F  F97  1  0.990764  0.055575  0.595303  1
  F  F98  1  0.405142  0.900945  0.587608  1
  F  F99  1  0.594858  0.099055  0.412392  1
  F  F100  1  0.778704  0.424053  0.078605  1
  F  F101  1  0.370824  0.179369  0.400059  1
  F  F102  1  0.629176  0.820631  0.599941  1
  F  F103  1  0.202330  0.506381  0.198163  1
  F  F104  1  0.009236  0.944425  0.404697  1
  F  F105  1  0.560418  0.362037  0.980468  1
  F  F106  1  0.094858  0.400945  0.912392  1
  F  F107  1  0.939582  0.862037  0.519532  1
  F  F108  1  0.905142  0.599055  0.087608  1
  F  F109  1  0.721296  0.924053  0.421395  1
