# generated using pymatgen
data_Hf2InNi2
_symmetry_space_group_name_H-M   'P 1'
_cell_length_a   6.54674367
_cell_length_b   7.14300900
_cell_length_c   7.13709887
_cell_angle_alpha   90.01571025
_cell_angle_beta   90.04654025
_cell_angle_gamma   90.01281361
_symmetry_Int_Tables_number   1
_chemical_formula_structural   Hf2InNi2
_chemical_formula_sum   'Hf8 In4 Ni8'
_cell_volume   333.75522758
_cell_formula_units_Z   4
loop_
 _symmetry_equiv_pos_site_id
 _symmetry_equiv_pos_as_xyz
  1  'x, y, z'
loop_
 _atom_site_type_symbol
 _atom_site_label
 _atom_site_symmetry_multiplicity
 _atom_site_fract_x
 _atom_site_fract_y
 _atom_site_fract_z
 _atom_site_occupancy
  Hf  Hf0  1  0.500118  0.325740  0.674156  1
  Hf  Hf1  1  0.999762  0.174836  0.174749  1
  Hf  Hf2  1  0.500331  0.840699  0.840600  1
  Hf  Hf3  1  0.499812  0.674397  0.325239  1
  Hf  Hf4  1  0.999879  0.340790  0.659313  1
  Hf  Hf5  1  0.499982  0.159388  0.159501  1
  Hf  Hf6  1  0.000148  0.824985  0.825511  1
  Hf  Hf7  1  0.000096  0.659222  0.340864  1
  In  In8  1  0.249889  0.000118  0.500012  1
  In  In9  1  0.750132  0.499974  0.000062  1
  In  In10  1  0.249893  0.499872  0.999920  1
  In  In11  1  0.750076  0.999916  0.499958  1
  Ni  Ni12  1  0.732461  0.373941  0.373629  1
  Ni  Ni13  1  0.267507  0.626231  0.626185  1
  Ni  Ni14  1  0.732439  0.625926  0.626311  1
  Ni  Ni15  1  0.267670  0.373876  0.373713  1
  Ni  Ni16  1  0.767649  0.126159  0.873768  1
  Ni  Ni17  1  0.232141  0.873951  0.126255  1
  Ni  Ni18  1  0.232431  0.126151  0.873963  1
  Ni  Ni19  1  0.767583  0.873828  0.126291  1
