# generated using pymatgen
data_BaCu2(PO4)2
_symmetry_space_group_name_H-M   'P 1'
_cell_length_a   9.35421983
_cell_length_b   9.38852568
_cell_length_c   10.70157753
_cell_angle_alpha   106.92935908
_cell_angle_beta   101.71213653
_cell_angle_gamma   115.37064453
_symmetry_Int_Tables_number   1
_chemical_formula_structural   BaCu2(PO4)2
_chemical_formula_sum   'Ba4 Cu8 P8 O32'
_cell_volume   751.72736976
_cell_formula_units_Z   4
loop_
 _symmetry_equiv_pos_site_id
 _symmetry_equiv_pos_as_xyz
  1  'x, y, z'
loop_
 _atom_site_type_symbol
 _atom_site_label
 _atom_site_symmetry_multiplicity
 _atom_site_fract_x
 _atom_site_fract_y
 _atom_site_fract_z
 _atom_site_occupancy
  Ba  Ba0  1  0.759284  0.756362  0.002509  1
  Ba  Ba1  1  0.240716  0.243638  0.997491  1
  Ba  Ba2  1  0.735985  0.751179  0.513625  1
  Ba  Ba3  1  0.264015  0.248821  0.486375  1
  Cu  Cu4  1  0.099204  0.763243  0.292881  1
  Cu  Cu5  1  0.029770  0.687022  0.801081  1
  Cu  Cu6  1  0.363180  0.708781  0.688883  1
  Cu  Cu7  1  0.484255  0.832263  0.195922  1
  Cu  Cu8  1  0.900796  0.236757  0.707119  1
  Cu  Cu9  1  0.970230  0.312978  0.198919  1
  Cu  Cu10  1  0.515745  0.167737  0.804078  1
  Cu  Cu11  1  0.636820  0.291219  0.311117  1
  P  P12  1  0.213011  0.943757  0.134684  1
  P  P13  1  0.288726  0.570047  0.867252  1
  P  P14  1  0.195200  0.919777  0.628402  1
  P  P15  1  0.297068  0.576700  0.359513  1
  P  P16  1  0.804800  0.080223  0.371598  1
  P  P17  1  0.702932  0.423300  0.640487  1
  P  P18  1  0.711274  0.429953  0.132748  1
  P  P19  1  0.786989  0.056243  0.865316  1
  O  O20  1  0.272920  0.109491  0.743289  1
  O  O21  1  0.637822  0.872302  0.818127  1
  O  O22  1  0.865219  0.406111  0.657990  1
  O  O23  1  0.262008  0.808620  0.149297  1
  O  O24  1  0.747034  0.289276  0.161653  1
  O  O25  1  0.642042  0.098837  0.342938  1
  O  O26  1  0.357958  0.901163  0.657062  1
  O  O27  1  0.896620  0.055422  0.770664  1
  O  O28  1  0.103380  0.944578  0.229336  1
  O  O29  1  0.737992  0.191380  0.850703  1
  O  O30  1  0.908649  0.118783  0.018881  1
  O  O31  1  0.784303  0.618387  0.747643  1
  O  O32  1  0.134781  0.593889  0.342010  1
  O  O33  1  0.043772  0.781350  0.641492  1
  O  O34  1  0.091351  0.881217  0.981119  1
  O  O35  1  0.862245  0.078341  0.517151  1
  O  O36  1  0.623995  0.410039  0.491038  1
  O  O37  1  0.215697  0.381613  0.252357  1
  O  O38  1  0.559710  0.295656  0.667827  1
  O  O39  1  0.440290  0.704344  0.332173  1
  O  O40  1  0.956228  0.218650  0.358508  1
  O  O41  1  0.137755  0.921659  0.482849  1
  O  O42  1  0.350096  0.517054  0.745285  1
  O  O43  1  0.376005  0.589961  0.508962  1
  O  O44  1  0.252966  0.710724  0.838347  1
  O  O45  1  0.866923  0.581347  0.134644  1
  O  O46  1  0.649904  0.482946  0.254715  1
  O  O47  1  0.133077  0.418653  0.865356  1
  O  O48  1  0.562394  0.347732  0.989988  1
  O  O49  1  0.727080  0.890509  0.256711  1
  O  O50  1  0.437606  0.652268  0.010012  1
  O  O51  1  0.362178  0.127698  0.181873  1
