# generated using pymatgen
data_SiO2
_symmetry_space_group_name_H-M   'P 1'
_cell_length_a   14.84844469
_cell_length_b   8.71701650
_cell_length_c   19.15093033
_cell_angle_alpha   90.00000000
_cell_angle_beta   90.00000000
_cell_angle_gamma   90.00000000
_symmetry_Int_Tables_number   1
_chemical_formula_structural   SiO2
_chemical_formula_sum   'Si36 O72'
_cell_volume   2478.78414694
_cell_formula_units_Z   36
loop_
 _symmetry_equiv_pos_site_id
 _symmetry_equiv_pos_as_xyz
  1  'x, y, z'
loop_
 _atom_site_type_symbol
 _atom_site_label
 _atom_site_symmetry_multiplicity
 _atom_site_fract_x
 _atom_site_fract_y
 _atom_site_fract_z
 _atom_site_occupancy
  Si  Si0  1  0.631571  0.795659  0.648671  1
  Si  Si1  1  0.131571  0.704341  0.351329  1
  Si  Si2  1  0.368429  0.795659  0.851329  1
  Si  Si3  1  0.868429  0.704341  0.148671  1
  Si  Si4  1  0.368429  0.204341  0.351329  1
  Si  Si5  1  0.868429  0.295659  0.648671  1
  Si  Si6  1  0.631571  0.204341  0.148671  1
  Si  Si7  1  0.131571  0.295659  0.851329  1
  Si  Si8  1  0.492322  0.580431  0.601092  1
  Si  Si9  1  0.992322  0.919569  0.398908  1
  Si  Si10  1  0.507678  0.580431  0.898908  1
  Si  Si11  1  0.007678  0.919569  0.101092  1
  Si  Si12  1  0.507678  0.419569  0.398908  1
  Si  Si13  1  0.007678  0.080431  0.601092  1
  Si  Si14  1  0.492322  0.419569  0.101092  1
  Si  Si15  1  0.992322  0.080431  0.898908  1
  Si  Si16  1  0.219068  0.409475  0.410032  1
  Si  Si17  1  0.719068  0.090525  0.589968  1
  Si  Si18  1  0.780932  0.409475  0.089968  1
  Si  Si19  1  0.280932  0.090525  0.910032  1
  Si  Si20  1  0.780932  0.590525  0.589968  1
  Si  Si21  1  0.280932  0.909475  0.410032  1
  Si  Si22  1  0.219068  0.590525  0.910032  1
  Si  Si23  1  0.719068  0.909475  0.089968  1
  Si  Si24  1  0.370835  0.621101  0.474557  1
  Si  Si25  1  0.870835  0.878899  0.525443  1
  Si  Si26  1  0.629165  0.621101  0.025443  1
  Si  Si27  1  0.129165  0.878899  0.974557  1
  Si  Si28  1  0.629165  0.378899  0.525443  1
  Si  Si29  1  0.129165  0.121101  0.474557  1
  Si  Si30  1  0.370835  0.378899  0.974557  1
  Si  Si31  1  0.870835  0.121101  0.025443  1
  Si  Si32  1  0.000000  0.827982  0.250000  1
  Si  Si33  1  0.500000  0.672018  0.750000  1
  Si  Si34  1  0.000000  0.172018  0.750000  1
  Si  Si35  1  0.500000  0.327982  0.250000  1
  O  O36  1  0.559900  0.728149  0.590965  1
  O  O37  1  0.059900  0.771851  0.409035  1
  O  O38  1  0.440100  0.728149  0.909035  1
  O  O39  1  0.940100  0.771851  0.090965  1
  O  O40  1  0.440100  0.271851  0.409035  1
  O  O41  1  0.940100  0.228149  0.590965  1
  O  O42  1  0.559900  0.271851  0.090965  1
  O  O43  1  0.059900  0.228149  0.909035  1
  O  O44  1  0.400813  0.606997  0.556329  1
  O  O45  1  0.900813  0.893003  0.443671  1
  O  O46  1  0.599187  0.606997  0.943671  1
  O  O47  1  0.099187  0.893003  0.056329  1
  O  O48  1  0.599187  0.393003  0.443671  1
  O  O49  1  0.099187  0.106997  0.556329  1
  O  O50  1  0.400813  0.393003  0.056329  1
  O  O51  1  0.900813  0.106997  0.943671  1
  O  O52  1  0.286481  0.506420  0.460390  1
  O  O53  1  0.786481  0.993580  0.539610  1
  O  O54  1  0.713519  0.506420  0.039610  1
  O  O55  1  0.213519  0.993580  0.960390  1
  O  O56  1  0.713519  0.493580  0.539610  1
  O  O57  1  0.213519  0.006420  0.460390  1
  O  O58  1  0.286481  0.493580  0.960390  1
  O  O59  1  0.786481  0.006420  0.039610  1
  O  O60  1  0.276589  0.307540  0.353919  1
  O  O61  1  0.776589  0.192460  0.646081  1
  O  O62  1  0.723411  0.307540  0.146081  1
  O  O63  1  0.223411  0.192460  0.853919  1
  O  O64  1  0.723411  0.692460  0.646081  1
  O  O65  1  0.223411  0.807540  0.353919  1
  O  O66  1  0.276589  0.692460  0.853919  1
  O  O67  1  0.776589  0.807540  0.146081  1
  O  O68  1  0.584702  0.779773  0.725651  1
  O  O69  1  0.084702  0.720227  0.274349  1
  O  O70  1  0.415298  0.779773  0.774349  1
  O  O71  1  0.915298  0.720227  0.225651  1
  O  O72  1  0.415298  0.220227  0.274349  1
  O  O73  1  0.915298  0.279773  0.725651  1
  O  O74  1  0.584702  0.220227  0.225651  1
  O  O75  1  0.084702  0.279773  0.774349  1
  O  O76  1  0.468794  0.564449  0.684296  1
  O  O77  1  0.968794  0.935551  0.315704  1
  O  O78  1  0.531206  0.564449  0.815704  1
  O  O79  1  0.031206  0.935551  0.184296  1
  O  O80  1  0.531206  0.435551  0.315704  1
  O  O81  1  0.031206  0.064449  0.684296  1
  O  O82  1  0.468794  0.435551  0.184296  1
  O  O83  1  0.968794  0.064449  0.815704  1
  O  O84  1  0.456128  0.574592  0.424764  1
  O  O85  1  0.956128  0.925408  0.575236  1
  O  O86  1  0.543872  0.574592  0.075236  1
  O  O87  1  0.043872  0.925408  0.924764  1
  O  O88  1  0.543872  0.425408  0.575236  1
  O  O89  1  0.043872  0.074592  0.424764  1
  O  O90  1  0.456128  0.425408  0.924764  1
  O  O91  1  0.956128  0.074592  0.075236  1
  O  O92  1  0.653505  0.973856  0.632615  1
  O  O93  1  0.153505  0.526144  0.367385  1
  O  O94  1  0.346495  0.973856  0.867385  1
  O  O95  1  0.846495  0.526144  0.132615  1
  O  O96  1  0.346495  0.026144  0.367385  1
  O  O97  1  0.846495  0.473856  0.632615  1
  O  O98  1  0.653505  0.026144  0.132615  1
  O  O99  1  0.153505  0.473856  0.867385  1
  O  O100  1  0.157847  0.296978  0.458175  1
  O  O101  1  0.657847  0.203022  0.541825  1
  O  O102  1  0.842153  0.296978  0.041825  1
  O  O103  1  0.342153  0.203022  0.958175  1
  O  O104  1  0.842153  0.703022  0.541825  1
  O  O105  1  0.342153  0.796978  0.458175  1
  O  O106  1  0.157847  0.703022  0.958175  1
  O  O107  1  0.657847  0.796978  0.041825  1
