# generated using pymatgen
data_SiO2
_symmetry_space_group_name_H-M   'P 1'
_cell_length_a   7.45868307
_cell_length_b   9.66338017
_cell_length_c   16.39502868
_cell_angle_alpha   72.95580907
_cell_angle_beta   89.49072449
_cell_angle_gamma   88.38626935
_symmetry_Int_Tables_number   1
_chemical_formula_structural   SiO2
_chemical_formula_sum   'Si22 O44'
_cell_volume   1129.34021546
_cell_formula_units_Z   22
loop_
 _symmetry_equiv_pos_site_id
 _symmetry_equiv_pos_as_xyz
  1  'x, y, z'
loop_
 _atom_site_type_symbol
 _atom_site_label
 _atom_site_symmetry_multiplicity
 _atom_site_fract_x
 _atom_site_fract_y
 _atom_site_fract_z
 _atom_site_occupancy
  Si  Si0  1  0.364440  0.926094  0.901721  1
  Si  Si1  1  0.998698  0.083003  0.835177  1
  Si  Si2  1  0.834823  0.958749  0.693414  1
  Si  Si3  1  0.520257  0.461448  0.756800  1
  Si  Si4  1  0.712904  0.237008  0.541121  1
  Si  Si5  1  0.283367  0.224326  0.541727  1
  Si  Si6  1  0.713633  0.777896  0.458552  1
  Si  Si7  1  0.475778  0.782332  0.756239  1
  Si  Si8  1  0.181423  0.497574  0.394874  1
  Si  Si9  1  0.812679  0.503389  0.605085  1
  Si  Si10  1  0.816132  0.107318  0.394999  1
  Si  Si11  1  0.366185  0.827682  0.097552  1
  Si  Si12  1  0.835445  0.652443  0.306123  1
  Si  Si13  1  0.633649  0.073905  0.097895  1
  Si  Si14  1  0.524241  0.217853  0.243493  1
  Si  Si15  1  0.632838  0.171654  0.901893  1
  Si  Si16  1  0.160467  0.350024  0.694202  1
  Si  Si17  1  0.183039  0.893665  0.604953  1
  Si  Si18  1  0.165136  0.041253  0.305964  1
  Si  Si19  1  0.475408  0.539151  0.243457  1
  Si  Si20  1  0.000456  0.917450  0.164388  1
  Si  Si21  1  0.284370  0.763861  0.458006  1
  O  O22  1  0.498671  0.392577  0.215197  1
  O  O23  1  0.498511  0.938118  0.124520  1
  O  O24  1  0.921774  0.765768  0.223094  1
  O  O25  1  0.773532  0.392979  0.548911  1
  O  O26  1  0.157516  0.986413  0.894334  1
  O  O27  1  0.334626  0.835092  0.678042  1
  O  O28  1  0.075101  0.235758  0.777127  1
  O  O29  1  0.499942  0.607584  0.785850  1
  O  O30  1  0.666278  0.576660  0.277595  1
  O  O31  1  0.188546  0.794131  0.540477  1
  O  O32  1  0.185526  0.333151  0.458359  1
  O  O33  1  0.840512  0.119781  0.894983  1
  O  O34  1  0.592722  0.332610  0.838543  1
  O  O35  1  0.984497  0.880720  0.647871  1
  O  O36  1  0.157718  0.876929  0.105369  1
  O  O37  1  0.081989  0.012267  0.221601  1
  O  O38  1  0.010343  0.472456  0.648629  1
  O  O39  1  0.333512  0.146593  0.278418  1
  O  O40  1  0.983022  0.528232  0.352109  1
  O  O41  1  0.499643  0.061394  0.875365  1
  O  O42  1  0.773478  0.742068  0.371569  1
  O  O43  1  0.921245  0.989563  0.776434  1
  O  O44  1  0.221865  0.608351  0.450546  1
  O  O45  1  0.227789  0.261996  0.628717  1
  O  O46  1  0.497984  0.237722  0.528596  1
  O  O47  1  0.661334  0.484501  0.678620  1
  O  O48  1  0.595637  0.173180  0.160645  1
  O  O49  1  0.809748  0.209343  0.458030  1
  O  O50  1  0.771833  0.941983  0.451149  1
  O  O51  1  0.499183  0.761964  0.470408  1
  O  O52  1  0.595460  0.171637  -0.000012  1
  O  O53  1  0.222919  0.060413  0.550287  1
  O  O54  1  0.326680  0.427005  0.724202  1
  O  O55  1  0.667690  0.852391  0.723264  1
  O  O56  1  0.768812  0.112640  0.628143  1
  O  O57  1  0.808701  0.668472  0.542407  1
  O  O58  1  0.015187  0.116895  0.352554  1
  O  O59  1  0.669795  0.165542  0.319697  1
  O  O60  1  0.330670  0.516323  0.320232  1
  O  O61  1  0.407003  0.666009  0.159919  1
  O  O62  1  0.403782  0.828134  0.999485  1
  O  O63  1  0.401195  0.827697  0.838320  1
  O  O64  1  0.229772  0.886067  0.370101  1
  O  O65  1  0.841018  0.013883  0.105624  1
