# generated using pymatgen
data_InBi37Br48
_symmetry_space_group_name_H-M   'P 1'
_cell_length_a   22.91885571
_cell_length_b   22.91885591
_cell_length_c   13.38790990
_cell_angle_alpha   90.00000000
_cell_angle_beta   90.00000000
_cell_angle_gamma   119.99999973
_symmetry_Int_Tables_number   1
_chemical_formula_structural   InBi37Br48
_chemical_formula_sum   'In2 Bi74 Br96'
_cell_volume   6090.16807544
_cell_formula_units_Z   2
loop_
 _symmetry_equiv_pos_site_id
 _symmetry_equiv_pos_as_xyz
  1  'x, y, z'
loop_
 _atom_site_type_symbol
 _atom_site_label
 _atom_site_symmetry_multiplicity
 _atom_site_fract_x
 _atom_site_fract_y
 _atom_site_fract_z
 _atom_site_occupancy
  In  In0  1  0.666667  0.333333  0.988405  1
  In  In1  1  0.333333  0.666667  0.488405  1
  Bi  Bi2  1  0.692740  0.193038  0.768284  1
  Bi  Bi3  1  0.259519  0.242610  0.715209  1
  Bi  Bi4  1  0.762118  0.563303  0.585553  1
  Bi  Bi5  1  0.716649  0.886023  0.198276  1
  Bi  Bi6  1  0.478019  0.193610  0.194979  1
  Bi  Bi7  1  0.198815  0.762118  0.085553  1
  Bi  Bi8  1  0.499702  0.692740  0.268284  1
  Bi  Bi9  1  0.715591  0.521981  0.194979  1
  Bi  Bi10  1  0.882207  0.670696  0.896111  1
  Bi  Bi11  1  0.113977  0.830627  0.198276  1
  Bi  Bi12  1  0.734577  0.582968  0.817067  1
  Bi  Bi13  1  0.983092  0.740481  0.715209  1
  Bi  Bi14  1  0.446351  0.407512  0.164852  1
  Bi  Bi15  1  0.592488  0.038839  0.164852  1
  Bi  Bi16  1  0.169373  0.283351  0.198276  1
  Bi  Bi17  1  0.242610  0.983092  0.215209  1
  Bi  Bi18  1  0.397438  0.359124  0.798994  1
  Bi  Bi19  1  0.961686  0.602562  0.798994  1
  Bi  Bi20  1  0.801185  0.237882  0.585553  1
  Bi  Bi21  1  0.956661  0.872170  0.055893  1
  Bi  Bi22  1  0.417032  0.151609  0.817067  1
  Bi  Bi23  1  0.359124  0.961686  0.298994  1
  Bi  Bi24  1  0.127830  0.084491  0.055893  1
  Bi  Bi25  1  0.563303  0.801185  0.085553  1
  Bi  Bi26  1  0.307260  0.806962  0.268284  1
  Bi  Bi27  1  0.265423  0.417032  0.317067  1
  Bi  Bi28  1  0.582968  0.848391  0.317067  1
  Bi  Bi29  1  0.806962  0.499702  0.768284  1
  Bi  Bi30  1  0.786241  0.098118  0.514063  1
  Bi  Bi31  1  0.961161  0.553649  0.164852  1
  Bi  Bi32  1  0.193610  0.715591  0.694979  1
  Bi  Bi33  1  0.407512  0.961161  0.664852  1
  Bi  Bi34  1  0.848391  0.265423  0.817067  1
  Bi  Bi35  1  0.237882  0.436697  0.085553  1
  Bi  Bi36  1  0.886023  0.169373  0.698276  1
  Bi  Bi37  1  0.757390  0.016908  0.715209  1
  Bi  Bi38  1  0.640876  0.038314  0.798994  1
  Bi  Bi39  1  0.830627  0.716649  0.698276  1
  Bi  Bi40  1  0.038839  0.446351  0.664852  1
  Bi  Bi41  1  0.284409  0.478019  0.694979  1
  Bi  Bi42  1  0.654089  0.096103  0.581561  1
  Bi  Bi43  1  0.084491  0.956661  0.555893  1
  Bi  Bi44  1  0.311878  0.213759  0.514063  1
  Bi  Bi45  1  0.602562  0.640876  0.298994  1
  Bi  Bi46  1  0.872170  0.915509  0.555893  1
  Bi  Bi47  1  0.740481  0.757390  0.215209  1
  Bi  Bi48  1  0.670696  0.788490  0.396111  1
  Bi  Bi49  1  0.553649  0.592488  0.664852  1
  Bi  Bi50  1  0.666667  0.333333  0.438441  1
  Bi  Bi51  1  0.333333  0.666667  0.938441  1
  Bi  Bi52  1  0.688122  0.786241  0.014063  1
  Bi  Bi53  1  0.436697  0.198815  0.585553  1
  Bi  Bi54  1  0.903897  0.557986  0.581561  1
  Bi  Bi55  1  0.329304  0.211510  0.896111  1
  Bi  Bi56  1  0.806390  0.284409  0.194979  1
  Bi  Bi57  1  0.345911  0.903897  0.081561  1
  Bi  Bi58  1  0.211510  0.882207  0.396111  1
  Bi  Bi59  1  0.151609  0.734577  0.317067  1
  Bi  Bi60  1  0.442014  0.345911  0.581561  1
  Bi  Bi61  1  0.521981  0.806390  0.694979  1
  Bi  Bi62  1  0.016908  0.259519  0.215209  1
  Bi  Bi63  1  0.117793  0.329304  0.396111  1
  Bi  Bi64  1  0.193038  0.500298  0.268284  1
  Bi  Bi65  1  0.915509  0.043339  0.055893  1
  Bi  Bi66  1  0.557986  0.654089  0.081561  1
  Bi  Bi67  1  0.098118  0.311878  0.014063  1
  Bi  Bi68  1  0.500298  0.307260  0.768284  1
  Bi  Bi69  1  0.043339  0.127830  0.555893  1
  Bi  Bi70  1  0.213759  0.901882  0.014063  1
  Bi  Bi71  1  0.096103  0.442014  0.081561  1
  Bi  Bi72  1  0.901882  0.688122  0.514063  1
  Bi  Bi73  1  0.038314  0.397438  0.298994  1
  Bi  Bi74  1  0.283351  0.113977  0.698276  1
  Bi  Bi75  1  0.788490  0.117793  0.896111  1
  Br  Br76  1  0.921110  0.765295  0.176937  1
  Br  Br77  1  0.159673  0.199040  0.942229  1
  Br  Br78  1  0.427351  0.511619  0.238183  1
  Br  Br79  1  0.710755  0.613933  0.060682  1
  Br  Br80  1  0.766695  0.630784  0.321640  1
  Br  Br81  1  0.476870  0.707640  0.863302  1
  Br  Br82  1  0.589162  0.221872  0.559757  1
  Br  Br83  1  0.488589  0.511159  0.504824  1
  Br  Br84  1  0.488841  0.977430  0.504824  1
  Br  Br85  1  0.765295  0.844185  0.676937  1
  Br  Br86  1  0.478179  0.892815  0.778427  1
  Br  Br87  1  0.973954  0.327796  0.552442  1
  Br  Br88  1  0.203925  0.043996  0.935395  1
  Br  Br89  1  0.022570  0.511411  0.504824  1
  Br  Br90  1  0.977430  0.488589  0.004824  1
  Br  Br91  1  0.043996  0.840071  0.435395  1
  Br  Br92  1  0.333333  0.666667  0.689174  1
  Br  Br93  1  0.199040  0.039368  0.442229  1
  Br  Br94  1  0.796075  0.956004  0.435395  1
  Br  Br95  1  0.369216  0.135910  0.321640  1
  Br  Br96  1  0.000000  0.000000  0.428816  1
  Br  Br97  1  0.159929  0.203925  0.435395  1
  Br  Br98  1  0.666667  0.333333  0.189174  1
  Br  Br99  1  0.613933  0.903178  0.560682  1
  Br  Br100  1  0.026046  0.672204  0.052442  1
  Br  Br101  1  0.800960  0.960632  0.942229  1
  Br  Br102  1  0.233305  0.369216  0.821640  1
  Br  Br103  1  0.329016  0.972955  0.835900  1
  Br  Br104  1  0.709437  0.164813  0.076942  1
  Br  Br105  1  0.155815  0.921110  0.676937  1
  Br  Br106  1  0.956004  0.159929  0.935395  1
  Br  Br107  1  0.076900  0.959384  0.184340  1
  Br  Br108  1  0.778128  0.367290  0.559757  1
  Br  Br109  1  0.672204  0.646158  0.552442  1
  Br  Br110  1  0.923100  0.040616  0.684340  1
  Br  Br111  1  0.835187  0.544625  0.076942  1
  Br  Br112  1  0.892815  0.414636  0.278427  1
  Br  Br113  1  0.972955  0.643939  0.335900  1
  Br  Br114  1  0.117516  0.076900  0.684340  1
  Br  Br115  1  0.367290  0.589162  0.059757  1
  Br  Br116  1  0.386067  0.096822  0.060682  1
  Br  Br117  1  0.960632  0.159673  0.442229  1
  Br  Br118  1  0.646158  0.973954  0.052442  1
  Br  Br119  1  0.084267  0.572649  0.238183  1
  Br  Br120  1  0.632710  0.410838  0.559757  1
  Br  Br121  1  0.915733  0.427351  0.738183  1
  Br  Br122  1  0.840071  0.796075  0.935395  1
  Br  Br123  1  0.434896  0.789551  0.488802  1
  Br  Br124  1  0.643939  0.670984  0.835900  1
  Br  Br125  1  0.840327  0.800960  0.442229  1
  Br  Br126  1  0.078890  0.234705  0.676937  1
  Br  Br127  1  0.039368  0.840327  0.942229  1
  Br  Br128  1  0.000000  0.000000  0.928816  1
  Br  Br129  1  0.523130  0.292360  0.363302  1
  Br  Br130  1  0.135910  0.766695  0.821640  1
  Br  Br131  1  0.670984  0.027045  0.335900  1
  Br  Br132  1  0.769231  0.476870  0.363302  1
  Br  Br133  1  0.327796  0.353842  0.052442  1
  Br  Br134  1  0.565104  0.210449  0.988802  1
  Br  Br135  1  0.455375  0.290563  0.076942  1
  Br  Br136  1  0.210449  0.645345  0.488802  1
  Br  Br137  1  0.164813  0.455375  0.576942  1
  Br  Br138  1  0.864090  0.233305  0.321640  1
  Br  Br139  1  0.290563  0.835187  0.576942  1
  Br  Br140  1  0.572649  0.488381  0.738183  1
  Br  Br141  1  0.511619  0.084267  0.738183  1
  Br  Br142  1  0.096822  0.710755  0.560682  1
  Br  Br143  1  0.511411  0.488841  0.004824  1
  Br  Br144  1  0.410838  0.778128  0.059757  1
  Br  Br145  1  0.356061  0.329016  0.335900  1
  Br  Br146  1  0.234705  0.155815  0.176937  1
  Br  Br147  1  0.544625  0.709437  0.576942  1
  Br  Br148  1  0.903178  0.289245  0.060682  1
  Br  Br149  1  0.666667  0.333333  0.787943  1
  Br  Br150  1  0.292360  0.769231  0.863302  1
  Br  Br151  1  0.354655  0.565104  0.488802  1
  Br  Br152  1  0.289245  0.386067  0.560682  1
  Br  Br153  1  0.707640  0.230769  0.363302  1
  Br  Br154  1  0.414636  0.521821  0.778427  1
  Br  Br155  1  0.488381  0.915733  0.238183  1
  Br  Br156  1  0.221872  0.632710  0.059757  1
  Br  Br157  1  0.585364  0.478179  0.278427  1
  Br  Br158  1  0.645345  0.434896  0.988802  1
  Br  Br159  1  0.333333  0.666667  0.287943  1
  Br  Br160  1  0.027045  0.356061  0.835900  1
  Br  Br161  1  0.511159  0.022570  0.004824  1
  Br  Br162  1  0.521821  0.107185  0.278427  1
  Br  Br163  1  0.844185  0.078890  0.176937  1
  Br  Br164  1  0.630784  0.864090  0.821640  1
  Br  Br165  1  0.107185  0.585364  0.778427  1
  Br  Br166  1  0.230769  0.523130  0.863302  1
  Br  Br167  1  0.789551  0.354655  0.988802  1
  Br  Br168  1  0.959384  0.882484  0.684340  1
  Br  Br169  1  0.882484  0.923100  0.184340  1
  Br  Br170  1  0.040616  0.117516  0.184340  1
  Br  Br171  1  0.353842  0.026046  0.552442  1
