# generated using pymatgen
data_Os(OF)2
_symmetry_space_group_name_H-M   'P 1'
_cell_length_a   9.13396381
_cell_length_b   8.79327288
_cell_length_c   8.68029546
_cell_angle_alpha   90.15073567
_cell_angle_beta   90.49987515
_cell_angle_gamma   90.61335036
_symmetry_Int_Tables_number   1
_chemical_formula_structural   Os(OF)2
_chemical_formula_sum   'Os8 O16 F16'
_cell_volume   697.11001104
_cell_formula_units_Z   8
loop_
 _symmetry_equiv_pos_site_id
 _symmetry_equiv_pos_as_xyz
  1  'x, y, z'
loop_
 _atom_site_type_symbol
 _atom_site_label
 _atom_site_symmetry_multiplicity
 _atom_site_fract_x
 _atom_site_fract_y
 _atom_site_fract_z
 _atom_site_occupancy
  Os  Os0  1  0.999640  0.999314  0.000053  1
  Os  Os1  1  0.999413  0.241598  0.501485  1
  Os  Os2  1  0.027984  0.747884  0.499414  1
  Os  Os3  1  0.249012  0.499910  0.009630  1
  Os  Os4  1  0.502650  0.502214  0.497353  1
  Os  Os5  1  0.500914  0.000263  0.741723  1
  Os  Os6  1  0.513003  0.002015  0.250519  1
  Os  Os7  1  0.723833  0.499962  0.999634  1
  O  O8  1  0.118700  0.138687  0.614557  1
  O  O9  1  0.132531  0.616069  0.110600  1
  O  O10  1  0.123686  0.631760  0.619070  1
  O  O11  1  0.112021  0.362459  0.393279  1
  O  O12  1  0.138115  0.386116  0.891675  1
  O  O13  1  0.122097  0.866769  0.380562  1
  O  O14  1  0.362337  0.380167  0.112447  1
  O  O15  1  0.389731  0.892084  0.139753  1
  O  O16  1  0.386722  0.878673  0.639458  1
  O  O17  1  0.609993  0.115342  0.125431  1
  O  O18  1  0.617687  0.116179  0.638091  1
  O  O19  1  0.628430  0.617226  0.117612  1
  O  O20  1  0.625930  0.383168  0.879927  1
  O  O21  1  0.607874  0.876640  0.364696  1
  O  O22  1  0.612037  0.888341  0.859981  1
  O  O23  1  0.885072  0.139188  0.379912  1
  F  F24  1  0.125226  0.122196  0.122211  1
  F  F25  1  0.123688  0.880354  0.876073  1
  F  F26  1  0.379008  0.116707  0.365919  1
  F  F27  1  0.381441  0.117252  0.869005  1
  F  F28  1  0.379819  0.377407  0.620320  1
  F  F29  1  0.373775  0.621316  0.378362  1
  F  F30  1  0.367295  0.618304  0.879587  1
  F  F31  1  0.622245  0.374026  0.378317  1
  F  F32  1  0.622127  0.621092  0.628380  1
  F  F33  1  0.885341  0.403875  0.097570  1
  F  F34  1  0.879162  0.371893  0.614895  1
  F  F35  1  0.862692  0.650896  0.405213  1
  F  F36  1  0.878142  0.122447  0.876100  1
  F  F37  1  0.876128  0.875807  0.121097  1
  F  F38  1  0.885796  0.597876  0.904235  1
  F  F39  1  0.868702  0.846522  0.595853  1
