# generated using pymatgen
data_CsAg(BH)10
_symmetry_space_group_name_H-M   'P 1'
_cell_length_a   10.05732452
_cell_length_b   10.97517750
_cell_length_c   9.27307638
_cell_angle_alpha   90.00000000
_cell_angle_beta   90.00000000
_cell_angle_gamma   90.00000000
_symmetry_Int_Tables_number   1
_chemical_formula_structural   CsAg(BH)10
_chemical_formula_sum   'Cs4 Ag4 B40 H40'
_cell_volume   1023.57071858
_cell_formula_units_Z   4
loop_
 _symmetry_equiv_pos_site_id
 _symmetry_equiv_pos_as_xyz
  1  'x, y, z'
loop_
 _atom_site_type_symbol
 _atom_site_label
 _atom_site_symmetry_multiplicity
 _atom_site_fract_x
 _atom_site_fract_y
 _atom_site_fract_z
 _atom_site_occupancy
  Cs  Cs0  1  0.821145  0.438671  0.750000  1
  Cs  Cs1  1  0.178855  0.561329  0.250000  1
  Cs  Cs2  1  0.821145  0.061329  0.250000  1
  Cs  Cs3  1  0.178855  0.938671  0.750000  1
  Ag  Ag4  1  0.489300  0.250000  0.500000  1
  Ag  Ag5  1  0.510700  0.750000  0.000000  1
  Ag  Ag6  1  0.510700  0.750000  0.500000  1
  Ag  Ag7  1  0.489300  0.250000  0.000000  1
  B  B8  1  0.431110  0.360354  0.750000  1
  B  B9  1  0.568890  0.639646  0.250000  1
  B  B10  1  0.431110  0.139646  0.250000  1
  B  B11  1  0.568890  0.860354  0.750000  1
  B  B12  1  0.430653  0.515652  0.750000  1
  B  B13  1  0.569347  0.484348  0.250000  1
  B  B14  1  0.430653  0.984348  0.250000  1
  B  B15  1  0.569347  0.015652  0.750000  1
  B  B16  1  0.345998  0.426039  0.610899  1
  B  B17  1  0.654002  0.573961  0.110899  1
  B  B18  1  0.345998  0.073961  0.389101  1
  B  B19  1  0.654002  0.926039  0.889101  1
  B  B20  1  0.654002  0.573961  0.389101  1
  B  B21  1  0.345998  0.426039  0.889101  1
  B  B22  1  0.654002  0.926039  0.610899  1
  B  B23  1  0.345998  0.073961  0.110899  1
  B  B24  1  0.261494  0.336092  0.750000  1
  B  B25  1  0.738506  0.663908  0.250000  1
  B  B26  1  0.261494  0.163908  0.250000  1
  B  B27  1  0.738506  0.836092  0.750000  1
  B  B28  1  0.293483  0.579213  0.652255  1
  B  B29  1  0.706517  0.420787  0.152255  1
  B  B30  1  0.293483  0.920787  0.347745  1
  B  B31  1  0.706517  0.079213  0.847745  1
  B  B32  1  0.706517  0.420787  0.347745  1
  B  B33  1  0.293483  0.579213  0.847745  1
  B  B34  1  0.706517  0.079213  0.652255  1
  B  B35  1  0.293483  0.920787  0.152255  1
  B  B36  1  0.173777  0.452159  0.651686  1
  B  B37  1  0.826223  0.547841  0.151686  1
  B  B38  1  0.173777  0.047841  0.348314  1
  B  B39  1  0.826223  0.952159  0.848314  1
  B  B40  1  0.826223  0.547841  0.348314  1
  B  B41  1  0.173777  0.452159  0.848314  1
  B  B42  1  0.826223  0.952159  0.651686  1
  B  B43  1  0.173777  0.047841  0.151686  1
  B  B44  1  0.150610  0.582013  0.750000  1
  B  B45  1  0.849390  0.417987  0.250000  1
  B  B46  1  0.150610  0.917987  0.250000  1
  B  B47  1  0.849390  0.082013  0.750000  1
  H  H48  1  0.527199  0.292857  0.750000  1
  H  H49  1  0.472801  0.707143  0.250000  1
  H  H50  1  0.527199  0.207143  0.250000  1
  H  H51  1  0.472801  0.792857  0.750000  1
  H  H52  1  0.533880  0.570770  0.750000  1
  H  H53  1  0.466120  0.429230  0.250000  1
  H  H54  1  0.533880  0.929230  0.250000  1
  H  H55  1  0.466120  0.070770  0.750000  1
  H  H56  1  0.369220  0.409805  0.483119  1
  H  H57  1  0.630780  0.590195  0.983119  1
  H  H58  1  0.369220  0.090195  0.516881  1
  H  H59  1  0.630780  0.909805  0.016881  1
  H  H60  1  0.630780  0.590195  0.516881  1
  H  H61  1  0.369220  0.409805  0.016881  1
  H  H62  1  0.630780  0.909805  0.483119  1
  H  H63  1  0.369220  0.090195  0.983119  1
  H  H64  1  0.217719  0.234628  0.750000  1
  H  H65  1  0.782281  0.765372  0.250000  1
  H  H66  1  0.217719  0.265372  0.250000  1
  H  H67  1  0.782281  0.734628  0.750000  1
  H  H68  1  0.314408  0.660220  0.565484  1
  H  H69  1  0.685592  0.339780  0.065484  1
  H  H70  1  0.314408  0.839780  0.434516  1
  H  H71  1  0.685592  0.160220  0.934516  1
  H  H72  1  0.685592  0.339780  0.434516  1
  H  H73  1  0.314408  0.660220  0.934516  1
  H  H74  1  0.685592  0.160220  0.565484  1
  H  H75  1  0.314408  0.839780  0.065484  1
  H  H76  1  0.091567  0.421058  0.564781  1
  H  H77  1  0.908433  0.578942  0.064781  1
  H  H78  1  0.091567  0.078942  0.435219  1
  H  H79  1  0.908433  0.921058  0.935219  1
  H  H80  1  0.908433  0.578942  0.435219  1
  H  H81  1  0.091567  0.421058  0.935219  1
  H  H82  1  0.908433  0.921058  0.564781  1
  H  H83  1  0.091567  0.078942  0.064781  1
  H  H84  1  0.058747  0.652110  0.750000  1
  H  H85  1  0.941253  0.347890  0.250000  1
  H  H86  1  0.058747  0.847890  0.250000  1
  H  H87  1  0.941253  0.152110  0.750000  1
