# generated using pymatgen
data_YTh9O20
_symmetry_space_group_name_H-M   'P 1'
_cell_length_a   7.91885025
_cell_length_b   19.81693860
_cell_length_c   10.48475334
_cell_angle_alpha   19.08557118
_cell_angle_beta   55.46291161
_cell_angle_gamma   59.96836118
_symmetry_Int_Tables_number   1
_chemical_formula_structural   YTh9O20
_chemical_formula_sum   'Y1 Th9 O20'
_cell_volume   439.35635816
_cell_formula_units_Z   1
loop_
 _symmetry_equiv_pos_site_id
 _symmetry_equiv_pos_as_xyz
  1  'x, y, z'
loop_
 _atom_site_type_symbol
 _atom_site_label
 _atom_site_symmetry_multiplicity
 _atom_site_fract_x
 _atom_site_fract_y
 _atom_site_fract_z
 _atom_site_occupancy
  Y  Y0  1  0.000000  0.000000  0.000000  1
  Th  Th1  1  0.000094  0.199339  0.999502  1
  Th  Th2  1  0.500000  0.000000  0.000000  1
  Th  Th3  1  0.999799  0.400932  0.000074  1
  Th  Th4  1  0.502338  0.199297  0.999460  1
  Th  Th5  1  0.000201  0.599068  -0.000074  1
  Th  Th6  1  0.497767  0.398225  0.004621  1
  Th  Th7  1  0.999906  0.800661  0.000498  1
  Th  Th8  1  0.502233  0.601775  0.995379  1
  Th  Th9  1  0.497662  0.800703  0.000540  1
  O  O10  1  0.125294  0.149947  0.249860  1
  O  O11  1  0.125425  0.350281  0.249189  1
  O  O12  1  0.624847  0.149837  0.250254  1
  O  O13  1  0.375500  0.050045  0.749703  1
  O  O14  1  0.125257  0.550141  0.249757  1
  O  O15  1  0.624717  0.350268  0.249643  1
  O  O16  1  0.375099  0.250309  0.749465  1
  O  O17  1  0.125246  0.749807  0.250003  1
  O  O18  1  0.874796  0.049999  0.749755  1
  O  O19  1  0.125204  0.950001  0.250245  1
  O  O20  1  0.624638  0.550195  0.249872  1
  O  O21  1  0.375362  0.449805  0.750128  1
  O  O22  1  0.874754  0.250193  0.749997  1
  O  O23  1  0.375283  0.649732  0.750357  1
  O  O24  1  0.624901  0.749691  0.250535  1
  O  O25  1  0.624500  0.949955  0.250297  1
  O  O26  1  0.874743  0.449859  0.750243  1
  O  O27  1  0.375153  0.850163  0.749746  1
  O  O28  1  0.874575  0.649719  0.750811  1
  O  O29  1  0.874706  0.850053  0.750140  1
