# generated using pymatgen
data_TlCr(MoO4)2
_symmetry_space_group_name_H-M   'P 1'
_cell_length_a   5.73648592
_cell_length_b   9.04914749
_cell_length_c   15.09713994
_cell_angle_alpha   89.98847419
_cell_angle_beta   90.00009259
_cell_angle_gamma   89.99985114
_symmetry_Int_Tables_number   1
_chemical_formula_structural   TlCr(MoO4)2
_chemical_formula_sum   'Tl4 Cr4 Mo8 O32'
_cell_volume   783.69715571
_cell_formula_units_Z   4
loop_
 _symmetry_equiv_pos_site_id
 _symmetry_equiv_pos_as_xyz
  1  'x, y, z'
loop_
 _atom_site_type_symbol
 _atom_site_label
 _atom_site_symmetry_multiplicity
 _atom_site_fract_x
 _atom_site_fract_y
 _atom_site_fract_z
 _atom_site_occupancy
  Tl  Tl0  1  0.250000  0.059353  0.382898  1
  Tl  Tl1  1  0.250002  0.440605  0.882754  1
  Tl  Tl2  1  0.750005  0.940670  0.617226  1
  Tl  Tl3  1  0.749997  0.559451  0.117091  1
  Cr  Cr4  1  0.250004  0.321711  0.621088  1
  Cr  Cr5  1  0.749993  0.821766  0.878946  1
  Cr  Cr6  1  0.749977  0.678303  0.378889  1
  Cr  Cr7  1  0.250008  0.178273  0.121189  1
  Mo  Mo8  1  0.749999  0.204752  0.970705  1
  Mo  Mo9  1  0.249999  0.487420  0.279684  1
  Mo  Mo10  1  0.249997  0.704683  0.529334  1
  Mo  Mo11  1  0.750003  0.512610  0.720338  1
  Mo  Mo12  1  0.750007  0.295227  0.470572  1
  Mo  Mo13  1  0.249997  0.795362  0.029322  1
  Mo  Mo14  1  0.249998  0.012633  0.779723  1
  Mo  Mo15  1  0.750000  0.987353  0.220275  1
  O  O16  1  0.488091  0.401232  0.707213  1
  O  O17  1  0.488158  0.098787  0.207225  1
  O  O18  1  0.504126  0.747551  0.963543  1
  O  O19  1  0.750004  0.620698  0.821737  1
  O  O20  1  0.995877  0.747553  0.963541  1
  O  O21  1  0.249999  0.140979  0.865806  1
  O  O22  1  0.011918  0.401232  0.707212  1
  O  O23  1  0.249997  0.986554  0.058714  1
  O  O24  1  0.988281  0.901104  0.792901  1
  O  O25  1  0.250005  0.120643  0.678278  1
  O  O26  1  0.004126  0.247466  0.536392  1
  O  O27  1  0.995940  0.752603  0.463532  1
  O  O28  1  0.750003  0.486487  0.441270  1
  O  O29  1  0.249999  0.818973  0.623989  1
  O  O30  1  0.749997  0.858986  0.134180  1
  O  O31  1  0.750005  0.640941  0.634213  1
  O  O32  1  0.749994  0.879318  0.321699  1
  O  O33  1  0.750003  0.180967  0.375902  1
  O  O34  1  0.250001  0.680796  0.123883  1
  O  O35  1  0.250004  0.513401  0.558616  1
  O  O36  1  0.511721  0.901103  0.792900  1
  O  O37  1  0.249999  0.359046  0.365798  1
  O  O38  1  0.749995  0.319163  0.876059  1
  O  O39  1  0.495863  0.252370  0.036505  1
  O  O40  1  0.750000  0.013522  0.941371  1
  O  O41  1  0.988193  0.598884  0.292777  1
  O  O42  1  0.250000  0.379357  0.178275  1
  O  O43  1  0.004125  0.252372  0.036507  1
  O  O44  1  0.011836  0.098789  0.207226  1
  O  O45  1  0.511808  0.598882  0.292777  1
  O  O46  1  0.504058  0.752603  0.463532  1
  O  O47  1  0.495891  0.247464  0.536394  1
