# generated using pymatgen
data_Be(GaO2)2
_symmetry_space_group_name_H-M   'P 1'
_cell_length_a   5.88376557
_cell_length_b   12.17599884
_cell_length_c   5.14158673
_cell_angle_alpha   89.02819100
_cell_angle_beta   90.14673243
_cell_angle_gamma   118.80413634
_symmetry_Int_Tables_number   1
_chemical_formula_structural   Be(GaO2)2
_chemical_formula_sum   'Be4 Ga8 O16'
_cell_volume   322.71907071
_cell_formula_units_Z   4
loop_
 _symmetry_equiv_pos_site_id
 _symmetry_equiv_pos_as_xyz
  1  'x, y, z'
loop_
 _atom_site_type_symbol
 _atom_site_label
 _atom_site_symmetry_multiplicity
 _atom_site_fract_x
 _atom_site_fract_y
 _atom_site_fract_z
 _atom_site_occupancy
  Be  Be0  1  0.680299  0.910595  0.829007  1
  Be  Be1  1  0.162706  0.421466  0.826760  1
  Be  Be2  1  0.854711  0.587164  0.170000  1
  Be  Be3  1  0.319777  0.082056  0.173440  1
  Ga  Ga4  1  0.213943  0.937328  0.682405  1
  Ga  Ga5  1  0.164792  0.670405  0.675107  1
  Ga  Ga6  1  0.340529  0.567307  0.318146  1
  Ga  Ga7  1  0.134656  0.171229  0.833992  1
  Ga  Ga8  1  0.832491  0.829978  0.325304  1
  Ga  Ga9  1  0.658015  0.425096  0.669470  1
  Ga  Ga10  1  0.802690  0.329487  0.166802  1
  Ga  Ga11  1  0.800529  0.071355  0.329182  1
  O  O12  1  0.195174  0.945610  0.313724  1
  O  O13  1  0.146257  0.656386  0.302103  1
  O  O14  1  0.368231  0.837793  0.750934  1
  O  O15  1  0.304850  0.557949  0.686684  1
  O  O16  1  0.168156  0.420107  0.149899  1
  O  O17  1  0.694178  0.919015  0.151628  1
  O  O18  1  0.141120  0.157638  0.203053  1
  O  O19  1  0.300172  0.337991  0.730705  1
  O  O20  1  0.693904  0.662219  0.250615  1
  O  O21  1  0.841087  0.845261  0.697164  1
  O  O22  1  0.325791  0.083487  0.851238  1
  O  O23  1  0.849777  0.578396  0.846958  1
  O  O24  1  0.702504  0.440985  0.306231  1
  O  O25  1  0.624729  0.162938  0.269454  1
  O  O26  1  0.833426  0.342209  0.797441  1
  O  O27  1  0.813479  0.057345  0.693309  1
