# generated using pymatgen
data_CdSi3PH27C9Br2
_symmetry_space_group_name_H-M   'P 1'
_cell_length_a   12.54605835
_cell_length_b   13.14947022
_cell_length_c   13.80121654
_cell_angle_alpha   90.00000000
_cell_angle_beta   90.00000000
_cell_angle_gamma   97.59966228
_symmetry_Int_Tables_number   1
_chemical_formula_structural   CdSi3PH27C9Br2
_chemical_formula_sum   'Cd4 Si12 P4 H108 C36 Br8'
_cell_volume   2256.84312807
_cell_formula_units_Z   4
loop_
 _symmetry_equiv_pos_site_id
 _symmetry_equiv_pos_as_xyz
  1  'x, y, z'
loop_
 _atom_site_type_symbol
 _atom_site_label
 _atom_site_symmetry_multiplicity
 _atom_site_fract_x
 _atom_site_fract_y
 _atom_site_fract_z
 _atom_site_occupancy
  Cd  Cd0  1  0.967441  0.355951  0.010312  1
  Cd  Cd1  1  0.032559  0.644049  0.989688  1
  Cd  Cd2  1  0.532559  0.644049  0.510312  1
  Cd  Cd3  1  0.467441  0.355951  0.489688  1
  Si  Si4  1  0.202889  0.909160  0.042131  1
  Si  Si5  1  0.830415  0.670845  0.385999  1
  Si  Si6  1  0.705373  0.261134  0.153599  1
  Si  Si7  1  0.169585  0.329155  0.614001  1
  Si  Si8  1  0.205373  0.261134  0.346401  1
  Si  Si9  1  0.702889  0.909160  0.457869  1
  Si  Si10  1  0.330415  0.670845  0.114001  1
  Si  Si11  1  0.294627  0.738866  0.846401  1
  Si  Si12  1  0.794627  0.738866  0.653599  1
  Si  Si13  1  0.797111  0.090840  0.957869  1
  Si  Si14  1  0.297111  0.090840  0.542131  1
  Si  Si15  1  0.669585  0.329155  0.885999  1
  P  P16  1  0.224525  0.742011  0.001681  1
  P  P17  1  0.724525  0.742011  0.498319  1
  P  P18  1  0.275475  0.257989  0.501681  1
  P  P19  1  0.775475  0.257989  0.998319  1
  H  H20  1  0.466159  0.151597  0.632311  1
  H  H21  1  0.822942  0.059964  0.394307  1
  H  H22  1  0.280375  0.548686  0.834738  1
  H  H23  1  0.238591  0.489705  0.117207  1
  H  H24  1  0.385335  0.609518  0.759447  1
  H  H25  1  0.406155  0.601673  0.886356  1
  H  H26  1  0.261409  0.510295  0.617207  1
  H  H27  1  0.502485  0.712332  0.022657  1
  H  H28  1  0.013011  0.189024  0.607816  1
  H  H29  1  0.129320  0.056091  0.639915  1
  H  H30  1  0.473216  0.306955  0.852373  1
  H  H31  1  0.921557  0.019842  0.844100  1
  H  H32  1  0.119943  0.504843  0.632411  1
  H  H33  1  0.885335  0.609518  0.740553  1
  H  H34  1  0.719625  0.451314  0.165262  1
  H  H35  1  0.370680  0.943909  0.139915  1
  H  H36  1  0.194179  0.672333  0.245561  1
  H  H37  1  0.845752  0.171595  0.231484  1
  H  H38  1  0.780375  0.548686  0.665262  1
  H  H39  1  0.214792  0.211456  0.745756  1
  H  H40  1  0.198735  0.956614  0.868109  1
  H  H41  1  0.389865  0.305512  0.278727  1
  H  H42  1  0.674209  0.324939  0.705544  1
  H  H43  1  0.906155  0.601673  0.613644  1
  H  H44  1  0.677058  0.940036  0.894307  1
  H  H45  1  0.143788  0.884269  0.213221  1
  H  H46  1  0.305821  0.327667  0.745561  1
  H  H47  1  0.593845  0.398327  0.113644  1
  H  H48  1  0.204206  0.741034  0.686875  1
  H  H49  1  0.623209  0.077578  0.157594  1
  H  H50  1  0.059861  0.152418  0.258012  1
  H  H51  1  0.889865  0.305512  0.221273  1
  H  H52  1  0.940139  0.847582  0.741988  1
  H  H53  1  0.325366  0.510743  0.015546  1
  H  H54  1  0.497515  0.287668  0.977343  1
  H  H55  1  0.795794  0.258966  0.313125  1
  H  H56  1  0.285208  0.788544  0.245756  1
  H  H57  1  0.356212  0.115731  0.713221  1
  H  H58  1  0.440139  0.847582  0.758012  1
  H  H59  1  0.880057  0.495157  0.367589  1
  H  H60  1  0.174209  0.324939  0.794456  1
  H  H61  1  0.421557  0.019842  0.655900  1
  H  H62  1  0.785208  0.788544  0.254244  1
  H  H63  1  0.971191  0.842362  0.616273  1
  H  H64  1  0.578443  0.980158  0.344100  1
  H  H65  1  0.154248  0.828405  0.768517  1
  H  H66  1  0.433931  0.065332  0.417788  1
  H  H67  1  0.714792  0.211456  0.754244  1
  H  H68  1  0.348384  0.948485  0.443078  1
  H  H69  1  0.002485  0.712332  0.477343  1
  H  H70  1  0.345752  0.171595  0.268516  1
  H  H71  1  0.151616  0.051515  0.943078  1
  H  H72  1  0.325791  0.675061  0.294456  1
  H  H73  1  0.322942  0.059964  0.105693  1
  H  H74  1  0.610135  0.694488  0.721273  1
  H  H75  1  0.856212  0.115731  0.786779  1
  H  H76  1  0.876791  0.922422  0.657594  1
  H  H77  1  0.607337  0.007691  0.980138  1
  H  H78  1  0.870680  0.943909  0.360085  1
  H  H79  1  0.629320  0.056091  0.860085  1
  H  H80  1  0.486989  0.810976  0.107816  1
  H  H81  1  0.986989  0.810976  0.392184  1
  H  H82  1  0.028809  0.157638  0.383727  1
  H  H83  1  0.301265  0.043386  0.368109  1
  H  H84  1  0.528809  0.157638  0.116273  1
  H  H85  1  0.295794  0.258966  0.186875  1
  H  H86  1  0.761409  0.510295  0.882793  1
  H  H87  1  0.533841  0.848403  0.367689  1
  H  H88  1  0.805821  0.327667  0.754439  1
  H  H89  1  0.614665  0.390482  0.240553  1
  H  H90  1  0.107337  0.007691  0.519862  1
  H  H91  1  0.825366  0.510743  0.484454  1
  H  H92  1  0.114665  0.390482  0.259447  1
  H  H93  1  0.801265  0.043386  0.131891  1
  H  H94  1  0.654248  0.828405  0.731483  1
  H  H95  1  0.093845  0.398327  0.386356  1
  H  H96  1  0.392663  0.992309  0.019862  1
  H  H97  1  0.997515  0.287668  0.522657  1
  H  H98  1  0.471191  0.842362  0.883727  1
  H  H99  1  0.513011  0.189024  0.892184  1
  H  H100  1  0.123209  0.077578  0.342406  1
  H  H101  1  0.704206  0.741034  0.813125  1
  H  H102  1  0.892663  0.992309  0.480138  1
  H  H103  1  0.966159  0.151597  0.867689  1
  H  H104  1  0.526784  0.693045  0.147627  1
  H  H105  1  0.177058  0.940036  0.605693  1
  H  H106  1  0.825791  0.675061  0.205544  1
  H  H107  1  0.110135  0.694488  0.778727  1
  H  H108  1  0.380057  0.495157  0.132411  1
  H  H109  1  0.694179  0.672333  0.254439  1
  H  H110  1  0.219625  0.451314  0.334738  1
  H  H111  1  0.651616  0.051515  0.556922  1
  H  H112  1  0.078443  0.980158  0.155900  1
  H  H113  1  0.174634  0.489257  0.515546  1
  H  H114  1  0.973216  0.306955  0.647627  1
  H  H115  1  0.066069  0.934668  0.917788  1
  H  H116  1  0.933931  0.065332  0.082212  1
  H  H117  1  0.566069  0.934668  0.582212  1
  H  H118  1  0.674634  0.489257  0.984454  1
  H  H119  1  0.619943  0.504843  0.867589  1
  H  H120  1  0.376791  0.922422  0.842406  1
  H  H121  1  0.848384  0.948485  0.056922  1
  H  H122  1  0.026784  0.693045  0.352373  1
  H  H123  1  0.738591  0.489705  0.382793  1
  H  H124  1  0.643788  0.884269  0.286779  1
  H  H125  1  0.559861  0.152418  0.241988  1
  H  H126  1  0.698735  0.956614  0.631891  1
  H  H127  1  0.033841  0.848403  0.132311  1
  C  C128  1  0.817023  0.528812  0.407378  1
  C  C129  1  0.679891  0.752244  0.737733  1
  C  C130  1  0.394380  0.095374  0.645780  1
  C  C131  1  0.682977  0.471188  0.907378  1
  C  C132  1  0.165085  0.017126  0.580168  1
  C  C133  1  0.220856  0.294981  0.736016  1
  C  C134  1  0.720856  0.294981  0.763984  1
  C  C135  1  0.850212  0.031607  0.068104  1
  C  C136  1  0.346315  0.612900  0.830607  1
  C  C137  1  0.779144  0.705019  0.263984  1
  C  C138  1  0.320109  0.247756  0.262267  1
  C  C139  1  0.025114  0.272286  0.596145  1
  C  C140  1  0.906047  0.848218  0.668394  1
  C  C141  1  0.834915  0.982874  0.419832  1
  C  C142  1  0.179891  0.752244  0.762267  1
  C  C143  1  0.593953  0.151782  0.168394  1
  C  C144  1  0.182977  0.471188  0.592622  1
  C  C145  1  0.334915  0.982874  0.080168  1
  C  C146  1  0.974886  0.727714  0.403855  1
  C  C147  1  0.653685  0.387100  0.169393  1
  C  C148  1  0.105620  0.904626  0.145780  1
  C  C149  1  0.279144  0.705019  0.236016  1
  C  C150  1  0.525114  0.272286  0.903855  1
  C  C151  1  0.820109  0.247756  0.237733  1
  C  C152  1  0.149788  0.968393  0.931896  1
  C  C153  1  0.474886  0.727714  0.096145  1
  C  C154  1  0.153685  0.387100  0.330607  1
  C  C155  1  0.894380  0.095374  0.854220  1
  C  C156  1  0.317023  0.528812  0.092622  1
  C  C157  1  0.846315  0.612900  0.669393  1
  C  C158  1  0.605620  0.904626  0.354220  1
  C  C159  1  0.649788  0.968393  0.568104  1
  C  C160  1  0.665085  0.017126  0.919832  1
  C  C161  1  0.350212  0.031607  0.431896  1
  C  C162  1  0.093953  0.151782  0.331606  1
  C  C163  1  0.406047  0.848218  0.831606  1
  Br  Br164  1  0.976395  0.515761  0.141208  1
  Br  Br165  1  0.523605  0.484239  0.641208  1
  Br  Br166  1  0.023605  0.484239  0.858792  1
  Br  Br167  1  0.378903  0.752101  0.544408  1
  Br  Br168  1  0.621097  0.247899  0.455592  1
  Br  Br169  1  0.121097  0.247899  0.044408  1
  Br  Br170  1  0.878903  0.752101  0.955592  1
  Br  Br171  1  0.476395  0.515761  0.358792  1
