# generated using pymatgen
data_Pt4(O3F8)3
_symmetry_space_group_name_H-M   'P 1'
_cell_length_a   9.92629609
_cell_length_b   9.32298194
_cell_length_c   9.46130779
_cell_angle_alpha   108.53243366
_cell_angle_beta   107.29352468
_cell_angle_gamma   114.06680608
_symmetry_Int_Tables_number   1
_chemical_formula_structural   Pt4(O3F8)3
_chemical_formula_sum   'Pt4 O9 F24'
_cell_volume   659.44547855
_cell_formula_units_Z   1
loop_
 _symmetry_equiv_pos_site_id
 _symmetry_equiv_pos_as_xyz
  1  'x, y, z'
loop_
 _atom_site_type_symbol
 _atom_site_label
 _atom_site_symmetry_multiplicity
 _atom_site_fract_x
 _atom_site_fract_y
 _atom_site_fract_z
 _atom_site_occupancy
  Pt  Pt0  1  0.510528  0.998754  0.491932  1
  Pt  Pt1  1  0.007096  0.014794  0.015913  1
  Pt  Pt2  1  0.489999  0.500469  0.987091  1
  Pt  Pt3  1  0.025053  0.471539  0.486503  1
  O  O4  1  0.496590  0.961414  0.928934  1
  O  O5  1  0.389544  0.442220  0.423795  1
  O  O6  1  0.509368  0.507277  0.558465  1
  O  O7  1  0.506530  0.028020  0.066282  1
  O  O8  1  0.789712  0.431456  0.329764  1
  O  O9  1  0.119547  0.487860  0.827732  1
  O  O10  1  0.801495  0.513337  0.248970  1
  O  O11  1  0.897233  0.664395  0.644492  1
  O  O12  1  0.146628  0.906898  0.425335  1
  F  F13  1  0.160052  0.726239  0.668975  1
  F  F14  1  0.084241  0.557889  0.342097  1
  F  F15  1  0.217113  0.458213  0.574182  1
  F  F16  1  0.442467  0.678362  0.984765  1
  F  F17  1  0.253244  0.314392  0.831220  1
  F  F18  1  0.335964  0.835667  0.258447  1
  F  F19  1  0.060957  0.256847  0.096220  1
  F  F20  1  0.076755  0.056774  0.245349  1
  F  F21  1  0.468282  0.802034  0.534826  1
  F  F22  1  0.534504  0.470926  0.800224  1
  F  F23  1  0.316297  0.019074  0.556415  1
  F  F24  1  0.780393  0.926840  0.969908  1
  F  F25  1  0.231096  0.093144  0.055889  1
  F  F26  1  0.677509  0.985390  0.439197  1
  F  F27  1  0.455478  0.521659  0.178645  1
  F  F28  1  0.555366  0.199988  0.453819  1
  F  F29  1  0.946090  0.983692  0.792201  1
  F  F30  1  0.951717  0.769595  0.932333  1
  F  F31  1  0.682243  0.165804  0.727029  1
  F  F32  1  0.725059  0.692771  0.140572  1
  F  F33  1  0.535321  0.319466  0.991935  1
  F  F34  1  0.768626  0.662813  0.538061  1
  F  F35  1  0.975385  0.384613  0.662530  1
  F  F36  1  0.888522  0.217575  0.312154  1
