# generated using pymatgen
data_Dy3(Ge3Pt2)2
_symmetry_space_group_name_H-M   'P 1'
_cell_length_a   4.34664236
_cell_length_b   8.80429923
_cell_length_c   26.24637470
_cell_angle_alpha   90.00000000
_cell_angle_beta   90.00000000
_cell_angle_gamma   90.00000000
_symmetry_Int_Tables_number   1
_chemical_formula_structural   Dy3(Ge3Pt2)2
_chemical_formula_sum   'Dy12 Ge24 Pt16'
_cell_volume   1004.42618745
_cell_formula_units_Z   4
loop_
 _symmetry_equiv_pos_site_id
 _symmetry_equiv_pos_as_xyz
  1  'x, y, z'
loop_
 _atom_site_type_symbol
 _atom_site_label
 _atom_site_symmetry_multiplicity
 _atom_site_fract_x
 _atom_site_fract_y
 _atom_site_fract_z
 _atom_site_occupancy
  Dy  Dy0  1  0.750000  0.374712  0.780303  1
  Dy  Dy1  1  0.750000  0.135426  0.905870  1
  Dy  Dy2  1  0.750000  0.613309  0.906888  1
  Dy  Dy3  1  0.750000  0.886691  0.406888  1
  Dy  Dy4  1  0.750000  0.125288  0.280303  1
  Dy  Dy5  1  0.750000  0.364574  0.405870  1
  Dy  Dy6  1  0.250000  0.113309  0.593112  1
  Dy  Dy7  1  0.250000  0.625288  0.219697  1
  Dy  Dy8  1  0.250000  0.635426  0.594130  1
  Dy  Dy9  1  0.250000  0.874712  0.719697  1
  Dy  Dy10  1  0.250000  0.864574  0.094130  1
  Dy  Dy11  1  0.250000  0.386691  0.093112  1
  Ge  Ge12  1  0.250000  0.121677  0.001498  1
  Ge  Ge13  1  0.750000  0.874049  0.638551  1
  Ge  Ge14  1  0.750000  0.126941  0.142483  1
  Ge  Ge15  1  0.250000  0.374049  0.861449  1
  Ge  Ge16  1  0.250000  0.272931  0.216143  1
  Ge  Ge17  1  0.750000  0.878323  0.998502  1
  Ge  Ge18  1  0.750000  0.128756  0.503036  1
  Ge  Ge19  1  0.250000  0.125951  0.361449  1
  Ge  Ge20  1  0.750000  0.772931  0.283857  1
  Ge  Ge21  1  0.250000  0.873059  0.857517  1
  Ge  Ge22  1  0.250000  0.977277  0.216453  1
  Ge  Ge23  1  0.250000  0.522723  0.716453  1
  Ge  Ge24  1  0.750000  0.621677  0.498502  1
  Ge  Ge25  1  0.750000  0.625951  0.138551  1
  Ge  Ge26  1  0.250000  0.227069  0.716143  1
  Ge  Ge27  1  0.750000  0.373059  0.642483  1
  Ge  Ge28  1  0.250000  0.626941  0.357517  1
  Ge  Ge29  1  0.750000  0.022723  0.783547  1
  Ge  Ge30  1  0.750000  0.727069  0.783857  1
  Ge  Ge31  1  0.750000  0.371244  0.003036  1
  Ge  Ge32  1  0.250000  0.378323  0.501498  1
  Ge  Ge33  1  0.250000  0.628756  0.996964  1
  Ge  Ge34  1  0.750000  0.477277  0.283547  1
  Ge  Ge35  1  0.250000  0.871244  0.496964  1
  Pt  Pt36  1  0.250000  0.620905  0.449626  1
  Pt  Pt37  1  0.250000  0.622283  0.812728  1
  Pt  Pt38  1  0.250000  0.877717  0.312728  1
  Pt  Pt39  1  0.750000  0.122283  0.687272  1
  Pt  Pt40  1  0.250000  0.126159  0.812629  1
  Pt  Pt41  1  0.750000  0.629256  0.044879  1
  Pt  Pt42  1  0.250000  0.370744  0.955121  1
  Pt  Pt43  1  0.250000  0.373841  0.312629  1
  Pt  Pt44  1  0.750000  0.626159  0.687371  1
  Pt  Pt45  1  0.250000  0.879095  0.949626  1
  Pt  Pt46  1  0.750000  0.379095  0.550374  1
  Pt  Pt47  1  0.250000  0.129256  0.455121  1
  Pt  Pt48  1  0.750000  0.873841  0.187371  1
  Pt  Pt49  1  0.750000  0.120905  0.050374  1
  Pt  Pt50  1  0.750000  0.870744  0.544879  1
  Pt  Pt51  1  0.750000  0.377717  0.187272  1
