# generated using pymatgen
data_ReH3O5
_symmetry_space_group_name_H-M   'P 1'
_cell_length_a   7.66506767
_cell_length_b   7.86572722
_cell_length_c   7.94775366
_cell_angle_alpha   137.13985169
_cell_angle_beta   139.11994434
_cell_angle_gamma   61.49851428
_symmetry_Int_Tables_number   1
_chemical_formula_structural   ReH3O5
_chemical_formula_sum   'Re2 H6 O10'
_cell_volume   210.10474885
_cell_formula_units_Z   2
loop_
 _symmetry_equiv_pos_site_id
 _symmetry_equiv_pos_as_xyz
  1  'x, y, z'
loop_
 _atom_site_type_symbol
 _atom_site_label
 _atom_site_symmetry_multiplicity
 _atom_site_fract_x
 _atom_site_fract_y
 _atom_site_fract_z
 _atom_site_occupancy
  Re  Re0  1  0.362624  0.134138  0.245528  1
  Re  Re1  1  0.612534  0.869122  0.735493  1
  H  H2  1  0.897001  0.524228  0.277449  1
  H  H3  1  0.920903  0.589443  0.142780  1
  H  H4  1  0.926913  0.818599  0.447261  1
  H  H5  1  0.103174  0.381258  0.844368  1
  H  H6  1  0.130688  0.513779  0.775707  1
  H  H7  1  0.323251  0.287796  0.796016  1
  O  O8  1  0.845508  0.636716  0.231290  1
  O  O9  1  0.138501  0.356345  0.731351  1
  O  O10  1  0.688826  0.317017  0.598923  1
  O  O11  1  0.205904  0.079671  0.892997  1
  O  O12  1  0.557390  0.174251  0.851211  1
  O  O13  1  0.822845  0.741574  0.655103  1
  O  O14  1  0.299791  0.662632  0.370998  1
  O  O15  1  0.762970  0.891260  0.057771  1
  O  O16  1  0.394652  0.843395  0.148913  1
  O  O17  1  0.163994  0.293263  0.345930  1
