# generated using pymatgen
data_Ba2DyCu3O7
_symmetry_space_group_name_H-M   'P 1'
_cell_length_a   3.83805593
_cell_length_b   3.94605687
_cell_length_c   11.78566682
_cell_angle_alpha   89.99996008
_cell_angle_beta   90.00014110
_cell_angle_gamma   90.00006255
_symmetry_Int_Tables_number   1
_chemical_formula_structural   Ba2DyCu3O7
_chemical_formula_sum   'Ba2 Dy1 Cu3 O7'
_cell_volume   178.49612755
_cell_formula_units_Z   1
loop_
 _symmetry_equiv_pos_site_id
 _symmetry_equiv_pos_as_xyz
  1  'x, y, z'
loop_
 _atom_site_type_symbol
 _atom_site_label
 _atom_site_symmetry_multiplicity
 _atom_site_fract_x
 _atom_site_fract_y
 _atom_site_fract_z
 _atom_site_occupancy
  Ba  Ba0  1  0.499999  0.499998  0.181397  1
  Ba  Ba1  1  0.500001  0.500002  0.818906  1
  Dy  Dy2  1  0.500000  0.499999  0.499776  1
  Cu  Cu3  1  0.000001  0.000002  0.353637  1
  Cu  Cu4  1  -0.000001  0.999998  0.646392  1
  Cu  Cu5  1  -0.000000  0.000000  0.999883  1
  O  O6  1  0.999998  0.999999  0.160504  1
  O  O7  1  0.500000  -0.000000  0.619767  1
  O  O8  1  -0.000000  0.500000  0.000023  1
  O  O9  1  0.000002  0.000002  0.839378  1
  O  O10  1  0.000000  0.500000  0.378605  1
  O  O11  1  0.500001  0.000000  0.380221  1
  O  O12  1  0.000001  0.500000  0.621509  1
