# generated using pymatgen
data_H7CSeN3O4
_symmetry_space_group_name_H-M   'P 1'
_cell_length_a   5.82954021
_cell_length_b   9.27737057
_cell_length_c   14.78922547
_cell_angle_alpha   96.49618060
_cell_angle_beta   90.00000000
_cell_angle_gamma   90.00000000
_symmetry_Int_Tables_number   1
_chemical_formula_structural   H7CSeN3O4
_chemical_formula_sum   'H28 C4 Se4 N12 O16'
_cell_volume   794.70732305
_cell_formula_units_Z   4
loop_
 _symmetry_equiv_pos_site_id
 _symmetry_equiv_pos_as_xyz
  1  'x, y, z'
loop_
 _atom_site_type_symbol
 _atom_site_label
 _atom_site_symmetry_multiplicity
 _atom_site_fract_x
 _atom_site_fract_y
 _atom_site_fract_z
 _atom_site_occupancy
  H  H0  1  0.076547  0.490386  0.718655  1
  H  H1  1  0.916511  0.719621  0.661401  1
  H  H2  1  0.923453  0.509614  0.281345  1
  H  H3  1  0.173563  0.354127  0.770278  1
  H  H4  1  0.218295  0.016015  0.296602  1
  H  H5  1  0.564073  0.749162  0.088995  1
  H  H6  1  0.423453  0.990386  0.218655  1
  H  H7  1  0.788824  0.020919  0.254228  1
  H  H8  1  0.781705  0.983985  0.703398  1
  H  H9  1  0.288824  0.479081  0.245772  1
  H  H10  1  0.583489  0.219621  0.161401  1
  H  H11  1  0.935927  0.249162  0.588995  1
  H  H12  1  0.718295  0.483985  0.203398  1
  H  H13  1  0.326437  0.854127  0.270278  1
  H  H14  1  0.211176  0.979081  0.745772  1
  H  H15  1  0.083489  0.280379  0.338599  1
  H  H16  1  0.435927  0.250838  0.911005  1
  H  H17  1  0.845552  0.189404  0.053573  1
  H  H18  1  0.345552  0.310596  0.446427  1
  H  H19  1  0.281705  0.516015  0.796602  1
  H  H20  1  0.673563  0.145873  0.729722  1
  H  H21  1  0.154448  0.810596  0.946427  1
  H  H22  1  0.826437  0.645873  0.229722  1
  H  H23  1  0.576547  0.009614  0.781345  1
  H  H24  1  0.654448  0.689404  0.553573  1
  H  H25  1  0.711176  0.520919  0.754228  1
  H  H26  1  0.416511  0.780379  0.838599  1
  H  H27  1  0.064073  0.750838  0.411005  1
  C  C28  1  0.958872  0.762374  0.596911  1
  C  C29  1  0.541128  0.262374  0.096911  1
  C  C30  1  0.041128  0.237626  0.403089  1
  C  C31  1  0.458872  0.737626  0.903089  1
  Se  Se32  1  0.045473  0.138934  0.862722  1
  Se  Se33  1  0.454527  0.638934  0.362722  1
  Se  Se34  1  0.545473  0.361066  0.637278  1
  Se  Se35  1  0.954527  0.861066  0.137278  1
  N  N36  1  0.222083  0.446789  0.743316  1
  N  N37  1  0.299635  0.756630  0.965469  1
  N  N38  1  0.197490  0.795112  0.586141  1
  N  N39  1  0.697490  0.704888  0.913859  1
  N  N40  1  0.722083  0.053211  0.756684  1
  N  N41  1  0.200365  0.256630  0.465469  1
  N  N42  1  0.700365  0.243370  0.034530  1
  N  N43  1  0.277917  0.946789  0.243316  1
  N  N44  1  0.777917  0.553211  0.256684  1
  N  N45  1  0.802510  0.204888  0.413859  1
  N  N46  1  0.799635  0.743370  0.534531  1
  N  N47  1  0.302510  0.295112  0.086141  1
  O  O48  1  0.715946  0.523033  0.687819  1
  O  O49  1  0.231941  0.755374  0.426654  1
  O  O50  1  0.731941  0.744626  0.073346  1
  O  O51  1  0.703569  0.285456  0.953155  1
  O  O52  1  0.215946  0.976967  0.812181  1
  O  O53  1  0.784054  0.023033  0.187819  1
  O  O54  1  0.767929  0.585765  0.876145  1
  O  O55  1  0.203569  0.214544  0.546845  1
  O  O56  1  0.796431  0.785456  0.453155  1
  O  O57  1  0.267929  0.914235  0.623855  1
  O  O58  1  0.732071  0.085765  0.376145  1
  O  O59  1  0.768059  0.244626  0.573346  1
  O  O60  1  0.232071  0.414235  0.123855  1
  O  O61  1  0.268059  0.255374  0.926654  1
  O  O62  1  0.284054  0.476967  0.312181  1
  O  O63  1  0.296431  0.714544  0.046845  1
