# generated using pymatgen
data_TiNb2Zn(PbO3)4
_symmetry_space_group_name_H-M   'P 1'
_cell_length_a   4.05165459
_cell_length_b   4.05165459
_cell_length_c   16.71001829
_cell_angle_alpha   89.76368726
_cell_angle_beta   89.76368726
_cell_angle_gamma   89.28685550
_symmetry_Int_Tables_number   1
_chemical_formula_structural   TiNb2Zn(PbO3)4
_chemical_formula_sum   'Ti1 Nb2 Zn1 Pb4 O12'
_cell_volume   274.28421524
_cell_formula_units_Z   1
loop_
 _symmetry_equiv_pos_site_id
 _symmetry_equiv_pos_as_xyz
  1  'x, y, z'
loop_
 _atom_site_type_symbol
 _atom_site_label
 _atom_site_symmetry_multiplicity
 _atom_site_fract_x
 _atom_site_fract_y
 _atom_site_fract_z
 _atom_site_occupancy
  Ti  Ti0  1  0.469036  0.469036  0.871224  1
  Nb  Nb1  1  0.511986  0.511986  0.120790  1
  Nb  Nb2  1  0.528742  0.528742  0.621774  1
  Zn  Zn3  1  0.502170  0.502170  0.374093  1
  Pb  Pb4  1  0.052393  0.052393  0.270410  1
  Pb  Pb5  1  0.047923  0.047923  0.749899  1
  Pb  Pb6  1  0.985886  0.985886  0.467137  1
  Pb  Pb7  1  0.939872  0.939872  0.983587  1
  O  O8  1  0.509846  0.509846  0.989042  1
  O  O9  1  0.507284  0.507284  0.510260  1
  O  O10  1  0.481796  0.481796  0.233632  1
  O  O11  1  0.484184  0.484184  0.752290  1
  O  O12  1  0.496362  0.994328  0.111831  1
  O  O13  1  0.485526  0.998268  0.372985  1
  O  O14  1  0.498853  0.003340  0.871392  1
  O  O15  1  0.497701  0.004505  0.632748  1
  O  O16  1  0.994328  0.496362  0.111831  1
  O  O17  1  0.998268  0.485526  0.372985  1
  O  O18  1  0.004505  0.497701  0.632748  1
  O  O19  1  0.003340  0.498853  0.871392  1
