# generated using pymatgen
data_Ca(Ga3Te5)2
_symmetry_space_group_name_H-M   'P 1'
_cell_length_a   10.47056056
_cell_length_b   10.42566570
_cell_length_c   10.47018696
_cell_angle_alpha   90.04620682
_cell_angle_beta   89.17878488
_cell_angle_gamma   90.05566797
_symmetry_Int_Tables_number   1
_chemical_formula_structural   Ca(Ga3Te5)2
_chemical_formula_sum   'Ca2 Ga12 Te20'
_cell_volume   1142.83415999
_cell_formula_units_Z   2
loop_
 _symmetry_equiv_pos_site_id
 _symmetry_equiv_pos_as_xyz
  1  'x, y, z'
loop_
 _atom_site_type_symbol
 _atom_site_label
 _atom_site_symmetry_multiplicity
 _atom_site_fract_x
 _atom_site_fract_y
 _atom_site_fract_z
 _atom_site_occupancy
  Ca  Ca0  1  0.003715  0.999669  0.003351  1
  Ca  Ca1  1  0.741680  0.510015  0.741615  1
  Ga  Ga2  1  0.091358  0.424085  0.747086  1
  Ga  Ga3  1  0.175825  0.415562  0.128343  1
  Ga  Ga4  1  0.315972  0.131928  0.840885  1
  Ga  Ga5  1  0.404089  0.508220  0.831541  1
  Ga  Ga6  1  0.490444  0.591875  0.169838  1
  Ga  Ga7  1  0.574936  0.918214  0.254214  1
  Ga  Ga8  1  0.581736  0.828892  0.874077  1
  Ga  Ga9  1  0.616498  0.094529  0.568991  1
  Ga  Ga10  1  0.870633  0.681531  0.163428  1
  Ga  Ga11  1  0.903900  0.378350  0.428809  1
  Ga  Ga12  1  0.913311  0.002010  0.340872  1
  Ga  Ga13  1  0.997900  0.086403  0.653564  1
  Te  Te14  1  0.064111  0.820567  0.247362  1
  Te  Te15  1  0.074368  0.186123  0.428257  1
  Te  Te16  1  0.175950  0.582039  0.931122  1
  Te  Te17  1  0.175850  0.938787  0.751866  1
  Te  Te18  1  0.245431  0.172532  0.081993  1
  Te  Te19  1  0.306919  0.508137  0.316906  1
  Te  Te20  1  0.316501  0.324315  0.670428  1
  Te  Te21  1  0.419353  0.824031  0.071229  1
  Te  Te22  1  0.428013  0.001679  0.437848  1
  Te  Te23  1  0.497843  0.689638  0.680760  1
  Te  Te24  1  0.572117  0.084229  0.826441  1
  Te  Te25  1  0.572128  0.423630  0.995599  1
  Te  Te26  1  0.662804  0.337647  0.499479  1
  Te  Te27  1  0.673286  0.686154  0.325567  1
  Te  Te28  1  0.749379  0.086353  0.172515  1
  Te  Te29  1  0.813768  0.928424  0.569132  1
  Te  Te30  1  0.825353  0.755133  0.919631  1
  Te  Te31  1  0.916610  0.255146  0.828865  1
  Te  Te32  1  0.918278  0.426209  0.172680  1
  Te  Te33  1  0.992742  0.571545  0.569207  1
