# generated using pymatgen
data_CsV3O8
_symmetry_space_group_name_H-M   'P 1'
_cell_length_a   5.15318176
_cell_length_b   8.51047626
_cell_length_c   8.77301150
_cell_angle_alpha   90.00000000
_cell_angle_beta   90.00000000
_cell_angle_gamma   97.77477646
_symmetry_Int_Tables_number   1
_chemical_formula_structural   CsV3O8
_chemical_formula_sum   'Cs2 V6 O16'
_cell_volume   381.21265155
_cell_formula_units_Z   2
loop_
 _symmetry_equiv_pos_site_id
 _symmetry_equiv_pos_as_xyz
  1  'x, y, z'
loop_
 _atom_site_type_symbol
 _atom_site_label
 _atom_site_symmetry_multiplicity
 _atom_site_fract_x
 _atom_site_fract_y
 _atom_site_fract_z
 _atom_site_occupancy
  O  O0  1  0.886293  0.299066  0.604469  1
  O  O1  1  0.113707  0.700934  0.104469  1
  O  O2  1  0.113707  0.700934  0.395531  1
  O  O3  1  0.886293  0.299066  0.895531  1
  O  O4  1  0.562805  0.814654  0.551590  1
  O  O5  1  0.437195  0.185346  0.051590  1
  O  O6  1  0.437195  0.185346  0.448410  1
  O  O7  1  0.562805  0.814654  0.948410  1
  O  O8  1  0.914402  0.586268  0.750000  1
  O  O9  1  0.085598  0.413732  0.250000  1
  O  O10  1  0.422673  0.267554  0.750000  1
  O  O11  1  0.577326  0.732446  0.250000  1
  O  O12  1  0.328211  0.497644  0.909949  1
  O  O13  1  0.671789  0.502356  0.409949  1
  O  O14  1  0.671789  0.502356  0.090051  1
  O  O15  1  0.328211  0.497644  0.590051  1
  V  V16  1  0.561492  0.332229  0.557904  1
  V  V17  1  0.438508  0.667771  0.057904  1
  V  V18  1  0.438508  0.667771  0.442096  1
  V  V19  1  0.561492  0.332229  0.942096  1
  V  V20  1  0.917675  0.562173  0.250000  1
  V  V21  1  0.082325  0.437827  0.750000  1
  Cs  Cs22  1  0.932752  0.053245  0.250000  1
  Cs  Cs23  1  0.067248  0.946755  0.750000  1
