# generated using pymatgen
data_Mg3(AsO4)2
_symmetry_space_group_name_H-M   'P 1'
_cell_length_a   7.16916721
_cell_length_b   8.91098091
_cell_length_c   8.94374905
_cell_angle_alpha   114.80398908
_cell_angle_beta   108.04643124
_cell_angle_gamma   78.78881613
_symmetry_Int_Tables_number   1
_chemical_formula_structural   Mg3(AsO4)2
_chemical_formula_sum   'Mg9 As6 O24'
_cell_volume   491.76348197
_cell_formula_units_Z   3
loop_
 _symmetry_equiv_pos_site_id
 _symmetry_equiv_pos_as_xyz
  1  'x, y, z'
loop_
 _atom_site_type_symbol
 _atom_site_label
 _atom_site_symmetry_multiplicity
 _atom_site_fract_x
 _atom_site_fract_y
 _atom_site_fract_z
 _atom_site_occupancy
  Mg  Mg0  1  0.221759  0.986528  0.650325  1
  Mg  Mg1  1  0.230998  0.182549  0.422416  1
  Mg  Mg2  1  0.432965  0.743315  0.315320  1
  Mg  Mg3  1  0.667679  0.665318  0.790447  1
  Mg  Mg4  1  0.368569  0.461820  0.908928  1
  Mg  Mg5  1  0.400245  0.169648  0.117984  1
  Mg  Mg6  1  0.831238  0.800772  0.598997  1
  Mg  Mg7  1  0.920968  0.482293  0.033191  1
  Mg  Mg8  1  0.786792  0.389285  0.326098  1
  As  As9  1  0.218064  0.801399  0.846526  1
  As  As10  1  0.033732  0.831874  0.112548  1
  As  As11  1  0.731299  0.013782  0.364688  1
  As  As12  1  0.304605  0.539078  0.463776  1
  As  As13  1  0.000341  0.300926  0.680269  1
  As  As14  1  0.811181  0.106861  0.945541  1
  O  O15  1  0.112417  0.361146  0.907500  1
  O  O16  1  0.117048  0.766393  0.618749  1
  O  O17  1  0.261180  0.250532  0.672603  1
  O  O18  1  0.077629  0.844466  0.339355  1
  O  O19  1  0.021716  0.436950  0.256657  1
  O  O20  1  0.253515  0.944734  0.417578  1
  O  O21  1  0.417834  0.419435  0.256392  1
  O  O22  1  0.129202  0.269037  0.225037  1
  O  O23  1  0.412760  0.640305  0.824667  1
  O  O24  1  0.327449  -0.012806  0.889455  1
  O  O25  1  0.239704  0.681928  0.090229  1
  O  O26  1  0.446250  0.701138  0.525597  1
  O  O27  1  0.483849  0.113178  0.332904  1
  O  O28  1  0.727052  0.910357  0.805646  1
  O  O29  1  0.712135  0.398969  0.750666  1
  O  O30  1  0.544009  0.504986  0.215011  1
  O  O31  1  0.800314  0.570653  0.583624  1
  O  O32  1  0.680199  0.845502  0.401453  1
  O  O33  1  0.835157  0.706338  0.032589  1
  O  O34  1  0.925288  0.092575  0.624178  1
  O  O35  1  0.975134  0.535417  0.712769  1
  O  O36  1  0.935169  0.253439  0.452319  1
  O  O37  1  0.680483  0.178064  0.100729  1
  O  O38  1  0.674074  0.361814  0.887242  1
