# generated using pymatgen
data_SiO2
_symmetry_space_group_name_H-M   'P 1'
_cell_length_a   8.57591161
_cell_length_b   15.83413329
_cell_length_c   15.81315458
_cell_angle_alpha   75.20952876
_cell_angle_beta   74.19171532
_cell_angle_gamma   74.23116312
_symmetry_Int_Tables_number   1
_chemical_formula_structural   SiO2
_chemical_formula_sum   'Si32 O64'
_cell_volume   1949.86826115
_cell_formula_units_Z   32
loop_
 _symmetry_equiv_pos_site_id
 _symmetry_equiv_pos_as_xyz
  1  'x, y, z'
loop_
 _atom_site_type_symbol
 _atom_site_label
 _atom_site_symmetry_multiplicity
 _atom_site_fract_x
 _atom_site_fract_y
 _atom_site_fract_z
 _atom_site_occupancy
  Si  Si0  1  0.458361  0.585552  0.870721  1
  Si  Si1  1  0.928967  0.754668  0.754907  1
  Si  Si2  1  0.457401  0.869772  0.586067  1
  Si  Si3  1  0.647924  0.932875  0.395935  1
  Si  Si4  1  0.084463  0.869447  0.585756  1
  Si  Si5  1  0.753446  0.791231  0.077434  1
  Si  Si6  1  0.437487  0.244766  0.245654  1
  Si  Si7  1  0.348315  0.067635  0.603818  1
  Si  Si8  1  0.539864  0.129911  0.414188  1
  Si  Si9  1  0.248334  0.922970  0.206908  1
  Si  Si10  1  0.751808  0.077520  0.793206  1
  Si  Si11  1  0.623877  0.922171  0.206943  1
  Si  Si12  1  0.541384  0.414244  0.131342  1
  Si  Si13  1  0.350272  0.603511  0.068888  1
  Si  Si14  1  0.378045  0.792043  0.077213  1
  Si  Si15  1  0.248703  0.207869  0.921753  1
  Si  Si16  1  0.022777  0.932766  0.395892  1
  Si  Si17  1  0.561174  0.754620  0.755812  1
  Si  Si18  1  0.977317  0.603086  0.067837  1
  Si  Si19  1  0.914287  0.413968  0.129739  1
  Si  Si20  1  0.376635  0.076975  0.792388  1
  Si  Si21  1  0.067188  0.119534  0.118504  1
  Si  Si22  1  0.024102  0.396561  0.931638  1
  Si  Si23  1  0.070286  0.245093  0.245089  1
  Si  Si24  1  0.974130  0.067279  0.603970  1
  Si  Si25  1  0.912483  0.129960  0.414465  1
  Si  Si26  1  0.933742  0.880601  0.880759  1
  Si  Si27  1  0.086563  0.585667  0.869636  1
  Si  Si28  1  0.623081  0.208044  0.923105  1
  Si  Si29  1  0.649360  0.396549  0.933459  1
  Si  Si30  1  0.695274  0.118864  0.119509  1
  Si  Si31  1  0.304395  0.880490  0.881119  1
  O  O32  1  0.006556  0.785481  0.648728  1
  O  O33  1  0.730882  0.396449  0.142129  1
  O  O34  1  0.454786  0.612656  0.964669  1
  O  O35  1  0.553106  0.869734  0.481833  1
  O  O36  1  0.269273  0.857899  0.601001  1
  O  O37  1  0.750749  0.147787  0.852905  1
  O  O38  1  0.870089  0.693072  0.103991  1
  O  O39  1  0.728937  0.140540  0.398074  1
  O  O40  1  0.270272  0.601144  0.858995  1
  O  O41  1  0.358725  0.840276  0.976185  1
  O  O42  1  0.132955  0.306582  0.895962  1
  O  O43  1  0.666252  0.306427  0.898234  1
  O  O44  1  0.552603  0.481510  0.870669  1
  O  O45  1  0.990581  0.213578  0.350990  1
  O  O46  1  0.166777  0.072233  0.588624  1
  O  O47  1  0.173703  0.023809  0.158628  1
  O  O48  1  0.993833  0.351249  0.213100  1
  O  O49  1  0.826815  0.976638  0.841027  1
  O  O50  1  0.434003  0.917161  0.216740  1
  O  O51  1  0.008163  0.648915  0.786215  1
  O  O52  1  0.097405  0.481776  0.868429  1
  O  O53  1  0.646738  0.022502  0.157572  1
  O  O54  1  0.964773  0.963192  0.612830  1
  O  O55  1  0.398129  0.811263  0.813774  1
  O  O56  1  0.567755  0.780025  0.084621  1
  O  O57  1  0.251495  0.852444  0.147215  1
  O  O58  1  0.900153  0.130601  0.518791  1
  O  O59  1  0.445931  0.130213  0.518584  1
  O  O60  1  0.033720  0.036302  0.388529  1
  O  O61  1  0.440452  0.213889  0.351768  1
  O  O62  1  0.440755  0.350882  0.213838  1
  O  O63  1  0.356081  0.975865  0.839763  1
  O  O64  1  0.967220  0.612317  0.963654  1
  O  O65  1  0.023271  0.188074  0.186896  1
  O  O66  1  0.557612  0.648732  0.787367  1
  O  O67  1  0.169310  0.586491  0.074310  1
  O  O68  1  0.826792  0.839020  0.976134  1
  O  O69  1  0.865576  0.103566  0.693942  1
  O  O70  1  0.249132  0.147531  0.852331  1
  O  O71  1  0.831710  0.411712  0.927321  1
  O  O72  1  0.543367  0.388071  0.037281  1
  O  O73  1  0.640625  0.160483  0.024665  1
  O  O74  1  0.565824  0.083951  0.782945  1
  O  O75  1  0.665034  0.897375  0.305775  1
  O  O76  1  0.034412  0.388066  0.035577  1
  O  O77  1  0.728281  0.770857  0.772788  1
  O  O78  1  0.449226  0.518826  0.131460  1
  O  O79  1  0.434855  0.218276  0.913982  1
  O  O80  1  0.093622  0.869035  0.481726  1
  O  O81  1  0.332388  0.103129  0.693941  1
  O  O82  1  0.105310  0.893620  0.895143  1
  O  O83  1  0.175893  0.160521  0.023394  1
  O  O84  1  0.894374  0.106813  0.104983  1
  O  O85  1  0.331147  0.694270  0.103781  1
  O  O86  1  0.133302  0.897367  0.305875  1
  O  O87  1  0.557051  0.787074  0.649903  1
  O  O88  1  0.830706  0.928677  0.409155  1
  O  O89  1  0.900332  0.518492  0.130051  1
  O  O90  1  0.454000  0.963787  0.612841  1
  O  O91  1  0.270647  0.227892  0.229159  1
  O  O92  1  0.976674  0.813199  0.811369  1
  O  O93  1  0.600082  0.185813  0.189255  1
  O  O94  1  0.540881  0.036589  0.386837  1
  O  O95  1  0.750515  0.850706  0.148082  1
