# generated using pymatgen
data_C68OF20
_symmetry_space_group_name_H-M   'P 1'
_cell_length_a   10.17765180
_cell_length_b   12.36702769
_cell_length_c   16.92806158
_cell_angle_alpha   80.15230261
_cell_angle_beta   78.07369353
_cell_angle_gamma   74.92129066
_symmetry_Int_Tables_number   1
_chemical_formula_structural   C68OF20
_chemical_formula_sum   'C136 O2 F40'
_cell_volume   1997.35116660
_cell_formula_units_Z   2
loop_
 _symmetry_equiv_pos_site_id
 _symmetry_equiv_pos_as_xyz
  1  'x, y, z'
loop_
 _atom_site_type_symbol
 _atom_site_label
 _atom_site_symmetry_multiplicity
 _atom_site_fract_x
 _atom_site_fract_y
 _atom_site_fract_z
 _atom_site_occupancy
  C  C0  1  0.750488  0.952411  0.153004  1
  C  C1  1  0.437396  0.520452  0.134765  1
  C  C2  1  0.299629  0.592256  0.261223  1
  C  C3  1  0.562604  0.479548  0.865235  1
  C  C4  1  0.766662  0.836074  0.750981  1
  C  C5  1  0.070047  0.529033  0.774843  1
  C  C6  1  0.303394  0.717713  0.139996  1
  C  C7  1  0.778112  0.543462  0.037154  1
  C  C8  1  0.773417  0.127003  0.477142  1
  C  C9  1  0.672559  0.400878  0.826998  1
  C  C10  1  0.502725  0.672002  0.030046  1
  C  C11  1  0.392063  0.598853  0.686356  1
  C  C12  1  0.576003  0.838846  0.022638  1
  C  C13  1  0.221888  0.456538  0.962846  1
  C  C14  1  0.793454  0.671050  0.497790  1
  C  C15  1  0.336029  0.585162  0.859572  1
  C  C16  1  0.255328  0.615616  0.727493  1
  C  C17  1  0.890457  0.519350  0.082822  1
  C  C18  1  0.798366  0.842612  0.297294  1
  C  C19  1  0.449650  0.987327  0.244675  1
  C  C20  1  0.423510  0.062798  0.715206  1
  C  C21  1  0.109543  0.480650  0.917178  1
  C  C22  1  0.841868  0.434064  0.297317  1
  C  C23  1  0.381563  0.275064  0.999388  1
  C  C24  1  0.065933  0.236200  0.834602  1
  C  C25  1  0.744672  0.384384  0.272507  1
  C  C26  1  0.929972  0.636073  0.289077  1
  C  C27  1  0.290754  0.071979  0.754979  1
  C  C28  1  0.517768  0.308853  0.574595  1
  C  C29  1  0.435780  0.855868  0.065228  1
  C  C30  1  0.374563  0.044427  0.886988  1
  C  C31  1  0.753404  0.661937  0.004128  1
  C  C32  1  0.246596  0.338063  0.995872  1
  C  C33  1  0.624230  0.116903  0.517541  1
  C  C34  1  0.072565  0.922866  0.845970  1
  C  C35  1  0.804022  0.061897  0.120004  1
  C  C36  1  0.741977  0.681345  0.415324  1
  C  C37  1  0.700371  0.407744  0.738777  1
  C  C38  1  0.082655  0.241891  0.743991  1
  C  C39  1  0.261908  0.783436  0.208092  1
  C  C40  1  0.550350  0.012673  0.755325  1
  C  C41  1  0.330505  0.114102  0.951890  1
  C  C42  1  0.158132  0.565936  0.702683  1
  C  C43  1  0.695555  0.267710  0.651850  1
  C  C44  1  0.308805  0.881554  0.204075  1
  C  C45  1  0.482232  0.691147  0.425405  1
  C  C46  1  0.564114  0.468448  0.380860  1
  C  C47  1  0.375770  0.883097  0.482459  1
  C  C48  1  0.809229  0.820756  0.051640  1
  C  C49  1  0.294979  0.200624  0.630635  1
  C  C50  1  0.522497  0.432168  0.183021  1
  C  C51  1  0.652486  0.090092  0.726395  1
  C  C52  1  0.473435  0.442372  0.937778  1
  C  C53  1  0.611888  0.355827  0.603265  1
  C  C54  1  0.934797  0.623193  0.077840  1
  C  C55  1  0.153557  0.399408  0.641477  1
  C  C56  1  0.914735  0.725636  0.497639  1
  C  C57  1  0.249512  0.047589  0.846996  1
  C  C58  1  0.773122  0.391263  0.184396  1
  C  C59  1  0.327441  0.599122  0.173002  1
  C  C60  1  0.381676  0.507114  0.307684  1
  C  C61  1  0.618324  0.492886  0.692316  1
  C  C62  1  0.972299  0.649864  0.145913  1
  C  C63  1  0.564220  0.144132  0.934772  1
  C  C64  1  0.387050  0.114506  0.257264  1
  C  C65  1  0.085265  0.274364  0.502361  1
  C  C66  1  0.259646  0.706674  0.282165  1
  C  C67  1  0.195978  0.938103  0.879996  1
  C  C68  1  0.342522  0.482438  0.595339  1
  C  C69  1  0.070028  0.363927  0.710923  1
  C  C70  1  0.663971  0.414838  0.140428  1
  C  C71  1  0.705021  0.799376  0.369365  1
  C  C72  1  0.426143  0.141959  0.638552  1
  C  C73  1  0.385107  0.371086  0.570654  1
  C  C74  1  0.556135  0.179230  0.594200  1
  C  C75  1  0.201634  0.157388  0.702706  1
  C  C76  1  0.654380  0.164010  0.655456  1
  C  C77  1  0.388112  0.644173  0.396735  1
  C  C78  1  0.929953  0.470967  0.225157  1
  C  C79  1  0.389202  0.753258  0.069911  1
  C  C80  1  0.850662  0.710821  0.029620  1
  C  C81  1  0.201121  0.499910  0.638051  1
  C  C82  1  0.145448  0.151932  0.880949  1
  C  C83  1  0.798879  0.500090  0.361949  1
  C  C84  1  0.491435  0.971363  0.153847  1
  C  C85  1  0.969855  0.572275  0.220989  1
  C  C86  1  0.396749  0.918606  0.131349  1
  C  C87  1  0.030145  0.427725  0.779011  1
  C  C88  1  0.345620  0.835990  0.344544  1
  C  C89  1  0.333484  0.507810  0.934251  1
  C  C90  1  0.258023  0.318655  0.584676  1
  C  C91  1  0.696606  0.282287  0.860004  1
  C  C92  1  0.691195  0.118446  0.795925  1
  C  C93  1  0.614893  0.628914  0.429346  1
  C  C94  1  0.508565  0.028637  0.846153  1
  C  C95  1  0.610798  0.246742  0.930089  1
  C  C96  1  0.709246  0.928021  0.245021  1
  C  C97  1  0.573857  0.858041  0.361448  1
  C  C98  1  0.425570  0.533442  0.377049  1
  C  C99  1  0.111729  0.555407  0.845020  1
  C  C100  1  0.423997  0.161154  0.977362  1
  C  C101  1  0.190771  0.179244  0.948360  1
  C  C102  1  0.226878  0.608737  0.815604  1
  C  C103  1  0.233338  0.163926  0.249019  1
  C  C104  1  0.917345  0.758109  0.256009  1
  C  C105  1  0.657478  0.517562  0.404661  1
  C  C106  1  0.927435  0.077134  0.154030  1
  C  C107  1  0.666516  0.492190  0.065749  1
  C  C108  1  0.607937  0.401147  0.313644  1
  C  C109  1  0.740354  0.293326  0.717835  1
  C  C110  1  0.206546  0.328950  0.502210  1
  C  C111  1  0.149338  0.289179  0.970380  1
  C  C112  1  0.603251  0.081394  0.868651  1
  C  C113  1  0.027701  0.350136  0.854087  1
  C  C114  1  0.494867  0.425292  0.268360  1
  C  C115  1  0.443865  0.820770  0.405800  1
  C  C116  1  0.576490  0.937202  0.284794  1
  C  C117  1  0.526565  0.557628  0.062222  1
  C  C118  1  0.505133  0.574708  0.731640  1
  C  C119  1  0.347514  0.909908  0.273605  1
  C  C120  1  0.846443  0.600592  0.358523  1
  C  C121  1  0.477503  0.567832  0.816979  1
  C  C122  1  0.934067  0.763800  0.165398  1
  C  C123  1  0.669495  0.885898  0.048110  1
  C  C124  1  0.854552  0.848068  0.119051  1
  C  C125  1  0.435886  0.531552  0.619140  1
  C  C126  1  0.888271  0.444593  0.154980  1
  C  C127  1  0.226583  0.872997  0.522858  1
  C  C128  1  0.497275  0.327999  0.969954  1
  C  C129  1  0.574430  0.466558  0.622951  1
  C  C130  1  0.738092  0.216564  0.791908  1
  C  C131  1  0.618437  0.724936  0.000612  1
  C  C132  1  0.065203  0.376807  0.922160  1
  C  C133  1  0.304445  0.732290  0.348150  1
  C  C134  1  0.625437  0.955573  0.113012  1
  C  C135  1  0.612950  0.885494  0.742736  1
  O  O136  1  0.941013  0.840705  0.297141  1
  O  O137  1  0.058987  0.159295  0.702859  1
  F  F138  1  0.052448  0.293627  0.426699  1
  F  F139  1  0.812584  0.076869  0.408137  1
  F  F140  1  0.971860  0.319669  0.554522  1
  F  F141  1  0.135011  0.923519  0.472367  1
  F  F142  1  0.893336  0.083011  0.235075  1
  F  F143  1  0.028140  0.680331  0.445478  1
  F  F144  1  0.631111  0.003561  0.537211  1
  F  F145  1  0.312323  0.283249  0.444516  1
  F  F146  1  0.947552  0.706373  0.573301  1
  F  F147  1  0.542403  0.817897  0.799363  1
  F  F148  1  0.962070  0.174477  0.116894  1
  F  F149  1  0.788009  0.851069  0.824724  1
  F  F150  1  0.700475  0.155791  0.134214  1
  F  F151  1  0.960948  0.009130  0.860654  1
  F  F152  1  0.148207  0.114608  0.308110  1
  F  F153  1  0.545144  0.155688  0.457674  1
  F  F154  1  0.120528  0.161582  0.524062  1
  F  F155  1  0.687677  0.716751  0.555484  1
  F  F156  1  0.039052  0.990870  0.139346  1
  F  F157  1  0.845262  0.066400  0.036801  1
  F  F158  1  0.221356  0.762765  0.542828  1
  F  F159  1  0.600098  0.867224  0.667425  1
  F  F160  1  0.106664  0.916989  0.764925  1
  F  F161  1  0.851793  0.885392  0.691890  1
  F  F162  1  0.399902  0.132776  0.332575  1
  F  F163  1  0.457597  0.182103  0.200637  1
  F  F164  1  0.454856  0.844312  0.542326  1
  F  F165  1  0.187416  0.923131  0.591863  1
  F  F166  1  0.037930  0.825523  0.883106  1
  F  F167  1  0.299525  0.844209  0.865786  1
  F  F168  1  0.864989  0.076481  0.527633  1
  F  F169  1  0.200208  0.276296  0.254181  1
  F  F170  1  0.778644  0.237235  0.457172  1
  F  F171  1  0.154738  0.933600  0.963199  1
  F  F172  1  0.879472  0.838418  0.475938  1
  F  F173  1  0.837179  0.558217  0.525401  1
  F  F174  1  0.799792  0.723704  0.745819  1
  F  F175  1  0.162821  0.441783  0.474599  1
  F  F176  1  0.211991  0.148931  0.175276  1
  F  F177  1  0.368889  0.996439  0.462789  1
