# generated using pymatgen
data_MnH2SO4
_symmetry_space_group_name_H-M   'P 1'
_cell_length_a   4.91394516
_cell_length_b   6.02437249
_cell_length_c   12.38945055
_cell_angle_alpha   90.00000000
_cell_angle_beta   90.00000000
_cell_angle_gamma   93.56022407
_symmetry_Int_Tables_number   1
_chemical_formula_structural   MnH2SO4
_chemical_formula_sum   'Mn4 H8 S4 O16'
_cell_volume   366.06246921
_cell_formula_units_Z   4
loop_
 _symmetry_equiv_pos_site_id
 _symmetry_equiv_pos_as_xyz
  1  'x, y, z'
loop_
 _atom_site_type_symbol
 _atom_site_label
 _atom_site_symmetry_multiplicity
 _atom_site_fract_x
 _atom_site_fract_y
 _atom_site_fract_z
 _atom_site_occupancy
  H  H0  1  0.594805  0.424415  0.895830  1
  H  H1  1  0.905195  0.075585  0.395830  1
  H  H2  1  0.405195  0.575585  0.104170  1
  H  H3  1  0.094805  0.924415  0.604170  1
  H  H4  1  0.466018  0.238355  0.973075  1
  H  H5  1  0.033982  0.261645  0.473075  1
  H  H6  1  0.533982  0.761645  0.026925  1
  H  H7  1  0.966018  0.738355  0.526925  1
  O  O8  1  0.442917  0.483755  0.676551  1
  O  O9  1  0.057083  0.016245  0.176551  1
  O  O10  1  0.557083  0.516245  0.323449  1
  O  O11  1  0.942917  0.983755  0.823449  1
  O  O12  1  0.916801  0.585501  0.837393  1
  O  O13  1  0.583199  0.914499  0.337393  1
  O  O14  1  0.083199  0.414499  0.162607  1
  O  O15  1  0.416801  0.085501  0.662607  1
  O  O16  1  0.362592  0.795790  0.869428  1
  O  O17  1  0.137408  0.704210  0.369428  1
  O  O18  1  0.637408  0.204210  0.130572  1
  O  O19  1  0.862592  0.295790  0.630572  1
  O  O20  1  0.935606  0.818619  0.594161  1
  O  O21  1  0.564394  0.681381  0.094161  1
  O  O22  1  0.064394  0.181381  0.405839  1
  O  O23  1  0.435606  0.318619  0.905839  1
  S  S24  1  0.059874  0.795355  0.895104  1
  S  S25  1  0.440126  0.704645  0.395104  1
  S  S26  1  0.940126  0.204645  0.104896  1
  S  S27  1  0.559874  0.295355  0.604896  1
  Mn  Mn28  1  0.128142  0.301781  0.775234  1
  Mn  Mn29  1  0.371858  0.198219  0.275234  1
  Mn  Mn30  1  0.871858  0.698219  0.224766  1
  Mn  Mn31  1  0.628142  0.801781  0.724766  1
