# generated using pymatgen
data_HgH24C8(I2N)2
_symmetry_space_group_name_H-M   'P 1'
_cell_length_a   9.96676510
_cell_length_b   13.73490192
_cell_length_c   17.24271869
_cell_angle_alpha   90.00000000
_cell_angle_beta   90.00000000
_cell_angle_gamma   90.00000000
_symmetry_Int_Tables_number   1
_chemical_formula_structural   HgH24C8(I2N)2
_chemical_formula_sum   'Hg4 H96 C32 I16 N8'
_cell_volume   2360.39957709
_cell_formula_units_Z   4
loop_
 _symmetry_equiv_pos_site_id
 _symmetry_equiv_pos_as_xyz
  1  'x, y, z'
loop_
 _atom_site_type_symbol
 _atom_site_label
 _atom_site_symmetry_multiplicity
 _atom_site_fract_x
 _atom_site_fract_y
 _atom_site_fract_z
 _atom_site_occupancy
  Hg  Hg0  1  0.999247  0.504360  0.595288  1
  Hg  Hg1  1  0.000753  0.004360  0.904712  1
  Hg  Hg2  1  0.500753  0.495640  0.095288  1
  Hg  Hg3  1  0.499247  0.995640  0.404712  1
  H  H4  1  0.469287  0.621165  0.851405  1
  H  H5  1  0.031865  0.583870  0.105395  1
  H  H6  1  0.841873  0.322356  0.370025  1
  H  H7  1  0.109391  0.471600  0.815525  1
  H  H8  1  0.672999  0.187715  0.683213  1
  H  H9  1  0.687478  0.131296  0.139876  1
  H  H10  1  0.363096  0.833055  0.758633  1
  H  H11  1  0.478496  0.600890  0.522526  1
  H  H12  1  0.863096  0.666945  0.241367  1
  H  H13  1  0.390609  0.528400  0.315525  1
  H  H14  1  0.032772  0.626681  0.253642  1
  H  H15  1  0.521504  0.100890  0.977474  1
  H  H16  1  0.986244  0.748966  0.279735  1
  H  H17  1  0.189797  0.698413  0.104467  1
  H  H18  1  0.327001  0.687715  0.816787  1
  H  H19  1  0.158127  0.822356  0.129975  1
  H  H20  1  0.030713  0.378835  0.351405  1
  H  H21  1  0.827001  0.812285  0.183213  1
  H  H22  1  0.801826  0.235348  0.296566  1
  H  H23  1  0.508968  0.220440  0.018126  1
  H  H24  1  0.355275  0.157483  0.189320  1
  H  H25  1  0.901546  0.254876  0.882327  1
  H  H26  1  0.144725  0.842517  0.689320  1
  H  H27  1  0.102210  0.000876  0.525968  1
  H  H28  1  0.343375  0.649177  0.466592  1
  H  H29  1  0.397790  0.999124  0.025968  1
  H  H30  1  0.967228  0.126681  0.246359  1
  H  H31  1  0.136904  0.166945  0.258633  1
  H  H32  1  0.718341  0.651784  0.405768  1
  H  H33  1  0.658127  0.677644  0.870025  1
  H  H34  1  0.812522  0.868704  0.639876  1
  H  H35  1  0.062068  0.351016  0.787288  1
  H  H36  1  0.198174  0.735348  0.203434  1
  H  H37  1  0.310203  0.301587  0.604467  1
  H  H38  1  0.698174  0.764652  0.796566  1
  H  H39  1  0.098454  0.754876  0.617673  1
  H  H40  1  0.532879  0.323669  0.541310  1
  H  H41  1  0.021504  0.399110  0.022526  1
  H  H42  1  0.602210  0.499124  0.474032  1
  H  H43  1  0.968135  0.083870  0.394605  1
  H  H44  1  0.468135  0.416130  0.605395  1
  H  H45  1  0.483701  0.450325  0.405861  1
  H  H46  1  0.647650  0.486256  0.374192  1
  H  H47  1  0.187478  0.368704  0.860124  1
  H  H48  1  0.156625  0.350823  0.966592  1
  H  H49  1  0.128236  0.307820  0.417411  1
  H  H50  1  0.852350  0.513744  0.874192  1
  H  H51  1  0.609391  0.028400  0.184475  1
  H  H52  1  0.843375  0.850823  0.533408  1
  H  H53  1  0.532772  0.873319  0.746359  1
  H  H54  1  0.656625  0.149177  0.033408  1
  H  H55  1  0.486244  0.751034  0.720265  1
  H  H56  1  0.341873  0.177644  0.629975  1
  H  H57  1  0.218341  0.848216  0.594232  1
  H  H58  1  0.358890  0.880000  0.887886  1
  H  H59  1  0.983701  0.049675  0.594139  1
  H  H60  1  0.371764  0.692180  0.917411  1
  H  H61  1  0.467121  0.823669  0.958690  1
  H  H62  1  0.636904  0.333055  0.741367  1
  H  H63  1  0.032879  0.176331  0.458690  1
  H  H64  1  0.978496  0.899110  0.477474  1
  H  H65  1  0.781659  0.348216  0.905768  1
  H  H66  1  0.467228  0.373319  0.753641  1
  H  H67  1  0.890609  0.971600  0.684475  1
  H  H68  1  0.598454  0.745124  0.382327  1
  H  H69  1  0.513756  0.251034  0.779735  1
  H  H70  1  0.530713  0.121165  0.648595  1
  H  H71  1  0.628236  0.192180  0.582589  1
  H  H72  1  0.147650  0.013744  0.625808  1
  H  H73  1  0.562068  0.148984  0.212712  1
  H  H74  1  0.641110  0.380000  0.612114  1
  H  H75  1  0.991032  0.779560  0.518126  1
  H  H76  1  0.516299  0.950325  0.094139  1
  H  H77  1  0.016299  0.549675  0.905861  1
  H  H78  1  0.531865  0.916130  0.894605  1
  H  H79  1  0.301826  0.264652  0.703434  1
  H  H80  1  0.491032  0.720440  0.481874  1
  H  H81  1  0.644725  0.657483  0.310680  1
  H  H82  1  0.871764  0.807820  0.082589  1
  H  H83  1  0.312522  0.631296  0.360124  1
  H  H84  1  0.810203  0.198413  0.395533  1
  H  H85  1  0.013756  0.248966  0.220265  1
  H  H86  1  0.967121  0.676331  0.041310  1
  H  H87  1  0.858890  0.620000  0.112114  1
  H  H88  1  0.352350  0.986256  0.125808  1
  H  H89  1  0.401546  0.245124  0.117673  1
  H  H90  1  0.172999  0.312285  0.316787  1
  H  H91  1  0.689797  0.801587  0.895533  1
  H  H92  1  0.281658  0.151784  0.094232  1
  H  H93  1  0.937932  0.851016  0.712712  1
  H  H94  1  0.141110  0.120000  0.387886  1
  H  H95  1  0.855275  0.342517  0.810680  1
  H  H96  1  0.897790  0.500876  0.974032  1
  H  H97  1  0.008968  0.279560  0.981874  1
  H  H98  1  0.969287  0.878835  0.148595  1
  H  H99  1  0.437932  0.648984  0.287288  1
  C  C100  1  0.539101  0.355466  0.599991  1
  C  C101  1  0.565292  0.502512  0.414215  1
  C  C102  1  0.627712  0.669271  0.372773  1
  C  C103  1  0.353464  0.253473  0.648121  1
  C  C104  1  0.872288  0.330729  0.872773  1
  C  C105  1  0.960899  0.644534  0.099991  1
  C  C106  1  0.594193  0.103080  0.164316  1
  C  C107  1  0.065292  0.997488  0.585785  1
  C  C108  1  0.531473  0.311390  0.738929  1
  C  C109  1  0.934708  0.497488  0.914215  1
  C  C110  1  0.094193  0.396920  0.835684  1
  C  C111  1  0.452184  0.646531  0.473044  1
  C  C112  1  0.460899  0.855466  0.900009  1
  C  C113  1  0.039101  0.144534  0.400009  1
  C  C114  1  0.547816  0.146531  0.026956  1
  C  C115  1  0.089753  0.312053  0.358004  1
  C  C116  1  0.646536  0.753473  0.851879  1
  C  C117  1  0.905807  0.896920  0.664316  1
  C  C118  1  0.589753  0.187947  0.641996  1
  C  C119  1  0.146536  0.746527  0.148121  1
  C  C120  1  0.853464  0.246527  0.351879  1
  C  C121  1  0.405807  0.603080  0.335684  1
  C  C122  1  0.047816  0.353469  0.973044  1
  C  C123  1  0.434708  0.002512  0.085785  1
  C  C124  1  0.952184  0.853469  0.526956  1
  C  C125  1  0.468527  0.811390  0.761071  1
  C  C126  1  0.031473  0.188610  0.261071  1
  C  C127  1  0.372288  0.169271  0.127227  1
  C  C128  1  0.910247  0.812053  0.141996  1
  C  C129  1  0.127712  0.830729  0.627227  1
  C  C130  1  0.968527  0.688610  0.238929  1
  C  C131  1  0.410247  0.687947  0.858004  1
  I  I132  1  0.001593  0.074221  0.060883  1
  I  I133  1  0.998407  0.574221  0.439117  1
  I  I134  1  0.501593  0.425779  0.939117  1
  I  I135  1  0.495992  0.204163  0.393644  1
  I  I136  1  0.736677  0.424540  0.170662  1
  I  I137  1  0.237724  0.575170  0.669341  1
  I  I138  1  0.504008  0.704163  0.106356  1
  I  I139  1  0.737724  0.924830  0.330659  1
  I  I140  1  0.263323  0.924540  0.329338  1
  I  I141  1  0.262276  0.424830  0.169341  1
  I  I142  1  0.498407  0.925779  0.560883  1
  I  I143  1  0.763323  0.575460  0.670662  1
  I  I144  1  0.995992  0.295837  0.606356  1
  I  I145  1  0.004008  0.795837  0.893644  1
  I  I146  1  0.762276  0.075170  0.830659  1
  I  I147  1  0.236677  0.075460  0.829338  1
  N  N148  1  0.987040  0.395350  0.898993  1
  N  N149  1  0.012960  0.895350  0.601007  1
  N  N150  1  0.997722  0.723389  0.157417  1
  N  N151  1  0.497722  0.776611  0.842583  1
  N  N152  1  0.002278  0.223389  0.342583  1
  N  N153  1  0.512960  0.604650  0.398993  1
  N  N154  1  0.502278  0.276611  0.657417  1
  N  N155  1  0.487040  0.104650  0.101007  1
