# generated using pymatgen
data_Li3TeHO4
_symmetry_space_group_name_H-M   'P 1'
_cell_length_a   6.86575821
_cell_length_b   6.41739829
_cell_length_c   5.52695037
_cell_angle_alpha   90.00000000
_cell_angle_beta   113.26049854
_cell_angle_gamma   90.00000000
_symmetry_Int_Tables_number   1
_chemical_formula_structural   Li3TeHO4
_chemical_formula_sum   'Li6 Te2 H2 O8'
_cell_volume   223.72560842
_cell_formula_units_Z   2
loop_
 _symmetry_equiv_pos_site_id
 _symmetry_equiv_pos_as_xyz
  1  'x, y, z'
loop_
 _atom_site_type_symbol
 _atom_site_label
 _atom_site_symmetry_multiplicity
 _atom_site_fract_x
 _atom_site_fract_y
 _atom_site_fract_z
 _atom_site_occupancy
  Li  Li0  1  0.649181  0.250000  0.717681  1
  Li  Li1  1  0.350819  0.750000  0.282319  1
  Li  Li2  1  0.651736  0.484803  0.251906  1
  Li  Li3  1  0.348264  0.984803  0.748094  1
  Li  Li4  1  0.348264  0.515197  0.748094  1
  Li  Li5  1  0.651736  0.015197  0.251906  1
  Te  Te6  1  0.185655  0.250000  0.175295  1
  Te  Te7  1  0.814345  0.750000  0.824705  1
  H  H8  1  0.938047  0.250000  0.516081  1
  H  H9  1  0.061953  0.750000  0.483919  1
  O  O10  1  0.322029  0.250000  0.547996  1
  O  O11  1  0.677971  0.750000  0.452004  1
  O  O12  1  0.327840  0.475135  0.094408  1
  O  O13  1  0.672160  0.975135  0.905592  1
  O  O14  1  0.672160  0.524865  0.905592  1
  O  O15  1  0.327840  0.024865  0.094408  1
  O  O16  1  0.786163  0.250000  0.473460  1
  O  O17  1  0.213837  0.750000  0.526540  1
