# generated using pymatgen
data_Ti5P3
_symmetry_space_group_name_H-M   'P 1'
_cell_length_a   6.48758083
_cell_length_b   7.39000271
_cell_length_c   9.83863193
_cell_angle_alpha   90.00000000
_cell_angle_beta   90.00000000
_cell_angle_gamma   90.00000000
_symmetry_Int_Tables_number   1
_chemical_formula_structural   Ti5P3
_chemical_formula_sum   'Ti20 P12'
_cell_volume   471.69589106
_cell_formula_units_Z   4
loop_
 _symmetry_equiv_pos_site_id
 _symmetry_equiv_pos_as_xyz
  1  'x, y, z'
loop_
 _atom_site_type_symbol
 _atom_site_label
 _atom_site_symmetry_multiplicity
 _atom_site_fract_x
 _atom_site_fract_y
 _atom_site_fract_z
 _atom_site_occupancy
  Ti  Ti0  1  0.843032  0.250000  0.223403  1
  Ti  Ti1  1  0.807113  0.955236  0.924083  1
  Ti  Ti2  1  0.145367  0.250000  0.793810  1
  Ti  Ti3  1  0.156968  0.750000  0.776597  1
  Ti  Ti4  1  0.354633  0.250000  0.293810  1
  Ti  Ti5  1  0.692887  0.955236  0.424083  1
  Ti  Ti6  1  0.971208  0.250000  0.500331  1
  Ti  Ti7  1  0.028792  0.750000  0.499669  1
  Ti  Ti8  1  0.192887  0.044764  0.075917  1
  Ti  Ti9  1  0.645367  0.750000  0.706190  1
  Ti  Ti10  1  0.471208  0.750000  0.999669  1
  Ti  Ti11  1  0.692887  0.544764  0.424083  1
  Ti  Ti12  1  0.343032  0.750000  0.276597  1
  Ti  Ti13  1  0.656968  0.250000  0.723403  1
  Ti  Ti14  1  0.307113  0.044764  0.575917  1
  Ti  Ti15  1  0.307113  0.455236  0.575917  1
  Ti  Ti16  1  0.854633  0.750000  0.206190  1
  Ti  Ti17  1  0.192887  0.455236  0.075917  1
  Ti  Ti18  1  0.807113  0.544764  0.924083  1
  Ti  Ti19  1  0.528792  0.250000  0.000331  1
  P  P20  1  0.423715  0.750000  0.512410  1
  P  P21  1  0.930512  0.991622  0.673525  1
  P  P22  1  0.923715  0.250000  0.987590  1
  P  P23  1  0.430512  0.491622  0.826475  1
  P  P24  1  0.076285  0.750000  0.012410  1
  P  P25  1  0.069488  0.491622  0.326475  1
  P  P26  1  0.576285  0.250000  0.487590  1
  P  P27  1  0.569488  0.508378  0.173525  1
  P  P28  1  0.569488  0.991622  0.173525  1
  P  P29  1  0.930512  0.508378  0.673525  1
  P  P30  1  0.069488  0.008378  0.326475  1
  P  P31  1  0.430512  0.008378  0.826475  1
