# generated using pymatgen
data_BaNa2Al4(SiO4)4
_symmetry_space_group_name_H-M   'P 1'
_cell_length_a   8.65478435
_cell_length_b   10.07509698
_cell_length_c   10.73692116
_cell_angle_alpha   117.89181534
_cell_angle_beta   113.79636410
_cell_angle_gamma   90.01721631
_symmetry_Int_Tables_number   1
_chemical_formula_structural   BaNa2Al4(SiO4)4
_chemical_formula_sum   'Ba2 Na4 Al8 Si8 O32'
_cell_volume   736.14832832
_cell_formula_units_Z   2
loop_
 _symmetry_equiv_pos_site_id
 _symmetry_equiv_pos_as_xyz
  1  'x, y, z'
loop_
 _atom_site_type_symbol
 _atom_site_label
 _atom_site_symmetry_multiplicity
 _atom_site_fract_x
 _atom_site_fract_y
 _atom_site_fract_z
 _atom_site_occupancy
  Ba  Ba0  1  0.248301  0.250051  0.500261  1
  Ba  Ba1  1  0.752961  0.750008  0.499959  1
  Na  Na2  1  0.035794  0.822583  0.997059  1
  Na  Na3  1  0.461189  0.325019  0.001360  1
  Na  Na4  1  0.537006  0.675188  0.998054  1
  Na  Na5  1  0.962591  0.176689  0.002219  1
  Al  Al6  1  0.266452  0.652668  0.680457  1
  Al  Al7  1  0.412434  0.028755  0.682571  1
  Al  Al8  1  0.314156  0.647957  0.187663  1
  Al  Al9  1  0.373725  0.146627  0.186219  1
  Al  Al10  1  0.766912  0.526980  0.679956  1
  Al  Al11  1  0.913189  0.153230  0.682532  1
  Al  Al12  1  0.812072  0.038626  0.185196  1
  Al  Al13  1  0.873579  0.538221  0.183627  1
  Si  Si14  1  0.137579  0.466008  0.815092  1
  Si  Si15  1  0.175097  0.965754  0.814238  1
  Si  Si16  1  0.080489  0.853248  0.316466  1
  Si  Si17  1  0.237826  0.464689  0.316791  1
  Si  Si18  1  0.637484  0.847647  0.812761  1
  Si  Si19  1  0.673214  0.346922  0.812045  1
  Si  Si20  1  0.581163  0.963464  0.316529  1
  Si  Si21  1  0.738133  0.352242  0.316266  1
  O  O22  1  0.069484  0.278025  0.694664  1
  O  O23  1  0.122512  0.777828  0.692499  1
  O  O24  1  -0.000353  0.974284  0.258595  1
  O  O25  1  0.248831  0.528832  0.751940  1
  O  O26  1  0.045424  0.447511  0.184429  1
  O  O27  1  0.336236  0.054667  0.819640  1
  O  O28  1  0.246855  0.529698  0.490847  1
  O  O29  1  0.241512  0.961288  0.493202  1
  O  O30  1  0.146857  0.743699  0.187430  1
  O  O31  1  0.479986  0.764292  0.816585  1
  O  O32  1  0.259410  0.285330  0.257906  1
  O  O33  1  0.497164  0.224049  0.750871  1
  O  O34  1  0.216505  0.004188  0.993212  1
  O  O35  1  0.380183  0.572024  0.316190  1
  O  O36  1  0.276047  0.505171  0.994058  1
  O  O37  1  0.568359  0.915494  0.692342  1
  O  O38  1  0.437489  0.069992  0.313550  1
  O  O39  1  0.621404  0.412768  0.689669  1
  O  O40  1  0.502204  0.784464  0.259304  1
  O  O41  1  0.749446  0.722244  0.750113  1
  O  O42  1  0.543985  0.239995  0.186734  1
  O  O43  1  0.833145  0.261912  0.816945  1
  O  O44  1  0.745380  0.031101  0.491383  1
  O  O45  1  0.751915  0.462029  0.491997  1
  O  O46  1  0.642876  0.944889  0.184824  1
  O  O47  1  0.979360  0.552180  0.818801  1
  O  O48  1  0.760445  0.471514  0.256294  1
  O  O49  1  -0.000598  0.027409  0.751899  1
  O  O50  1  0.716075  0.488187  0.990745  1
  O  O51  1  0.878857  0.242766  0.313334  1
  O  O52  1  0.775320  0.987837  0.991898  1
  O  O53  1  0.936341  0.741754  0.310786  1
