# generated using pymatgen
data_MnTe
_symmetry_space_group_name_H-M   'P 1'
_cell_length_a   4.22239378
_cell_length_b   7.14853050
_cell_length_c   7.14725489
_cell_angle_alpha   71.94724847
_cell_angle_beta   89.99995077
_cell_angle_gamma   90.00017441
_symmetry_Int_Tables_number   1
_chemical_formula_structural   MnTe
_chemical_formula_sum   'Mn4 Te4'
_cell_volume   205.11195810
_cell_formula_units_Z   4
loop_
 _symmetry_equiv_pos_site_id
 _symmetry_equiv_pos_as_xyz
  1  'x, y, z'
loop_
 _atom_site_type_symbol
 _atom_site_label
 _atom_site_symmetry_multiplicity
 _atom_site_fract_x
 _atom_site_fract_y
 _atom_site_fract_z
 _atom_site_occupancy
  Mn  Mn0  1  0.249994  0.524767  0.200630  1
  Mn  Mn1  1  0.250003  0.117959  0.382511  1
  Mn  Mn2  1  0.750000  0.883649  0.617917  1
  Mn  Mn3  1  0.750002  0.475163  0.797642  1
  Te  Te4  1  0.749998  0.749157  0.001411  1
  Te  Te5  1  0.250000  0.719479  0.495591  1
  Te  Te6  1  0.250000  0.249760  -0.001688  1
  Te  Te7  1  0.750002  0.280066  0.505984  1
