# generated using pymatgen
data_H4N2O3
_symmetry_space_group_name_H-M   'P 1'
_cell_length_a   5.80418466
_cell_length_b   5.45861029
_cell_length_c   4.99073651
_cell_angle_alpha   90.00000000
_cell_angle_beta   90.00000000
_cell_angle_gamma   90.00000000
_symmetry_Int_Tables_number   1
_chemical_formula_structural   H4N2O3
_chemical_formula_sum   'H8 N4 O6'
_cell_volume   158.12041742
_cell_formula_units_Z   2
loop_
 _symmetry_equiv_pos_site_id
 _symmetry_equiv_pos_as_xyz
  1  'x, y, z'
loop_
 _atom_site_type_symbol
 _atom_site_label
 _atom_site_symmetry_multiplicity
 _atom_site_fract_x
 _atom_site_fract_y
 _atom_site_fract_z
 _atom_site_occupancy
  H  H0  1  0.100754  0.750000  0.196329  1
  H  H1  1  0.399246  0.750000  0.196329  1
  H  H2  1  0.899246  0.250000  0.803671  1
  H  H3  1  0.600754  0.250000  0.803671  1
  H  H4  1  0.250000  0.595959  0.961596  1
  H  H5  1  0.250000  0.904041  0.961596  1
  H  H6  1  0.750000  0.404041  0.038404  1
  H  H7  1  0.750000  0.095959  0.038404  1
  N  N8  1  0.250000  0.750000  0.081356  1
  N  N9  1  0.750000  0.250000  0.918644  1
  N  N10  1  0.750000  0.750000  0.494502  1
  N  N11  1  0.250000  0.250000  0.505498  1
  O  O12  1  0.750000  0.750000  0.234950  1
  O  O13  1  0.250000  0.250000  0.765050  1
  O  O14  1  0.939651  0.750000  0.617045  1
  O  O15  1  0.560349  0.750000  0.617045  1
  O  O16  1  0.060349  0.250000  0.382955  1
  O  O17  1  0.439651  0.250000  0.382955  1
