# generated using pymatgen
data_Ba9(NdS6)2
_symmetry_space_group_name_H-M   'P 1'
_cell_length_a   13.43746256
_cell_length_b   7.76160346
_cell_length_c   17.83817346
_cell_angle_alpha   54.53831610
_cell_angle_beta   59.84040888
_cell_angle_gamma   29.99795500
_symmetry_Int_Tables_number   1
_chemical_formula_structural   Ba9(NdS6)2
_chemical_formula_sum   'Ba9 Nd2 S12'
_cell_volume   757.62675578
_cell_formula_units_Z   1
loop_
 _symmetry_equiv_pos_site_id
 _symmetry_equiv_pos_as_xyz
  1  'x, y, z'
loop_
 _atom_site_type_symbol
 _atom_site_label
 _atom_site_symmetry_multiplicity
 _atom_site_fract_x
 _atom_site_fract_y
 _atom_site_fract_z
 _atom_site_occupancy
  Ba  Ba0  1  0.000418  0.001078  0.239638  1
  Ba  Ba1  1  0.000168  0.998799  0.500155  1
  Ba  Ba2  1  0.000303  0.996215  0.760373  1
  Ba  Ba3  1  0.322419  0.995410  0.761212  1
  Ba  Ba4  1  0.322263  0.035085  0.239612  1
  Ba  Ba5  1  0.337236  0.993168  0.500210  1
  Ba  Ba6  1  0.678097  0.000682  0.239946  1
  Ba  Ba7  1  0.662830  0.004963  0.500032  1
  Ba  Ba8  1  0.678052  0.963044  0.760574  1
  Nd  Nd9  1  0.334407  0.998213  0.000153  1
  Nd  Nd10  1  0.667597  0.998123  0.000238  1
  S  S11  1  0.000672  0.483265  0.109847  1
  S  S12  1  0.000163  0.501723  0.373023  1
  S  S13  1  0.369258  0.484092  0.109276  1
  S  S14  1  0.000405  0.495403  0.627415  1
  S  S15  1  0.333085  0.507448  0.368881  1
  S  S16  1  0.000746  0.512934  0.890967  1
  S  S17  1  0.632076  0.589883  0.109514  1
  S  S18  1  0.333305  0.490840  0.631397  1
  S  S19  1  0.666999  0.506445  0.368982  1
  S  S20  1  0.369524  0.406818  0.890609  1
  S  S21  1  0.666780  0.490969  0.631464  1
  S  S22  1  0.632308  0.512959  0.890785  1
