# generated using pymatgen
data_Na2VCuF7
_symmetry_space_group_name_H-M   'P 1'
_cell_length_a   7.29970065
_cell_length_b   7.63846895
_cell_length_c   10.51504603
_cell_angle_alpha   90.00000000
_cell_angle_beta   90.00000000
_cell_angle_gamma   90.00000000
_symmetry_Int_Tables_number   1
_chemical_formula_structural   Na2VCuF7
_chemical_formula_sum   'Na8 V4 Cu4 F28'
_cell_volume   586.30358059
_cell_formula_units_Z   4
loop_
 _symmetry_equiv_pos_site_id
 _symmetry_equiv_pos_as_xyz
  1  'x, y, z'
loop_
 _atom_site_type_symbol
 _atom_site_label
 _atom_site_symmetry_multiplicity
 _atom_site_fract_x
 _atom_site_fract_y
 _atom_site_fract_z
 _atom_site_occupancy
  Cu  Cu0  1  0.000000  0.000000  0.000000  1
  Cu  Cu1  1  0.500000  0.000000  0.000000  1
  Cu  Cu2  1  0.000000  0.500000  0.500000  1
  Cu  Cu3  1  0.500000  0.500000  0.500000  1
  V  V4  1  0.250000  0.726308  0.761640  1
  V  V5  1  0.750000  0.273692  0.238360  1
  V  V6  1  0.750000  0.226308  0.738360  1
  V  V7  1  0.250000  0.773692  0.261640  1
  F  F8  1  0.250000  0.085189  0.990273  1
  F  F9  1  0.750000  0.914811  0.009727  1
  F  F10  1  0.750000  0.585189  0.509727  1
  F  F11  1  0.250000  0.414811  0.490273  1
  F  F12  1  0.250000  0.954483  0.670419  1
  F  F13  1  0.750000  0.045517  0.329581  1
  F  F14  1  0.750000  0.454483  0.829581  1
  F  F15  1  0.250000  0.545517  0.170419  1
  F  F16  1  0.250000  0.492868  0.847416  1
  F  F17  1  0.750000  0.507132  0.152584  1
  F  F18  1  0.750000  0.992868  0.652584  1
  F  F19  1  0.250000  0.007132  0.347416  1
  F  F20  1  0.952041  0.164512  0.852574  1
  F  F21  1  0.452041  0.835488  0.147426  1
  F  F22  1  0.047959  0.664512  0.647426  1
  F  F23  1  0.547959  0.335488  0.352574  1
  F  F24  1  0.047959  0.835488  0.147426  1
  F  F25  1  0.547959  0.164512  0.852574  1
  F  F26  1  0.952041  0.335488  0.352574  1
  F  F27  1  0.452041  0.664512  0.647426  1
  F  F28  1  0.050308  0.779231  0.881098  1
  F  F29  1  0.550308  0.220769  0.118902  1
  F  F30  1  0.949692  0.279231  0.618902  1
  F  F31  1  0.449692  0.720769  0.381098  1
  F  F32  1  0.949692  0.220769  0.118902  1
  F  F33  1  0.449692  0.779231  0.881098  1
  F  F34  1  0.050308  0.720769  0.381098  1
  F  F35  1  0.550308  0.279231  0.618902  1
  Na  Na36  1  0.000000  0.500000  0.000000  1
  Na  Na37  1  0.500000  0.500000  0.000000  1
  Na  Na38  1  0.000000  0.000000  0.500000  1
  Na  Na39  1  0.500000  0.000000  0.500000  1
  Na  Na40  1  0.250000  0.222925  0.760664  1
  Na  Na41  1  0.750000  0.777075  0.239336  1
  Na  Na42  1  0.750000  0.722925  0.739336  1
  Na  Na43  1  0.250000  0.277075  0.260664  1
