# generated using pymatgen
data_Mo2HO6
_symmetry_space_group_name_H-M   'P 1'
_cell_length_a   8.19975296
_cell_length_b   8.15327194
_cell_length_c   3.81155776
_cell_angle_alpha   91.09510112
_cell_angle_beta   90.86331331
_cell_angle_gamma   27.23482240
_symmetry_Int_Tables_number   1
_chemical_formula_structural   Mo2HO6
_chemical_formula_sum   'Mo2 H1 O6'
_cell_volume   116.59353756
_cell_formula_units_Z   1
loop_
 _symmetry_equiv_pos_site_id
 _symmetry_equiv_pos_as_xyz
  1  'x, y, z'
loop_
 _atom_site_type_symbol
 _atom_site_label
 _atom_site_symmetry_multiplicity
 _atom_site_fract_x
 _atom_site_fract_y
 _atom_site_fract_z
 _atom_site_occupancy
  Mo  Mo0  1  0.085531  0.091764  0.257102  1
  Mo  Mo1  1  0.906938  0.906871  0.749203  1
  H  H2  1  0.024401  0.444491  0.387982  1
  O  O3  1  0.945522  0.937863  0.251987  1
  O  O4  1  0.060065  0.056945  0.755680  1
  O  O5  1  0.588408  0.586766  0.253423  1
  O  O6  1  0.425067  0.414709  0.753534  1
  O  O7  1  0.212502  0.202883  0.293951  1
  O  O8  1  0.814510  0.783819  0.728721  1
