# generated using pymatgen
data_Ca4La4Mn7NiO24
_symmetry_space_group_name_H-M   'P 1'
_cell_length_a   5.47686057
_cell_length_b   10.94957468
_cell_length_c   9.45473619
_cell_angle_alpha   54.68526911
_cell_angle_beta   89.95949170
_cell_angle_gamma   90.02744290
_symmetry_Int_Tables_number   1
_chemical_formula_structural   Ca4La4Mn7NiO24
_chemical_formula_sum   'Ca4 La4 Mn7 Ni1 O24'
_cell_volume   462.66035416
_cell_formula_units_Z   1
loop_
 _symmetry_equiv_pos_site_id
 _symmetry_equiv_pos_as_xyz
  1  'x, y, z'
loop_
 _atom_site_type_symbol
 _atom_site_label
 _atom_site_symmetry_multiplicity
 _atom_site_fract_x
 _atom_site_fract_y
 _atom_site_fract_z
 _atom_site_occupancy
  Ca  Ca0  1  0.468253  0.866151  0.753581  1
  Ca  Ca1  1  0.533233  0.632665  0.246634  1
  Ca  Ca2  1  0.969415  0.128326  0.752059  1
  Ca  Ca3  1  0.968179  0.630020  0.751139  1
  La  La4  1  0.020095  0.375954  0.247058  1
  La  La5  1  0.022482  0.872815  0.247855  1
  La  La6  1  0.477772  0.370999  0.752613  1
  La  La7  1  0.522429  0.127624  0.248679  1
  Mn  Mn8  1  0.001048  0.500312  0.501524  1
  Mn  Mn9  1  -0.000025  0.995946  0.507001  1
  Mn  Mn10  1  0.499900  0.248022  0.504037  1
  Mn  Mn11  1  0.500146  0.748278  0.503662  1
  Mn  Mn12  1  0.499314  -0.000589  0.992028  1
  Mn  Mn13  1  0.500909  0.503592  0.000948  1
  Mn  Mn14  1  0.001226  0.752233  0.995397  1
  Ni  Ni15  1  0.000852  0.251914  0.996477  1
  O  O16  1  0.011865  0.418675  0.741190  1
  O  O17  1  0.021764  0.915297  0.752006  1
  O  O18  1  0.234244  0.125088  0.961409  1
  O  O19  1  0.215485  0.631197  0.959179  1
  O  O20  1  0.223768  0.338997  0.543977  1
  O  O21  1  0.221414  0.842411  0.537021  1
  O  O22  1  0.281163  0.350033  0.038101  1
  O  O23  1  0.278900  0.631015  0.457946  1
  O  O24  1  0.272506  0.136829  0.457287  1
  O  O25  1  0.276365  0.836667  0.044312  1
  O  O26  1  0.490777  0.414326  0.250672  1
  O  O27  1  0.493953  0.908698  0.247872  1
  O  O28  1  0.520137  0.082405  0.750347  1
  O  O29  1  0.514456  0.589336  0.751696  1
  O  O30  1  0.719096  0.147640  0.965387  1
  O  O31  1  0.728094  0.365013  0.541056  1
  O  O32  1  0.724629  0.661809  0.957904  1
  O  O33  1  0.721201  0.870796  0.537831  1
  O  O34  1  0.770697  0.158102  0.457157  1
  O  O35  1  0.774475  0.655031  0.461914  1
  O  O36  1  0.761818  0.371222  0.038341  1
  O  O37  1  0.778840  0.865489  0.040122  1
  O  O38  1  0.994436  0.088010  0.258561  1
  O  O39  1  0.984683  0.591651  0.248020  1
