# generated using pymatgen
data_Ce6Si4S17
_symmetry_space_group_name_H-M   'P 1'
_cell_length_a   9.01100829
_cell_length_b   10.06565539
_cell_length_c   14.33625728
_cell_angle_alpha   82.26872617
_cell_angle_beta   86.86345495
_cell_angle_gamma   89.24233313
_symmetry_Int_Tables_number   1
_chemical_formula_structural   Ce6Si4S17
_chemical_formula_sum   'Ce12 Si8 S34'
_cell_volume   1286.55012784
_cell_formula_units_Z   2
loop_
 _symmetry_equiv_pos_site_id
 _symmetry_equiv_pos_as_xyz
  1  'x, y, z'
loop_
 _atom_site_type_symbol
 _atom_site_label
 _atom_site_symmetry_multiplicity
 _atom_site_fract_x
 _atom_site_fract_y
 _atom_site_fract_z
 _atom_site_occupancy
  Ce  Ce0  1  0.170509  0.088545  0.658035  1
  Ce  Ce1  1  0.520364  0.268346  0.458477  1
  Ce  Ce2  1  0.606044  0.884703  0.817219  1
  Ce  Ce3  1  0.130250  0.430555  0.325506  1
  Ce  Ce4  1  0.417883  0.421042  0.833388  1
  Ce  Ce5  1  0.948596  0.238772  0.000574  1
  Ce  Ce6  1  0.393956  0.115297  0.182781  1
  Ce  Ce7  1  0.479636  0.731654  0.541523  1
  Ce  Ce8  1  0.869750  0.569445  0.674494  1
  Ce  Ce9  1  0.829491  0.911455  0.341965  1
  Ce  Ce10  1  0.051404  0.761228  0.999426  1
  Ce  Ce11  1  0.582117  0.578958  0.166612  1
  Si  Si12  1  0.773746  0.558469  0.394264  1
  Si  Si13  1  0.752361  0.559415  0.922849  1
  Si  Si14  1  0.250981  0.999117  0.415269  1
  Si  Si15  1  0.730834  0.937877  0.099143  1
  Si  Si16  1  0.269166  0.062123  0.900857  1
  Si  Si17  1  0.226254  0.441531  0.605736  1
  Si  Si18  1  0.247639  0.440585  0.077151  1
  Si  Si19  1  0.749019  0.000883  0.584731  1
  S  S20  1  0.746487  0.113394  0.167389  1
  S  S21  1  0.132654  0.216662  0.832680  1
  S  S22  1  0.203179  0.589625  0.695490  1
  S  S23  1  0.571282  0.645970  0.721157  1
  S  S24  1  0.018182  0.347176  0.602877  1
  S  S25  1  0.317105  0.518687  0.466591  1
  S  S26  1  0.394190  0.299412  0.653704  1
  S  S27  1  0.854648  0.028551  0.707333  1
  S  S28  1  0.457842  0.352762  0.049007  1
  S  S29  1  0.605810  0.700588  0.346296  1
  S  S30  1  0.884012  0.711218  0.838455  1
  S  S31  1  0.491036  0.127545  0.885909  1
  S  S32  1  0.242321  0.613381  0.150050  1
  S  S33  1  0.757679  0.386619  0.849950  1
  S  S34  1  0.839083  0.501630  0.056797  1
  S  S35  1  0.508964  0.872455  0.114091  1
  S  S36  1  0.191571  0.866207  0.536825  1
  S  S37  1  0.115988  0.288782  0.161545  1
  S  S38  1  0.821638  0.981286  0.956883  1
  S  S39  1  0.515256  0.994282  0.623103  1
  S  S40  1  0.867346  0.783338  0.167320  1
  S  S41  1  0.160917  0.498370  0.943203  1
  S  S42  1  0.542158  0.647238  0.950993  1
  S  S43  1  0.682895  0.481313  0.533409  1
  S  S44  1  0.178362  0.018714  0.043117  1
  S  S45  1  0.808429  0.133793  0.463175  1
  S  S46  1  0.484744  0.005718  0.376897  1
  S  S47  1  0.793324  0.808944  0.540216  1
  S  S48  1  0.253513  0.886606  0.832611  1
  S  S49  1  0.428718  0.354030  0.278843  1
  S  S50  1  0.145352  0.971449  0.292667  1
  S  S51  1  0.206676  0.191056  0.459784  1
  S  S52  1  0.981818  0.652824  0.397123  1
  S  S53  1  0.796821  0.410375  0.304510  1
