# generated using pymatgen
data_H3NO
_symmetry_space_group_name_H-M   'P 1'
_cell_length_a   7.08258317
_cell_length_b   4.58794967
_cell_length_c   4.69987823
_cell_angle_alpha   90.00000000
_cell_angle_beta   90.00000000
_cell_angle_gamma   91.13015632
_symmetry_Int_Tables_number   1
_chemical_formula_structural   H3NO
_chemical_formula_sum   'H12 N4 O4'
_cell_volume   152.69064944
_cell_formula_units_Z   4
loop_
 _symmetry_equiv_pos_site_id
 _symmetry_equiv_pos_as_xyz
  1  'x, y, z'
loop_
 _atom_site_type_symbol
 _atom_site_label
 _atom_site_symmetry_multiplicity
 _atom_site_fract_x
 _atom_site_fract_y
 _atom_site_fract_z
 _atom_site_occupancy
  H  H0  1  0.854447  0.850834  0.551922  1
  H  H1  1  0.768279  0.344387  0.797716  1
  H  H2  1  0.051548  0.282907  0.280273  1
  H  H3  1  0.645553  0.149166  0.051922  1
  H  H4  1  0.731721  0.655613  0.297716  1
  H  H5  1  0.448452  0.717093  0.780273  1
  H  H6  1  0.274676  0.141987  0.238407  1
  H  H7  1  0.542911  0.219360  0.730712  1
  H  H8  1  0.325229  0.644651  0.477832  1
  H  H9  1  0.225324  0.858013  0.738407  1
  H  H10  1  0.957089  0.780640  0.230712  1
  H  H11  1  0.174771  0.355349  0.977832  1
  N  N12  1  0.864093  0.693115  0.396968  1
  N  N13  1  0.635907  0.306885  0.896968  1
  N  N14  1  0.351577  0.806354  0.623726  1
  N  N15  1  0.148423  0.193646  0.123726  1
  O  O16  1  0.935378  0.434728  0.521089  1
  O  O17  1  0.564622  0.565272  0.021089  1
  O  O18  1  0.430527  0.056873  0.486165  1
  O  O19  1  0.069473  0.943127  -0.013835  1
