# generated using pymatgen
data_SiO2
_symmetry_space_group_name_H-M   'P 1'
_cell_length_a   18.43845466
_cell_length_b   13.82628410
_cell_length_c   9.76362389
_cell_angle_alpha   90.00000000
_cell_angle_beta   90.00000000
_cell_angle_gamma   90.00000000
_symmetry_Int_Tables_number   1
_chemical_formula_structural   SiO2
_chemical_formula_sum   'Si48 O96'
_cell_volume   2489.09250747
_cell_formula_units_Z   48
loop_
 _symmetry_equiv_pos_site_id
 _symmetry_equiv_pos_as_xyz
  1  'x, y, z'
loop_
 _atom_site_type_symbol
 _atom_site_label
 _atom_site_symmetry_multiplicity
 _atom_site_fract_x
 _atom_site_fract_y
 _atom_site_fract_z
 _atom_site_occupancy
  Si  Si0  1  0.085372  0.573236  0.372051  1
  Si  Si1  1  0.085372  0.426764  0.627949  1
  Si  Si2  1  0.414628  0.573236  0.127949  1
  Si  Si3  1  0.414628  0.426764  0.872051  1
  Si  Si4  1  0.914628  0.426764  0.627949  1
  Si  Si5  1  0.914628  0.573236  0.372051  1
  Si  Si6  1  0.585372  0.426764  0.872051  1
  Si  Si7  1  0.585372  0.573236  0.127949  1
  Si  Si8  1  0.585372  0.073236  0.372051  1
  Si  Si9  1  0.585372  0.926764  0.627949  1
  Si  Si10  1  0.914628  0.073236  0.127949  1
  Si  Si11  1  0.914628  0.926764  0.872051  1
  Si  Si12  1  0.414628  0.926764  0.627949  1
  Si  Si13  1  0.414628  0.073236  0.372051  1
  Si  Si14  1  0.085372  0.926764  0.872051  1
  Si  Si15  1  0.085372  0.073236  0.127949  1
  Si  Si16  1  0.179084  0.531869  0.840060  1
  Si  Si17  1  0.179084  0.468131  0.159940  1
  Si  Si18  1  0.320916  0.531869  0.659940  1
  Si  Si19  1  0.320916  0.468131  0.340060  1
  Si  Si20  1  0.820916  0.468131  0.159940  1
  Si  Si21  1  0.820916  0.531869  0.840060  1
  Si  Si22  1  0.679084  0.468131  0.340060  1
  Si  Si23  1  0.679084  0.531869  0.659940  1
  Si  Si24  1  0.679084  0.031869  0.840060  1
  Si  Si25  1  0.679084  0.968131  0.159940  1
  Si  Si26  1  0.820916  0.031869  0.659940  1
  Si  Si27  1  0.820916  0.968131  0.340060  1
  Si  Si28  1  0.320916  0.968131  0.159940  1
  Si  Si29  1  0.320916  0.031869  0.840060  1
  Si  Si30  1  0.179084  0.968131  0.340060  1
  Si  Si31  1  0.179084  0.031869  0.659940  1
  Si  Si32  1  0.302108  0.744653  0.131425  1
  Si  Si33  1  0.302108  0.255347  0.868575  1
  Si  Si34  1  0.197892  0.744653  0.368575  1
  Si  Si35  1  0.197892  0.255347  0.631425  1
  Si  Si36  1  0.697892  0.255347  0.868575  1
  Si  Si37  1  0.697892  0.744653  0.131425  1
  Si  Si38  1  0.802108  0.255347  0.631425  1
  Si  Si39  1  0.802108  0.744653  0.368575  1
  Si  Si40  1  0.802108  0.244653  0.131425  1
  Si  Si41  1  0.802108  0.755347  0.868575  1
  Si  Si42  1  0.697892  0.244653  0.368575  1
  Si  Si43  1  0.697892  0.755347  0.631425  1
  Si  Si44  1  0.197892  0.755347  0.868575  1
  Si  Si45  1  0.197892  0.244653  0.131425  1
  Si  Si46  1  0.302108  0.755347  0.631425  1
  Si  Si47  1  0.302108  0.244653  0.368575  1
  O  O48  1  0.109535  0.522978  0.227238  1
  O  O49  1  0.109535  0.477022  0.772762  1
  O  O50  1  0.390465  0.522978  0.272762  1
  O  O51  1  0.390465  0.477022  0.727238  1
  O  O52  1  0.890465  0.477022  0.772762  1
  O  O53  1  0.890465  0.522978  0.227238  1
  O  O54  1  0.609535  0.477022  0.727238  1
  O  O55  1  0.609535  0.522978  0.272762  1
  O  O56  1  0.609535  0.022978  0.227238  1
  O  O57  1  0.609535  0.977022  0.772762  1
  O  O58  1  0.890465  0.022978  0.272762  1
  O  O59  1  0.890465  0.977022  0.727238  1
  O  O60  1  0.390465  0.977022  0.772762  1
  O  O61  1  0.390465  0.022978  0.227238  1
  O  O62  1  0.109535  0.977022  0.727238  1
  O  O63  1  0.109535  0.022978  0.272762  1
  O  O64  1  0.100830  0.500000  0.500000  1
  O  O65  1  0.399170  0.500000  0.000000  1
  O  O66  1  0.899170  0.500000  0.500000  1
  O  O67  1  0.600830  0.500000  0.000000  1
  O  O68  1  0.600830  0.000000  0.500000  1
  O  O69  1  0.899170  0.000000  0.000000  1
  O  O70  1  0.399170  0.000000  0.500000  1
  O  O71  1  0.100830  0.000000  0.000000  1
  O  O72  1  0.000000  0.599968  0.362719  1
  O  O73  1  0.000000  0.400032  0.637281  1
  O  O74  1  0.500000  0.599968  0.137281  1
  O  O75  1  0.500000  0.400032  0.862719  1
  O  O76  1  0.500000  0.099968  0.362719  1
  O  O77  1  0.500000  0.900032  0.637281  1
  O  O78  1  0.000000  0.099968  0.137281  1
  O  O79  1  0.000000  0.900032  0.862719  1
  O  O80  1  0.129224  0.673926  0.395275  1
  O  O81  1  0.129224  0.326074  0.604725  1
  O  O82  1  0.370776  0.673926  0.104725  1
  O  O83  1  0.370776  0.326074  0.895275  1
  O  O84  1  0.870776  0.326074  0.604725  1
  O  O85  1  0.870776  0.673926  0.395275  1
  O  O86  1  0.629224  0.326074  0.895275  1
  O  O87  1  0.629224  0.673926  0.104725  1
  O  O88  1  0.629224  0.173926  0.395275  1
  O  O89  1  0.629224  0.826074  0.604725  1
  O  O90  1  0.870776  0.173926  0.104725  1
  O  O91  1  0.870776  0.826074  0.895275  1
  O  O92  1  0.370776  0.826074  0.604725  1
  O  O93  1  0.370776  0.173926  0.395275  1
  O  O94  1  0.129224  0.826074  0.895275  1
  O  O95  1  0.129224  0.173926  0.104725  1
  O  O96  1  0.167728  0.648255  0.828111  1
  O  O97  1  0.167728  0.351745  0.171889  1
  O  O98  1  0.332272  0.648255  0.671889  1
  O  O99  1  0.332272  0.351745  0.328111  1
  O  O100  1  0.832272  0.351745  0.171889  1
  O  O101  1  0.832272  0.648255  0.828111  1
  O  O102  1  0.667728  0.351745  0.328111  1
  O  O103  1  0.667728  0.648255  0.671889  1
  O  O104  1  0.667728  0.148255  0.828111  1
  O  O105  1  0.667728  0.851745  0.171889  1
  O  O106  1  0.832272  0.148255  0.671889  1
  O  O107  1  0.832272  0.851745  0.328111  1
  O  O108  1  0.332272  0.851745  0.171889  1
  O  O109  1  0.332272  0.148255  0.828111  1
  O  O110  1  0.167728  0.851745  0.328111  1
  O  O111  1  0.167728  0.148255  0.671889  1
  O  O112  1  0.250000  0.502435  0.750000  1
  O  O113  1  0.250000  0.497565  0.250000  1
  O  O114  1  0.750000  0.497565  0.250000  1
  O  O115  1  0.750000  0.502435  0.750000  1
  O  O116  1  0.750000  0.002435  0.750000  1
  O  O117  1  0.750000  0.997565  0.250000  1
  O  O118  1  0.250000  0.997565  0.250000  1
  O  O119  1  0.250000  0.002435  0.750000  1
  O  O120  1  0.188712  0.500000  0.000000  1
  O  O121  1  0.311288  0.500000  0.500000  1
  O  O122  1  0.811288  0.500000  0.000000  1
  O  O123  1  0.688712  0.500000  0.500000  1
  O  O124  1  0.688712  0.000000  0.000000  1
  O  O125  1  0.811288  0.000000  0.500000  1
  O  O126  1  0.311288  0.000000  0.000000  1
  O  O127  1  0.188712  0.000000  0.500000  1
  O  O128  1  0.250000  0.750000  0.000000  1
  O  O129  1  0.250000  0.250000  0.000000  1
  O  O130  1  0.250000  0.750000  0.500000  1
  O  O131  1  0.250000  0.250000  0.500000  1
  O  O132  1  0.750000  0.250000  0.000000  1
  O  O133  1  0.750000  0.750000  0.000000  1
  O  O134  1  0.750000  0.250000  0.500000  1
  O  O135  1  0.750000  0.750000  0.500000  1
  O  O136  1  0.250000  0.701078  0.250000  1
  O  O137  1  0.250000  0.298922  0.750000  1
  O  O138  1  0.750000  0.298922  0.750000  1
  O  O139  1  0.750000  0.701078  0.250000  1
  O  O140  1  0.750000  0.201078  0.250000  1
  O  O141  1  0.750000  0.798922  0.750000  1
  O  O142  1  0.250000  0.798922  0.750000  1
  O  O143  1  0.250000  0.201078  0.250000  1
