# generated using pymatgen
data_BaCO3
_symmetry_space_group_name_H-M   'P 1'
_cell_length_a   4.62171692
_cell_length_b   4.62171652
_cell_length_c   9.14572700
_cell_angle_alpha   69.88458061
_cell_angle_beta   69.88458252
_cell_angle_gamma   71.02263848
_symmetry_Int_Tables_number   1
_chemical_formula_structural   BaCO3
_chemical_formula_sum   'Ba2 C2 O6'
_cell_volume   167.43911846
_cell_formula_units_Z   2
loop_
 _symmetry_equiv_pos_site_id
 _symmetry_equiv_pos_as_xyz
  1  'x, y, z'
loop_
 _atom_site_type_symbol
 _atom_site_label
 _atom_site_symmetry_multiplicity
 _atom_site_fract_x
 _atom_site_fract_y
 _atom_site_fract_z
 _atom_site_occupancy
  Ba  Ba0  1  0.500000  0.500000  0.250000  1
  Ba  Ba1  1  0.500000  0.500000  0.750000  1
  C  C2  1  0.027754  0.027754  0.515912  1
  C  C3  1  0.972246  0.972246  0.984088  1
  O  O4  1  0.106103  0.686310  0.054714  1
  O  O5  1  0.686310  0.106103  0.054714  1
  O  O6  1  0.116799  0.116799  0.842956  1
  O  O7  1  0.313690  0.893898  0.445286  1
  O  O8  1  0.893898  0.313690  0.445286  1
  O  O9  1  0.883201  0.883201  0.657044  1
