# generated using pymatgen
data_GaGe5H6C4NO12
_symmetry_space_group_name_H-M   'P 1'
_cell_length_a   7.96433640
_cell_length_b   7.94135191
_cell_length_c   7.96433695
_cell_angle_alpha   110.49645926
_cell_angle_beta   108.50464680
_cell_angle_gamma   109.53877465
_symmetry_Int_Tables_number   1
_chemical_formula_structural   GaGe5H6C4NO12
_chemical_formula_sum   'Ga1 Ge5 H6 C4 N1 O12'
_cell_volume   387.07491808
_cell_formula_units_Z   1
loop_
 _symmetry_equiv_pos_site_id
 _symmetry_equiv_pos_as_xyz
  1  'x, y, z'
loop_
 _atom_site_type_symbol
 _atom_site_label
 _atom_site_symmetry_multiplicity
 _atom_site_fract_x
 _atom_site_fract_y
 _atom_site_fract_z
 _atom_site_occupancy
  Ga  Ga0  1  0.249336  0.500000  0.749336  1
  Ge  Ge1  1  0.251893  0.740977  0.497065  1
  Ge  Ge2  1  0.492540  0.246510  0.747603  1
  Ge  Ge3  1  0.501093  0.753490  0.246030  1
  Ge  Ge4  1  0.751285  0.500000  0.251285  1
  Ge  Ge5  1  0.756088  0.259023  0.510917  1
  H  H6  1  0.188217  0.994758  0.865081  1
  H  H7  1  0.345948  0.122448  0.155536  1
  H  H8  1  0.771461  0.756721  0.675732  1
  H  H9  1  0.033088  0.877552  0.223500  1
  H  H10  1  0.870322  0.005242  0.193458  1
  H  H11  1  0.919011  0.243279  0.014740  1
  C  C12  1  0.965436  0.948187  0.150998  1
  C  C13  1  0.202811  0.051813  0.017249  1
  C  C14  1  0.825960  0.903488  0.808036  1
  C  C15  1  0.904548  0.096512  0.922472  1
  N  N16  1  0.027958  1.000000  0.027958  1
  O  O17  1  0.995064  0.444241  0.722261  1
  O  O18  1  0.278020  0.555759  0.550823  1
  O  O19  1  0.283765  0.714945  0.279789  1
  O  O20  1  0.280491  0.272975  0.717613  1
  O  O21  1  0.433165  0.995295  0.713537  1
  O  O22  1  0.444638  0.727025  0.007516  1
  O  O23  1  0.718242  0.004705  0.437870  1
  O  O24  1  0.564844  0.285055  0.568820  1
  O  O25  1  0.581303  0.582022  0.298168  1
  O  O26  1  0.711622  0.285182  0.287887  1
  O  O27  1  0.716146  0.417978  0.999281  1
  O  O28  1  0.002705  0.714818  0.426440  1
