# generated using pymatgen
data_TbOF
_symmetry_space_group_name_H-M   'P 1'
_cell_length_a   12.97109416
_cell_length_b   4.49759217
_cell_length_c   6.84861564
_cell_angle_alpha   137.21637091
_cell_angle_beta   161.26010080
_cell_angle_gamma   39.19408466
_symmetry_Int_Tables_number   1
_chemical_formula_structural   TbOF
_chemical_formula_sum   'Tb2 O2 F2'
_cell_volume   81.11763764
_cell_formula_units_Z   2
loop_
 _symmetry_equiv_pos_site_id
 _symmetry_equiv_pos_as_xyz
  1  'x, y, z'
loop_
 _atom_site_type_symbol
 _atom_site_label
 _atom_site_symmetry_multiplicity
 _atom_site_fract_x
 _atom_site_fract_y
 _atom_site_fract_z
 _atom_site_occupancy
  Tb  Tb0  1  0.344935  0.577872  0.000000  1
  Tb  Tb1  1  0.655065  0.422128  1.000000  1
  O  O2  1  0.387376  0.007284  0.000000  1
  O  O3  1  0.612624  -0.007284  1.000000  1
  F  F4  1  0.110776  0.430690  1.000000  1
  F  F5  1  0.889224  0.569310  0.000000  1
