# generated using pymatgen
data_H6N4O9
_symmetry_space_group_name_H-M   'P 1'
_cell_length_a   6.86146055
_cell_length_b   13.55039522
_cell_length_c   4.52640664
_cell_angle_alpha   90.00000000
_cell_angle_beta   86.43361515
_cell_angle_gamma   90.00000000
_symmetry_Int_Tables_number   1
_chemical_formula_structural   H6N4O9
_chemical_formula_sum   'H12 N8 O18'
_cell_volume   420.02992105
_cell_formula_units_Z   2
loop_
 _symmetry_equiv_pos_site_id
 _symmetry_equiv_pos_as_xyz
  1  'x, y, z'
loop_
 _atom_site_type_symbol
 _atom_site_label
 _atom_site_symmetry_multiplicity
 _atom_site_fract_x
 _atom_site_fract_y
 _atom_site_fract_z
 _atom_site_occupancy
  H  H0  1  0.828613  0.041354  0.584760  1
  H  H1  1  0.171387  0.541354  0.915240  1
  H  H2  1  0.500029  0.977965  0.058640  1
  H  H3  1  0.372007  0.074546  0.694776  1
  H  H4  1  0.627993  0.574546  0.805224  1
  H  H5  1  0.499971  0.477965  0.441360  1
  H  H6  1  0.877649  0.442136  0.339194  1
  H  H7  1  0.122351  0.942136  0.160806  1
  H  H8  1  0.693479  0.866034  0.157075  1
  H  H9  1  0.919442  0.137719  0.022697  1
  H  H10  1  0.080558  0.637719  0.477303  1
  H  H11  1  0.306521  0.366034  0.342925  1
  N  N12  1  0.924841  0.510765  0.412778  1
  N  N13  1  0.075159  0.010765  0.087222  1
  N  N14  1  0.580684  0.019953  0.442235  1
  N  N15  1  0.419316  0.519953  0.057765  1
  N  N16  1  0.761719  0.728376  0.119845  1
  N  N17  1  0.790401  0.256992  0.881881  1
  N  N18  1  0.209599  0.756992  0.618119  1
  N  N19  1  0.238281  0.228376  0.380155  1
  O  O20  1  0.756923  0.980865  0.540273  1
  O  O21  1  0.243077  0.480865  0.959727  1
  O  O22  1  0.520886  0.943332  0.250112  1
  O  O23  1  0.443793  0.011839  0.701351  1
  O  O24  1  0.556207  0.511839  0.798649  1
  O  O25  1  0.479114  0.443332  0.249888  1
  O  O26  1  0.661694  0.712934  0.350205  1
  O  O27  1  0.676060  0.282687  0.702454  1
  O  O28  1  0.323940  0.782687  0.797546  1
  O  O29  1  0.338306  0.212934  0.149795  1
  O  O30  1  0.846524  0.666369  0.958816  1
  O  O31  1  0.894115  0.306423  0.034448  1
  O  O32  1  0.105885  0.806423  0.465552  1
  O  O33  1  0.153476  0.166369  0.541184  1
  O  O34  1  0.787461  0.823538  0.025586  1
  O  O35  1  0.800421  0.152570  0.915971  1
  O  O36  1  0.199579  0.652570  0.584029  1
  O  O37  1  0.212539  0.323538  0.474414  1
