# generated using pymatgen
data_Cs4K2Cu(SiO4)2
_symmetry_space_group_name_H-M   'P 1'
_cell_length_a   6.17012664
_cell_length_b   10.57938830
_cell_length_c   10.57938830
_cell_angle_alpha   90.00000000
_cell_angle_beta   90.00000000
_cell_angle_gamma   90.00000000
_symmetry_Int_Tables_number   1
_chemical_formula_structural   Cs4K2Cu(SiO4)2
_chemical_formula_sum   'Cs8 K4 Cu2 Si4 O16'
_cell_volume   690.58190246
_cell_formula_units_Z   2
loop_
 _symmetry_equiv_pos_site_id
 _symmetry_equiv_pos_as_xyz
  1  'x, y, z'
loop_
 _atom_site_type_symbol
 _atom_site_label
 _atom_site_symmetry_multiplicity
 _atom_site_fract_x
 _atom_site_fract_y
 _atom_site_fract_z
 _atom_site_occupancy
  Cs  Cs0  1  0.000000  0.863055  0.383512  1
  Cs  Cs1  1  0.000000  0.136945  0.616488  1
  Cs  Cs2  1  0.000000  0.383512  0.863055  1
  Cs  Cs3  1  0.500000  0.636945  0.883512  1
  Cs  Cs4  1  0.000000  0.616488  0.136945  1
  Cs  Cs5  1  0.500000  0.116488  0.363055  1
  Cs  Cs6  1  0.500000  0.363055  0.116488  1
  Cs  Cs7  1  0.500000  0.883512  0.636945  1
  K  K8  1  0.500000  0.102855  0.897145  1
  K  K9  1  0.000000  0.397145  0.397145  1
  K  K10  1  0.000000  0.602855  0.602855  1
  K  K11  1  0.500000  0.897145  0.102855  1
  Cu  Cu12  1  0.500000  0.500000  0.500000  1
  Cu  Cu13  1  0.000000  0.000000  0.000000  1
  Si  Si14  1  0.000000  0.823776  0.823776  1
  Si  Si15  1  0.500000  0.676224  0.323776  1
  Si  Si16  1  0.000000  0.176224  0.176224  1
  Si  Si17  1  0.500000  0.323776  0.676224  1
  O  O18  1  0.207233  0.897531  0.897531  1
  O  O19  1  0.792767  0.102469  0.102469  1
  O  O20  1  0.000000  0.671003  0.852017  1
  O  O21  1  0.292767  0.397531  0.602469  1
  O  O22  1  0.500000  0.352017  0.828997  1
  O  O23  1  0.707233  0.397531  0.602469  1
  O  O24  1  0.292767  0.602469  0.397531  1
  O  O25  1  0.500000  0.171003  0.647983  1
  O  O26  1  0.000000  0.852017  0.671003  1
  O  O27  1  0.792767  0.897531  0.897531  1
  O  O28  1  0.000000  0.328997  0.147983  1
  O  O29  1  0.207233  0.102469  0.102469  1
  O  O30  1  0.500000  0.828997  0.352017  1
  O  O31  1  0.707233  0.602469  0.397531  1
  O  O32  1  0.000000  0.147983  0.328997  1
  O  O33  1  0.500000  0.647983  0.171003  1
