# generated using pymatgen
data_H14C4NF3
_symmetry_space_group_name_H-M   'P 1'
_cell_length_a   8.61498223
_cell_length_b   11.41719580
_cell_length_c   15.09296199
_cell_angle_alpha   90.00000000
_cell_angle_beta   90.00000000
_cell_angle_gamma   90.00000000
_symmetry_Int_Tables_number   1
_chemical_formula_structural   H14C4NF3
_chemical_formula_sum   'H112 C32 N8 F24'
_cell_volume   1484.52772670
_cell_formula_units_Z   8
loop_
 _symmetry_equiv_pos_site_id
 _symmetry_equiv_pos_as_xyz
  1  'x, y, z'
loop_
 _atom_site_type_symbol
 _atom_site_label
 _atom_site_symmetry_multiplicity
 _atom_site_fract_x
 _atom_site_fract_y
 _atom_site_fract_z
 _atom_site_occupancy
  H  H0  1  0.266140  0.618835  0.039544  1
  H  H1  1  0.672798  0.474118  0.139396  1
  H  H2  1  0.041946  0.860664  0.428779  1
  H  H3  1  0.531132  0.856042  0.190143  1
  H  H4  1  0.958054  0.360664  0.071221  1
  H  H5  1  0.458054  0.139336  0.928779  1
  H  H6  1  0.360031  0.220596  0.618652  1
  H  H7  1  0.875390  0.261858  0.629927  1
  H  H8  1  0.763824  0.617747  0.937999  1
  H  H9  1  0.375390  0.261858  0.870073  1
  H  H10  1  0.031132  0.856042  0.309857  1
  H  H11  1  0.875390  0.238142  0.129927  1
  H  H12  1  0.612726  0.224094  0.516330  1
  H  H13  1  0.672798  0.025882  0.639396  1
  H  H14  1  0.257185  0.619588  0.681752  1
  H  H15  1  0.139969  0.720596  0.618652  1
  H  H16  1  0.366486  0.718439  0.262699  1
  H  H17  1  0.046169  0.401862  0.704008  1
  H  H18  1  0.098881  0.422529  0.902871  1
  H  H19  1  0.242815  0.119588  0.681752  1
  H  H20  1  0.360031  0.279404  0.118652  1
  H  H21  1  0.025133  0.105931  0.044003  1
  H  H22  1  0.252828  0.379969  0.698547  1
  H  H23  1  0.453831  0.598138  0.204008  1
  H  H24  1  0.766140  0.881165  0.960456  1
  H  H25  1  0.098881  0.077471  0.402871  1
  H  H26  1  0.247172  0.620031  0.198547  1
  H  H27  1  0.887274  0.775906  0.016330  1
  H  H28  1  0.531132  0.643958  0.690143  1
  H  H29  1  0.974867  0.605931  0.455997  1
  H  H30  1  0.112726  0.275906  0.483670  1
  H  H31  1  0.474867  0.894069  0.544003  1
  H  H32  1  0.974867  0.894069  0.955997  1
  H  H33  1  0.124610  0.738142  0.370073  1
  H  H34  1  0.766140  0.618835  0.460456  1
  H  H35  1  0.247172  0.879969  0.698547  1
  H  H36  1  0.598881  0.422529  0.597129  1
  H  H37  1  0.633514  0.281561  0.737301  1
  H  H38  1  0.901119  0.577471  0.097129  1
  H  H39  1  0.827202  0.974118  0.139396  1
  H  H40  1  0.639969  0.779404  0.381348  1
  H  H41  1  0.233860  0.118835  0.039544  1
  H  H42  1  0.133514  0.281561  0.762699  1
  H  H43  1  0.639969  0.720596  0.881348  1
  H  H44  1  0.860031  0.220596  0.881348  1
  H  H45  1  0.736176  0.382253  0.437999  1
  H  H46  1  0.139969  0.779404  0.118652  1
  H  H47  1  0.266140  0.881165  0.539544  1
  H  H48  1  0.046169  0.098138  0.204008  1
  H  H49  1  0.953831  0.901862  0.795992  1
  H  H50  1  0.172798  0.025882  0.860604  1
  H  H51  1  0.468868  0.143958  0.809857  1
  H  H52  1  0.242815  0.380412  0.181752  1
  H  H53  1  0.401119  0.922529  0.902871  1
  H  H54  1  0.387274  0.724094  0.983670  1
  H  H55  1  0.742815  0.119588  0.818248  1
  H  H56  1  0.546169  0.098138  0.295992  1
  H  H57  1  0.546169  0.401862  0.795992  1
  H  H58  1  0.453831  0.901862  0.704008  1
  H  H59  1  0.752828  0.379969  0.801453  1
  H  H60  1  0.263824  0.617747  0.562001  1
  H  H61  1  0.525133  0.394069  0.955997  1
  H  H62  1  0.763824  0.882253  0.437999  1
  H  H63  1  0.387274  0.775906  0.483670  1
  H  H64  1  0.733860  0.118835  0.460456  1
  H  H65  1  0.252828  0.120031  0.198547  1
  H  H66  1  0.958054  0.139336  0.571221  1
  H  H67  1  0.968868  0.143958  0.690143  1
  H  H68  1  0.133514  0.218439  0.262699  1
  H  H69  1  0.366486  0.781561  0.762699  1
  H  H70  1  0.612726  0.275906  0.016330  1
  H  H71  1  0.257185  0.880412  0.181752  1
  H  H72  1  0.747172  0.620031  0.301453  1
  H  H73  1  0.031132  0.643958  0.809857  1
  H  H74  1  0.757185  0.880412  0.318248  1
  H  H75  1  0.953831  0.598138  0.295992  1
  H  H76  1  0.401119  0.577471  0.402871  1
  H  H77  1  0.757185  0.619588  0.818248  1
  H  H78  1  0.327202  0.525882  0.860604  1
  H  H79  1  0.327202  0.974118  0.360604  1
  H  H80  1  0.236176  0.382253  0.062001  1
  H  H81  1  0.458054  0.360664  0.428779  1
  H  H82  1  0.541946  0.860664  0.071221  1
  H  H83  1  0.598881  0.077471  0.097129  1
  H  H84  1  0.474867  0.605931  0.044003  1
  H  H85  1  0.112726  0.224094  0.983670  1
  H  H86  1  0.541946  0.639336  0.571221  1
  H  H87  1  0.866486  0.781561  0.737301  1
  H  H88  1  0.736176  0.117747  0.937999  1
  H  H89  1  0.624610  0.761858  0.629927  1
  H  H90  1  0.733860  0.381165  0.960456  1
  H  H91  1  0.633514  0.218439  0.237301  1
  H  H92  1  0.866486  0.718439  0.237301  1
  H  H93  1  0.525133  0.105931  0.455997  1
  H  H94  1  0.887274  0.724094  0.516330  1
  H  H95  1  0.124610  0.761858  0.870073  1
  H  H96  1  0.752828  0.120031  0.301453  1
  H  H97  1  0.025133  0.394069  0.544003  1
  H  H98  1  0.041946  0.639336  0.928779  1
  H  H99  1  0.375390  0.238142  0.370073  1
  H  H100  1  0.742815  0.380412  0.318248  1
  H  H101  1  0.233860  0.381165  0.539544  1
  H  H102  1  0.236176  0.117747  0.562001  1
  H  H103  1  0.624610  0.738142  0.129927  1
  H  H104  1  0.827202  0.525882  0.639396  1
  H  H105  1  0.747172  0.879969  0.801453  1
  H  H106  1  0.468868  0.356042  0.309857  1
  H  H107  1  0.263824  0.882253  0.062001  1
  H  H108  1  0.860031  0.279404  0.381348  1
  H  H109  1  0.968868  0.356042  0.190143  1
  H  H110  1  0.901119  0.922529  0.597129  1
  H  H111  1  0.172798  0.474118  0.360604  1
  C  C112  1  0.123766  0.333421  0.541324  1
  C  C113  1  0.376234  0.666579  0.041324  1
  C  C114  1  0.876234  0.833421  0.958676  1
  C  C115  1  0.639528  0.336808  0.796593  1
  C  C116  1  0.360472  0.663192  0.203407  1
  C  C117  1  0.749565  0.827582  0.378765  1
  C  C118  1  0.123766  0.166579  0.041324  1
  C  C119  1  0.468202  0.303544  0.370739  1
  C  C120  1  0.249565  0.827582  0.121235  1
  C  C121  1  0.531798  0.696456  0.629261  1
  C  C122  1  0.623766  0.166579  0.458676  1
  C  C123  1  0.968202  0.303544  0.129261  1
  C  C124  1  0.750435  0.327582  0.378765  1
  C  C125  1  0.860472  0.663192  0.296593  1
  C  C126  1  0.031798  0.696456  0.870739  1
  C  C127  1  0.876234  0.666579  0.458676  1
  C  C128  1  0.531798  0.803544  0.129261  1
  C  C129  1  0.139528  0.336808  0.703407  1
  C  C130  1  0.860472  0.836808  0.796593  1
  C  C131  1  0.749565  0.672418  0.878765  1
  C  C132  1  0.139528  0.163192  0.203407  1
  C  C133  1  0.376234  0.833421  0.541324  1
  C  C134  1  0.750435  0.172418  0.878765  1
  C  C135  1  0.360472  0.836808  0.703407  1
  C  C136  1  0.250435  0.327582  0.121235  1
  C  C137  1  0.249565  0.672418  0.621235  1
  C  C138  1  0.623766  0.333421  0.958676  1
  C  C139  1  0.031798  0.803544  0.370739  1
  C  C140  1  0.468202  0.196456  0.870739  1
  C  C141  1  0.250435  0.172418  0.621235  1
  C  C142  1  0.968202  0.196456  0.629261  1
  C  C143  1  0.639528  0.163192  0.296593  1
  N  N144  1  0.120373  0.240256  0.123646  1
  N  N145  1  0.879627  0.759744  0.876354  1
  N  N146  1  0.879627  0.740256  0.376354  1
  N  N147  1  0.379627  0.740256  0.123646  1
  N  N148  1  0.620373  0.259744  0.876354  1
  N  N149  1  0.620373  0.240256  0.376354  1
  N  N150  1  0.120373  0.259744  0.623646  1
  N  N151  1  0.379627  0.759744  0.623646  1
  F  F152  1  0.389269  0.587915  0.825978  1
  F  F153  1  0.517609  0.596417  0.402472  1
  F  F154  1  0.017609  0.903583  0.597528  1
  F  F155  1  0.110731  0.087915  0.825978  1
  F  F156  1  0.251507  0.056546  0.405115  1
  F  F157  1  0.248493  0.943454  0.905115  1
  F  F158  1  0.389269  0.912085  0.325978  1
  F  F159  1  0.517609  0.903583  0.902472  1
  F  F160  1  0.982391  0.403583  0.902472  1
  F  F161  1  0.248493  0.556546  0.405115  1
  F  F162  1  0.482391  0.096417  0.097528  1
  F  F163  1  0.748493  0.556546  0.094885  1
  F  F164  1  0.482391  0.403583  0.597528  1
  F  F165  1  0.889269  0.587915  0.674022  1
  F  F166  1  0.017609  0.596417  0.097528  1
  F  F167  1  0.110731  0.412085  0.325978  1
  F  F168  1  0.748493  0.943454  0.594885  1
  F  F169  1  0.751507  0.443454  0.594885  1
  F  F170  1  0.251507  0.443454  0.905115  1
  F  F171  1  0.982391  0.096417  0.402472  1
  F  F172  1  0.751507  0.056546  0.094885  1
  F  F173  1  0.610731  0.087915  0.674022  1
  F  F174  1  0.610731  0.412085  0.174022  1
  F  F175  1  0.889269  0.912085  0.174022  1
