# generated using pymatgen
data_SiO2
_symmetry_space_group_name_H-M   'P 1'
_cell_length_a   9.97599060
_cell_length_b   14.16164479
_cell_length_c   14.13857702
_cell_angle_alpha   90.00000000
_cell_angle_beta   90.00000000
_cell_angle_gamma   90.00000000
_symmetry_Int_Tables_number   1
_chemical_formula_structural   SiO2
_chemical_formula_sum   'Si32 O64'
_cell_volume   1997.44776168
_cell_formula_units_Z   32
loop_
 _symmetry_equiv_pos_site_id
 _symmetry_equiv_pos_as_xyz
  1  'x, y, z'
loop_
 _atom_site_type_symbol
 _atom_site_label
 _atom_site_symmetry_multiplicity
 _atom_site_fract_x
 _atom_site_fract_y
 _atom_site_fract_z
 _atom_site_occupancy
  Si  Si0  1  0.157287  0.108368  0.981534  1
  Si  Si1  1  0.157287  0.891632  0.018466  1
  Si  Si2  1  0.842713  0.108368  0.518466  1
  Si  Si3  1  0.842713  0.891632  0.481534  1
  Si  Si4  1  0.842713  0.891632  0.018466  1
  Si  Si5  1  0.842713  0.108368  0.981534  1
  Si  Si6  1  0.157287  0.891632  0.481534  1
  Si  Si7  1  0.157287  0.108368  0.518466  1
  Si  Si8  1  0.657287  0.608368  0.981534  1
  Si  Si9  1  0.657287  0.391632  0.018466  1
  Si  Si10  1  0.342713  0.608368  0.518466  1
  Si  Si11  1  0.342713  0.391632  0.481534  1
  Si  Si12  1  0.342713  0.391632  0.018466  1
  Si  Si13  1  0.342713  0.608368  0.981534  1
  Si  Si14  1  0.657287  0.391632  0.481534  1
  Si  Si15  1  0.657287  0.608368  0.518466  1
  Si  Si16  1  0.155621  0.263744  0.140262  1
  Si  Si17  1  0.155621  0.736256  0.859738  1
  Si  Si18  1  0.844379  0.263744  0.359738  1
  Si  Si19  1  0.844379  0.736256  0.640262  1
  Si  Si20  1  0.844379  0.736256  0.859738  1
  Si  Si21  1  0.844379  0.263744  0.140262  1
  Si  Si22  1  0.155621  0.736256  0.640262  1
  Si  Si23  1  0.155621  0.263744  0.359738  1
  Si  Si24  1  0.655621  0.763744  0.140262  1
  Si  Si25  1  0.655621  0.236256  0.859738  1
  Si  Si26  1  0.344379  0.763744  0.359738  1
  Si  Si27  1  0.344379  0.236256  0.640262  1
  Si  Si28  1  0.344379  0.236256  0.859738  1
  Si  Si29  1  0.344379  0.763744  0.140262  1
  Si  Si30  1  0.655621  0.236256  0.640262  1
  Si  Si31  1  0.655621  0.763744  0.359738  1
  O  O32  1  0.000000  0.111723  0.950497  1
  O  O33  1  0.000000  0.888277  0.049503  1
  O  O34  1  0.000000  0.111723  0.549503  1
  O  O35  1  0.000000  0.888277  0.450497  1
  O  O36  1  0.500000  0.611723  0.950497  1
  O  O37  1  0.500000  0.388277  0.049503  1
  O  O38  1  0.500000  0.611723  0.549503  1
  O  O39  1  0.500000  0.388277  0.450497  1
  O  O40  1  0.180261  0.168692  0.078153  1
  O  O41  1  0.180261  0.831308  0.921847  1
  O  O42  1  0.819739  0.168692  0.421847  1
  O  O43  1  0.819739  0.831308  0.578153  1
  O  O44  1  0.819739  0.831308  0.921847  1
  O  O45  1  0.819739  0.168692  0.078153  1
  O  O46  1  0.180261  0.831308  0.578153  1
  O  O47  1  0.180261  0.168692  0.421847  1
  O  O48  1  0.680261  0.668692  0.078153  1
  O  O49  1  0.680261  0.331308  0.921847  1
  O  O50  1  0.319739  0.668692  0.421847  1
  O  O51  1  0.319739  0.331308  0.578153  1
  O  O52  1  0.319739  0.331308  0.921847  1
  O  O53  1  0.319739  0.668692  0.078153  1
  O  O54  1  0.680261  0.331308  0.578153  1
  O  O55  1  0.680261  0.668692  0.421847  1
  O  O56  1  0.203285  0.000000  0.000000  1
  O  O57  1  0.796715  0.000000  0.500000  1
  O  O58  1  0.796715  0.000000  0.000000  1
  O  O59  1  0.203285  0.000000  0.500000  1
  O  O60  1  0.703285  0.500000  0.000000  1
  O  O61  1  0.296715  0.500000  0.500000  1
  O  O62  1  0.296715  0.500000  0.000000  1
  O  O63  1  0.703285  0.500000  0.500000  1
  O  O64  1  0.247175  0.151967  0.896597  1
  O  O65  1  0.247175  0.848033  0.103403  1
  O  O66  1  0.752825  0.151967  0.603403  1
  O  O67  1  0.752825  0.848033  0.396597  1
  O  O68  1  0.752825  0.848033  0.103403  1
  O  O69  1  0.752825  0.151967  0.896597  1
  O  O70  1  0.247175  0.848033  0.396597  1
  O  O71  1  0.247175  0.151967  0.603403  1
  O  O72  1  0.747175  0.651967  0.896597  1
  O  O73  1  0.747175  0.348033  0.103403  1
  O  O74  1  0.252825  0.651967  0.603403  1
  O  O75  1  0.252825  0.348033  0.396597  1
  O  O76  1  0.252825  0.348033  0.103403  1
  O  O77  1  0.252825  0.651967  0.896597  1
  O  O78  1  0.747175  0.348033  0.396597  1
  O  O79  1  0.747175  0.651967  0.603403  1
  O  O80  1  0.190164  0.240215  0.250000  1
  O  O81  1  0.190164  0.759785  0.750000  1
  O  O82  1  0.809836  0.240215  0.250000  1
  O  O83  1  0.809836  0.759785  0.750000  1
  O  O84  1  0.690164  0.740215  0.250000  1
  O  O85  1  0.690164  0.259785  0.750000  1
  O  O86  1  0.309836  0.740215  0.250000  1
  O  O87  1  0.309836  0.259785  0.750000  1
  O  O88  1  0.000000  0.297776  0.130426  1
  O  O89  1  0.000000  0.702224  0.869574  1
  O  O90  1  0.000000  0.297776  0.369574  1
  O  O91  1  0.000000  0.702224  0.630426  1
  O  O92  1  0.500000  0.797776  0.130426  1
  O  O93  1  0.500000  0.202224  0.869574  1
  O  O94  1  0.500000  0.797776  0.369574  1
  O  O95  1  0.500000  0.202224  0.630426  1
