# generated using pymatgen
data_Ba2PrRuO6
_symmetry_space_group_name_H-M   'P 1'
_cell_length_a   6.12725557
_cell_length_b   6.07426132
_cell_length_c   8.59694170
_cell_angle_alpha   90.00000000
_cell_angle_beta   89.65813935
_cell_angle_gamma   90.00000000
_symmetry_Int_Tables_number   1
_chemical_formula_structural   Ba2PrRuO6
_chemical_formula_sum   'Ba4 Pr2 Ru2 O12'
_cell_volume   319.96002196
_cell_formula_units_Z   2
loop_
 _symmetry_equiv_pos_site_id
 _symmetry_equiv_pos_as_xyz
  1  'x, y, z'
loop_
 _atom_site_type_symbol
 _atom_site_label
 _atom_site_symmetry_multiplicity
 _atom_site_fract_x
 _atom_site_fract_y
 _atom_site_fract_z
 _atom_site_occupancy
  O  O0  1  0.450911  0.998415  0.771529  1
  O  O1  1  0.049089  0.498415  0.728471  1
  O  O2  1  0.549089  0.001585  0.228471  1
  O  O3  1  0.950911  0.501585  0.271529  1
  O  O4  1  0.722635  0.235705  0.973945  1
  O  O5  1  0.777365  0.735705  0.526055  1
  O  O6  1  0.277365  0.764295  0.026055  1
  O  O7  1  0.222635  0.264295  0.473945  1
  O  O8  1  0.232528  0.725665  0.474037  1
  O  O9  1  0.267472  0.225665  0.025963  1
  O  O10  1  0.767472  0.274335  0.525963  1
  O  O11  1  0.732528  0.774335  0.974037  1
  Ru  Ru12  1  0.000000  0.500000  0.500000  1
  Ru  Ru13  1  0.500000  0.000000  0.000000  1
  Ba  Ba14  1  0.503089  0.503398  0.751768  1
  Ba  Ba15  1  0.003089  0.996602  0.251768  1
  Ba  Ba16  1  0.996911  0.003398  0.748232  1
  Ba  Ba17  1  0.496911  0.496602  0.248232  1
  Pr  Pr18  1  0.500000  0.000000  0.500000  1
  Pr  Pr19  1  0.000000  0.500000  0.000000  1
