# generated using pymatgen
data_Eu(InAu)3
_symmetry_space_group_name_H-M   'P 1'
_cell_length_a   4.59343454
_cell_length_b   7.77202020
_cell_length_c   9.18512274
_cell_angle_alpha   90.00719965
_cell_angle_beta   90.06241438
_cell_angle_gamma   90.02968107
_symmetry_Int_Tables_number   1
_chemical_formula_structural   Eu(InAu)3
_chemical_formula_sum   'Eu2 In6 Au6'
_cell_volume   327.91108372
_cell_formula_units_Z   2
loop_
 _symmetry_equiv_pos_site_id
 _symmetry_equiv_pos_as_xyz
  1  'x, y, z'
loop_
 _atom_site_type_symbol
 _atom_site_label
 _atom_site_symmetry_multiplicity
 _atom_site_fract_x
 _atom_site_fract_y
 _atom_site_fract_z
 _atom_site_occupancy
  Eu  Eu0  1  0.249954  0.750048  0.270038  1
  Eu  Eu1  1  0.749984  0.250032  0.730006  1
  In  In2  1  0.750025  0.750003  0.633743  1
  In  In3  1  0.250000  0.551436  0.883818  1
  In  In4  1  0.249961  0.948477  0.883838  1
  In  In5  1  0.750013  0.051440  0.116164  1
  In  In6  1  0.250047  0.250015  0.366269  1
  In  In7  1  0.749977  0.448569  0.116183  1
  Au  Au8  1  0.249923  0.978835  0.587913  1
  Au  Au9  1  0.750050  0.749993  0.952399  1
  Au  Au10  1  0.250051  0.521192  0.587900  1
  Au  Au11  1  0.749994  0.021157  0.412081  1
  Au  Au12  1  0.250056  0.249984  0.047560  1
  Au  Au13  1  0.749966  0.478818  0.412087  1
