# generated using pymatgen
data_MnC5BrO5
_symmetry_space_group_name_H-M   'P 1'
_cell_length_a   6.16518388
_cell_length_b   11.46920221
_cell_length_c   11.84184807
_cell_angle_alpha   90.00000000
_cell_angle_beta   90.00000000
_cell_angle_gamma   90.00000000
_symmetry_Int_Tables_number   1
_chemical_formula_structural   MnC5BrO5
_chemical_formula_sum   'Mn4 C20 Br4 O20'
_cell_volume   837.33400504
_cell_formula_units_Z   4
loop_
 _symmetry_equiv_pos_site_id
 _symmetry_equiv_pos_as_xyz
  1  'x, y, z'
loop_
 _atom_site_type_symbol
 _atom_site_label
 _atom_site_symmetry_multiplicity
 _atom_site_fract_x
 _atom_site_fract_y
 _atom_site_fract_z
 _atom_site_occupancy
  Mn  Mn0  1  0.550599  0.750000  0.619593  1
  Mn  Mn1  1  0.949401  0.750000  0.119593  1
  Mn  Mn2  1  0.050599  0.250000  0.880407  1
  Mn  Mn3  1  0.449401  0.250000  0.380407  1
  C  C4  1  0.564757  0.133928  0.283927  1
  C  C5  1  0.435243  0.633928  0.716073  1
  C  C6  1  0.186633  0.368346  0.965694  1
  C  C7  1  0.064757  0.866072  0.216073  1
  C  C8  1  0.313368  0.368346  0.465694  1
  C  C9  1  0.435243  0.866072  0.716073  1
  C  C10  1  0.064757  0.633928  0.216073  1
  C  C11  1  0.313368  0.131654  0.465694  1
  C  C12  1  0.186633  0.131654  0.965694  1
  C  C13  1  0.813368  0.868346  0.034306  1
  C  C14  1  0.935243  0.366072  0.783927  1
  C  C15  1  0.190364  0.750000  0.027750  1
  C  C16  1  0.564757  0.366072  0.283927  1
  C  C17  1  0.935243  0.133928  0.783927  1
  C  C18  1  0.813368  0.631654  0.034306  1
  C  C19  1  0.309636  0.750000  0.527750  1
  C  C20  1  0.686632  0.631654  0.534306  1
  C  C21  1  0.809636  0.250000  0.972250  1
  C  C22  1  0.690364  0.250000  0.472250  1
  C  C23  1  0.686632  0.868346  0.534306  1
  Br  Br24  1  0.614996  0.750000  0.247459  1
  Br  Br25  1  0.114996  0.250000  0.252541  1
  Br  Br26  1  0.885004  0.750000  0.747459  1
  Br  Br27  1  0.385004  0.250000  0.752541  1
  O  O28  1  0.866690  0.436741  0.725042  1
  O  O29  1  0.340158  0.750000  0.969020  1
  O  O30  1  0.659842  0.250000  0.030980  1
  O  O31  1  0.734751  0.943396  0.984367  1
  O  O32  1  0.840158  0.250000  0.530980  1
  O  O33  1  0.765249  0.943396  0.484367  1
  O  O34  1  0.265249  0.443396  0.015633  1
  O  O35  1  0.133310  0.936741  0.274958  1
  O  O36  1  0.866690  0.063259  0.725042  1
  O  O37  1  0.159842  0.750000  0.469020  1
  O  O38  1  0.133310  0.563259  0.274958  1
  O  O39  1  0.265249  0.056604  0.015633  1
  O  O40  1  0.633310  0.063259  0.225042  1
  O  O41  1  0.633310  0.436741  0.225042  1
  O  O42  1  0.366690  0.563259  0.774958  1
  O  O43  1  0.234751  0.056604  0.515633  1
  O  O44  1  0.734751  0.556604  0.984367  1
  O  O45  1  0.234751  0.443396  0.515633  1
  O  O46  1  0.366690  0.936741  0.774958  1
  O  O47  1  0.765249  0.556604  0.484367  1
