# generated using pymatgen
data_Fe3C10SO10
_symmetry_space_group_name_H-M   'P 1'
_cell_length_a   8.92555653
_cell_length_b   10.40556046
_cell_length_c   16.63077986
_cell_angle_alpha   90.00000000
_cell_angle_beta   97.02439391
_cell_angle_gamma   90.00000000
_symmetry_Int_Tables_number   1
_chemical_formula_structural   Fe3C10SO10
_chemical_formula_sum   'Fe12 C40 S4 O40'
_cell_volume   1532.99720628
_cell_formula_units_Z   4
loop_
 _symmetry_equiv_pos_site_id
 _symmetry_equiv_pos_as_xyz
  1  'x, y, z'
loop_
 _atom_site_type_symbol
 _atom_site_label
 _atom_site_symmetry_multiplicity
 _atom_site_fract_x
 _atom_site_fract_y
 _atom_site_fract_z
 _atom_site_occupancy
  Fe  Fe0  1  0.263830  0.827126  0.164301  1
  Fe  Fe1  1  0.004617  0.236940  0.403213  1
  Fe  Fe2  1  0.736170  0.172874  0.835699  1
  Fe  Fe3  1  0.763830  0.672874  0.664301  1
  Fe  Fe4  1  0.504617  0.263060  0.903213  1
  Fe  Fe5  1  0.236170  0.327126  0.335699  1
  Fe  Fe6  1  0.272622  0.248421  0.487013  1
  Fe  Fe7  1  0.727378  0.751579  0.512987  1
  Fe  Fe8  1  0.227378  0.748421  0.012986  1
  Fe  Fe9  1  0.495383  0.736940  0.096787  1
  Fe  Fe10  1  0.772622  0.251579  0.987013  1
  Fe  Fe11  1  0.995383  0.763060  0.596787  1
  C  C12  1  0.540592  0.691457  0.513694  1
  C  C13  1  0.844608  0.325113  0.355380  1
  C  C14  1  0.328414  0.089570  0.520540  1
  C  C15  1  0.459408  0.308543  0.486306  1
  C  C16  1  0.355767  0.239437  0.275679  1
  C  C17  1  0.404110  0.860315  0.247889  1
  C  C18  1  0.904110  0.639685  0.747889  1
  C  C19  1  0.352916  0.467836  0.333065  1
  C  C20  1  0.938366  0.212898  0.499280  1
  C  C21  1  0.655392  0.825113  0.144620  1
  C  C22  1  0.259263  0.795100  0.911965  1
  C  C23  1  0.671586  0.910430  0.479460  1
  C  C24  1  0.240737  0.295100  0.588035  1
  C  C25  1  0.144233  0.739437  0.224321  1
  C  C26  1  0.147084  0.967836  0.166935  1
  C  C27  1  0.595890  0.139685  0.752111  1
  C  C28  1  0.428825  0.411587  0.860789  1
  C  C29  1  0.438366  0.287102  0.999280  1
  C  C30  1  0.647084  0.532164  0.666935  1
  C  C31  1  0.095890  0.360315  0.252111  1
  C  C32  1  0.204440  0.148587  0.381144  1
  C  C33  1  0.061634  0.787102  0.500720  1
  C  C34  1  0.644233  0.760563  0.724321  1
  C  C35  1  0.344608  0.174887  0.855380  1
  C  C36  1  0.740737  0.204900  0.088035  1
  C  C37  1  0.928825  0.088413  0.360789  1
  C  C38  1  0.561634  0.712898  0.000720  1
  C  C39  1  0.704440  0.351413  0.881144  1
  C  C40  1  0.171586  0.589570  0.979460  1
  C  C41  1  0.040592  0.808543  0.013694  1
  C  C42  1  0.155392  0.674887  0.644620  1
  C  C43  1  0.571175  0.588413  0.139211  1
  C  C44  1  0.828414  0.410430  0.020540  1
  C  C45  1  0.852916  0.032164  0.833065  1
  C  C46  1  0.959408  0.191457  0.986306  1
  C  C47  1  0.759263  0.704900  0.411965  1
  C  C48  1  0.295560  0.648587  0.118856  1
  C  C49  1  0.795560  0.851413  0.618856  1
  C  C50  1  0.071175  0.911587  0.639211  1
  C  C51  1  0.855767  0.260563  0.775679  1
  S  S52  1  0.367189  0.917727  0.062017  1
  S  S53  1  0.867189  0.582273  0.562017  1
  S  S54  1  0.632811  0.082273  0.937983  1
  S  S55  1  0.132811  0.417727  0.437983  1
  O  O56  1  0.508542  0.120479  0.695903  1
  O  O57  1  0.917194  0.845221  0.011242  1
  O  O58  1  0.120513  0.006771  0.666710  1
  O  O59  1  0.879487  0.993229  0.333290  1
  O  O60  1  0.275851  0.823742  0.846427  1
  O  O61  1  0.236969  0.122068  0.826951  1
  O  O62  1  0.935431  0.316738  0.738652  1
  O  O63  1  0.640382  0.013518  0.457383  1
  O  O64  1  0.435431  0.183262  0.238652  1
  O  O65  1  0.610148  0.700080  0.939663  1
  O  O66  1  0.724149  0.176258  0.153573  1
  O  O67  1  0.224149  0.323742  0.653573  1
  O  O68  1  0.268300  0.542101  0.141537  1
  O  O69  1  0.064569  0.683262  0.261348  1
  O  O70  1  0.775851  0.676258  0.346427  1
  O  O71  1  0.082806  0.154779  0.988758  1
  O  O72  1  0.008542  0.379521  0.195903  1
  O  O73  1  0.140382  0.486482  0.957383  1
  O  O74  1  0.263031  0.622068  0.673049  1
  O  O75  1  0.991458  0.620479  0.804097  1
  O  O76  1  0.110148  0.799920  0.439663  1
  O  O77  1  0.073931  0.058980  0.170890  1
  O  O78  1  0.231700  0.042101  0.358463  1
  O  O79  1  0.389852  0.299920  0.060337  1
  O  O80  1  0.573931  0.441020  0.670890  1
  O  O81  1  0.768300  0.957899  0.641537  1
  O  O82  1  0.426069  0.558980  0.329110  1
  O  O83  1  0.859618  0.513518  0.042617  1
  O  O84  1  0.926069  0.941020  0.829110  1
  O  O85  1  0.417194  0.654779  0.511242  1
  O  O86  1  0.564569  0.816738  0.761348  1
  O  O87  1  0.736969  0.377932  0.326951  1
  O  O88  1  0.731700  0.457899  0.858463  1
  O  O89  1  0.379487  0.506771  0.833290  1
  O  O90  1  0.359618  0.986482  0.542617  1
  O  O91  1  0.889852  0.200080  0.560337  1
  O  O92  1  0.620513  0.493229  0.166710  1
  O  O93  1  0.763031  0.877932  0.173049  1
  O  O94  1  0.491458  0.879521  0.304097  1
  O  O95  1  0.582806  0.345221  0.488758  1
