# generated using pymatgen
data_NaH9O5
_symmetry_space_group_name_H-M   'P 1'
_cell_length_a   8.01817797
_cell_length_b   8.01817797
_cell_length_c   9.43724508
_cell_angle_alpha   64.16513527
_cell_angle_beta   115.83486473
_cell_angle_gamma   150.46073096
_symmetry_Int_Tables_number   1
_chemical_formula_structural   NaH9O5
_chemical_formula_sum   'Na2 H18 O10'
_cell_volume   267.03131398
_cell_formula_units_Z   2
loop_
 _symmetry_equiv_pos_site_id
 _symmetry_equiv_pos_as_xyz
  1  'x, y, z'
loop_
 _atom_site_type_symbol
 _atom_site_label
 _atom_site_symmetry_multiplicity
 _atom_site_fract_x
 _atom_site_fract_y
 _atom_site_fract_z
 _atom_site_occupancy
  Na  Na0  1  0.545992  0.455033  0.859020  1
  Na  Na1  1  0.455033  0.545992  0.140980  1
  H  H2  1  0.800801  0.199309  0.602862  1
  H  H3  1  0.199309  0.800801  0.397138  1
  H  H4  1  0.550552  0.070304  0.975593  1
  H  H5  1  0.731528  0.265801  0.822733  1
  H  H6  1  0.070304  0.550552  0.024407  1
  H  H7  1  0.265801  0.731528  0.177267  1
  H  H8  1  0.158587  0.455319  0.797445  1
  H  H9  1  0.544647  0.841315  0.797431  1
  H  H10  1  0.455319  0.158587  0.202555  1
  H  H11  1  0.841315  0.544647  0.202569  1
  H  H12  1  0.958142  0.041702  0.614046  1
  H  H13  1  0.070263  0.930297  0.668884  1
  H  H14  1  0.041702  0.958142  0.385954  1
  H  H15  1  0.930297  0.070263  0.331116  1
  H  H16  1  0.995793  0.611038  0.610377  1
  H  H17  1  0.388831  0.004197  0.610474  1
  H  H18  1  0.611038  0.995793  0.389623  1
  H  H19  1  0.004197  0.388831  0.389526  1
  O  O20  1  0.775396  0.224760  0.681131  1
  O  O21  1  0.224760  0.775396  0.318869  1
  O  O22  1  0.710446  0.293091  0.903367  1
  O  O23  1  0.293091  0.710446  0.096633  1
  O  O24  1  0.391668  0.608259  0.857035  1
  O  O25  1  0.608259  0.391668  0.142965  1
  O  O26  1  0.021000  0.978578  0.710350  1
  O  O27  1  0.978578  0.021000  0.289650  1
  O  O28  1  0.147854  0.851936  0.571289  1
  O  O29  1  0.851936  0.147854  0.428711  1
