# generated using pymatgen
data_Na8Al11Si13(AgO16)3
_symmetry_space_group_name_H-M   'P 1'
_cell_length_a   12.64096615
_cell_length_b   12.40368903
_cell_length_c   12.31310995
_cell_angle_alpha   89.87079522
_cell_angle_beta   89.42877154
_cell_angle_gamma   90.21239679
_symmetry_Int_Tables_number   1
_chemical_formula_structural   Na8Al11Si13(AgO16)3
_chemical_formula_sum   'Na8 Al11 Si13 Ag3 O48'
_cell_volume   1930.51502626
_cell_formula_units_Z   1
loop_
 _symmetry_equiv_pos_site_id
 _symmetry_equiv_pos_as_xyz
  1  'x, y, z'
loop_
 _atom_site_type_symbol
 _atom_site_label
 _atom_site_symmetry_multiplicity
 _atom_site_fract_x
 _atom_site_fract_y
 _atom_site_fract_z
 _atom_site_occupancy
  Na  Na0  1  0.212351  0.783353  0.206030  1
  Na  Na1  1  0.213507  0.789781  0.787891  1
  Na  Na2  1  0.558022  0.386704  0.994949  1
  Na  Na3  1  0.568140  0.609711  -0.000218  1
  Na  Na4  1  0.781677  0.202925  0.212099  1
  Na  Na5  1  0.783457  0.203889  0.787316  1
  Na  Na6  1  0.781551  0.796278  0.207792  1
  Na  Na7  1  0.483273  0.466196  0.476876  1
  Al  Al8  1  0.180654  0.368148  0.000578  1
  Al  Al9  1  0.365715  -0.002033  0.812972  1
  Al  Al10  1  0.367742  0.815978  -0.000757  1
  Al  Al11  1  0.623733  0.001162  0.192118  1
  Al  Al12  1  0.630196  0.177360  0.001985  1
  Al  Al13  1  0.625963  0.002880  0.809387  1
  Al  Al14  1  0.628425  0.819974  0.003687  1
  Al  Al15  1  0.825747  -0.002408  0.634614  1
  Al  Al16  1  0.818707  0.371416  0.000328  1
  Al  Al17  1  0.820203  0.631895  0.001335  1
  Al  Al18  1  0.822595  -0.001832  0.367505  1
  Si  Si19  1  0.003408  0.814324  0.369828  1
  Si  Si20  1  0.002963  0.814181  0.630004  1
  Si  Si21  1  0.177407  -0.000189  0.626067  1
  Si  Si22  1  0.178509  0.627808  -0.000548  1
  Si  Si23  1  0.177376  0.001538  0.367345  1
  Si  Si24  1  0.366727  0.998963  0.184697  1
  Si  Si25  1  0.369472  0.184464  0.001542  1
  Si  Si26  1  0.000492  0.184849  0.369567  1
  Si  Si27  1  0.000177  0.185263  0.628937  1
  Si  Si28  1  0.000704  0.369644  0.188176  1
  Si  Si29  1  0.002034  0.370554  0.811934  1
  Si  Si30  1  0.000440  0.628270  0.185603  1
  Si  Si31  1  0.004016  0.628579  0.815483  1
  Ag  Ag32  1  0.235116  0.231603  0.221247  1
  Ag  Ag33  1  0.184311  0.179535  0.821183  1
  Ag  Ag34  1  0.042567  0.084294  0.056763  1
  O  O35  1  0.006775  0.300003  0.303004  1
  O  O36  1  0.003699  0.499421  0.218951  1
  O  O37  1  0.005216  0.215274  0.498854  1
  O  O38  1  0.009606  0.298931  0.697950  1
  O  O39  1  0.018469  0.703263  0.296302  1
  O  O40  1  0.008673  0.499832  0.780086  1
  O  O41  1  0.009116  0.780932  0.498968  1
  O  O42  1  0.019598  0.702891  0.703392  1
  O  O43  1  0.111170  0.113859  0.339686  1
  O  O44  1  0.109950  0.336088  0.122800  1
  O  O45  1  0.107362  0.110220  0.653763  1
  O  O46  1  0.106674  0.656805  0.110611  1
  O  O47  1  0.107935  0.336989  0.881741  1
  O  O48  1  0.112699  0.888523  0.338688  1
  O  O49  1  0.114011  0.657785  0.885700  1
  O  O50  1  0.114268  0.885289  0.653482  1
  O  O51  1  0.205663  0.000841  0.495639  1
  O  O52  1  0.211289  0.503471  -0.000597  1
  O  O53  1  0.282986  0.004727  0.292137  1
  O  O54  1  0.297218  0.293296  0.009889  1
  O  O55  1  0.279320  0.004100  0.699426  1
  O  O56  1  0.280698  0.703654  0.009061  1
  O  O57  1  0.337403  0.112177  0.114267  1
  O  O58  1  0.334399  0.115915  0.894307  1
  O  O59  1  0.330552  0.891408  0.119039  1
  O  O60  1  0.326422  0.883504  0.884154  1
  O  O61  1  0.485203  0.001837  0.222777  1
  O  O62  1  0.492025  0.222166  0.001592  1
  O  O63  1  0.494433  0.000709  0.774064  1
  O  O64  1  0.496070  0.767782  0.002845  1
  O  O65  1  0.656215  0.119463  0.124256  1
  O  O66  1  0.661899  0.116862  0.882517  1
  O  O67  1  0.657380  0.886713  0.121239  1
  O  O68  1  0.655658  0.888616  0.884509  1
  O  O69  1  0.707551  -0.000830  0.300231  1
  O  O70  1  0.709068  0.016056  0.699474  1
  O  O71  1  0.702507  0.298112  0.001040  1
  O  O72  1  0.706798  0.705241  0.013974  1
  O  O73  1  0.802647  0.002697  0.500827  1
  O  O74  1  0.771354  0.501119  0.002983  1
  O  O75  1  0.899865  0.117720  0.329467  1
  O  O76  1  0.897827  0.120649  0.668574  1
  O  O77  1  0.895460  0.337551  0.120743  1
  O  O78  1  0.894941  0.339362  0.878949  1
  O  O79  1  0.894139  0.661973  0.124601  1
  O  O80  1  0.902794  0.656686  0.886604  1
  O  O81  1  0.900453  0.878671  0.332549  1
  O  O82  1  0.903864  0.882491  0.664266  1
