# generated using pymatgen
data_Rb2NaCo(CN)6
_symmetry_space_group_name_H-M   'P 1'
_cell_length_a   7.34243384
_cell_length_b   7.72976647
_cell_length_c   10.62148529
_cell_angle_alpha   90.00000000
_cell_angle_beta   90.46338363
_cell_angle_gamma   90.00000000
_symmetry_Int_Tables_number   1
_chemical_formula_structural   Rb2NaCo(CN)6
_chemical_formula_sum   'Rb4 Na2 Co2 C12 N12'
_cell_volume   602.80585716
_cell_formula_units_Z   2
loop_
 _symmetry_equiv_pos_site_id
 _symmetry_equiv_pos_as_xyz
  1  'x, y, z'
loop_
 _atom_site_type_symbol
 _atom_site_label
 _atom_site_symmetry_multiplicity
 _atom_site_fract_x
 _atom_site_fract_y
 _atom_site_fract_z
 _atom_site_occupancy
  C  C0  1  0.792228  0.134207  0.031196  1
  C  C1  1  0.292228  0.365793  0.531196  1
  C  C2  1  0.207772  0.865793  0.968804  1
  C  C3  1  0.707772  0.634207  0.468804  1
  C  C4  1  0.631744  0.298761  0.461642  1
  C  C5  1  0.868256  0.798761  0.038358  1
  C  C6  1  0.368256  0.701239  0.538358  1
  C  C7  1  0.131744  0.201239  0.961642  1
  C  C8  1  0.068879  0.019474  0.169742  1
  C  C9  1  0.431121  0.519474  0.330258  1
  C  C10  1  0.931121  0.980526  0.830258  1
  C  C11  1  0.568879  0.480526  0.669742  1
  N  N12  1  0.110767  0.034024  0.276285  1
  N  N13  1  0.389233  0.534024  0.223715  1
  N  N14  1  0.889233  0.965976  0.723715  1
  N  N15  1  0.610767  0.465976  0.776285  1
  N  N16  1  0.715571  0.173831  0.436971  1
  N  N17  1  0.215571  0.326169  0.936971  1
  N  N18  1  0.284429  0.826169  0.563029  1
  N  N19  1  0.784429  0.673831  0.063029  1
  N  N20  1  0.662368  0.218050  0.052306  1
  N  N21  1  0.837632  0.718050  0.447694  1
  N  N22  1  0.337632  0.781950  0.947694  1
  N  N23  1  0.162368  0.281950  0.552306  1
  Na  Na24  1  0.000000  0.000000  0.500000  1
  Na  Na25  1  0.500000  0.500000  0.000000  1
  Co  Co26  1  0.000000  0.000000  0.000000  1
  Co  Co27  1  0.500000  0.500000  0.500000  1
  Rb  Rb28  1  0.020252  0.565708  0.749275  1
  Rb  Rb29  1  0.479748  0.065708  0.750725  1
  Rb  Rb30  1  0.979748  0.434292  0.250725  1
  Rb  Rb31  1  0.520252  0.934292  0.249275  1
