# generated using pymatgen
data_PH9AuC3S3Cl
_symmetry_space_group_name_H-M   'P 1'
_cell_length_a   6.73761752
_cell_length_b   15.83362978
_cell_length_c   18.68921184
_cell_angle_alpha   90.00000000
_cell_angle_beta   90.00000000
_cell_angle_gamma   90.00000000
_symmetry_Int_Tables_number   1
_chemical_formula_structural   PH9AuC3S3Cl
_chemical_formula_sum   'P8 H72 Au8 C24 S24 Cl8'
_cell_volume   1993.78271332
_cell_formula_units_Z   8
loop_
 _symmetry_equiv_pos_site_id
 _symmetry_equiv_pos_as_xyz
  1  'x, y, z'
loop_
 _atom_site_type_symbol
 _atom_site_label
 _atom_site_symmetry_multiplicity
 _atom_site_fract_x
 _atom_site_fract_y
 _atom_site_fract_z
 _atom_site_occupancy
  P  P0  1  0.276643  0.618254  0.645072  1
  P  P1  1  0.776643  0.618254  0.854928  1
  P  P2  1  0.223357  0.118254  0.645072  1
  P  P3  1  0.776643  0.881746  0.354928  1
  P  P4  1  0.223357  0.381746  0.145072  1
  P  P5  1  0.723357  0.118254  0.854928  1
  P  P6  1  0.276643  0.881746  0.145072  1
  P  P7  1  0.723357  0.381746  0.354928  1
  H  H8  1  0.563172  0.962493  0.926132  1
  H  H9  1  0.595439  0.649759  0.295098  1
  H  H10  1  0.314989  0.273099  0.943009  1
  H  H11  1  0.595439  0.850241  0.795098  1
  H  H12  1  0.420497  0.722312  0.064474  1
  H  H13  1  0.791986  0.267823  0.743787  1
  H  H14  1  0.685633  0.075420  0.411784  1
  H  H15  1  0.840214  0.685737  0.318144  1
  H  H16  1  0.717265  0.935835  0.001365  1
  H  H17  1  0.782735  0.435835  0.001365  1
  H  H18  1  0.034240  0.698359  0.990997  1
  H  H19  1  0.404561  0.350241  0.704902  1
  H  H20  1  0.659786  0.314263  0.818144  1
  H  H21  1  0.185633  0.424580  0.588216  1
  H  H22  1  0.814367  0.924580  0.911784  1
  H  H23  1  0.314367  0.924580  0.588216  1
  H  H24  1  0.063172  0.537507  0.073868  1
  H  H25  1  0.563172  0.537507  0.426132  1
  H  H26  1  0.063172  0.962493  0.573868  1
  H  H27  1  0.782735  0.064165  0.501365  1
  H  H28  1  0.404561  0.149759  0.204902  1
  H  H29  1  0.208014  0.767823  0.756213  1
  H  H30  1  0.340214  0.814263  0.681856  1
  H  H31  1  0.217265  0.564165  0.998635  1
  H  H32  1  0.579503  0.277688  0.935526  1
  H  H33  1  0.840214  0.814263  0.818144  1
  H  H34  1  0.465760  0.301641  0.490997  1
  H  H35  1  0.436828  0.037507  0.073868  1
  H  H36  1  0.685011  0.773099  0.556991  1
  H  H37  1  0.159786  0.185737  0.181856  1
  H  H38  1  0.936828  0.462493  0.926132  1
  H  H39  1  0.814367  0.575420  0.411784  1
  H  H40  1  0.282735  0.435835  0.498635  1
  H  H41  1  0.314367  0.575420  0.088216  1
  H  H42  1  0.659786  0.185737  0.318144  1
  H  H43  1  0.095439  0.850241  0.704902  1
  H  H44  1  0.079503  0.277688  0.564474  1
  H  H45  1  0.034240  0.801641  0.490997  1
  H  H46  1  0.291986  0.232177  0.256213  1
  H  H47  1  0.314989  0.226901  0.443009  1
  H  H48  1  0.095439  0.649759  0.204902  1
  H  H49  1  0.534240  0.698359  0.509003  1
  H  H50  1  0.814989  0.226901  0.056991  1
  H  H51  1  0.217265  0.935835  0.498635  1
  H  H52  1  0.420497  0.777688  0.564474  1
  H  H53  1  0.708014  0.767823  0.743787  1
  H  H54  1  0.208014  0.732177  0.256213  1
  H  H55  1  0.965760  0.198359  0.509003  1
  H  H56  1  0.920497  0.777688  0.935526  1
  H  H57  1  0.465760  0.198359  0.990997  1
  H  H58  1  0.079503  0.222312  0.064474  1
  H  H59  1  0.579503  0.222312  0.435526  1
  H  H60  1  0.965760  0.301641  0.009003  1
  H  H61  1  0.282735  0.064165  0.998635  1
  H  H62  1  0.436828  0.462493  0.573868  1
  H  H63  1  0.185011  0.726901  0.443009  1
  H  H64  1  0.904561  0.149759  0.295098  1
  H  H65  1  0.185011  0.773099  0.943009  1
  H  H66  1  0.814989  0.273099  0.556991  1
  H  H67  1  0.936828  0.037507  0.426132  1
  H  H68  1  0.904561  0.350241  0.795098  1
  H  H69  1  0.685633  0.424580  0.911784  1
  H  H70  1  0.708014  0.732177  0.243787  1
  H  H71  1  0.340214  0.685737  0.181856  1
  H  H72  1  0.920497  0.722312  0.435526  1
  H  H73  1  0.717265  0.564165  0.501365  1
  H  H74  1  0.534240  0.801641  0.009003  1
  H  H75  1  0.791986  0.232177  0.243787  1
  H  H76  1  0.685011  0.726901  0.056991  1
  H  H77  1  0.291986  0.267823  0.756213  1
  H  H78  1  0.159786  0.314263  0.681856  1
  H  H79  1  0.185633  0.075420  0.088216  1
  Au  Au80  1  0.723346  0.467665  0.257812  1
  Au  Au81  1  0.776654  0.532335  0.757812  1
  Au  Au82  1  0.223346  0.032335  0.742188  1
  Au  Au83  1  0.276654  0.967665  0.242188  1
  Au  Au84  1  0.776654  0.967665  0.257812  1
  Au  Au85  1  0.276654  0.532335  0.742188  1
  Au  Au86  1  0.723346  0.032335  0.757812  1
  Au  Au87  1  0.223346  0.467665  0.242188  1
  C  C88  1  0.304883  0.295326  0.702588  1
  C  C89  1  0.195117  0.704674  0.202588  1
  C  C90  1  0.548191  0.764391  0.058225  1
  C  C91  1  0.215366  0.961233  0.553435  1
  C  C92  1  0.451809  0.235609  0.941775  1
  C  C93  1  0.784634  0.461233  0.946565  1
  C  C94  1  0.695117  0.795326  0.797412  1
  C  C95  1  0.804883  0.295326  0.797412  1
  C  C96  1  0.284634  0.038767  0.053435  1
  C  C97  1  0.048191  0.764391  0.441775  1
  C  C98  1  0.304883  0.204674  0.202588  1
  C  C99  1  0.284634  0.461233  0.553435  1
  C  C100  1  0.951809  0.264391  0.058225  1
  C  C101  1  0.195117  0.795326  0.702588  1
  C  C102  1  0.048191  0.735609  0.941775  1
  C  C103  1  0.804883  0.204674  0.297412  1
  C  C104  1  0.715366  0.538767  0.446565  1
  C  C105  1  0.548191  0.735609  0.558225  1
  C  C106  1  0.715366  0.961233  0.946565  1
  C  C107  1  0.451809  0.264391  0.441775  1
  C  C108  1  0.784634  0.038767  0.446565  1
  C  C109  1  0.951809  0.235609  0.558225  1
  C  C110  1  0.695117  0.704674  0.297412  1
  C  C111  1  0.215366  0.538767  0.053435  1
  S  S112  1  0.923538  0.278978  0.357801  1
  S  S113  1  0.923538  0.221022  0.857801  1
  S  S114  1  0.434105  0.166136  0.864665  1
  S  S115  1  0.688127  0.931791  0.453922  1
  S  S116  1  0.434105  0.333864  0.364665  1
  S  S117  1  0.565895  0.833864  0.135335  1
  S  S118  1  0.688127  0.568209  0.953922  1
  S  S119  1  0.423538  0.278978  0.142199  1
  S  S120  1  0.311873  0.068209  0.546078  1
  S  S121  1  0.934105  0.333864  0.135335  1
  S  S122  1  0.423538  0.221022  0.642199  1
  S  S123  1  0.576462  0.778978  0.357801  1
  S  S124  1  0.576462  0.721022  0.857801  1
  S  S125  1  0.076462  0.778978  0.142199  1
  S  S126  1  0.934105  0.166136  0.635335  1
  S  S127  1  0.811873  0.431791  0.453922  1
  S  S128  1  0.065895  0.666136  0.864665  1
  S  S129  1  0.811873  0.068209  0.953922  1
  S  S130  1  0.311873  0.431791  0.046078  1
  S  S131  1  0.076462  0.721022  0.642199  1
  S  S132  1  0.188127  0.568209  0.546078  1
  S  S133  1  0.188127  0.931791  0.046078  1
  S  S134  1  0.065895  0.833864  0.364665  1
  S  S135  1  0.565895  0.666136  0.635335  1
  Cl  Cl136  1  0.283220  0.441631  0.841201  1
  Cl  Cl137  1  0.283220  0.058369  0.341201  1
  Cl  Cl138  1  0.216780  0.941631  0.841201  1
  Cl  Cl139  1  0.783220  0.058369  0.158799  1
  Cl  Cl140  1  0.716780  0.558369  0.158799  1
  Cl  Cl141  1  0.216780  0.558369  0.341201  1
  Cl  Cl142  1  0.716780  0.941631  0.658799  1
  Cl  Cl143  1  0.783220  0.441631  0.658799  1
