# generated using pymatgen
data_Na4CaFe4(PO4)6
_symmetry_space_group_name_H-M   'P 1'
_cell_length_a   7.21487862
_cell_length_b   9.44702456
_cell_length_c   9.44702434
_cell_angle_alpha   96.16053551
_cell_angle_beta   107.16733873
_cell_angle_gamma   107.16733243
_symmetry_Int_Tables_number   1
_chemical_formula_structural   Na4CaFe4(PO4)6
_chemical_formula_sum   'Na4 Ca1 Fe4 P6 O24'
_cell_volume   574.31564034
_cell_formula_units_Z   1
loop_
 _symmetry_equiv_pos_site_id
 _symmetry_equiv_pos_as_xyz
  1  'x, y, z'
loop_
 _atom_site_type_symbol
 _atom_site_label
 _atom_site_symmetry_multiplicity
 _atom_site_fract_x
 _atom_site_fract_y
 _atom_site_fract_z
 _atom_site_occupancy
  Na  Na0  1  0.456068  0.415030  0.519137  1
  Na  Na1  1  0.750000  0.996246  0.003754  1
  Na  Na2  1  0.750000  0.636674  0.363326  1
  Na  Na3  1  0.043932  0.480863  0.584970  1
  Ca  Ca4  1  0.250000  0.233770  0.766230  1
  Fe  Fe5  1  0.385031  0.909909  0.665786  1
  Fe  Fe6  1  0.114969  0.334214  0.090091  1
  Fe  Fe7  1  0.957107  0.674765  0.982053  1
  Fe  Fe8  1  0.542893  0.017947  0.325235  1
  P  P9  1  0.409766  0.660471  0.106574  1
  P  P10  1  0.250000  0.020268  0.979732  1
  P  P11  1  0.090234  0.893426  0.339529  1
  P  P12  1  0.923227  0.068650  0.409434  1
  P  P13  1  0.750000  0.212389  0.787611  1
  P  P14  1  0.576773  0.590566  0.931350  1
  O  O15  1  0.985366  0.910173  0.467898  1
  O  O16  1  0.174896  0.575108  0.038287  1
  O  O17  1  0.001639  0.739442  0.236507  1
  O  O18  1  0.278778  0.714924  0.606118  1
  O  O19  1  0.289485  0.003823  0.824349  1
  O  O20  1  0.096884  0.207658  0.512367  1
  O  O21  1  0.403116  0.487633  0.792342  1
  O  O22  1  0.210515  0.175651  0.996177  1
  O  O23  1  0.221222  0.393882  0.285076  1
  O  O24  1  0.498903  0.739715  0.983188  1
  O  O25  1  0.498361  0.763493  0.260558  1
  O  O26  1  0.325104  0.961713  0.424892  1
  O  O27  1  0.681326  0.031684  0.746305  1
  O  O28  1  0.559666  0.255627  0.713648  1
  O  O29  1  0.514634  0.532102  0.089827  1
  O  O30  1  0.804716  0.644069  0.750374  1
  O  O31  1  0.055642  0.895349  0.978643  1
  O  O32  1  0.693755  0.389738  0.387813  1
  O  O33  1  0.806245  0.612187  0.610262  1
  O  O34  1  0.444358  0.021357  0.104651  1
  O  O35  1  0.695284  0.249626  0.355931  1
  O  O36  1  0.940334  0.286352  0.744373  1
  O  O37  1  0.818674  0.253694  0.968316  1
  O  O38  1  0.001097  0.016812  0.260285  1
