# generated using pymatgen
data_Ba2Y(CuO2)4
_symmetry_space_group_name_H-M   'P 1'
_cell_length_a   3.88992193
_cell_length_b   3.89960405
_cell_length_c   13.88942657
_cell_angle_alpha   98.06985389
_cell_angle_beta   90.00000000
_cell_angle_gamma   90.00000000
_symmetry_Int_Tables_number   1
_chemical_formula_structural   Ba2Y(CuO2)4
_chemical_formula_sum   'Ba2 Y1 Cu4 O8'
_cell_volume   208.60453528
_cell_formula_units_Z   1
loop_
 _symmetry_equiv_pos_site_id
 _symmetry_equiv_pos_as_xyz
  1  'x, y, z'
loop_
 _atom_site_type_symbol
 _atom_site_label
 _atom_site_symmetry_multiplicity
 _atom_site_fract_x
 _atom_site_fract_y
 _atom_site_fract_z
 _atom_site_occupancy
  O  O0  1  0.000000  0.854591  0.709182  1
  O  O1  1  0.000000  0.145409  0.290818  1
  O  O2  1  0.000000  0.447906  0.895811  1
  O  O3  1  0.000000  0.552094  0.104189  1
  O  O4  1  0.500000  0.947722  0.895444  1
  O  O5  1  0.500000  0.052278  0.104556  1
  O  O6  1  0.000000  0.281519  0.563037  1
  O  O7  1  0.000000  0.718481  0.436963  1
  Cu  Cu8  1  0.000000  0.938450  0.876899  1
  Cu  Cu9  1  0.000000  0.061550  0.123101  1
  Cu  Cu10  1  0.000000  0.787348  0.574697  1
  Cu  Cu11  1  0.000000  0.212652  0.425303  1
  Y  Y12  1  0.500000  0.500000  0.000000  1
  Ba  Ba13  1  0.500000  0.635730  0.271459  1
  Ba  Ba14  1  0.500000  0.364270  0.728541  1
