# generated using pymatgen
data_AlSeCl7
_symmetry_space_group_name_H-M   'P 1'
_cell_length_a   6.86345183
_cell_length_b   8.72935466
_cell_length_c   10.20478120
_cell_angle_alpha   85.78155649
_cell_angle_beta   73.70510318
_cell_angle_gamma   82.89683107
_symmetry_Int_Tables_number   1
_chemical_formula_structural   AlSeCl7
_chemical_formula_sum   'Al2 Se2 Cl14'
_cell_volume   581.85533653
_cell_formula_units_Z   2
loop_
 _symmetry_equiv_pos_site_id
 _symmetry_equiv_pos_as_xyz
  1  'x, y, z'
loop_
 _atom_site_type_symbol
 _atom_site_label
 _atom_site_symmetry_multiplicity
 _atom_site_fract_x
 _atom_site_fract_y
 _atom_site_fract_z
 _atom_site_occupancy
  Al  Al0  1  0.197254  0.964569  0.520889  1
  Al  Al1  1  0.451726  0.392456  0.939984  1
  Se  Se2  1  0.772122  0.515924  0.302921  1
  Se  Se3  1  0.999517  0.010273  0.987069  1
  Cl  Cl4  1  0.889247  0.915106  0.562641  1
  Cl  Cl5  1  0.391063  0.760524  0.430552  1
  Cl  Cl6  1  0.263485  0.155836  0.377856  1
  Cl  Cl7  1  0.668822  0.360358  0.468962  1
  Cl  Cl8  1  0.481926  0.580269  0.792962  1
  Cl  Cl9  1  0.136806  0.332308  0.998111  1
  Cl  Cl10  1  0.034581  0.593470  0.336403  1
  Cl  Cl11  1  0.020763  0.452511  0.649855  1
  Cl  Cl12  1  0.887553  0.800815  0.946886  1
  Cl  Cl13  1  0.258086  0.905756  0.056128  1
  Cl  Cl14  1  0.785834  0.049166  0.187905  1
  Cl  Cl15  1  0.659243  0.190110  0.866867  1
  Cl  Cl16  1  0.506018  0.468680  0.124510  1
  Cl  Cl17  1  0.272753  0.012069  0.707698  1
