# generated using pymatgen
data_CsCrI2
_symmetry_space_group_name_H-M   'P 1'
_cell_length_a   8.05224767
_cell_length_b   8.70552995
_cell_length_c   6.52193246
_cell_angle_alpha   90.00000000
_cell_angle_beta   90.00000000
_cell_angle_gamma   122.72212314
_symmetry_Int_Tables_number   1
_chemical_formula_structural   CsCrI2
_chemical_formula_sum   'Cs2 Cr2 I4'
_cell_volume   384.62775414
_cell_formula_units_Z   2
loop_
 _symmetry_equiv_pos_site_id
 _symmetry_equiv_pos_as_xyz
  1  'x, y, z'
loop_
 _atom_site_type_symbol
 _atom_site_label
 _atom_site_symmetry_multiplicity
 _atom_site_fract_x
 _atom_site_fract_y
 _atom_site_fract_z
 _atom_site_occupancy
  Cr  Cr0  1  0.000000  0.000000  0.500000  1
  Cr  Cr1  1  0.000000  0.000000  0.000000  1
  Cs  Cs2  1  0.304227  0.652114  0.750000  1
  Cs  Cs3  1  0.695773  0.347886  0.250000  1
  I  I4  1  0.204441  0.864306  0.250000  1
  I  I5  1  0.204441  0.340135  0.250000  1
  I  I6  1  0.795559  0.659865  0.750000  1
  I  I7  1  0.795559  0.135694  0.750000  1
