# generated using pymatgen
data_Zr5(In2Rh)2
_symmetry_space_group_name_H-M   'P 1'
_cell_length_a   3.41655111
_cell_length_b   7.68778666
_cell_length_c   17.62360006
_cell_angle_alpha   90.00478314
_cell_angle_beta   90.00046735
_cell_angle_gamma   89.99840279
_symmetry_Int_Tables_number   1
_chemical_formula_structural   Zr5(In2Rh)2
_chemical_formula_sum   'Zr10 In8 Rh4'
_cell_volume   462.89647286
_cell_formula_units_Z   2
loop_
 _symmetry_equiv_pos_site_id
 _symmetry_equiv_pos_as_xyz
  1  'x, y, z'
loop_
 _atom_site_type_symbol
 _atom_site_label
 _atom_site_symmetry_multiplicity
 _atom_site_fract_x
 _atom_site_fract_y
 _atom_site_fract_z
 _atom_site_occupancy
  Zr  Zr0  1  -0.000029  0.135985  0.420000  1
  Zr  Zr1  1  0.000240  0.757973  0.278733  1
  Zr  Zr2  1  0.999959  0.635897  0.080023  1
  Zr  Zr3  1  0.000021  0.258075  0.221234  1
  Zr  Zr4  1  0.999950  0.364047  0.919962  1
  Zr  Zr5  1  0.000179  0.241960  0.721272  1
  Zr  Zr6  1  0.000118  0.999940  -0.000034  1
  Zr  Zr7  1  -0.000204  0.741919  0.778756  1
  Zr  Zr8  1  -0.000049  0.500059  0.499978  1
  Zr  Zr9  1  -0.000000  0.864043  0.580039  1
  In  In10  1  0.500026  0.799539  0.431990  1
  In  In11  1  0.499955  0.563619  0.649978  1
  In  In12  1  0.499838  0.436385  0.350022  1
  In  In13  1  0.500051  0.063613  0.849960  1
  In  In14  1  0.499983  0.299560  0.068089  1
  In  In15  1  0.500075  0.936354  0.150008  1
  In  In16  1  0.500023  0.700527  0.931899  1
  In  In17  1  0.500002  0.200537  0.568138  1
  Rh  Rh18  1  0.499968  0.548253  0.193195  1
  Rh  Rh19  1  0.499960  0.451750  0.806776  1
  Rh  Rh20  1  0.500059  0.048318  0.306760  1
  Rh  Rh21  1  0.499874  0.951646  0.693221  1
