# generated using pymatgen
data_RbAl3Cd(SiO4)3
_symmetry_space_group_name_H-M   'P 1'
_cell_length_a   12.32493290
_cell_length_b   12.39027987
_cell_length_c   12.29790969
_cell_angle_alpha   89.61908036
_cell_angle_beta   89.79001139
_cell_angle_gamma   89.36473940
_symmetry_Int_Tables_number   1
_chemical_formula_structural   RbAl3Cd(SiO4)3
_chemical_formula_sum   'Rb4 Al12 Cd4 Si12 O48'
_cell_volume   1877.83697372
_cell_formula_units_Z   4
loop_
 _symmetry_equiv_pos_site_id
 _symmetry_equiv_pos_as_xyz
  1  'x, y, z'
loop_
 _atom_site_type_symbol
 _atom_site_label
 _atom_site_symmetry_multiplicity
 _atom_site_fract_x
 _atom_site_fract_y
 _atom_site_fract_z
 _atom_site_occupancy
  Rb  Rb0  1  0.031573  0.507202  0.531371  1
  Rb  Rb1  1  0.471483  0.553561  0.028385  1
  Rb  Rb2  1  0.487876  0.024611  0.476967  1
  Rb  Rb3  1  0.668441  0.729190  0.711872  1
  Al  Al4  1  0.997012  0.186817  0.625045  1
  Al  Al5  1  0.360944  0.814439  0.002178  1
  Al  Al6  1  0.616405  0.010939  0.193615  1
  Al  Al7  1  0.614712  0.192242  0.985469  1
  Al  Al8  1  0.622319  0.990944  0.806133  1
  Al  Al9  1  0.625016  0.813074  0.010040  1
  Al  Al10  1  0.831642  0.002073  0.358696  1
  Al  Al11  1  0.826899  0.996416  0.631904  1
  Al  Al12  1  0.826827  0.367073  0.996730  1
  Al  Al13  1  0.835969  0.637673  0.005555  1
  Al  Al14  1  0.005541  0.631686  0.817586  1
  Al  Al15  1  0.003002  0.811130  0.368771  1
  Cd  Cd16  1  0.788818  0.183349  0.189867  1
  Cd  Cd17  1  0.797629  0.196008  0.814816  1
  Cd  Cd18  1  0.795644  0.802272  0.183598  1
  Cd  Cd19  1  0.847472  0.860417  0.850787  1
  Si  Si20  1  0.003663  0.189229  0.369249  1
  Si  Si21  1  0.999440  0.366487  0.183410  1
  Si  Si22  1  0.001937  0.375228  0.807618  1
  Si  Si23  1  0.011254  0.812387  0.628736  1
  Si  Si24  1  0.183344  0.002206  0.375020  1
  Si  Si25  1  0.186519  0.996778  0.620865  1
  Si  Si26  1  0.180123  0.369931  0.994394  1
  Si  Si27  1  0.189733  0.613575  0.010459  1
  Si  Si28  1  0.362295  0.002470  0.183836  1
  Si  Si29  1  0.357007  0.174721  0.990717  1
  Si  Si30  1  0.356606  0.988219  0.817152  1
  Si  Si31  1  0.011947  0.619055  0.195621  1
  O  O32  1  0.022894  0.297055  0.293603  1
  O  O33  1  0.012165  0.308749  0.695482  1
  O  O34  1  0.017944  0.681331  0.310427  1
  O  O35  1  0.976349  0.783078  0.506205  1
  O  O36  1  0.973319  0.499862  0.777411  1
  O  O37  1  0.024365  0.699533  0.694452  1
  O  O38  1  0.112239  0.114656  0.368824  1
  O  O39  1  0.099905  0.353561  0.099267  1
  O  O40  1  0.107350  0.099118  0.636273  1
  O  O41  1  0.124860  0.619260  0.127800  1
  O  O42  1  0.111557  0.366361  0.881773  1
  O  O43  1  0.112885  0.896783  0.353192  1
  O  O44  1  0.111370  0.635703  0.908731  1
  O  O45  1  0.122574  0.882225  0.635500  1
  O  O46  1  0.240887  0.997856  0.496904  1
  O  O47  1  0.239611  0.487075  0.004418  1
  O  O48  1  0.282637  0.015648  0.290200  1
  O  O49  1  0.271461  0.276221  0.994876  1
  O  O50  1  0.291146  0.998402  0.700962  1
  O  O51  1  0.293939  0.689483  0.015048  1
  O  O52  1  0.339005  0.106630  0.103020  1
  O  O53  1  0.332481  0.101701  0.883665  1
  O  O54  1  0.344908  0.891056  0.121364  1
  O  O55  1  0.317004  0.886358  0.886879  1
  O  O56  1  0.482870  0.013839  0.238731  1
  O  O57  1  0.477647  0.224731  0.984579  1
  O  O58  1  0.484856  0.977752  0.783268  1
  O  O59  1  0.496321  0.770560  0.985153  1
  O  O60  1  0.651258  0.121468  0.106421  1
  O  O61  1  0.654449  0.114796  0.868493  1
  O  O62  1  0.651670  0.889287  0.128653  1
  O  O63  1  0.678712  0.884267  0.892563  1
  O  O64  1  0.704989  0.032342  0.301980  1
  O  O65  1  0.699169  0.969204  0.688053  1
  O  O66  1  0.706037  0.299167  0.979139  1
  O  O67  1  0.714090  0.703950  0.034755  1
  O  O68  1  0.830985  0.502498  0.994972  1
  O  O69  1  0.837863  0.994459  0.495490  1
  O  O70  1  0.905584  0.120771  0.309375  1
  O  O71  1  0.880069  0.120125  0.682955  1
  O  O72  1  0.887818  0.318881  0.125141  1
  O  O73  1  0.904289  0.318005  0.882002  1
  O  O74  1  0.914871  0.676411  0.121996  1
  O  O75  1  0.890651  0.696037  0.883496  1
  O  O76  1  0.888520  0.879178  0.305041  1
  O  O77  1  0.911101  0.886070  0.688492  1
  O  O78  1  0.972058  0.229578  0.489780  1
  O  O79  1  0.980572  0.491515  0.220731  1
