# generated using pymatgen
data_TeMoCl7O
_symmetry_space_group_name_H-M   'P 1'
_cell_length_a   7.57448258
_cell_length_b   12.09657695
_cell_length_c   13.07034271
_cell_angle_alpha   90.00000000
_cell_angle_beta   90.00000000
_cell_angle_gamma   94.51727579
_symmetry_Int_Tables_number   1
_chemical_formula_structural   TeMoCl7O
_chemical_formula_sum   'Te4 Mo4 Cl28 O4'
_cell_volume   1193.85411464
_cell_formula_units_Z   4
loop_
 _symmetry_equiv_pos_site_id
 _symmetry_equiv_pos_as_xyz
  1  'x, y, z'
loop_
 _atom_site_type_symbol
 _atom_site_label
 _atom_site_symmetry_multiplicity
 _atom_site_fract_x
 _atom_site_fract_y
 _atom_site_fract_z
 _atom_site_occupancy
  Te  Te0  1  0.725279  0.373639  0.848013  1
  Te  Te1  1  0.725279  0.873639  0.651987  1
  Te  Te2  1  0.274721  0.626361  0.151987  1
  Te  Te3  1  0.274721  0.126361  0.348013  1
  Mo  Mo4  1  0.048190  0.359500  0.591497  1
  Mo  Mo5  1  0.048190  0.859500  0.908503  1
  Mo  Mo6  1  0.951810  0.640500  0.408503  1
  Mo  Mo7  1  0.951810  0.140500  0.091497  1
  Cl  Cl8  1  0.976335  0.510061  0.270095  1
  Cl  Cl9  1  0.528146  0.986090  0.733676  1
  Cl  Cl10  1  0.253479  0.519026  0.000826  1
  Cl  Cl11  1  0.991261  0.761739  0.068141  1
  Cl  Cl12  1  0.223539  0.737421  0.347510  1
  Cl  Cl13  1  0.528146  0.486090  0.766324  1
  Cl  Cl14  1  0.976335  0.010061  0.229905  1
  Cl  Cl15  1  0.223086  0.501523  0.500592  1
  Cl  Cl16  1  0.023665  0.489939  0.729905  1
  Cl  Cl17  1  0.499537  0.258445  0.404138  1
  Cl  Cl18  1  0.746521  0.980974  0.500826  1
  Cl  Cl19  1  0.776461  0.262579  0.652490  1
  Cl  Cl20  1  0.746521  0.480974  0.999174  1
  Cl  Cl21  1  0.500463  0.741555  0.595862  1
  Cl  Cl22  1  0.008739  0.238261  0.931859  1
  Cl  Cl23  1  0.023665  0.989939  0.770095  1
  Cl  Cl24  1  0.776461  0.762579  0.847510  1
  Cl  Cl25  1  0.776914  0.998477  0.000592  1
  Cl  Cl26  1  0.223539  0.237421  0.152490  1
  Cl  Cl27  1  0.991261  0.261739  0.431859  1
  Cl  Cl28  1  0.471854  0.513910  0.233676  1
  Cl  Cl29  1  0.499537  0.758445  0.095862  1
  Cl  Cl30  1  0.253479  0.019026  0.499174  1
  Cl  Cl31  1  0.223086  0.001523  0.999408  1
  Cl  Cl32  1  0.471854  0.013910  0.266324  1
  Cl  Cl33  1  0.008739  0.738261  0.568141  1
  Cl  Cl34  1  0.500463  0.241555  0.904138  1
  Cl  Cl35  1  0.776914  0.498477  0.499408  1
  O  O36  1  0.794751  0.217720  0.140008  1
  O  O37  1  0.794751  0.717720  0.359992  1
  O  O38  1  0.205249  0.782280  0.859992  1
  O  O39  1  0.205249  0.282280  0.640008  1
