# generated using pymatgen
data_KUVO6
_symmetry_space_group_name_H-M   'P 1'
_cell_length_a   7.08498816
_cell_length_b   8.52681246
_cell_length_c   10.72042276
_cell_angle_alpha   90.00000000
_cell_angle_beta   89.99279465
_cell_angle_gamma   90.00000000
_symmetry_Int_Tables_number   1
_chemical_formula_structural   KUVO6
_chemical_formula_sum   'K4 U4 V4 O24'
_cell_volume   647.64609174
_cell_formula_units_Z   4
loop_
 _symmetry_equiv_pos_site_id
 _symmetry_equiv_pos_as_xyz
  1  'x, y, z'
loop_
 _atom_site_type_symbol
 _atom_site_label
 _atom_site_symmetry_multiplicity
 _atom_site_fract_x
 _atom_site_fract_y
 _atom_site_fract_z
 _atom_site_occupancy
  K  K0  1  0.478577  0.755922  0.708370  1
  K  K1  1  0.478577  0.744078  0.208370  1
  K  K2  1  0.521423  0.244078  0.291630  1
  K  K3  1  0.521423  0.255922  0.791630  1
  U  U4  1  0.000672  0.486209  0.680643  1
  U  U5  1  0.000672  0.013791  0.180643  1
  U  U6  1  0.999328  0.513791  0.319357  1
  U  U7  1  0.999328  0.986209  0.819357  1
  V  V8  1  0.905143  0.351264  0.041657  1
  V  V9  1  0.094857  0.648736  0.958343  1
  V  V10  1  0.094857  0.851264  0.458343  1
  V  V11  1  0.905143  0.148736  0.541657  1
  O  O12  1  0.951130  0.284421  0.205425  1
  O  O13  1  0.325963  0.860123  0.470368  1
  O  O14  1  0.048870  0.784421  0.294575  1
  O  O15  1  0.004165  0.051593  0.394860  1
  O  O16  1  0.257957  0.011452  0.815423  1
  O  O17  1  0.995835  0.948407  0.605140  1
  O  O18  1  0.325963  0.639877  0.970368  1
  O  O19  1  0.004165  0.448407  0.894860  1
  O  O20  1  0.951130  0.215579  0.705425  1
  O  O21  1  0.021871  0.842884  0.010663  1
  O  O22  1  0.258647  0.036705  0.181304  1
  O  O23  1  0.257957  0.488548  0.315423  1
  O  O24  1  0.742043  0.511452  0.684577  1
  O  O25  1  0.995835  0.551593  0.105140  1
  O  O26  1  0.674037  0.360123  0.029632  1
  O  O27  1  0.978129  0.342884  0.489337  1
  O  O28  1  0.978129  0.157116  0.989337  1
  O  O29  1  0.258647  0.463295  0.681304  1
  O  O30  1  0.674037  0.139877  0.529632  1
  O  O31  1  0.742043  0.988548  0.184577  1
  O  O32  1  0.741353  0.536705  0.318696  1
  O  O33  1  0.741353  0.963295  0.818696  1
  O  O34  1  0.048870  0.715579  0.794575  1
  O  O35  1  0.021871  0.657116  0.510663  1
