# generated using pymatgen
data_SiO2
_symmetry_space_group_name_H-M   'P 1'
_cell_length_a   13.58266104
_cell_length_b   13.58266104
_cell_length_c   22.06674490
_cell_angle_alpha   90.00000000
_cell_angle_beta   90.00000000
_cell_angle_gamma   90.00000000
_symmetry_Int_Tables_number   1
_chemical_formula_structural   SiO2
_chemical_formula_sum   'Si56 O112'
_cell_volume   4071.06465897
_cell_formula_units_Z   56
loop_
 _symmetry_equiv_pos_site_id
 _symmetry_equiv_pos_as_xyz
  1  'x, y, z'
loop_
 _atom_site_type_symbol
 _atom_site_label
 _atom_site_symmetry_multiplicity
 _atom_site_fract_x
 _atom_site_fract_y
 _atom_site_fract_z
 _atom_site_occupancy
  Si  Si0  1  0.387652  0.613123  0.387380  1
  Si  Si1  1  0.613123  0.612348  0.612620  1
  Si  Si2  1  0.386877  0.387652  0.612620  1
  Si  Si3  1  0.612348  0.386877  0.387380  1
  Si  Si4  1  0.613123  0.387652  0.612620  1
  Si  Si5  1  0.386877  0.612348  0.612620  1
  Si  Si6  1  0.612348  0.613123  0.387380  1
  Si  Si7  1  0.387652  0.386877  0.387380  1
  Si  Si8  1  0.887652  0.113123  0.887380  1
  Si  Si9  1  0.113123  0.112348  0.112620  1
  Si  Si10  1  0.886877  0.887652  0.112620  1
  Si  Si11  1  0.112348  0.886877  0.887380  1
  Si  Si12  1  0.113123  0.887652  0.112620  1
  Si  Si13  1  0.886877  0.112348  0.112620  1
  Si  Si14  1  0.112348  0.113123  0.887380  1
  Si  Si15  1  0.887652  0.886877  0.887380  1
  Si  Si16  1  0.113477  0.614678  0.436189  1
  Si  Si17  1  0.614678  0.886523  0.563811  1
  Si  Si18  1  0.385322  0.113477  0.563811  1
  Si  Si19  1  0.886523  0.385322  0.436189  1
  Si  Si20  1  0.614678  0.113477  0.563811  1
  Si  Si21  1  0.385322  0.886523  0.563811  1
  Si  Si22  1  0.886523  0.614678  0.436189  1
  Si  Si23  1  0.113477  0.385322  0.436189  1
  Si  Si24  1  0.613477  0.114678  0.936189  1
  Si  Si25  1  0.114678  0.386523  0.063811  1
  Si  Si26  1  0.885322  0.613477  0.063811  1
  Si  Si27  1  0.386523  0.885322  0.936189  1
  Si  Si28  1  0.114678  0.613477  0.063811  1
  Si  Si29  1  0.885322  0.386523  0.063811  1
  Si  Si30  1  0.386523  0.114678  0.936189  1
  Si  Si31  1  0.613477  0.885322  0.936189  1
  Si  Si32  1  0.205446  0.383682  0.309935  1
  Si  Si33  1  0.383682  0.794554  0.690065  1
  Si  Si34  1  0.616318  0.205446  0.690065  1
  Si  Si35  1  0.794554  0.616318  0.309935  1
  Si  Si36  1  0.383682  0.205446  0.690065  1
  Si  Si37  1  0.616318  0.794554  0.690065  1
  Si  Si38  1  0.794554  0.383682  0.309935  1
  Si  Si39  1  0.205446  0.616318  0.309935  1
  Si  Si40  1  0.705446  0.883682  0.809935  1
  Si  Si41  1  0.883682  0.294554  0.190065  1
  Si  Si42  1  0.116318  0.705446  0.190065  1
  Si  Si43  1  0.294554  0.116318  0.809935  1
  Si  Si44  1  0.883682  0.705446  0.190065  1
  Si  Si45  1  0.116318  0.294554  0.190065  1
  Si  Si46  1  0.294554  0.883682  0.809935  1
  Si  Si47  1  0.705446  0.116318  0.809935  1
  Si  Si48  1  0.703164  0.296836  0.500000  1
  Si  Si49  1  0.296836  0.296836  0.500000  1
  Si  Si50  1  0.703164  0.703164  0.500000  1
  Si  Si51  1  0.296836  0.703164  0.500000  1
  Si  Si52  1  0.203164  0.796836  0.000000  1
  Si  Si53  1  0.796836  0.796836  0.000000  1
  Si  Si54  1  0.203164  0.203164  0.000000  1
  Si  Si55  1  0.796836  0.203164  0.000000  1
  O  O56  1  0.314393  0.650262  0.333846  1
  O  O57  1  0.650262  0.685607  0.666154  1
  O  O58  1  0.349738  0.314393  0.666154  1
  O  O59  1  0.685607  0.349738  0.333846  1
  O  O60  1  0.650262  0.314393  0.666154  1
  O  O61  1  0.349738  0.685607  0.666154  1
  O  O62  1  0.685607  0.650262  0.333846  1
  O  O63  1  0.314393  0.349738  0.333846  1
  O  O64  1  0.814393  0.150262  0.833846  1
  O  O65  1  0.150262  0.185607  0.166154  1
  O  O66  1  0.849738  0.814393  0.166154  1
  O  O67  1  0.185607  0.849738  0.833846  1
  O  O68  1  0.150262  0.814393  0.166154  1
  O  O69  1  0.849738  0.185607  0.166154  1
  O  O70  1  0.185607  0.150262  0.833846  1
  O  O71  1  0.814393  0.849738  0.833846  1
  O  O72  1  0.376959  0.684446  0.446012  1
  O  O73  1  0.684446  0.623041  0.553988  1
  O  O74  1  0.315554  0.376959  0.553988  1
  O  O75  1  0.623041  0.315554  0.446012  1
  O  O76  1  0.684446  0.376959  0.553988  1
  O  O77  1  0.315554  0.623041  0.553988  1
  O  O78  1  0.623041  0.684446  0.446012  1
  O  O79  1  0.376959  0.315554  0.446012  1
  O  O80  1  0.876959  0.184446  0.946012  1
  O  O81  1  0.184446  0.123041  0.053988  1
  O  O82  1  0.815554  0.876959  0.053988  1
  O  O83  1  0.123041  0.815554  0.946012  1
  O  O84  1  0.184446  0.876959  0.053988  1
  O  O85  1  0.815554  0.123041  0.053988  1
  O  O86  1  0.123041  0.184446  0.946012  1
  O  O87  1  0.876959  0.815554  0.946012  1
  O  O88  1  0.641106  0.500000  0.406954  1
  O  O89  1  0.500000  0.358894  0.593046  1
  O  O90  1  0.500000  0.641106  0.593046  1
  O  O91  1  0.358894  0.500000  0.406954  1
  O  O92  1  0.141106  0.000000  0.906954  1
  O  O93  1  0.000000  0.858894  0.093046  1
  O  O94  1  0.000000  0.141106  0.093046  1
  O  O95  1  0.858894  0.000000  0.906954  1
  O  O96  1  0.500000  0.616255  0.362586  1
  O  O97  1  0.616255  0.500000  0.637414  1
  O  O98  1  0.383745  0.500000  0.637414  1
  O  O99  1  0.500000  0.383745  0.362586  1
  O  O100  1  0.000000  0.116255  0.862586  1
  O  O101  1  0.116255  0.000000  0.137414  1
  O  O102  1  0.883745  0.000000  0.137414  1
  O  O103  1  0.000000  0.883745  0.862586  1
  O  O104  1  0.792840  0.500000  0.292770  1
  O  O105  1  0.500000  0.207160  0.707230  1
  O  O106  1  0.500000  0.792840  0.707230  1
  O  O107  1  0.207160  0.500000  0.292770  1
  O  O108  1  0.292840  0.000000  0.792770  1
  O  O109  1  0.000000  0.707160  0.207230  1
  O  O110  1  0.000000  0.292840  0.207230  1
  O  O111  1  0.707160  0.000000  0.792770  1
  O  O112  1  0.124684  0.636154  0.363613  1
  O  O113  1  0.636154  0.875316  0.636387  1
  O  O114  1  0.363846  0.124684  0.636387  1
  O  O115  1  0.875316  0.363846  0.363613  1
  O  O116  1  0.636154  0.124684  0.636387  1
  O  O117  1  0.363846  0.875316  0.636387  1
  O  O118  1  0.875316  0.636154  0.363613  1
  O  O119  1  0.124684  0.363846  0.363613  1
  O  O120  1  0.624684  0.136154  0.863613  1
  O  O121  1  0.136154  0.375316  0.136387  1
  O  O122  1  0.863846  0.624684  0.136387  1
  O  O123  1  0.375316  0.863846  0.863613  1
  O  O124  1  0.136154  0.624684  0.136387  1
  O  O125  1  0.863846  0.375316  0.136387  1
  O  O126  1  0.375316  0.136154  0.863613  1
  O  O127  1  0.624684  0.863846  0.863613  1
  O  O128  1  0.820804  0.679196  0.250000  1
  O  O129  1  0.679196  0.179196  0.750000  1
  O  O130  1  0.320804  0.820804  0.750000  1
  O  O131  1  0.179196  0.320804  0.250000  1
  O  O132  1  0.679196  0.820804  0.750000  1
  O  O133  1  0.320804  0.179196  0.750000  1
  O  O134  1  0.179196  0.679196  0.250000  1
  O  O135  1  0.820804  0.320804  0.250000  1
  O  O136  1  0.185570  0.688402  0.473925  1
  O  O137  1  0.688402  0.814430  0.526075  1
  O  O138  1  0.311598  0.185570  0.526075  1
  O  O139  1  0.814430  0.311598  0.473925  1
  O  O140  1  0.688402  0.185570  0.526075  1
  O  O141  1  0.311598  0.814430  0.526075  1
  O  O142  1  0.814430  0.688402  0.473925  1
  O  O143  1  0.185570  0.311598  0.473925  1
  O  O144  1  0.685570  0.188402  0.973925  1
  O  O145  1  0.188402  0.314430  0.026075  1
  O  O146  1  0.811598  0.685570  0.026075  1
  O  O147  1  0.314430  0.811598  0.973925  1
  O  O148  1  0.188402  0.685570  0.026075  1
  O  O149  1  0.811598  0.314430  0.026075  1
  O  O150  1  0.314430  0.188402  0.973925  1
  O  O151  1  0.685570  0.811598  0.973925  1
  O  O152  1  0.856930  0.500000  0.450332  1
  O  O153  1  0.500000  0.143070  0.549668  1
  O  O154  1  0.500000  0.856930  0.549668  1
  O  O155  1  0.143070  0.500000  0.450332  1
  O  O156  1  0.356930  0.000000  0.950332  1
  O  O157  1  0.000000  0.643070  0.049668  1
  O  O158  1  0.000000  0.356930  0.049668  1
  O  O159  1  0.643070  0.000000  0.950332  1
  O  O160  1  0.000000  0.634477  0.456153  1
  O  O161  1  0.634477  0.000000  0.543847  1
  O  O162  1  0.365523  0.000000  0.543847  1
  O  O163  1  0.000000  0.365523  0.456153  1
  O  O164  1  0.500000  0.134477  0.956153  1
  O  O165  1  0.134477  0.500000  0.043847  1
  O  O166  1  0.865523  0.500000  0.043847  1
  O  O167  1  0.500000  0.865523  0.956153  1
