# generated using pymatgen
data_Na2ZnGeO4
_symmetry_space_group_name_H-M   'P 1'
_cell_length_a   5.41111382
_cell_length_b   5.66439511
_cell_length_c   7.22700743
_cell_angle_alpha   90.00000000
_cell_angle_beta   89.90139506
_cell_angle_gamma   90.00000000
_symmetry_Int_Tables_number   1
_chemical_formula_structural   Na2ZnGeO4
_chemical_formula_sum   'Na4 Zn2 Ge2 O8'
_cell_volume   221.51241235
_cell_formula_units_Z   2
loop_
 _symmetry_equiv_pos_site_id
 _symmetry_equiv_pos_as_xyz
  1  'x, y, z'
loop_
 _atom_site_type_symbol
 _atom_site_label
 _atom_site_symmetry_multiplicity
 _atom_site_fract_x
 _atom_site_fract_y
 _atom_site_fract_z
 _atom_site_occupancy
  Na  Na0  1  0.508130  0.177499  0.999489  1
  Na  Na1  1  0.008956  0.323420  0.244763  1
  Na  Na2  1  0.508956  0.676580  0.744763  1
  Na  Na3  1  0.008130  0.822501  0.499489  1
  Zn  Zn4  1  0.498276  0.185445  0.494131  1
  Zn  Zn5  1  0.998276  0.814555  0.994131  1
  Ge  Ge6  1  0.493673  0.683931  0.246791  1
  Ge  Ge7  1  0.993673  0.316069  0.746791  1
  O  O8  1  0.079787  0.155610  0.949987  1
  O  O9  1  0.077584  0.619908  0.772170  1
  O  O10  1  0.666473  0.293699  0.721433  1
  O  O11  1  0.634120  0.793607  0.041238  1
  O  O12  1  0.577584  0.380092  0.272170  1
  O  O13  1  0.134120  0.206393  0.541238  1
  O  O14  1  0.579787  0.844390  0.449987  1
  O  O15  1  0.166473  0.706301  0.221433  1
