# generated using pymatgen
data_FeCu5S4
_symmetry_space_group_name_H-M   'P 1'
_cell_length_a   6.75835664
_cell_length_b   13.48226295
_cell_length_c   12.93381973
_cell_angle_alpha   16.39854785
_cell_angle_beta   28.92076853
_cell_angle_gamma   32.89328581
_symmetry_Int_Tables_number   1
_chemical_formula_structural   FeCu5S4
_chemical_formula_sum   'Fe1 Cu5 S4'
_cell_volume   160.89923013
_cell_formula_units_Z   1
loop_
 _symmetry_equiv_pos_site_id
 _symmetry_equiv_pos_as_xyz
  1  'x, y, z'
loop_
 _atom_site_type_symbol
 _atom_site_label
 _atom_site_symmetry_multiplicity
 _atom_site_fract_x
 _atom_site_fract_y
 _atom_site_fract_z
 _atom_site_occupancy
  Fe  Fe0  1  0.121715  0.000000  0.131754  1
  Cu  Cu1  1  0.368848  0.000000  0.386643  1
  Cu  Cu2  1  0.138432  0.500000  0.133066  1
  Cu  Cu3  1  0.636517  0.000000  0.611160  1
  Cu  Cu4  1  0.385905  0.500000  0.373220  1
  Cu  Cu5  1  0.603590  0.500000  0.628475  1
  S  S6  1  0.000430  0.000000  0.006405  1
  S  S7  1  0.514391  0.000000  0.496788  1
  S  S8  1  0.000366  0.500000  0.001818  1
  S  S9  1  0.501804  0.500000  0.502671  1
