# generated using pymatgen
data_H7NO6
_symmetry_space_group_name_H-M   'P 1'
_cell_length_a   9.99437732
_cell_length_b   14.87366435
_cell_length_c   3.51849676
_cell_angle_alpha   90.00000000
_cell_angle_beta   90.00000000
_cell_angle_gamma   90.00000000
_symmetry_Int_Tables_number   1
_chemical_formula_structural   H7NO6
_chemical_formula_sum   'H28 N4 O24'
_cell_volume   523.03514687
_cell_formula_units_Z   4
loop_
 _symmetry_equiv_pos_site_id
 _symmetry_equiv_pos_as_xyz
  1  'x, y, z'
loop_
 _atom_site_type_symbol
 _atom_site_label
 _atom_site_symmetry_multiplicity
 _atom_site_fract_x
 _atom_site_fract_y
 _atom_site_fract_z
 _atom_site_occupancy
  H  H0  1  0.584846  0.737931  0.342420  1
  H  H1  1  0.915154  0.262069  0.842420  1
  H  H2  1  0.084846  0.762069  0.657580  1
  H  H3  1  0.415154  0.237931  0.157580  1
  H  H4  1  0.482077  0.666391  0.967464  1
  H  H5  1  0.538726  0.591265  0.265451  1
  H  H6  1  0.961274  0.408735  0.765451  1
  H  H7  1  0.017923  0.333609  0.467464  1
  H  H8  1  0.038726  0.908735  0.734549  1
  H  H9  1  0.982077  0.833609  0.032536  1
  H  H10  1  0.461274  0.091265  0.234549  1
  H  H11  1  0.517923  0.166391  0.532536  1
  H  H12  1  0.410789  0.959456  0.162263  1
  H  H13  1  0.567856  0.974840  0.156611  1
  H  H14  1  0.089211  0.040544  0.662263  1
  H  H15  1  0.932144  0.025160  0.656611  1
  H  H16  1  0.910789  0.540544  0.837737  1
  H  H17  1  0.067856  0.525160  0.843389  1
  H  H18  1  0.589211  0.459456  0.337737  1
  H  H19  1  0.432144  0.474840  0.343389  1
  H  H20  1  0.207328  0.881377  0.143448  1
  H  H21  1  0.299229  0.844069  0.468927  1
  H  H22  1  0.292672  0.118624  0.643448  1
  H  H23  1  0.200771  0.155931  0.968927  1
  H  H24  1  0.799229  0.655931  0.531073  1
  H  H25  1  0.707328  0.618623  0.856552  1
  H  H26  1  0.700771  0.344069  0.031073  1
  H  H27  1  0.792672  0.381377  0.356552  1
  N  N28  1  0.724168  0.832703  0.314655  1
  N  N29  1  0.775832  0.167297  0.814655  1
  N  N30  1  0.224168  0.667297  0.685345  1
  N  N31  1  0.275832  0.332703  0.185345  1
  O  O32  1  0.601788  0.807447  0.437260  1
  O  O33  1  0.898212  0.192553  0.937260  1
  O  O34  1  0.101788  0.692553  0.562740  1
  O  O35  1  0.398212  0.307447  0.062740  1
  O  O36  1  0.812690  0.774417  0.284234  1
  O  O37  1  0.687310  0.225583  0.784234  1
  O  O38  1  0.312690  0.725583  0.715766  1
  O  O39  1  0.187310  0.274417  0.215766  1
  O  O40  1  0.739367  0.913169  0.242267  1
  O  O41  1  0.760633  0.086831  0.742267  1
  O  O42  1  0.239367  0.586831  0.757733  1
  O  O43  1  0.260633  0.413169  0.257733  1
  O  O44  1  0.555457  0.656739  0.148266  1
  O  O45  1  0.944543  0.343261  0.648266  1
  O  O46  1  0.055457  0.843261  0.851734  1
  O  O47  1  0.444543  0.156739  0.351734  1
  O  O48  1  0.483099  0.002298  0.078897  1
  O  O49  1  0.016901  0.997702  0.578897  1
  O  O50  1  0.983099  0.497702  0.921103  1
  O  O51  1  0.516901  0.502298  0.421103  1
  O  O52  1  0.286580  0.895227  0.298611  1
  O  O53  1  0.213420  0.104773  0.798611  1
  O  O54  1  0.786580  0.604773  0.701389  1
  O  O55  1  0.713420  0.395227  0.201389  1
