# generated using pymatgen
data_GaRe2(CO)9
_symmetry_space_group_name_H-M   'P 1'
_cell_length_a   14.10178274
_cell_length_b   14.10178246
_cell_length_c   17.67943596
_cell_angle_alpha   113.50435694
_cell_angle_beta   113.50435642
_cell_angle_gamma   90.00000102
_symmetry_Int_Tables_number   1
_chemical_formula_structural   GaRe2(CO)9
_chemical_formula_sum   'Ga8 Re16 C72 O72'
_cell_volume   2903.17142372
_cell_formula_units_Z   8
loop_
 _symmetry_equiv_pos_site_id
 _symmetry_equiv_pos_as_xyz
  1  'x, y, z'
loop_
 _atom_site_type_symbol
 _atom_site_label
 _atom_site_symmetry_multiplicity
 _atom_site_fract_x
 _atom_site_fract_y
 _atom_site_fract_z
 _atom_site_occupancy
  Ga  Ga0  1  0.668412  0.334024  0.445158  1
  Ga  Ga1  1  0.111133  0.168411  0.945158  1
  Ga  Ga2  1  0.834024  0.276746  0.945158  1
  Ga  Ga3  1  0.331589  0.665976  0.554842  1
  Ga  Ga4  1  0.165976  0.723254  0.054842  1
  Ga  Ga5  1  0.888867  0.831588  0.054842  1
  Ga  Ga6  1  0.776746  0.611133  0.445158  1
  Ga  Ga7  1  0.223254  0.388867  0.554842  1
  Re  Re8  1  0.708638  0.880907  0.052203  1
  Re  Re9  1  0.380907  0.843565  0.552203  1
  Re  Re10  1  0.332539  0.582539  0.665078  1
  Re  Re11  1  0.667461  0.417461  0.334922  1
  Re  Re12  1  0.291362  0.119093  0.947797  1
  Re  Re13  1  0.343565  0.671296  0.052203  1
  Re  Re14  1  0.222313  0.472313  0.444627  1
  Re  Re15  1  0.171296  0.208638  0.552203  1
  Re  Re16  1  0.619093  0.156435  0.447797  1
  Re  Re17  1  0.828704  0.791362  0.447797  1
  Re  Re18  1  0.082539  0.832539  0.165078  1
  Re  Re19  1  0.972313  0.722313  0.944627  1
  Re  Re20  1  0.656435  0.328704  0.947797  1
  Re  Re21  1  0.917461  0.167461  0.834922  1
  Re  Re22  1  0.777687  0.527687  0.555373  1
  Re  Re23  1  0.027687  0.277687  0.055373  1
  C  C24  1  0.737726  0.474606  0.041965  1
  C  C25  1  0.695762  0.932641  0.958035  1
  C  C26  1  0.407787  0.818209  0.150453  1
  C  C27  1  0.793398  0.024160  0.149529  1
  C  C28  1  0.350684  0.412147  0.445841  1
  C  C29  1  0.977984  0.367108  0.142883  1
  C  C30  1  0.206602  0.975840  0.850471  1
  C  C31  1  0.524160  0.856131  0.649529  1
  C  C32  1  0.132892  0.335101  0.357117  1
  C  C33  1  0.306726  0.721468  0.954466  1
  C  C34  1  0.262274  0.525394  0.958035  1
  C  C35  1  0.873864  0.033248  0.836469  1
  C  C36  1  0.037395  0.696779  0.163531  1
  C  C37  1  0.411987  0.977927  0.549695  1
  C  C38  1  0.588013  0.022073  0.450305  1
  C  C39  1  0.835101  0.724225  0.857117  1
  C  C40  1  0.775166  0.154919  0.747353  1
  C  C41  1  0.125369  0.293398  0.649529  1
  C  C42  1  0.095158  0.533694  0.445841  1
  C  C43  1  0.221468  0.147740  0.454466  1
  C  C44  1  0.571768  0.911987  0.049695  1
  C  C45  1  0.345081  0.527813  0.752647  1
  C  C46  1  0.775775  0.477984  0.642883  1
  C  C47  1  0.874631  0.706602  0.350471  1
  C  C48  1  0.972187  0.092435  0.747353  1
  C  C49  1  0.477927  0.637708  0.049695  1
  C  C50  1  0.466752  0.537395  0.663531  1
  C  C51  1  0.332244  0.907787  0.650453  1
  C  C52  1  0.522073  0.362292  0.950305  1
  C  C53  1  0.022016  0.632892  0.857117  1
  C  C54  1  0.137708  0.071768  0.549695  1
  C  C55  1  0.533248  0.462605  0.336469  1
  C  C56  1  0.257334  0.167756  0.849547  1
  C  C57  1  0.592213  0.181791  0.849547  1
  C  C58  1  0.693274  0.278532  0.045534  1
  C  C59  1  0.407565  0.724834  0.752647  1
  C  C60  1  0.974606  0.804238  0.541965  1
  C  C61  1  0.428232  0.088013  0.950305  1
  C  C62  1  0.224225  0.522016  0.357117  1
  C  C63  1  0.164899  0.275775  0.142883  1
  C  C64  1  0.196779  0.626136  0.663531  1
  C  C65  1  0.966306  0.149316  0.054159  1
  C  C66  1  0.304239  0.067359  0.041965  1
  C  C67  1  0.647740  0.732998  0.954466  1
  C  C68  1  0.027813  0.907565  0.252647  1
  C  C69  1  0.803221  0.373864  0.336469  1
  C  C70  1  0.356131  0.625369  0.149529  1
  C  C71  1  0.126136  0.966752  0.163531  1
  C  C72  1  0.862292  0.928232  0.450305  1
  C  C73  1  0.912147  0.595158  0.945841  1
  C  C74  1  0.962605  0.303221  0.836469  1
  C  C75  1  0.654919  0.472187  0.247353  1
  C  C76  1  0.592435  0.275166  0.247353  1
  C  C77  1  0.232998  0.806726  0.454466  1
  C  C78  1  0.667756  0.092213  0.349547  1
  C  C79  1  0.778532  0.852260  0.545534  1
  C  C80  1  0.867108  0.664899  0.642883  1
  C  C81  1  0.432641  0.762274  0.458035  1
  C  C82  1  0.318209  0.242666  0.650453  1
  C  C83  1  0.904842  0.466306  0.554159  1
  C  C84  1  0.352260  0.267002  0.045534  1
  C  C85  1  0.643869  0.374631  0.850471  1
  C  C86  1  0.681791  0.757334  0.349547  1
  C  C87  1  0.087853  0.404842  0.054159  1
  C  C88  1  0.475840  0.143869  0.350471  1
  C  C89  1  0.767002  0.193274  0.545534  1
  C  C90  1  0.742666  0.832244  0.150453  1
  C  C91  1  0.649316  0.587853  0.554159  1
  C  C92  1  0.224834  0.845081  0.252647  1
  C  C93  1  0.025394  0.195762  0.458035  1
  C  C94  1  0.033694  0.850684  0.945841  1
  C  C95  1  0.567359  0.237726  0.541965  1
  O  O96  1  0.444883  0.902424  0.209309  1
  O  O97  1  0.642745  0.499330  0.189945  1
  O  O98  1  0.986717  0.380077  0.833786  1
  O  O99  1  0.753997  0.722899  0.801217  1
  O  O100  1  0.576070  0.625435  0.556240  1
  O  O101  1  0.119923  0.652932  0.666214  1
  O  O102  1  0.853313  0.213657  0.600789  1
  O  O103  1  0.453709  0.486717  0.333786  1
  O  O104  1  0.310337  0.035396  0.094257  1
  O  O105  1  0.874565  0.519830  0.943760  1
  O  O106  1  0.047220  0.578318  0.801217  1
  O  O107  1  0.641094  0.401568  0.795818  1
  O  O108  1  0.555117  0.097576  0.790691  1
  O  O109  1  0.490934  0.929448  0.048853  1
  O  O110  1  0.930805  0.076070  0.056240  1
  O  O111  1  0.246003  0.277101  0.198783  1
  O  O112  1  0.358906  0.598432  0.204182  1
  O  O113  1  0.597576  0.735575  0.290691  1
  O  O114  1  0.013283  0.619923  0.166214  1
  O  O115  1  0.394250  0.141094  0.295818  1
  O  O116  1  0.146687  0.786343  0.399211  1
  O  O117  1  0.252524  0.112868  0.399211  1
  O  O118  1  0.941139  0.189663  0.405743  1
  O  O119  1  0.690615  0.142745  0.689945  1
  O  O120  1  0.880594  0.009066  0.451147  1
  O  O121  1  0.880077  0.347068  0.333786  1
  O  O122  1  0.222899  0.547220  0.301217  1
  O  O123  1  0.309385  0.857255  0.310055  1
  O  O124  1  0.901568  0.654724  0.295818  1
  O  O125  1  0.402424  0.264425  0.709309  1
  O  O126  1  0.535396  0.283920  0.594257  1
  O  O127  1  0.019830  0.569195  0.443760  1
  O  O128  1  0.423930  0.374565  0.443760  1
  O  O129  1  0.442081  0.380594  0.951147  1
  O  O130  1  0.125435  0.480170  0.056240  1
  O  O131  1  0.000670  0.952800  0.310055  1
  O  O132  1  0.452800  0.809385  0.810055  1
  O  O133  1  0.098432  0.345276  0.704182  1
  O  O134  1  0.693115  0.055117  0.290691  1
  O  O135  1  0.952780  0.421682  0.198783  1
  O  O136  1  0.845276  0.105750  0.204182  1
  O  O137  1  0.999330  0.047200  0.689945  1
  O  O138  1  0.069195  0.923930  0.943760  1
  O  O139  1  0.689663  0.964604  0.905743  1
  O  O140  1  0.357255  0.500670  0.810055  1
  O  O141  1  0.058861  0.810337  0.594257  1
  O  O142  1  0.612868  0.646687  0.899211  1
  O  O143  1  0.570552  0.942081  0.451147  1
  O  O144  1  0.557919  0.619406  0.048853  1
  O  O145  1  0.152932  0.046291  0.166214  1
  O  O146  1  0.429448  0.057919  0.548853  1
  O  O147  1  0.235575  0.193115  0.790691  1
  O  O148  1  0.464604  0.716080  0.405743  1
  O  O149  1  0.078318  0.253997  0.301217  1
  O  O150  1  0.783920  0.558861  0.094257  1
  O  O151  1  0.847068  0.953709  0.833786  1
  O  O152  1  0.764425  0.806885  0.209309  1
  O  O153  1  0.119406  0.990934  0.548853  1
  O  O154  1  0.306885  0.944883  0.709309  1
  O  O155  1  0.980170  0.430805  0.556240  1
  O  O156  1  0.154724  0.894250  0.795818  1
  O  O157  1  0.777101  0.452780  0.698783  1
  O  O158  1  0.286343  0.752524  0.899211  1
  O  O159  1  0.509066  0.070552  0.951147  1
  O  O160  1  0.747476  0.887132  0.600789  1
  O  O161  1  0.547200  0.190615  0.189945  1
  O  O162  1  0.546291  0.513283  0.666214  1
  O  O163  1  0.921682  0.746003  0.698783  1
  O  O164  1  0.713657  0.247476  0.100789  1
  O  O165  1  0.387132  0.353313  0.100789  1
  O  O166  1  0.605750  0.858906  0.704182  1
  O  O167  1  0.216080  0.441139  0.905743  1
