# generated using pymatgen
data_HNO
_symmetry_space_group_name_H-M   'P 1'
_cell_length_a   6.60770678
_cell_length_b   4.76233234
_cell_length_c   4.76233234
_cell_angle_alpha   70.21632663
_cell_angle_beta   113.24129453
_cell_angle_gamma   113.24129453
_symmetry_Int_Tables_number   1
_chemical_formula_structural   HNO
_chemical_formula_sum   'H4 N4 O4'
_cell_volume   123.52637202
_cell_formula_units_Z   4
loop_
 _symmetry_equiv_pos_site_id
 _symmetry_equiv_pos_as_xyz
  1  'x, y, z'
loop_
 _atom_site_type_symbol
 _atom_site_label
 _atom_site_symmetry_multiplicity
 _atom_site_fract_x
 _atom_site_fract_y
 _atom_site_fract_z
 _atom_site_occupancy
  H  H0  1  0.033949  0.241654  0.218990  1
  H  H1  1  0.533949  0.218990  0.241654  1
  H  H2  1  0.004282  0.701265  0.827866  1
  H  H3  1  0.504282  0.827866  0.701265  1
  N  N4  1  0.255346  0.598582  0.393412  1
  N  N5  1  0.755346  0.393412  0.598582  1
  N  N6  1  0.242405  0.800369  0.163704  1
  N  N7  1  0.742405  0.163704  0.800369  1
  O  O8  1  0.131006  0.274255  0.432787  1
  O  O9  1  0.631006  0.432787  0.274255  1
  O  O10  1  0.893731  0.701739  0.608638  1
  O  O11  1  0.393731  0.608638  0.701739  1
