# generated using pymatgen
data_H2W2O7
_symmetry_space_group_name_H-M   'P 1'
_cell_length_a   7.37322475
_cell_length_b   7.37057372
_cell_length_c   7.37132152
_cell_angle_alpha   60.02043961
_cell_angle_beta   59.98474825
_cell_angle_gamma   59.99481213
_symmetry_Int_Tables_number   1
_chemical_formula_structural   H2W2O7
_chemical_formula_sum   'H4 W4 O14'
_cell_volume   283.26246708
_cell_formula_units_Z   2
loop_
 _symmetry_equiv_pos_site_id
 _symmetry_equiv_pos_as_xyz
  1  'x, y, z'
loop_
 _atom_site_type_symbol
 _atom_site_label
 _atom_site_symmetry_multiplicity
 _atom_site_fract_x
 _atom_site_fract_y
 _atom_site_fract_z
 _atom_site_occupancy
  H  H0  1  0.566758  0.585851  0.777899  1
  H  H1  1  0.585851  0.566758  0.569493  1
  H  H2  1  0.430507  0.222101  0.414149  1
  H  H3  1  0.222101  0.430507  0.433242  1
  W  W4  1  0.999409  0.498298  0.001458  1
  W  W5  1  0.999165  0.998542  0.501702  1
  W  W6  1  0.498298  0.999409  0.000835  1
  W  W7  1  0.998542  0.999165  0.000591  1
  O  O8  1  0.692370  0.058052  0.057720  1
  O  O9  1  0.058052  0.692370  0.691858  1
  O  O10  1  0.058510  0.058510  0.691490  1
  O  O11  1  0.693419  0.693419  0.056581  1
  O  O12  1  0.058047  0.692692  0.057030  1
  O  O13  1  0.692692  0.058047  0.692231  1
  O  O14  1  0.308142  0.942280  0.941948  1
  O  O15  1  0.942280  0.308142  0.307630  1
  O  O16  1  0.943419  0.943419  0.306581  1
  O  O17  1  0.308510  0.308510  0.941490  1
  O  O18  1  0.942970  0.307769  0.941953  1
  O  O19  1  0.307769  0.942970  0.307308  1
  O  O20  1  0.633312  0.633312  0.616688  1
  O  O21  1  0.383312  0.383312  0.366688  1
