# generated using pymatgen
data_CdH8C2Br3N
_symmetry_space_group_name_H-M   'P 1'
_cell_length_a   7.07392140
_cell_length_b   9.13633620
_cell_length_c   14.02375408
_cell_angle_alpha   90.00000000
_cell_angle_beta   90.00000000
_cell_angle_gamma   97.25118508
_symmetry_Int_Tables_number   1
_chemical_formula_structural   CdH8C2Br3N
_chemical_formula_sum   'Cd4 H32 C8 Br12 N4'
_cell_volume   899.10266664
_cell_formula_units_Z   4
loop_
 _symmetry_equiv_pos_site_id
 _symmetry_equiv_pos_as_xyz
  1  'x, y, z'
loop_
 _atom_site_type_symbol
 _atom_site_label
 _atom_site_symmetry_multiplicity
 _atom_site_fract_x
 _atom_site_fract_y
 _atom_site_fract_z
 _atom_site_occupancy
  Cd  Cd0  1  0.977649  0.782792  0.253878  1
  Cd  Cd1  1  0.022351  0.217208  0.746122  1
  Cd  Cd2  1  0.522351  0.217208  0.753878  1
  Cd  Cd3  1  0.477649  0.782792  0.246122  1
  H  H4  1  0.974892  0.367039  0.080659  1
  H  H5  1  0.280540  0.551700  0.583313  1
  H  H6  1  0.337554  0.777797  0.488263  1
  H  H7  1  0.719460  0.448300  0.416687  1
  H  H8  1  0.536506  0.687790  0.909160  1
  H  H9  1  0.409796  0.872963  0.585473  1
  H  H10  1  0.036506  0.687790  0.590840  1
  H  H11  1  0.944120  0.142704  0.475588  1
  H  H12  1  0.876699  0.657944  0.817049  1
  H  H13  1  0.376699  0.657944  0.682951  1
  H  H14  1  0.474892  0.367039  0.419341  1
  H  H15  1  0.909796  0.872963  0.914527  1
  H  H16  1  0.525108  0.632961  0.580659  1
  H  H17  1  0.090204  0.127037  0.085473  1
  H  H18  1  0.444120  0.142704  0.024412  1
  H  H19  1  0.162446  0.222203  0.988263  1
  H  H20  1  0.123301  0.342056  0.182951  1
  H  H21  1  0.893119  0.141117  0.349948  1
  H  H22  1  0.837554  0.777797  0.011737  1
  H  H23  1  0.623301  0.342056  0.317049  1
  H  H24  1  0.393119  0.141117  0.150052  1
  H  H25  1  0.780540  0.551700  0.916687  1
  H  H26  1  0.963494  0.312210  0.409160  1
  H  H27  1  0.555880  0.857296  0.975588  1
  H  H28  1  0.055880  0.857296  0.524412  1
  H  H29  1  0.106881  0.858883  0.650052  1
  H  H30  1  0.219460  0.448300  0.083313  1
  H  H31  1  0.590204  0.127037  0.414527  1
  H  H32  1  0.606881  0.858883  0.849948  1
  H  H33  1  0.025108  0.632961  0.919341  1
  H  H34  1  0.662446  0.222203  0.511737  1
  H  H35  1  0.463494  0.312210  0.090840  1
  C  C36  1  0.118900  0.353587  0.105270  1
  C  C37  1  0.884952  0.201669  0.416843  1
  C  C38  1  0.115048  0.798331  0.583157  1
  C  C39  1  0.618900  0.353587  0.394730  1
  C  C40  1  0.881100  0.646413  0.894730  1
  C  C41  1  0.381100  0.646413  0.605270  1
  C  C42  1  0.615048  0.798331  0.916843  1
  C  C43  1  0.384952  0.201669  0.083157  1
  Br  Br44  1  0.780522  0.000141  0.167849  1
  Br  Br45  1  0.692703  0.583213  0.160906  1
  Br  Br46  1  0.192703  0.583213  0.339094  1
  Br  Br47  1  0.719478  0.999859  0.667849  1
  Br  Br48  1  0.219478  0.999859  0.832151  1
  Br  Br49  1  0.720145  0.789524  0.404683  1
  Br  Br50  1  0.307297  0.416787  0.839094  1
  Br  Br51  1  0.279855  0.210476  0.595317  1
  Br  Br52  1  0.220145  0.789524  0.095317  1
  Br  Br53  1  0.807297  0.416787  0.660906  1
  Br  Br54  1  0.280522  0.000141  0.332151  1
  Br  Br55  1  0.779855  0.210476  0.904683  1
  N  N56  1  0.680435  0.217983  0.438477  1
  N  N57  1  0.819565  0.782017  0.938477  1
  N  N58  1  0.180434  0.217983  0.061523  1
  N  N59  1  0.319566  0.782017  0.561523  1
