# generated using pymatgen
data_YbPaO4
_symmetry_space_group_name_H-M   'P 1'
_cell_length_a   6.72517273
_cell_length_b   9.50828785
_cell_length_c   6.72157618
_cell_angle_alpha   27.89135362
_cell_angle_beta   59.98230286
_cell_angle_gamma   44.98468084
_symmetry_Int_Tables_number   1
_chemical_formula_structural   YbPaO4
_chemical_formula_sum   'Yb2 Pa2 O8'
_cell_volume   131.61371671
_cell_formula_units_Z   2
loop_
 _symmetry_equiv_pos_site_id
 _symmetry_equiv_pos_as_xyz
  1  'x, y, z'
loop_
 _atom_site_type_symbol
 _atom_site_label
 _atom_site_symmetry_multiplicity
 _atom_site_fract_x
 _atom_site_fract_y
 _atom_site_fract_z
 _atom_site_occupancy
  Yb  Yb0  1  0.000000  0.000000  0.000000  1
  Yb  Yb1  1  0.750000  0.500000  0.000000  1
  Pa  Pa2  1  0.500000  0.000000  0.000000  1
  Pa  Pa3  1  0.250000  0.500000  0.000000  1
  O  O4  1  0.127510  -0.002510  0.252510  1
  O  O5  1  0.622490  0.002510  0.247490  1
  O  O6  1  0.375000  0.497490  0.252510  1
  O  O7  1  0.127510  0.497490  0.752510  1
  O  O8  1  0.875000  0.502510  0.247490  1
  O  O9  1  0.622490  0.502510  0.747490  1
  O  O10  1  0.375000  0.002510  0.747490  1
  O  O11  1  0.875000  -0.002510  0.752510  1
