# generated using pymatgen
data_FeHO2
_symmetry_space_group_name_H-M   'P 1'
_cell_length_a   10.11774659
_cell_length_b   3.07310922
_cell_length_c   4.65158022
_cell_angle_alpha   90.00000000
_cell_angle_beta   90.00000000
_cell_angle_gamma   90.00000000
_symmetry_Int_Tables_number   1
_chemical_formula_structural   FeHO2
_chemical_formula_sum   'Fe4 H4 O8'
_cell_volume   144.63130623
_cell_formula_units_Z   4
loop_
 _symmetry_equiv_pos_site_id
 _symmetry_equiv_pos_as_xyz
  1  'x, y, z'
loop_
 _atom_site_type_symbol
 _atom_site_label
 _atom_site_symmetry_multiplicity
 _atom_site_fract_x
 _atom_site_fract_y
 _atom_site_fract_z
 _atom_site_occupancy
  Fe  Fe0  1  0.644906  0.242986  0.541703  1
  Fe  Fe1  1  0.144906  0.257014  0.958297  1
  Fe  Fe2  1  0.355094  0.742986  0.458297  1
  Fe  Fe3  1  0.855094  0.757014  0.041703  1
  H  H4  1  0.416377  0.231925  0.907385  1
  H  H5  1  0.916377  0.268075  0.592615  1
  H  H6  1  0.583623  0.731925  0.092615  1
  H  H7  1  0.083623  0.768075  0.407385  1
  O  O8  1  0.304864  0.243329  0.208006  1
  O  O9  1  0.804864  0.256671  0.291994  1
  O  O10  1  0.695136  0.743329  0.791994  1
  O  O11  1  0.195136  0.756671  0.708006  1
  O  O12  1  0.445953  0.239762  0.701993  1
  O  O13  1  0.945953  0.260238  0.798007  1
  O  O14  1  0.554047  0.739762  0.298007  1
  O  O15  1  0.054047  0.760238  0.201993  1
