# generated using pymatgen
data_Cu8Ge5C4(S2N)8
_symmetry_space_group_name_H-M   'P 1'
_cell_length_a   11.47302202
_cell_length_b   11.47302202
_cell_length_c   17.50758008
_cell_angle_alpha   90.00000000
_cell_angle_beta   90.00000000
_cell_angle_gamma   90.00000000
_symmetry_Int_Tables_number   1
_chemical_formula_structural   Cu8Ge5C4(S2N)8
_chemical_formula_sum   'Cu16 Ge10 C8 S32 N16'
_cell_volume   2304.52686746
_cell_formula_units_Z   2
loop_
 _symmetry_equiv_pos_site_id
 _symmetry_equiv_pos_as_xyz
  1  'x, y, z'
loop_
 _atom_site_type_symbol
 _atom_site_label
 _atom_site_symmetry_multiplicity
 _atom_site_fract_x
 _atom_site_fract_y
 _atom_site_fract_z
 _atom_site_occupancy
  Cu  Cu0  1  0.133131  0.862978  0.590928  1
  Cu  Cu1  1  0.866869  0.137022  0.590928  1
  Cu  Cu2  1  0.137022  0.866869  0.909072  1
  Cu  Cu3  1  0.866869  0.862978  0.409072  1
  Cu  Cu4  1  0.137022  0.133131  0.909072  1
  Cu  Cu5  1  0.862978  0.133131  0.090928  1
  Cu  Cu6  1  0.133131  0.862978  0.409072  1
  Cu  Cu7  1  0.133131  0.137022  0.409072  1
  Cu  Cu8  1  0.862978  0.866869  0.090928  1
  Cu  Cu9  1  0.866869  0.137022  0.409072  1
  Cu  Cu10  1  0.862978  0.133131  0.909072  1
  Cu  Cu11  1  0.866869  0.862978  0.590928  1
  Cu  Cu12  1  0.862978  0.866869  0.909072  1
  Cu  Cu13  1  0.137022  0.866869  0.090928  1
  Cu  Cu14  1  0.133131  0.137022  0.590928  1
  Cu  Cu15  1  0.137022  0.133131  0.090928  1
  Ge  Ge16  1  0.628514  0.000000  0.000000  1
  Ge  Ge17  1  0.000000  0.371566  0.000000  1
  Ge  Ge18  1  0.000000  0.371486  0.500000  1
  Ge  Ge19  1  0.371566  0.000000  0.500000  1
  Ge  Ge20  1  0.000000  0.628514  0.500000  1
  Ge  Ge21  1  0.628434  0.000000  0.500000  1
  Ge  Ge22  1  0.000000  0.000000  0.750000  1
  Ge  Ge23  1  0.000000  0.000000  0.250000  1
  Ge  Ge24  1  0.371486  0.000000  0.000000  1
  Ge  Ge25  1  0.000000  0.628434  0.000000  1
  C  C26  1  0.500000  0.826520  0.742100  1
  C  C27  1  0.500000  0.173480  0.742100  1
  C  C28  1  0.173480  0.500000  0.242100  1
  C  C29  1  0.500000  0.173480  0.257900  1
  C  C30  1  0.826520  0.500000  0.757900  1
  C  C31  1  0.826520  0.500000  0.242100  1
  C  C32  1  0.173480  0.500000  0.757900  1
  C  C33  1  0.500000  0.826520  0.257900  1
  S  S34  1  0.000000  0.833573  0.681338  1
  S  S35  1  0.268320  0.000000  0.390091  1
  S  S36  1  0.000000  0.500000  0.402495  1
  S  S37  1  0.000000  0.833573  0.318662  1
  S  S38  1  0.000000  0.731680  0.109909  1
  S  S39  1  0.500000  0.000000  0.902495  1
  S  S40  1  0.832572  0.268647  0.500000  1
  S  S41  1  0.731680  0.000000  0.390091  1
  S  S42  1  0.167428  0.268647  0.500000  1
  S  S43  1  0.166427  0.000000  0.818662  1
  S  S44  1  0.500000  0.149583  0.500000  1
  S  S45  1  0.000000  0.731680  0.890091  1
  S  S46  1  0.500000  0.000000  0.097505  1
  S  S47  1  0.832572  0.731353  0.500000  1
  S  S48  1  0.833573  0.000000  0.181338  1
  S  S49  1  0.850417  0.500000  0.000000  1
  S  S50  1  0.731680  0.000000  0.609909  1
  S  S51  1  0.166427  0.000000  0.181338  1
  S  S52  1  0.268320  0.000000  0.609909  1
  S  S53  1  0.000000  0.268320  0.109909  1
  S  S54  1  0.149583  0.500000  0.000000  1
  S  S55  1  0.000000  0.268320  0.890091  1
  S  S56  1  0.731353  0.167428  0.000000  1
  S  S57  1  0.000000  0.500000  0.597505  1
  S  S58  1  0.000000  0.166427  0.318662  1
  S  S59  1  0.731353  0.832572  0.000000  1
  S  S60  1  0.833573  0.000000  0.818662  1
  S  S61  1  0.268647  0.832572  0.000000  1
  S  S62  1  0.167428  0.731353  0.500000  1
  S  S63  1  0.500000  0.850417  0.500000  1
  S  S64  1  0.268647  0.167428  0.000000  1
  S  S65  1  0.000000  0.166427  0.681338  1
  N  N66  1  0.392387  0.825992  0.743406  1
  N  N67  1  0.825992  0.607613  0.756594  1
  N  N68  1  0.825992  0.392387  0.243406  1
  N  N69  1  0.392387  0.174008  0.256594  1
  N  N70  1  0.607613  0.825992  0.256594  1
  N  N71  1  0.825992  0.607613  0.243406  1
  N  N72  1  0.607613  0.174008  0.743406  1
  N  N73  1  0.607613  0.174008  0.256594  1
  N  N74  1  0.825992  0.392387  0.756594  1
  N  N75  1  0.174008  0.607613  0.243406  1
  N  N76  1  0.174008  0.392387  0.243406  1
  N  N77  1  0.174008  0.607613  0.756594  1
  N  N78  1  0.392387  0.174008  0.743406  1
  N  N79  1  0.174008  0.392387  0.756594  1
  N  N80  1  0.392387  0.825992  0.256594  1
  N  N81  1  0.607613  0.825992  0.743406  1
