# generated using pymatgen
data_Sr(H8O5)2
_symmetry_space_group_name_H-M   'P 1'
_cell_length_a   6.34010932
_cell_length_b   6.46619162
_cell_length_c   11.32341677
_cell_angle_alpha   89.56908767
_cell_angle_beta   90.73735050
_cell_angle_gamma   89.06887258
_symmetry_Int_Tables_number   1
_chemical_formula_structural   Sr(H8O5)2
_chemical_formula_sum   'Sr2 H32 O20'
_cell_volume   464.10528386
_cell_formula_units_Z   2
loop_
 _symmetry_equiv_pos_site_id
 _symmetry_equiv_pos_as_xyz
  1  'x, y, z'
loop_
 _atom_site_type_symbol
 _atom_site_label
 _atom_site_symmetry_multiplicity
 _atom_site_fract_x
 _atom_site_fract_y
 _atom_site_fract_z
 _atom_site_occupancy
  Sr  Sr0  1  0.996493  0.994372  0.260399  1
  Sr  Sr1  1  0.982908  0.995928  0.738021  1
  H  H2  1  0.033575  0.445172  0.375003  1
  H  H3  1  0.274167  0.380054  0.359780  1
  H  H4  1  0.723257  0.593176  0.350774  1
  H  H5  1  0.847963  0.674932  0.465156  1
  H  H6  1  0.607040  0.268622  0.354655  1
  H  H7  1  0.549102  0.028495  0.373834  1
  H  H8  1  0.396497  0.710303  0.350770  1
  H  H9  1  0.319647  0.851133  0.459675  1
  H  H10  1  0.711900  0.389782  0.850655  1
  H  H11  1  0.972616  0.356232  0.868477  1
  H  H12  1  0.040534  0.596617  0.863473  1
  H  H13  1  0.299118  0.604273  0.851445  1
  H  H14  1  0.421086  0.058570  0.858778  1
  H  H15  1  0.279088  0.150990  0.958743  1
  H  H16  1  0.609068  0.731623  0.840597  1
  H  H17  1  0.694821  0.860148  0.952392  1
  H  H18  1  0.961310  0.551414  0.625435  1
  H  H19  1  0.713541  0.609522  0.642714  1
  H  H20  1  0.271918  0.396614  0.655070  1
  H  H21  1  0.141205  0.322122  0.540854  1
  H  H22  1  0.382119  0.734970  0.641222  1
  H  H23  1  0.438151  0.973762  0.623401  1
  H  H24  1  0.590364  0.287499  0.645727  1
  H  H25  1  0.664779  0.152230  0.532511  1
  H  H26  1  0.244729  0.610529  0.147845  1
  H  H27  1  0.146361  0.716609  0.031986  1
  H  H28  1  0.702724  0.368931  0.154185  1
  H  H29  1  0.842168  0.287949  0.046294  1
  H  H30  1  0.597786  0.719844  0.144830  1
  H  H31  1  0.622411  0.971529  0.125375  1
  H  H32  1  0.357920  0.026985  0.125871  1
  H  H33  1  0.381031  0.280529  0.148944  1
  O  O34  1  0.499219  0.484477  0.319681  1
  O  O35  1  0.518766  0.525184  0.812553  1
  O  O36  1  0.497400  0.514922  0.681257  1
  O  O37  1  0.488344  0.488899  0.187700  1
  O  O38  1  0.133077  0.323963  0.385642  1
  O  O39  1  0.861055  0.658317  0.377784  1
  O  O40  1  0.668336  0.127179  0.380959  1
  O  O41  1  0.337726  0.853372  0.371981  1
  O  O42  1  0.836601  0.292659  0.880638  1
  O  O43  1  0.160624  0.684943  0.874713  1
  O  O44  1  0.282776  0.126608  0.872259  1
  O  O45  1  0.674723  0.872424  0.865700  1
  O  O46  1  0.857626  0.669866  0.620195  1
  O  O47  1  0.131410  0.337093  0.628692  1
  O  O48  1  0.319605  0.873952  0.614348  1
  O  O49  1  0.649272  0.146737  0.620267  1
  O  O50  1  0.149123  0.725510  0.119230  1
  O  O51  1  0.822362  0.270662  0.132199  1
  O  O52  1  0.691594  0.836095  0.117534  1
  O  O53  1  0.287930  0.161719  0.117829  1
