# generated using pymatgen
data_Pd7Se2
_symmetry_space_group_name_H-M   'P 1'
_cell_length_a   5.44420503
_cell_length_b   5.62398323
_cell_length_c   9.57741517
_cell_angle_alpha   93.64791400
_cell_angle_beta   90.00000000
_cell_angle_gamma   90.00000000
_symmetry_Int_Tables_number   1
_chemical_formula_structural   Pd7Se2
_chemical_formula_sum   'Pd14 Se4'
_cell_volume   292.64827884
_cell_formula_units_Z   2
loop_
 _symmetry_equiv_pos_site_id
 _symmetry_equiv_pos_as_xyz
  1  'x, y, z'
loop_
 _atom_site_type_symbol
 _atom_site_label
 _atom_site_symmetry_multiplicity
 _atom_site_fract_x
 _atom_site_fract_y
 _atom_site_fract_z
 _atom_site_occupancy
  Se  Se0  1  0.228117  0.225888  0.621682  1
  Se  Se1  1  0.728117  0.774112  0.878318  1
  Se  Se2  1  0.771883  0.774112  0.378318  1
  Se  Se3  1  0.271883  0.225888  0.121682  1
  Pd  Pd4  1  0.081430  0.793986  0.572781  1
  Pd  Pd5  1  0.581430  0.206014  0.927219  1
  Pd  Pd6  1  0.401332  0.032579  0.351369  1
  Pd  Pd7  1  0.901332  0.967421  0.148631  1
  Pd  Pd8  1  0.598668  0.967421  0.648631  1
  Pd  Pd9  1  0.098668  0.032579  0.851369  1
  Pd  Pd10  1  0.657320  0.426561  0.207989  1
  Pd  Pd11  1  0.157320  0.573439  0.292011  1
  Pd  Pd12  1  0.342680  0.573439  0.792011  1
  Pd  Pd13  1  0.842680  0.426561  0.707989  1
  Pd  Pd14  1  0.418570  0.793986  0.072781  1
  Pd  Pd15  1  0.918570  0.206014  0.427219  1
  Pd  Pd16  1  0.500000  0.500000  0.500000  1
  Pd  Pd17  1  0.000000  0.500000  0.000000  1
