# generated using pymatgen
data_SmClF
_symmetry_space_group_name_H-M   'P 1'
_cell_length_a   3.68598022
_cell_length_b   3.68598022
_cell_length_c   8.28198116
_cell_angle_alpha   90.00000000
_cell_angle_beta   90.00000000
_cell_angle_gamma   90.00000000
_symmetry_Int_Tables_number   1
_chemical_formula_structural   SmClF
_chemical_formula_sum   'Sm2 Cl2 F2'
_cell_volume   112.52272444
_cell_formula_units_Z   2
loop_
 _symmetry_equiv_pos_site_id
 _symmetry_equiv_pos_as_xyz
  1  'x, y, z'
loop_
 _atom_site_type_symbol
 _atom_site_label
 _atom_site_symmetry_multiplicity
 _atom_site_fract_x
 _atom_site_fract_y
 _atom_site_fract_z
 _atom_site_occupancy
  Sm  Sm0  1  0.250000  0.250000  0.207066  1
  Sm  Sm1  1  0.750000  0.750000  0.792934  1
  Cl  Cl2  1  0.250000  0.250000  0.637015  1
  Cl  Cl3  1  0.750000  0.750000  0.362985  1
  F  F4  1  0.750000  0.250000  0.000000  1
  F  F5  1  0.250000  0.750000  0.000000  1
