# generated using pymatgen
data_Sm2Ga9Ru5
_symmetry_space_group_name_H-M   'P 1'
_cell_length_a   6.24261938
_cell_length_b   6.25318343
_cell_length_c   8.13820591
_cell_angle_alpha   112.56162913
_cell_angle_beta   112.50094430
_cell_angle_gamma   90.04776944
_symmetry_Int_Tables_number   1
_chemical_formula_structural   Sm2Ga9Ru5
_chemical_formula_sum   'Sm2 Ga9 Ru5'
_cell_volume   266.94769310
_cell_formula_units_Z   1
loop_
 _symmetry_equiv_pos_site_id
 _symmetry_equiv_pos_as_xyz
  1  'x, y, z'
loop_
 _atom_site_type_symbol
 _atom_site_label
 _atom_site_symmetry_multiplicity
 _atom_site_fract_x
 _atom_site_fract_y
 _atom_site_fract_z
 _atom_site_occupancy
  Sm  Sm0  1  0.503546  0.998715  0.000668  1
  Sm  Sm1  1  0.999458  0.502995  0.000474  1
  Ga  Ga2  1  0.861598  0.440150  0.302178  1
  Ga  Ga3  1  0.142137  0.140567  0.701214  1
  Ga  Ga4  1  0.442034  0.858658  0.301232  1
  Ga  Ga5  1  0.862115  0.861089  0.305880  1
  Ga  Ga6  1  0.141149  0.558496  0.697534  1
  Ga  Ga7  1  0.561589  0.136281  0.697775  1
  Ga  Ga8  1  0.559687  0.558330  0.698838  1
  Ga  Ga9  1  0.002437  0.000774  0.000544  1
  Ga  Ga10  1  0.438987  0.436484  0.299670  1
  Ru  Ru11  1  0.179758  0.177681  0.359596  1
  Ru  Ru12  1  0.822877  0.818433  0.640922  1
  Ru  Ru13  1  0.751547  0.250605  0.501658  1
  Ru  Ru14  1  0.251058  0.748416  0.499257  1
  Ru  Ru15  1  0.501678  0.498638  0.999603  1
