# generated using pymatgen
data_Na5Ca6Nd5Zr16O48
_symmetry_space_group_name_H-M   'P 1'
_cell_length_a   5.67688478
_cell_length_b   5.85863328
_cell_length_c   32.55991442
_cell_angle_alpha   90.00000000
_cell_angle_beta   90.00000000
_cell_angle_gamma   90.13333839
_symmetry_Int_Tables_number   1
_chemical_formula_structural   Na5Ca6Nd5Zr16O48
_chemical_formula_sum   'Na5 Ca6 Nd5 Zr16 O48'
_cell_volume   1082.90029657
_cell_formula_units_Z   1
loop_
 _symmetry_equiv_pos_site_id
 _symmetry_equiv_pos_as_xyz
  1  'x, y, z'
loop_
 _atom_site_type_symbol
 _atom_site_label
 _atom_site_symmetry_multiplicity
 _atom_site_fract_x
 _atom_site_fract_y
 _atom_site_fract_z
 _atom_site_occupancy
  Na  Na0  1  0.013055  0.028917  0.062865  1
  Na  Na1  1  0.013055  0.028917  0.562135  1
  Na  Na2  1  0.487269  0.529239  0.812500  1
  Na  Na3  1  0.505162  0.475105  0.442731  1
  Na  Na4  1  0.505162  0.475105  0.182269  1
  Ca  Ca5  1  0.513376  0.452254  0.686211  1
  Ca  Ca6  1  0.513376  0.452254  0.938789  1
  Ca  Ca7  1  0.987677  0.948575  0.183162  1
  Ca  Ca8  1  0.984287  0.951731  0.688850  1
  Ca  Ca9  1  0.984287  0.951731  0.936150  1
  Ca  Ca10  1  0.987677  0.948575  0.441838  1
  Nd  Nd11  1  0.010167  0.050364  0.312500  1
  Nd  Nd12  1  0.011384  0.060405  0.812500  1
  Nd  Nd13  1  0.485051  0.563671  0.062400  1
  Nd  Nd14  1  0.489305  0.557595  0.312500  1
  Nd  Nd15  1  0.485051  0.563671  0.562600  1
  Zr  Zr16  1  0.501653  0.012781  0.124249  1
  Zr  Zr17  1  0.500949  0.004658  0.378141  1
  Zr  Zr18  1  0.499069  0.005574  0.625583  1
  Zr  Zr19  1  0.498197  0.994542  0.875465  1
  Zr  Zr20  1  0.499069  0.005574  -0.000583  1
  Zr  Zr21  1  0.500949  0.004658  0.246859  1
  Zr  Zr22  1  0.498197  0.994542  0.749535  1
  Zr  Zr23  1  0.501653  0.012781  0.500751  1
  Zr  Zr24  1  0.995106  0.495307  0.124362  1
  Zr  Zr25  1  0.995763  0.496916  0.378168  1
  Zr  Zr26  1  0.000393  0.495329  0.625848  1
  Zr  Zr27  1  -0.000689  0.504246  0.875246  1
  Zr  Zr28  1  0.000393  0.495329  0.999152  1
  Zr  Zr29  1  0.995763  0.496916  0.246832  1
  Zr  Zr30  1  -0.000689  0.504246  0.749754  1
  Zr  Zr31  1  0.995106  0.495307  0.500638  1
  O  O32  1  0.087916  0.543551  0.187852  1
  O  O33  1  0.108121  0.539868  0.687790  1
  O  O34  1  0.108121  0.539868  0.937210  1
  O  O35  1  0.087916  0.543551  0.437148  1
  O  O36  1  0.221343  0.783188  0.112362  1
  O  O37  1  0.216902  0.784564  0.013720  1
  O  O38  1  0.209104  0.784602  0.358803  1
  O  O39  1  0.216902  0.784564  0.611280  1
  O  O40  1  0.209104  0.784602  0.266197  1
  O  O41  1  0.221343  0.783188  0.512638  1
  O  O42  1  0.184520  0.809784  0.862401  1
  O  O43  1  0.184520  0.809784  0.762599  1
  O  O44  1  0.306680  0.307298  0.110368  1
  O  O45  1  0.314095  0.311392  0.012111  1
  O  O46  1  0.294078  0.285747  0.357882  1
  O  O47  1  0.314095  0.311392  0.612889  1
  O  O48  1  0.294078  0.285747  0.267118  1
  O  O49  1  0.306680  0.307298  0.514632  1
  O  O50  1  0.281817  0.283804  0.861483  1
  O  O51  1  0.281817  0.283804  0.763517  1
  O  O52  1  0.389388  0.031750  0.437119  1
  O  O53  1  0.390441  0.038990  0.687577  1
  O  O54  1  0.389388  0.031750  0.187881  1
  O  O55  1  0.390441  0.038990  0.937423  1
  O  O56  1  0.591956  0.969136  0.061957  1
  O  O57  1  0.603797  0.963450  0.312500  1
  O  O58  1  0.606927  0.967680  0.812500  1
  O  O59  1  0.591956  0.969136  0.563043  1
  O  O60  1  0.715136  0.717832  0.135348  1
  O  O61  1  0.691901  0.690291  0.241092  1
  O  O62  1  0.691901  0.690291  0.383908  1
  O  O63  1  0.715136  0.717832  0.489652  1
  O  O64  1  0.702843  0.703086  0.637264  1
  O  O65  1  0.699772  0.705576  0.733048  1
  O  O66  1  0.702843  0.703086  0.987736  1
  O  O67  1  0.699772  0.705576  0.891952  1
  O  O68  1  0.824503  0.172822  0.240340  1
  O  O69  1  0.803822  0.203711  0.140196  1
  O  O70  1  0.796141  0.201400  0.738033  1
  O  O71  1  0.803822  0.203711  0.484804  1
  O  O72  1  0.796141  0.201400  0.886967  1
  O  O73  1  0.824503  0.172822  0.384660  1
  O  O74  1  0.799154  0.206144  0.642261  1
  O  O75  1  0.799154  0.206144  0.982739  1
  O  O76  1  0.888329  0.470397  0.061825  1
  O  O77  1  0.890818  0.456350  0.312500  1
  O  O78  1  0.888329  0.470397  0.563175  1
  O  O79  1  0.906307  0.465842  0.812500  1
