# generated using pymatgen
data_Na3Li3N2
_symmetry_space_group_name_H-M   'P 1'
_cell_length_a   3.79017864
_cell_length_b   3.77449904
_cell_length_c   10.79259698
_cell_angle_alpha   90.00499667
_cell_angle_beta   89.98368750
_cell_angle_gamma   89.99951124
_symmetry_Int_Tables_number   1
_chemical_formula_structural   Na3Li3N2
_chemical_formula_sum   'Na3 Li3 N2'
_cell_volume   154.39916233
_cell_formula_units_Z   1
loop_
 _symmetry_equiv_pos_site_id
 _symmetry_equiv_pos_as_xyz
  1  'x, y, z'
loop_
 _atom_site_type_symbol
 _atom_site_label
 _atom_site_symmetry_multiplicity
 _atom_site_fract_x
 _atom_site_fract_y
 _atom_site_fract_z
 _atom_site_occupancy
  Na  Na0  1  0.000028  0.000046  0.222843  1
  Na  Na1  1  0.000206  0.000074  0.776910  1
  Na  Na2  1  -0.000110  -0.000020  0.500281  1
  Li  Li3  1  0.999965  0.999963  0.000223  1
  Li  Li4  1  0.499994  0.499980  0.001105  1
  Li  Li5  1  0.499883  0.499993  0.499214  1
  N  N6  1  0.500091  0.999966  0.913718  1
  N  N7  1  0.999944  0.499999  0.085706  1
