# generated using pymatgen
data_OsC3IO3
_symmetry_space_group_name_H-M   'P 1'
_cell_length_a   6.51874198
_cell_length_b   7.42982124
_cell_length_c   14.18496968
_cell_angle_alpha   90.00000000
_cell_angle_beta   90.00000000
_cell_angle_gamma   91.11487667
_symmetry_Int_Tables_number   1
_chemical_formula_structural   OsC3IO3
_chemical_formula_sum   'Os4 C12 I4 O12'
_cell_volume   686.89182120
_cell_formula_units_Z   4
loop_
 _symmetry_equiv_pos_site_id
 _symmetry_equiv_pos_as_xyz
  1  'x, y, z'
loop_
 _atom_site_type_symbol
 _atom_site_label
 _atom_site_symmetry_multiplicity
 _atom_site_fract_x
 _atom_site_fract_y
 _atom_site_fract_z
 _atom_site_occupancy
  Os  Os0  1  0.751456  0.718004  0.651331  1
  Os  Os1  1  0.248544  0.281996  0.348669  1
  Os  Os2  1  0.248544  0.281996  0.151331  1
  Os  Os3  1  0.751456  0.718004  0.848669  1
  C  C4  1  0.877982  0.496482  0.873217  1
  C  C5  1  0.385317  0.254880  0.468026  1
  C  C6  1  0.007528  0.151331  0.119149  1
  C  C7  1  0.007528  0.151331  0.380851  1
  C  C8  1  0.614683  0.745120  0.531974  1
  C  C9  1  0.992472  0.848669  0.619149  1
  C  C10  1  0.122018  0.503518  0.126783  1
  C  C11  1  0.992472  0.848669  0.880851  1
  C  C12  1  0.614683  0.745120  0.968026  1
  C  C13  1  0.385317  0.254880  0.031974  1
  C  C14  1  0.122018  0.503518  0.373217  1
  C  C15  1  0.877982  0.496482  0.626783  1
  I  I16  1  0.437109  0.539447  0.750000  1
  I  I17  1  0.562891  0.460553  0.250000  1
  I  I18  1  0.610080  0.013490  0.750000  1
  I  I19  1  0.389920  0.986510  0.250000  1
  O  O20  1  0.141282  0.927482  0.597562  1
  O  O21  1  0.466642  0.245558  0.540923  1
  O  O22  1  0.039930  0.637593  0.109517  1
  O  O23  1  0.039930  0.637593  0.390483  1
  O  O24  1  0.960070  0.362407  0.609517  1
  O  O25  1  0.533358  0.754442  0.459077  1
  O  O26  1  0.858718  0.072518  0.097562  1
  O  O27  1  0.960070  0.362407  0.890483  1
  O  O28  1  0.466642  0.245558  0.959077  1
  O  O29  1  0.141282  0.927482  0.902438  1
  O  O30  1  0.858718  0.072518  0.402438  1
  O  O31  1  0.533358  0.754442  0.040923  1
