# generated using pymatgen
data_Ca2YbF7
_symmetry_space_group_name_H-M   'P 1'
_cell_length_a   8.87600810
_cell_length_b   8.91202622
_cell_length_c   10.21967557
_cell_angle_alpha   116.09844507
_cell_angle_beta   116.12147525
_cell_angle_gamma   89.61890433
_symmetry_Int_Tables_number   1
_chemical_formula_structural   Ca2YbF7
_chemical_formula_sum   'Ca10 Yb5 F35'
_cell_volume   634.05494384
_cell_formula_units_Z   5
loop_
 _symmetry_equiv_pos_site_id
 _symmetry_equiv_pos_as_xyz
  1  'x, y, z'
loop_
 _atom_site_type_symbol
 _atom_site_label
 _atom_site_symmetry_multiplicity
 _atom_site_fract_x
 _atom_site_fract_y
 _atom_site_fract_z
 _atom_site_occupancy
  Yb  Yb0  1  0.189153  0.189053  0.379186  1
  Yb  Yb1  1  0.102416  0.317693  0.001310  1
  Yb  Yb2  1  0.310885  0.900712  0.000557  1
  Yb  Yb3  1  0.812064  0.810769  0.620929  1
  Yb  Yb4  1  0.898040  0.683593  0.998906  1
  Ca  Ca5  1  0.020603  0.473614  0.683020  1
  Ca  Ca6  1  0.209665  0.020172  0.685049  1
  Ca  Ca7  1  0.471561  0.662584  0.681184  1
  Ca  Ca8  1  0.338147  0.788431  0.317854  1
  Ca  Ca9  1  0.663322  0.209345  0.682120  1
  Ca  Ca10  1  0.528660  0.340242  0.317666  1
  Ca  Ca11  1  0.498826  0.498372  0.999793  1
  Ca  Ca12  1  0.790483  0.981617  0.316264  1
  Ca  Ca13  1  0.687279  0.099375  0.999242  1
  Ca  Ca14  1  0.979187  0.526210  0.317076  1
  F  F15  1  0.085378  0.787323  0.739929  1
  F  F16  1  0.066034  0.170793  0.537253  1
  F  F17  1  0.213285  0.347952  0.842191  1
  F  F18  1  0.173634  0.469534  0.538956  1
  F  F19  1  0.043006  0.916032  0.255154  1
  F  F20  1  0.347750  0.630258  0.844506  1
  F  F21  1  0.008990  0.996202  0.001073  1
  F  F22  1  0.084615  0.585752  0.169256  1
  F  F23  1  0.251427  0.747491  0.499361  1
  F  F24  1  0.414406  0.913744  0.830772  1
  F  F25  1  0.218748  0.342113  0.261009  1
  F  F26  1  0.362210  0.065540  0.536288  1
  F  F27  1  0.491954  0.215377  0.836754  1
  F  F28  1  0.147065  0.707491  0.996115  1
  F  F29  1  0.341729  0.038366  0.262280  1
  F  F30  1  0.469668  0.364506  0.540339  1
  F  F31  1  0.629118  0.497031  0.843627  1
  F  F32  1  0.287396  0.147718  0.996999  1
  F  F33  1  0.370306  0.503494  0.156179  1
  F  F34  1  0.531828  0.636144  0.461801  1
  F  F35  1  0.655544  0.958212  0.734102  1
  F  F36  1  0.501732  0.783584  0.156388  1
  F  F37  1  0.637880  0.931875  0.458293  1
  F  F38  1  0.783023  0.659237  0.741123  1
  F  F39  1  0.579303  0.083412  0.170288  1
  F  F40  1  0.748763  0.253114  0.500648  1
  F  F41  1  0.916124  0.415599  0.830962  1
  F  F42  1  0.650595  0.373965  0.159598  1
  F  F43  1  0.955026  0.084166  0.742689  1
  F  F44  1  0.832720  0.533909  0.467058  1
  F  F45  1  0.785451  0.652010  0.156755  1
  F  F46  1  0.710738  0.849018  0.003200  1
  F  F47  1  0.933329  0.827012  0.460556  1
  F  F48  1  0.916676  0.215485  0.264555  1
  F  F49  1  0.854257  0.294758  0.003791  1
