# generated using pymatgen
data_Ti4(PO5)3
_symmetry_space_group_name_H-M   'P 1'
_cell_length_a   7.51146139
_cell_length_b   11.77270192
_cell_length_c   19.85984596
_cell_angle_alpha   86.46874068
_cell_angle_beta   79.09547793
_cell_angle_gamma   71.43588044
_symmetry_Int_Tables_number   1
_chemical_formula_structural   Ti4(PO5)3
_chemical_formula_sum   'Ti24 P18 O90'
_cell_volume   1634.76858238
_cell_formula_units_Z   6
loop_
 _symmetry_equiv_pos_site_id
 _symmetry_equiv_pos_as_xyz
  1  'x, y, z'
loop_
 _atom_site_type_symbol
 _atom_site_label
 _atom_site_symmetry_multiplicity
 _atom_site_fract_x
 _atom_site_fract_y
 _atom_site_fract_z
 _atom_site_occupancy
  Ti  Ti0  1  0.171985  0.266373  0.069642  1
  Ti  Ti1  1  0.317527  0.072921  0.405291  1
  Ti  Ti2  1  0.123322  0.934652  0.918773  1
  Ti  Ti3  1  0.810650  0.564363  0.418044  1
  Ti  Ti4  1  0.518800  0.409758  0.252381  1
  Ti  Ti5  1  0.476596  0.894258  0.760035  1
  Ti  Ti6  1  0.994538  0.766974  0.430413  1
  Ti  Ti7  1  0.506883  0.269836  0.413015  1
  Ti  Ti8  1  0.984926  0.394540  0.739672  1
  Ti  Ti9  1  0.525233  0.231549  0.913224  1
  Ti  Ti10  1  0.519527  0.909485  0.247663  1
  Ti  Ti11  1  0.974697  0.065034  0.081718  1
  Ti  Ti12  1  0.510289  0.735239  0.930184  1
  Ti  Ti13  1  0.678048  0.091133  0.752888  1
  Ti  Ti14  1  0.668589  0.770455  0.087338  1
  Ti  Ti15  1  0.181336  0.589707  0.748586  1
  Ti  Ti16  1  0.119333  0.605354  0.259226  1
  Ti  Ti17  1  0.127753  0.106064  0.239638  1
  Ti  Ti18  1  0.796629  0.926220  0.594522  1
  Ti  Ti19  1  0.792575  0.434668  0.581516  1
  Ti  Ti20  1  0.140038  0.427770  0.906185  1
  Ti  Ti21  1  0.192668  0.729044  0.587786  1
  Ti  Ti22  1  0.190697  0.233262  0.569146  1
  Ti  Ti23  1  0.471679  0.573466  0.094012  1
  P  P24  1  0.520298  0.172168  0.162460  1
  P  P25  1  0.541071  0.833471  0.498741  1
  P  P26  1  0.216657  0.163898  0.829080  1
  P  P27  1  0.130160  0.336594  0.328036  1
  P  P28  1  0.781756  0.004078  0.335148  1
  P  P29  1  0.122544  0.996238  0.664773  1
  P  P30  1  0.786829  0.335532  0.001020  1
  P  P31  1  0.121476  0.666536  0.999720  1
  P  P32  1  0.867810  0.503904  0.163956  1
  P  P33  1  0.537295  0.496917  0.835691  1
  P  P34  1  0.444337  0.328262  0.662177  1
  P  P35  1  0.435407  0.670836  0.337295  1
  P  P36  1  0.207744  0.836847  0.171886  1
  P  P37  1  0.797791  0.663205  0.671145  1
  P  P38  1  0.874206  0.164333  0.500422  1
  P  P39  1  0.184047  0.500022  0.500129  1
  P  P40  1  0.432113  0.001171  0.000439  1
  P  P41  1  0.857825  0.829066  0.837259  1
  O  O42  1  0.810698  0.070385  0.547530  1
  O  O43  1  0.717841  0.096084  0.125135  1
  O  O44  1  0.712372  0.236663  0.462987  1
  O  O45  1  0.111628  0.091995  0.878279  1
  O  O46  1  0.536404  0.075279  0.953005  1
  O  O47  1  0.924273  0.739276  0.037694  1
  O  O48  1  0.308491  0.019075  0.325565  1
  O  O49  1  0.556196  0.587338  0.884521  1
  O  O50  1  0.250841  0.604529  0.051521  1
  O  O51  1  0.581839  0.336492  0.332093  1
  O  O52  1  0.725701  0.591803  0.121615  1
  O  O53  1  0.224277  0.425746  0.286005  1
  O  O54  1  0.733785  0.499854  0.499611  1
  O  O55  1  0.667581  0.163499  0.832912  1
  O  O56  1  0.597473  0.595526  0.373937  1
  O  O57  1  0.025569  0.414743  0.114544  1
  O  O58  1  0.598002  0.092122  0.378046  1
  O  O59  1  0.361467  0.426955  0.451929  1
  O  O60  1  0.719001  0.915693  0.793467  1
  O  O61  1  0.741349  0.591132  0.621991  1
  O  O62  1  0.907715  0.074331  0.295530  1
  O  O63  1  0.336696  0.187054  0.488834  1
  O  O64  1  0.082673  0.413071  0.540202  1
  O  O65  1  0.020166  0.738299  0.791405  1
  O  O66  1  0.716310  0.936733  0.285652  1
  O  O67  1  0.609537  0.894614  0.550601  1
  O  O68  1  0.741316  0.765076  0.888584  1
  O  O69  1  0.276640  0.251907  0.369225  1
  O  O70  1  0.952573  0.408432  0.377199  1
  O  O71  1  0.191662  0.085805  0.615434  1
  O  O72  1  0.279350  0.926386  0.704614  1
  O  O73  1  0.277808  0.249685  0.869554  1
  O  O74  1  0.733544  0.425677  0.795980  1
  O  O75  1  0.907058  0.397301  0.949034  1
  O  O76  1  0.654377  0.981039  0.674181  1
  O  O77  1  0.381926  0.585717  0.293615  1
  O  O78  1  0.236507  0.573325  0.548730  1
  O  O79  1  0.565244  0.403678  0.624418  1
  O  O80  1  0.259818  0.925186  0.214139  1
  O  O81  1  0.253142  0.663017  0.667934  1
  O  O82  1  0.562540  0.236785  0.707651  1
  O  O83  1  0.077024  0.909604  0.123453  1
  O  O84  1  0.423930  0.085860  0.205583  1
  O  O85  1  0.372948  0.915557  0.958752  1
  O  O86  1  0.385006  0.519578  0.174319  1
  O  O87  1  0.720423  0.745822  0.453614  1
  O  O88  1  0.891620  0.914575  0.384539  1
  O  O89  1  0.940212  0.063692  0.714445  1
  O  O90  1  0.108928  0.760245  0.220717  1
  O  O91  1  0.430240  0.927390  0.451976  1
  O  O92  1  0.621600  0.739783  0.719721  1
  O  O93  1  0.393140  0.235717  0.110234  1
  O  O94  1  0.101147  0.574352  0.952676  1
  O  O95  1  0.937103  0.574910  0.713968  1
  O  O96  1  0.400360  0.075261  0.786773  1
  O  O97  1  0.070243  0.907749  0.622179  1
  O  O98  1  0.055953  0.149646  0.160053  1
  O  O99  1  0.955510  0.573972  0.203242  1
  O  O100  1  0.379057  0.263634  0.611369  1
  O  O101  1  0.920518  0.251749  0.546139  1
  O  O102  1  0.558552  0.926420  0.048937  1
  O  O103  1  0.440480  0.409354  0.878840  1
  O  O104  1  0.981549  0.999880  0.000126  1
  O  O105  1  0.013602  0.812289  0.510702  1
  O  O106  1  0.263375  0.413955  0.706559  1
  O  O107  1  0.545672  0.262612  0.208450  1
  O  O108  1  0.394752  0.751945  0.130528  1
  O  O109  1  0.572796  0.687713  0.010967  1
  O  O110  1  0.900271  0.748038  0.630109  1
  O  O111  1  0.970530  0.645992  0.339069  1
  O  O112  1  0.940190  0.904701  0.875069  1
  O  O113  1  0.215608  0.753344  0.954168  1
  O  O114  1  0.922027  0.246973  0.045676  1
  O  O115  1  0.271597  0.312984  0.989106  1
  O  O116  1  0.955030  0.352958  0.660473  1
  O  O117  1  0.662721  0.837083  0.168242  1
  O  O118  1  0.079345  0.260493  0.279500  1
  O  O119  1  0.406113  0.563467  0.785433  1
  O  O120  1  0.079582  0.483288  0.825866  1
  O  O121  1  0.037688  0.586242  0.458982  1
  O  O122  1  0.244306  0.086636  0.041284  1
  O  O123  1  0.054919  0.103297  0.448367  1
  O  O124  1  0.629154  0.427448  0.048120  1
  O  O125  1  0.753956  0.436366  0.214282  1
  O  O126  1  0.090783  0.240141  0.779853  1
  O  O127  1  0.368585  0.851102  0.839394  1
  O  O128  1  0.414181  0.761149  0.536201  1
  O  O129  1  0.255991  0.733783  0.389342  1
  O  O130  1  0.698198  0.263426  0.963025  1
  O  O131  1  0.505008  0.762638  0.291467  1
