# generated using pymatgen
data_Ce6Ge9(BO15)2
_symmetry_space_group_name_H-M   'P 1'
_cell_length_a   8.87028243
_cell_length_b   10.87362379
_cell_length_c   10.91746420
_cell_angle_alpha   90.00000000
_cell_angle_beta   90.00000000
_cell_angle_gamma   95.87436438
_symmetry_Int_Tables_number   1
_chemical_formula_structural   Ce6Ge9(BO15)2
_chemical_formula_sum   'Ce12 Ge18 B4 O60'
_cell_volume   1047.48282841
_cell_formula_units_Z   2
loop_
 _symmetry_equiv_pos_site_id
 _symmetry_equiv_pos_as_xyz
  1  'x, y, z'
loop_
 _atom_site_type_symbol
 _atom_site_label
 _atom_site_symmetry_multiplicity
 _atom_site_fract_x
 _atom_site_fract_y
 _atom_site_fract_z
 _atom_site_occupancy
  Ce  Ce0  1  0.505344  0.768308  0.321781  1
  Ce  Ce1  1  0.956389  0.942724  0.331700  1
  Ce  Ce2  1  0.994656  0.731692  0.821781  1
  Ce  Ce3  1  0.846912  0.555042  0.332414  1
  Ce  Ce4  1  0.005344  0.268308  0.178219  1
  Ce  Ce5  1  0.153088  0.444958  0.667586  1
  Ce  Ce6  1  0.043611  0.057276  0.668300  1
  Ce  Ce7  1  0.543611  0.557276  0.831700  1
  Ce  Ce8  1  0.653088  0.944958  0.832414  1
  Ce  Ce9  1  0.456389  0.442724  0.168300  1
  Ce  Ce10  1  0.346912  0.055042  0.167586  1
  Ce  Ce11  1  0.494656  0.231692  0.678219  1
  Ge  Ge12  1  0.654313  0.031121  0.461616  1
  Ge  Ge13  1  0.364162  0.737337  0.673136  1
  Ge  Ge14  1  0.249428  0.250846  0.917052  1
  Ge  Ge15  1  0.124745  0.738965  0.485469  1
  Ge  Ge16  1  0.345687  0.968879  0.538384  1
  Ge  Ge17  1  0.624745  0.238965  0.014531  1
  Ge  Ge18  1  0.845687  0.468879  0.961616  1
  Ge  Ge19  1  0.635838  0.262663  0.326864  1
  Ge  Ge20  1  0.750572  0.749154  0.082948  1
  Ge  Ge21  1  0.500000  0.500000  0.500000  1
  Ge  Ge22  1  0.250572  0.249154  0.417052  1
  Ge  Ge23  1  0.375255  0.761035  0.985469  1
  Ge  Ge24  1  0.135838  0.762663  0.173136  1
  Ge  Ge25  1  0.875255  0.261035  0.514531  1
  Ge  Ge26  1  0.749428  0.750846  0.582948  1
  Ge  Ge27  1  0.154313  0.531121  0.038384  1
  Ge  Ge28  1  0.000000  0.000000  0.000000  1
  Ge  Ge29  1  0.864162  0.237337  0.826864  1
  B  B30  1  0.780761  0.474614  0.663527  1
  B  B31  1  0.219239  0.525386  0.336473  1
  B  B32  1  0.719239  0.025386  0.163527  1
  B  B33  1  0.280761  0.974614  0.836473  1
  O  O34  1  0.643345  0.209175  0.485457  1
  O  O35  1  0.879923  0.430216  0.570446  1
  O  O36  1  0.356050  0.363706  0.811243  1
  O  O37  1  0.450249  0.983907  0.389342  1
  O  O38  1  0.117129  0.938689  0.863545  1
  O  O39  1  0.826727  0.192831  0.670055  1
  O  O40  1  0.796916  0.629345  0.951304  1
  O  O41  1  0.196301  0.389124  0.314185  1
  O  O42  1  0.631444  0.418864  0.982338  1
  O  O43  1  0.696301  0.889124  0.185815  1
  O  O44  1  0.576488  0.766123  0.695784  1
  O  O45  1  0.642723  0.186212  0.854325  1
  O  O46  1  0.860497  0.860512  0.970939  1
  O  O47  1  0.868556  0.081136  0.482338  1
  O  O48  1  0.857277  0.313788  0.354325  1
  O  O49  1  0.120077  0.569784  0.429554  1
  O  O50  1  0.143950  0.136294  0.311243  1
  O  O51  1  0.360497  0.360512  0.529061  1
  O  O52  1  0.082347  0.267701  0.533637  1
  O  O53  1  0.389968  0.570830  0.631779  1
  O  O54  1  0.203084  0.370655  0.048696  1
  O  O55  1  0.950249  0.483907  0.110658  1
  O  O56  1  0.889968  0.070830  0.868221  1
  O  O57  1  0.131444  0.918864  0.517662  1
  O  O58  1  0.076488  0.266123  0.804216  1
  O  O59  1  0.139503  0.139488  0.029061  1
  O  O60  1  0.643950  0.636294  0.188757  1
  O  O61  1  0.357277  0.813788  0.145675  1
  O  O62  1  0.689488  0.086847  0.288326  1
  O  O63  1  0.296916  0.129345  0.548696  1
  O  O64  1  0.326727  0.692831  0.829945  1
  O  O65  1  0.620077  0.069784  0.070446  1
  O  O66  1  0.856050  0.863706  0.688757  1
  O  O67  1  0.882871  0.061311  0.136455  1
  O  O68  1  0.549751  0.016093  0.610658  1
  O  O69  1  0.189488  0.586847  0.211674  1
  O  O70  1  0.173273  0.807169  0.329945  1
  O  O71  1  0.303699  0.110876  0.814185  1
  O  O72  1  0.673273  0.307169  0.170055  1
  O  O73  1  0.110032  0.929170  0.131779  1
  O  O74  1  0.368556  0.581136  0.017662  1
  O  O75  1  0.379923  0.930216  0.929554  1
  O  O76  1  0.703084  0.870655  0.451304  1
  O  O77  1  0.049751  0.516093  0.889342  1
  O  O78  1  0.923512  0.733877  0.195784  1
  O  O79  1  0.417653  0.232299  0.033637  1
  O  O80  1  0.810512  0.413153  0.788326  1
  O  O81  1  0.143345  0.709175  0.014543  1
  O  O82  1  0.856655  0.290825  0.985457  1
  O  O83  1  0.310512  0.913153  0.711674  1
  O  O84  1  0.382871  0.561311  0.363545  1
  O  O85  1  0.917653  0.732299  0.466363  1
  O  O86  1  0.617129  0.438689  0.636455  1
  O  O87  1  0.356655  0.790825  0.514543  1
  O  O88  1  0.610032  0.429170  0.368221  1
  O  O89  1  0.423512  0.233877  0.304216  1
  O  O90  1  0.142723  0.686212  0.645675  1
  O  O91  1  0.582347  0.767701  0.966363  1
  O  O92  1  0.803699  0.610876  0.685815  1
  O  O93  1  0.639503  0.639488  0.470939  1
