# generated using pymatgen
data_Ba2TmCu3O7
_symmetry_space_group_name_H-M   'P 1'
_cell_length_a   3.82193776
_cell_length_b   3.92593377
_cell_length_c   11.73833037
_cell_angle_alpha   89.99979821
_cell_angle_beta   89.99995168
_cell_angle_gamma   89.99993004
_symmetry_Int_Tables_number   1
_chemical_formula_structural   Ba2TmCu3O7
_chemical_formula_sum   'Ba2 Tm1 Cu3 O7'
_cell_volume   176.12982660
_cell_formula_units_Z   1
loop_
 _symmetry_equiv_pos_site_id
 _symmetry_equiv_pos_as_xyz
  1  'x, y, z'
loop_
 _atom_site_type_symbol
 _atom_site_label
 _atom_site_symmetry_multiplicity
 _atom_site_fract_x
 _atom_site_fract_y
 _atom_site_fract_z
 _atom_site_occupancy
  Ba  Ba0  1  0.499994  0.499999  0.181939  1
  Ba  Ba1  1  0.500001  0.500001  0.817965  1
  Tm  Tm2  1  0.500002  0.500000  0.500067  1
  Cu  Cu3  1  0.999998  -0.000000  0.644272  1
  Cu  Cu4  1  0.000001  -0.000000  0.355675  1
  Cu  Cu5  1  0.000006  -0.000001  0.000024  1
  O  O6  1  0.500001  0.000002  0.382551  1
  O  O7  1  0.000000  0.000001  0.838345  1
  O  O8  1  0.499999  1.000000  0.617460  1
  O  O9  1  0.000001  0.500002  0.380726  1
  O  O10  1  0.000000  0.500001  0.619244  1
  O  O11  1  -0.000001  0.999998  0.161723  1
  O  O12  1  0.999998  0.499999  0.000008  1
