# generated using pymatgen
data_Ba2P2O7
_symmetry_space_group_name_H-M   'P 1'
_cell_length_a   9.47594280
_cell_length_b   9.46501575
_cell_length_c   7.30510075
_cell_angle_alpha   90.00000000
_cell_angle_beta   90.00000000
_cell_angle_gamma   120.03819682
_symmetry_Int_Tables_number   1
_chemical_formula_structural   Ba2P2O7
_chemical_formula_sum   'Ba6 P6 O21'
_cell_volume   567.19621755
_cell_formula_units_Z   3
loop_
 _symmetry_equiv_pos_site_id
 _symmetry_equiv_pos_as_xyz
  1  'x, y, z'
loop_
 _atom_site_type_symbol
 _atom_site_label
 _atom_site_symmetry_multiplicity
 _atom_site_fract_x
 _atom_site_fract_y
 _atom_site_fract_z
 _atom_site_occupancy
  Ba  Ba0  1  0.005706  0.292497  0.000000  1
  Ba  Ba1  1  0.383141  0.387815  0.500000  1
  Ba  Ba2  1  0.284935  0.000000  0.000000  1
  Ba  Ba3  1  0.713209  0.707503  0.000000  1
  Ba  Ba4  1  0.615421  0.000000  0.500000  1
  Ba  Ba5  1  0.995326  0.612185  0.500000  1
  P  P6  1  0.324663  0.662551  0.779214  1
  P  P7  1  0.324663  0.662551  0.220786  1
  P  P8  1  0.991779  0.000000  0.716152  1
  P  P9  1  0.662113  0.337449  0.220786  1
  P  P10  1  0.662113  0.337449  0.779214  1
  P  P11  1  0.991779  0.000000  0.283848  1
  O  O12  1  0.320801  0.816364  0.276639  1
  O  O13  1  0.320801  0.816364  0.723361  1
  O  O14  1  0.181060  0.505124  0.294332  1
  O  O15  1  0.181060  0.505124  0.705668  1
  O  O16  1  0.291265  0.644104  0.000000  1
  O  O17  1  0.152370  0.155534  0.237416  1
  O  O18  1  0.152370  0.155534  0.762584  1
  O  O19  1  0.489299  0.674659  0.742506  1
  O  O20  1  0.489299  0.674659  0.257494  1
  O  O21  1  0.504437  0.183636  0.276639  1
  O  O22  1  0.504437  0.183636  0.723361  1
  O  O23  1  0.675936  0.494876  0.294332  1
  O  O24  1  0.675936  0.494876  0.705668  1
  O  O25  1  0.647162  0.355896  0.000000  1
  O  O26  1  0.996836  0.844466  0.237416  1
  O  O27  1  0.996836  0.844466  0.762584  1
  O  O28  1  0.814640  0.325341  0.257494  1
  O  O29  1  0.814640  0.325341  0.742506  1
  O  O30  1  0.841890  0.000000  0.203887  1
  O  O31  1  0.841890  0.000000  0.796113  1
  O  O32  1  0.958183  0.000000  0.500000  1
