# generated using pymatgen
data_BiBr3
_symmetry_space_group_name_H-M   'P 1'
_cell_length_a   7.29069216
_cell_length_b   8.26833009
_cell_length_c   10.24432719
_cell_angle_alpha   90.00000000
_cell_angle_beta   90.00000000
_cell_angle_gamma   108.22143838
_symmetry_Int_Tables_number   1
_chemical_formula_structural   BiBr3
_chemical_formula_sum   'Bi4 Br12'
_cell_volume   586.58016746
_cell_formula_units_Z   4
loop_
 _symmetry_equiv_pos_site_id
 _symmetry_equiv_pos_as_xyz
  1  'x, y, z'
loop_
 _atom_site_type_symbol
 _atom_site_label
 _atom_site_symmetry_multiplicity
 _atom_site_fract_x
 _atom_site_fract_y
 _atom_site_fract_z
 _atom_site_occupancy
  Bi  Bi0  1  0.029342  0.164948  0.815864  1
  Bi  Bi1  1  0.970658  0.335052  0.315864  1
  Bi  Bi2  1  0.970658  0.835052  0.184136  1
  Bi  Bi3  1  0.029342  0.664948  0.684136  1
  Br  Br4  1  0.316522  0.961060  0.750828  1
  Br  Br5  1  0.683478  0.538940  0.250828  1
  Br  Br6  1  0.683478  0.038940  0.249172  1
  Br  Br7  1  0.787481  0.831856  0.591985  1
  Br  Br8  1  0.787481  0.331856  0.908015  1
  Br  Br9  1  0.316522  0.461060  0.749172  1
  Br  Br10  1  0.212519  0.168144  0.408015  1
  Br  Br11  1  0.203353  0.188927  0.059349  1
  Br  Br12  1  0.796647  0.311073  0.559349  1
  Br  Br13  1  0.203353  0.688927  0.440651  1
  Br  Br14  1  0.212519  0.668144  0.091985  1
  Br  Br15  1  0.796647  0.811073  0.940651  1
