# generated using pymatgen
data_Te(HO)6
_symmetry_space_group_name_H-M   'P 1'
_cell_length_a   5.89562983
_cell_length_b   6.01539277
_cell_length_c   5.45482289
_cell_angle_alpha   62.30091344
_cell_angle_beta   60.45102056
_cell_angle_gamma   55.31336250
_symmetry_Int_Tables_number   1
_chemical_formula_structural   Te(HO)6
_chemical_formula_sum   'Te1 H6 O6'
_cell_volume   133.71671259
_cell_formula_units_Z   1
loop_
 _symmetry_equiv_pos_site_id
 _symmetry_equiv_pos_as_xyz
  1  'x, y, z'
loop_
 _atom_site_type_symbol
 _atom_site_label
 _atom_site_symmetry_multiplicity
 _atom_site_fract_x
 _atom_site_fract_y
 _atom_site_fract_z
 _atom_site_occupancy
  Te  Te0  1  -0.003597  0.004222  0.007079  1
  H  H1  1  0.216981  0.776786  0.606947  1
  H  H2  1  0.323723  0.218595  0.645469  1
  H  H3  1  0.407007  0.619318  0.207244  1
  H  H4  1  0.776897  0.249475  0.392045  1
  H  H5  1  0.638210  0.827126  0.369774  1
  H  H6  1  0.607354  0.400164  0.779860  1
  O  O7  1  0.302143  0.769117  0.733384  1
  O  O8  1  0.187609  0.242128  0.841410  1
  O  O9  1  0.216229  0.767541  0.285803  1
  O  O10  1  0.695013  0.241305  0.276483  1
  O  O11  1  0.791680  0.776298  0.188394  1
  O  O12  1  0.787849  0.235639  0.719008  1
