# generated using pymatgen
data_GaHO2
_symmetry_space_group_name_H-M   'P 1'
_cell_length_a   6.20148202
_cell_length_b   5.24818245
_cell_length_c   6.00955320
_cell_angle_alpha   66.45315117
_cell_angle_beta   50.87873383
_cell_angle_gamma   62.66811501
_symmetry_Int_Tables_number   1
_chemical_formula_structural   GaHO2
_chemical_formula_sum   'Ga4 H4 O8'
_cell_volume   133.07945191
_cell_formula_units_Z   4
loop_
 _symmetry_equiv_pos_site_id
 _symmetry_equiv_pos_as_xyz
  1  'x, y, z'
loop_
 _atom_site_type_symbol
 _atom_site_label
 _atom_site_symmetry_multiplicity
 _atom_site_fract_x
 _atom_site_fract_y
 _atom_site_fract_z
 _atom_site_occupancy
  Ga  Ga0  1  0.063627  0.063627  0.686373  1
  Ga  Ga1  1  0.667265  0.667265  0.082735  1
  Ga  Ga2  1  0.917265  0.917265  0.332735  1
  Ga  Ga3  1  0.313627  0.313627  0.936373  1
  H  H4  1  0.507769  0.173377  0.322545  1
  H  H5  1  0.677455  0.503692  0.492231  1
  H  H6  1  0.173377  0.507769  0.496308  1
  H  H7  1  0.503692  0.677455  0.826623  1
  O  O8  1  0.002298  0.728356  0.017013  1
  O  O9  1  0.728356  0.002298  0.752333  1
  O  O10  1  0.982987  0.247667  0.997702  1
  O  O11  1  0.247667  0.982987  0.271644  1
  O  O12  1  0.495831  0.013950  0.482662  1
  O  O13  1  0.517338  0.492443  0.504169  1
  O  O14  1  0.013950  0.495831  0.507556  1
  O  O15  1  0.492443  0.517338  0.986050  1
