# generated using pymatgen
data_Ca2Ta2O7
_symmetry_space_group_name_H-M   'P 1'
_cell_length_a   7.41973320
_cell_length_b   7.41973347
_cell_length_c   42.93632489
_cell_angle_alpha   90.04450980
_cell_angle_beta   94.95298583
_cell_angle_gamma   119.72804213
_symmetry_Int_Tables_number   1
_chemical_formula_structural   Ca2Ta2O7
_chemical_formula_sum   'Ca28 Ta28 O98'
_cell_volume   2042.39164480
_cell_formula_units_Z   14
loop_
 _symmetry_equiv_pos_site_id
 _symmetry_equiv_pos_as_xyz
  1  'x, y, z'
loop_
 _atom_site_type_symbol
 _atom_site_label
 _atom_site_symmetry_multiplicity
 _atom_site_fract_x
 _atom_site_fract_y
 _atom_site_fract_z
 _atom_site_occupancy
  Ca  Ca0  1  0.023380  0.515293  0.002388  1
  Ca  Ca1  1  0.717726  0.840760  0.572589  1
  Ca  Ca2  1  0.638388  0.059538  0.212473  1
  Ca  Ca3  1  0.554681  0.263909  0.356204  1
  Ca  Ca4  1  0.224997  0.111486  0.857975  1
  Ca  Ca5  1  0.253510  0.367022  0.142025  1
  Ca  Ca6  1  0.841448  0.408321  0.285582  1
  Ca  Ca7  1  0.127044  0.042526  0.710795  1
  Ca  Ca8  1  0.122739  0.555866  0.714418  1
  Ca  Ca9  1  0.907705  0.198478  0.643796  1
  Ca  Ca10  1  0.775658  0.141051  0.428414  1
  Ca  Ca11  1  0.847065  0.425915  0.787527  1
  Ca  Ca12  1  0.877812  0.675698  0.073177  1
  Ca  Ca13  1  0.746881  0.861459  0.140780  1
  Ca  Ca14  1  0.223910  0.856569  0.569305  1
  Ca  Ca15  1  0.331732  0.416250  0.289205  1
  Ca  Ca16  1  0.260155  0.871321  0.141420  1
  Ca  Ca17  1  0.512088  0.512088  0.000000  1
  Ca  Ca18  1  0.729901  0.118735  0.858580  1
  Ca  Ca19  1  0.712637  0.347244  0.571586  1
  Ca  Ca20  1  0.720679  0.606101  0.859220  1
  Ca  Ca21  1  0.992507  0.492507  0.500000  1
  Ca  Ca22  1  0.840618  0.905558  0.287934  1
  Ca  Ca23  1  0.512905  0.020992  0.997612  1
  Ca  Ca24  1  0.617623  0.552684  0.712066  1
  Ca  Ca25  1  0.287264  0.654605  0.430695  1
  Ca  Ca26  1  0.602522  0.804635  0.926823  1
  Ca  Ca27  1  0.268170  0.145136  0.427411  1
  Ta  Ta28  1  0.130445  0.041931  0.211209  1
  Ta  Ta29  1  0.135567  0.547440  0.216040  1
  Ta  Ta30  1  0.830722  0.919235  0.788791  1
  Ta  Ta31  1  0.379041  0.189232  0.069281  1
  Ta  Ta32  1  0.920058  0.699794  0.641961  1
  Ta  Ta33  1  0.650784  0.077988  0.715978  1
  Ta  Ta34  1  0.494425  0.994425  0.500000  1
  Ta  Ta35  1  0.057833  0.278097  0.358039  1
  Ta  Ta36  1  0.772919  0.606803  0.428377  1
  Ta  Ta37  1  0.558618  0.773777  0.358856  1
  Ta  Ta38  1  0.058548  0.774127  0.356081  1
  Ta  Ta39  1  0.753696  0.376026  0.144195  1
  Ta  Ta40  1  0.971329  0.971329  0.000000  1
  Ta  Ta41  1  0.418046  0.702467  0.643919  1
  Ta  Ta42  1  0.991741  0.991058  0.498108  1
  Ta  Ta43  1  0.328579  0.415316  0.781476  1
  Ta  Ta44  1  0.178426  0.344541  0.571623  1
  Ta  Ta45  1  0.633840  0.547103  0.218524  1
  Ta  Ta46  1  0.119951  0.309760  0.930719  1
  Ta  Ta47  1  0.362010  0.934806  0.284022  1
  Ta  Ta48  1  0.331401  0.919527  0.783960  1
  Ta  Ta49  1  0.492949  0.493632  0.501892  1
  Ta  Ta50  1  0.620599  0.312199  0.929373  1
  Ta  Ta51  1  0.231831  0.609501  0.855805  1
  Ta  Ta52  1  0.382826  0.691226  0.070627  1
  Ta  Ta53  1  0.882455  0.190264  0.071759  1
  Ta  Ta54  1  0.118505  0.810696  0.928241  1
  Ta  Ta55  1  0.414920  0.199762  0.641144  1
  O  O56  1  0.150882  0.376848  0.884848  1
  O  O57  1  0.011391  0.234099  0.310914  1
  O  O58  1  0.386822  0.689118  0.493604  1
  O  O59  1  0.411454  0.610964  0.205451  1
  O  O60  1  0.617065  0.743420  0.404022  1
  O  O61  1  0.930225  0.902336  0.453378  1
  O  O62  1  0.405513  0.206003  0.794549  1
  O  O63  1  0.927366  0.461593  0.839423  1
  O  O64  1  0.892221  0.932446  0.834016  1
  O  O65  1  0.479518  0.488509  0.062880  1
  O  O66  1  0.641175  0.577788  0.263548  1
  O  O67  1  0.712377  0.795784  0.637056  1
  O  O68  1  0.054405  0.029936  0.915547  1
  O  O69  1  0.344269  0.838993  0.371805  1
  O  O70  1  0.931006  0.200133  0.593112  1
  O  O71  1  0.114389  0.138858  0.084453  1
  O  O72  1  0.102746  0.248277  0.975176  1
  O  O73  1  0.104522  0.858086  0.973729  1
  O  O74  1  0.905483  0.182576  0.695333  1
  O  O75  1  0.528638  0.771173  0.875266  1
  O  O76  1  0.487242  0.210149  0.304667  1
  O  O77  1  0.925687  0.707012  0.595682  1
  O  O78  1  0.814520  0.612994  0.920812  1
  O  O79  1  0.376628  0.426963  0.656993  1
  O  O80  1  0.070493  0.261501  0.225439  1
  O  O81  1  0.817873  0.209499  0.921857  1
  O  O82  1  0.940546  0.469566  0.351009  1
  O  O83  1  0.843912  0.455490  0.226074  1
  O  O84  1  0.884356  0.130793  0.026271  1
  O  O85  1  0.486507  0.808509  0.314349  1
  O  O86  1  0.390640  0.667099  0.117443  1
  O  O87  1  0.036062  0.845054  0.774561  1
  O  O88  1  0.633847  0.020788  0.796275  1
  O  O89  1  0.005848  0.750147  0.401506  1
  O  O90  1  0.356864  0.473282  0.351151  1
  O  O91  1  0.444523  0.996005  0.453346  1
  O  O92  1  0.215823  0.633615  0.261460  1
  O  O93  1  0.697907  0.852808  0.977619  1
  O  O94  1  0.637642  0.501771  0.170423  1
  O  O95  1  0.653105  0.244467  0.057507  1
  O  O96  1  0.636808  0.612382  0.787789  1
  O  O97  1  0.107272  0.798437  0.311813  1
  O  O98  1  0.607021  0.337894  0.406888  1
  O  O99  1  0.425685  0.014019  0.936796  1
  O  O100  1  0.287642  0.896016  0.078143  1
  O  O101  1  0.942178  0.503493  0.449433  1
  O  O102  1  0.492000  0.266034  0.115152  1
  O  O103  1  0.613354  0.031510  0.263615  1
  O  O104  1  0.186960  0.595598  0.942493  1
  O  O105  1  0.033957  0.211786  0.783765  1
  O  O106  1  0.054060  0.492745  0.550567  1
  O  O107  1  0.542659  0.991177  0.546654  1
  O  O108  1  0.339398  0.213043  0.595978  1
  O  O109  1  0.372154  0.954363  0.738540  1
  O  O110  1  0.692182  0.893708  0.079188  1
  O  O111  1  0.769970  0.719635  0.343007  1
  O  O112  1  0.602558  0.299817  0.507200  1
  O  O113  1  0.448958  0.476848  0.546622  1
  O  O114  1  0.208488  0.268142  0.486482  1
  O  O115  1  0.875189  0.720288  0.022381  1
  O  O116  1  0.544646  0.515940  0.456146  1
  O  O117  1  0.077223  0.488889  0.063204  1
  O  O118  1  0.122131  0.005713  0.648849  1
  O  O119  1  0.895908  0.653372  0.124734  1
  O  O120  1  0.374980  0.718050  0.024353  1
  O  O121  1  0.024109  0.464167  0.171197  1
  O  O122  1  0.195513  0.893218  0.506396  1
  O  O123  1  0.824593  0.849019  0.212211  1
  O  O124  1  0.098430  0.058205  0.165984  1
  O  O125  1  0.428021  0.250192  0.216235  1
  O  O126  1  0.273102  0.127571  0.024824  1
  O  O127  1  0.792618  0.095359  0.492800  1
  O  O128  1  0.767895  0.349739  0.736385  1
  O  O129  1  0.162401  0.991019  0.258383  1
  O  O130  1  0.467189  0.972464  0.628195  1
  O  O131  1  0.622170  0.087943  0.160577  1
  O  O132  1  0.710996  0.396297  0.634544  1
  O  O133  1  0.331348  0.467219  0.829577  1
  O  O134  1  0.425629  0.416638  0.937120  1
  O  O135  1  0.059794  0.088500  0.543854  1
  O  O136  1  0.229417  0.617838  0.773926  1
  O  O137  1  0.224513  0.837572  0.203725  1
  O  O138  1  0.118558  0.589538  0.648991  1
  O  O139  1  0.158728  0.075322  0.362944  1
  O  O140  1  0.149942  0.773592  0.884592  1
  O  O141  1  0.348641  0.604341  0.598494  1
  O  O142  1  0.781660  0.722005  0.513518  1
  O  O143  1  0.549656  0.273197  0.882557  1
  O  O144  1  0.292970  0.852911  0.828803  1
  O  O145  1  0.732636  0.904019  0.741617  1
  O  O146  1  0.923184  0.700476  0.689086  1
  O  O147  1  0.314241  0.377627  0.736452  1
  O  O148  1  0.111330  0.330004  0.404318  1
  O  O149  1  0.693697  0.350627  0.975647  1
  O  O150  1  0.761753  0.076452  0.365456  1
  O  O151  1  0.494160  0.172158  0.685651  1
  O  O152  1  0.889000  0.265350  0.115408  1
  O  O153  1  0.486624  0.795459  0.688187  1
