# generated using pymatgen
data_Ca3YAl3B4O15
_symmetry_space_group_name_H-M   'P 1'
_cell_length_a   10.52650833
_cell_length_b   10.52771007
_cell_length_c   11.68992378
_cell_angle_alpha   90.00000000
_cell_angle_beta   90.00000000
_cell_angle_gamma   119.99273501
_symmetry_Int_Tables_number   1
_chemical_formula_structural   Ca3YAl3B4O15
_chemical_formula_sum   'Ca12 Y4 Al12 B16 O60'
_cell_volume   1121.99870181
_cell_formula_units_Z   4
loop_
 _symmetry_equiv_pos_site_id
 _symmetry_equiv_pos_as_xyz
  1  'x, y, z'
loop_
 _atom_site_type_symbol
 _atom_site_label
 _atom_site_symmetry_multiplicity
 _atom_site_fract_x
 _atom_site_fract_y
 _atom_site_fract_z
 _atom_site_occupancy
  Ca  Ca0  1  0.125458  0.823630  0.625000  1
  Ca  Ca1  1  0.327006  0.658930  0.125000  1
  Ca  Ca2  1  0.161551  0.310091  0.125000  1
  Ca  Ca3  1  0.161977  0.306284  0.625000  1
  Ca  Ca4  1  0.250755  0.118513  0.375633  1
  Ca  Ca5  1  0.250755  0.118513  0.874367  1
  Ca  Ca6  1  0.671053  0.853390  0.125000  1
  Ca  Ca7  1  0.674641  0.858954  0.625000  1
  Ca  Ca8  1  0.835430  0.725838  0.375797  1
  Ca  Ca9  1  0.835430  0.725838  0.874203  1
  Ca  Ca10  1  0.864286  0.136954  0.374503  1
  Ca  Ca11  1  0.864286  0.136954  0.875497  1
  Y  Y12  1  0.129523  0.816086  0.125000  1
  Y  Y13  1  0.322763  0.662627  0.625000  1
  Y  Y14  1  0.656723  0.328445  0.374789  1
  Y  Y15  1  0.656723  0.328445  0.875211  1
  Al  Al16  1  0.486054  0.995694  0.252180  1
  Al  Al17  1  0.484913  0.996042  0.751459  1
  Al  Al18  1  0.490451  0.494442  0.999359  1
  Al  Al19  1  0.491902  0.497097  0.498776  1
  Al  Al20  1  0.490451  0.494442  0.250641  1
  Al  Al21  1  0.491902  0.497097  0.751224  1
  Al  Al22  1  0.486054  0.995694  0.997820  1
  Al  Al23  1  0.484913  0.996042  0.498541  1
  Al  Al24  1  0.990902  0.493883  0.498670  1
  Al  Al25  1  0.992308  0.491953  0.996060  1
  Al  Al26  1  0.992308  0.491953  0.253940  1
  Al  Al27  1  0.990902  0.493883  0.751330  1
  B  B28  1  0.987278  0.993651  0.999109  1
  B  B29  1  0.216307  0.764671  0.377647  1
  B  B30  1  0.216307  0.764671  0.872353  1
  B  B31  1  0.987278  0.993651  0.250891  1
  B  B32  1  0.984477  0.993393  0.494478  1
  B  B33  1  0.984477  0.993393  0.755522  1
  B  B34  1  0.224479  0.453741  0.874349  1
  B  B35  1  0.224479  0.453741  0.375651  1
  B  B36  1  0.523680  0.766509  0.375070  1
  B  B37  1  0.523680  0.766509  0.874930  1
  B  B38  1  0.445276  0.219182  0.125000  1
  B  B39  1  0.445199  0.220415  0.625000  1
  B  B40  1  0.759218  0.540397  0.125000  1
  B  B41  1  0.760137  0.540203  0.625000  1
  B  B42  1  0.764538  0.226158  0.125000  1
  B  B43  1  0.766172  0.225510  0.625000  1
  O  O44  1  0.160057  0.690845  0.275291  1
  O  O45  1  0.165547  0.688617  0.770311  1
  O  O46  1  0.165547  0.688617  0.479689  1
  O  O47  1  0.160057  0.690845  0.974709  1
  O  O48  1  0.080969  0.475923  0.125000  1
  O  O49  1  0.084485  0.474930  0.625000  1
  O  O50  1  0.076674  0.421666  0.874833  1
  O  O51  1  0.076674  0.421666  0.375167  1
  O  O52  1  0.325670  0.913750  0.376454  1
  O  O53  1  0.325670  0.913750  0.873546  1
  O  O54  1  0.369937  0.906213  0.125000  1
  O  O55  1  0.372822  0.903562  0.625000  1
  O  O56  1  0.297624  0.475364  0.478829  1
  O  O57  1  0.296596  0.468438  0.976144  1
  O  O58  1  0.296596  0.468438  0.273856  1
  O  O59  1  0.297624  0.475364  0.771171  1
  O  O60  1  0.499803  0.817696  0.478131  1
  O  O61  1  0.504613  0.822230  0.273476  1
  O  O62  1  0.504613  0.822230  0.976524  1
  O  O63  1  0.499803  0.817696  0.771869  1
  O  O64  1  0.515732  0.607335  0.125000  1
  O  O65  1  0.512712  0.610673  0.625000  1
  O  O66  1  0.412022  0.332661  0.125000  1
  O  O67  1  0.414189  0.335752  0.625000  1
  O  O68  1  0.562909  0.655978  0.375113  1
  O  O69  1  0.562909  0.655978  0.874887  1
  O  O70  1  0.468118  0.377873  0.375642  1
  O  O71  1  0.468118  0.377873  0.874358  1
  O  O72  1  0.834255  0.928886  0.761912  1
  O  O73  1  0.837775  0.919226  0.258344  1
  O  O74  1  0.834255  0.928886  0.488088  1
  O  O75  1  0.837775  0.919226  0.991656  1
  O  O76  1  0.461393  0.164922  0.229402  1
  O  O77  1  0.460148  0.165018  0.729052  1
  O  O78  1  0.461393  0.164922  0.020598  1
  O  O79  1  0.460148  0.165018  0.520948  1
  O  O80  1  0.687900  0.520371  0.229074  1
  O  O81  1  0.687900  0.520371  0.020926  1
  O  O82  1  0.688628  0.524341  0.728789  1
  O  O83  1  0.688628  0.524341  0.521211  1
  O  O84  1  0.062138  0.916308  0.996308  1
  O  O85  1  0.062138  0.916308  0.253692  1
  O  O86  1  0.048881  0.907716  0.486259  1
  O  O87  1  0.048881  0.907716  0.763741  1
  O  O88  1  0.606411  0.087983  0.874361  1
  O  O89  1  0.606411  0.087983  0.375639  1
  O  O90  1  0.648382  0.079366  0.125000  1
  O  O91  1  0.648759  0.079735  0.625000  1
  O  O92  1  0.909431  0.580731  0.125000  1
  O  O93  1  0.906675  0.571217  0.625000  1
  O  O94  1  0.896515  0.519057  0.375611  1
  O  O95  1  0.896515  0.519057  0.874389  1
  O  O96  1  0.822609  0.296535  0.521082  1
  O  O97  1  0.820295  0.297259  0.020971  1
  O  O98  1  0.820295  0.297259  0.229029  1
  O  O99  1  0.822609  0.296535  0.728918  1
  O  O100  1  0.069960  0.143549  0.489563  1
  O  O101  1  0.066222  0.143571  0.990582  1
  O  O102  1  0.066222  0.143571  0.259418  1
  O  O103  1  0.069960  0.143549  0.760437  1
