# generated using pymatgen
data_PtCl2
_symmetry_space_group_name_H-M   'P 1'
_cell_length_a   4.57598227
_cell_length_b   7.30435588
_cell_length_c   4.92842244
_cell_angle_alpha   101.96098856
_cell_angle_beta   102.85505687
_cell_angle_gamma   94.35857130
_symmetry_Int_Tables_number   1
_chemical_formula_structural   PtCl2
_chemical_formula_sum   'Pt2 Cl4'
_cell_volume   155.82199652
_cell_formula_units_Z   2
loop_
 _symmetry_equiv_pos_site_id
 _symmetry_equiv_pos_as_xyz
  1  'x, y, z'
loop_
 _atom_site_type_symbol
 _atom_site_label
 _atom_site_symmetry_multiplicity
 _atom_site_fract_x
 _atom_site_fract_y
 _atom_site_fract_z
 _atom_site_occupancy
  Pt  Pt0  1  0.213219  0.593045  0.286493  1
  Pt  Pt1  1  0.786706  0.407058  0.713262  1
  Cl  Cl2  1  0.212698  0.836365  0.070098  1
  Cl  Cl3  1  0.253755  0.356165  0.559794  1
  Cl  Cl4  1  0.746146  0.643846  0.440405  1
  Cl  Cl5  1  0.787476  0.163522  -0.070052  1
