# generated using pymatgen
data_Ce3Zn22
_symmetry_space_group_name_H-M   'P 1'
_cell_length_a   12.36809732
_cell_length_b   12.36809732
_cell_length_c   12.36809732
_cell_angle_alpha   137.70431854
_cell_angle_beta   137.70431854
_cell_angle_gamma   61.35615146
_symmetry_Int_Tables_number   1
_chemical_formula_structural   Ce3Zn22
_chemical_formula_sum   'Ce6 Zn44'
_cell_volume   847.16040415
_cell_formula_units_Z   2
loop_
 _symmetry_equiv_pos_site_id
 _symmetry_equiv_pos_as_xyz
  1  'x, y, z'
loop_
 _atom_site_type_symbol
 _atom_site_label
 _atom_site_symmetry_multiplicity
 _atom_site_fract_x
 _atom_site_fract_y
 _atom_site_fract_z
 _atom_site_occupancy
  Ce  Ce0  1  0.750000  0.250000  0.500000  1
  Ce  Ce1  1  0.000000  0.000000  0.000000  1
  Ce  Ce2  1  0.371084  0.871084  0.500000  1
  Ce  Ce3  1  0.378916  0.378916  0.000000  1
  Ce  Ce4  1  0.128916  0.628916  0.500000  1
  Ce  Ce5  1  0.621084  0.621084  0.000000  1
  Zn  Zn6  1  0.875000  0.625000  0.750000  1
  Zn  Zn7  1  0.875000  0.125000  0.250000  1
  Zn  Zn8  1  0.375000  0.125000  0.250000  1
  Zn  Zn9  1  0.875000  0.125000  0.750000  1
  Zn  Zn10  1  0.614889  0.268420  0.653532  1
  Zn  Zn11  1  0.614889  0.961357  0.346468  1
  Zn  Zn12  1  0.135111  0.288643  0.153532  1
  Zn  Zn13  1  0.135111  0.981580  0.846468  1
  Zn  Zn14  1  0.731580  0.385111  0.346468  1
  Zn  Zn15  1  0.038643  0.385111  0.653532  1
  Zn  Zn16  1  0.711357  0.864889  0.846468  1
  Zn  Zn17  1  0.018420  0.864889  0.153532  1
  Zn  Zn18  1  0.756948  0.608065  0.851117  1
  Zn  Zn19  1  0.756948  0.905831  0.148883  1
  Zn  Zn20  1  0.993052  0.344169  0.351117  1
  Zn  Zn21  1  0.993052  0.641935  0.648883  1
  Zn  Zn22  1  0.391935  0.243052  0.148883  1
  Zn  Zn23  1  0.094169  0.243052  0.851117  1
  Zn  Zn24  1  0.655831  0.006948  0.648883  1
  Zn  Zn25  1  0.358065  0.006948  0.351117  1
  Zn  Zn26  1  0.250771  0.525414  0.274643  1
  Zn  Zn27  1  0.250771  0.976129  0.725357  1
  Zn  Zn28  1  0.499229  0.273871  0.774643  1
  Zn  Zn29  1  0.499229  0.724586  0.225357  1
  Zn  Zn30  1  0.474586  0.749229  0.725357  1
  Zn  Zn31  1  0.023871  0.749229  0.274643  1
  Zn  Zn32  1  0.726129  0.500771  0.225357  1
  Zn  Zn33  1  0.275414  0.500771  0.774643  1
  Zn  Zn34  1  0.555208  0.549493  0.476497  1
  Zn  Zn35  1  0.072996  0.078711  0.523503  1
  Zn  Zn36  1  0.677004  0.171289  0.976497  1
  Zn  Zn37  1  0.194792  0.700507  0.023503  1
  Zn  Zn38  1  0.555208  0.078711  0.005715  1
  Zn  Zn39  1  0.072996  0.549493  0.994285  1
  Zn  Zn40  1  0.677004  0.700507  0.505715  1
  Zn  Zn41  1  0.194792  0.171289  0.494285  1
  Zn  Zn42  1  0.450507  0.444792  0.523503  1
  Zn  Zn43  1  0.921289  0.927004  0.476497  1
  Zn  Zn44  1  0.828711  0.322996  0.023503  1
  Zn  Zn45  1  0.299493  0.805208  0.976497  1
  Zn  Zn46  1  0.450507  0.927004  0.005715  1
  Zn  Zn47  1  0.921289  0.444792  0.994285  1
  Zn  Zn48  1  0.828711  0.805208  0.505715  1
  Zn  Zn49  1  0.299493  0.322996  0.494285  1
