# generated using pymatgen
data_MnSi6Pb8O21
_symmetry_space_group_name_H-M   'P 1'
_cell_length_a   14.34941109
_cell_length_b   14.34941068
_cell_length_c   14.34941068
_cell_angle_alpha   41.52766565
_cell_angle_beta   41.52766750
_cell_angle_gamma   41.52766638
_symmetry_Int_Tables_number   1
_chemical_formula_structural   MnSi6Pb8O21
_chemical_formula_sum   'Mn2 Si12 Pb16 O42'
_cell_volume   1173.65031374
_cell_formula_units_Z   2
loop_
 _symmetry_equiv_pos_site_id
 _symmetry_equiv_pos_as_xyz
  1  'x, y, z'
loop_
 _atom_site_type_symbol
 _atom_site_label
 _atom_site_symmetry_multiplicity
 _atom_site_fract_x
 _atom_site_fract_y
 _atom_site_fract_z
 _atom_site_occupancy
  Mn  Mn0  1  0.250000  0.250000  0.250000  1
  Mn  Mn1  1  0.750000  0.750000  0.750000  1
  Si  Si2  1  0.432177  0.667980  0.037484  1
  Si  Si3  1  0.567823  0.332020  0.962516  1
  Si  Si4  1  0.832020  0.067823  0.462516  1
  Si  Si5  1  0.667980  0.037484  0.432177  1
  Si  Si6  1  0.462516  0.832020  0.067823  1
  Si  Si7  1  0.962516  0.567823  0.332020  1
  Si  Si8  1  0.537484  0.167980  0.932177  1
  Si  Si9  1  0.067823  0.462516  0.832020  1
  Si  Si10  1  0.037484  0.432177  0.667980  1
  Si  Si11  1  0.932177  0.537484  0.167980  1
  Si  Si12  1  0.167980  0.932177  0.537484  1
  Si  Si13  1  0.332020  0.962516  0.567823  1
  Pb  Pb14  1  0.031417  0.781131  0.305767  1
  Pb  Pb15  1  0.162756  0.162756  0.162756  1
  Pb  Pb16  1  0.218869  0.694233  0.968583  1
  Pb  Pb17  1  0.718869  0.468583  0.194233  1
  Pb  Pb18  1  0.531417  0.805767  0.281131  1
  Pb  Pb19  1  0.837244  0.837244  0.837244  1
  Pb  Pb20  1  0.781131  0.305767  0.031417  1
  Pb  Pb21  1  0.281131  0.531417  0.805767  1
  Pb  Pb22  1  0.694233  0.968583  0.218869  1
  Pb  Pb23  1  0.468583  0.194233  0.718869  1
  Pb  Pb24  1  0.194233  0.718869  0.468583  1
  Pb  Pb25  1  0.337244  0.337244  0.337244  1
  Pb  Pb26  1  0.662756  0.662756  0.662756  1
  Pb  Pb27  1  0.805767  0.281131  0.531417  1
  Pb  Pb28  1  0.968583  0.218869  0.694233  1
  Pb  Pb29  1  0.305767  0.031417  0.781131  1
  O  O30  1  0.750000  0.122030  0.377970  1
  O  O31  1  0.021223  0.971475  0.386150  1
  O  O32  1  0.122030  0.377970  0.750000  1
  O  O33  1  0.754735  0.849281  0.530731  1
  O  O34  1  0.978777  0.028525  0.613850  1
  O  O35  1  0.924519  0.735470  0.286818  1
  O  O36  1  0.264530  0.713182  0.075481  1
  O  O37  1  0.471475  0.521223  0.886150  1
  O  O38  1  0.478777  0.113850  0.528525  1
  O  O39  1  0.849281  0.530731  0.754735  1
  O  O40  1  0.377970  0.750000  0.122030  1
  O  O41  1  0.213182  0.764530  0.575481  1
  O  O42  1  0.650719  0.745265  0.969269  1
  O  O43  1  0.245265  0.150719  0.469269  1
  O  O44  1  0.877970  0.622030  0.250000  1
  O  O45  1  0.521223  0.886150  0.471475  1
  O  O46  1  0.424519  0.786818  0.235470  1
  O  O47  1  0.735470  0.286818  0.924519  1
  O  O48  1  0.250000  0.877970  0.622030  1
  O  O49  1  0.254735  0.030731  0.349281  1
  O  O50  1  0.150719  0.469269  0.245265  1
  O  O51  1  0.075481  0.264530  0.713182  1
  O  O52  1  0.530731  0.754735  0.849281  1
  O  O53  1  0.969269  0.650719  0.745265  1
  O  O54  1  0.286818  0.924519  0.735470  1
  O  O55  1  0.235470  0.424519  0.786818  1
  O  O56  1  0.113850  0.528525  0.478777  1
  O  O57  1  0.528525  0.478777  0.113850  1
  O  O58  1  0.713182  0.075481  0.264530  1
  O  O59  1  0.028525  0.613850  0.978777  1
  O  O60  1  0.786818  0.235470  0.424519  1
  O  O61  1  0.469269  0.245265  0.150719  1
  O  O62  1  0.971475  0.386150  0.021223  1
  O  O63  1  0.745265  0.969269  0.650719  1
  O  O64  1  0.613850  0.978777  0.028525  1
  O  O65  1  0.575481  0.213182  0.764530  1
  O  O66  1  0.349281  0.254735  0.030731  1
  O  O67  1  0.622030  0.250000  0.877970  1
  O  O68  1  0.386150  0.021223  0.971475  1
  O  O69  1  0.886150  0.471475  0.521223  1
  O  O70  1  0.030731  0.349281  0.254735  1
  O  O71  1  0.764530  0.575481  0.213182  1
