# generated using pymatgen
data_Ce2Fe17
_symmetry_space_group_name_H-M   'P 1'
_cell_length_a   6.43143113
_cell_length_b   6.43143113
_cell_length_c   6.43143112
_cell_angle_alpha   81.84911391
_cell_angle_beta   81.84911392
_cell_angle_gamma   81.84911396
_symmetry_Int_Tables_number   1
_chemical_formula_structural   Ce2Fe17
_chemical_formula_sum   'Ce2 Fe17'
_cell_volume   258.66014285
_cell_formula_units_Z   1
loop_
 _symmetry_equiv_pos_site_id
 _symmetry_equiv_pos_as_xyz
  1  'x, y, z'
loop_
 _atom_site_type_symbol
 _atom_site_label
 _atom_site_symmetry_multiplicity
 _atom_site_fract_x
 _atom_site_fract_y
 _atom_site_fract_z
 _atom_site_occupancy
  Fe  Fe0  1  0.342136  0.342136  0.843685  1
  Fe  Fe1  1  0.342136  0.843685  0.342136  1
  Fe  Fe2  1  0.095218  0.095218  0.095218  1
  Fe  Fe3  1  0.904782  0.904782  0.904782  1
  Fe  Fe4  1  0.000000  0.000000  0.500000  1
  Fe  Fe5  1  0.500000  0.000000  0.000000  1
  Fe  Fe6  1  0.000000  0.500000  0.000000  1
  Fe  Fe7  1  0.295882  0.704118  0.000000  1
  Fe  Fe8  1  0.000000  0.295882  0.704118  1
  Fe  Fe9  1  0.704118  0.000000  0.295882  1
  Fe  Fe10  1  0.704118  0.295882  0.000000  1
  Fe  Fe11  1  0.000000  0.704118  0.295882  1
  Fe  Fe12  1  0.295882  0.000000  0.704118  1
  Fe  Fe13  1  0.657864  0.156315  0.657864  1
  Fe  Fe14  1  0.657864  0.657864  0.156315  1
  Fe  Fe15  1  0.156315  0.657864  0.657864  1
  Fe  Fe16  1  0.843685  0.342136  0.342136  1
  Ce  Ce17  1  0.658246  0.658246  0.658246  1
  Ce  Ce18  1  0.341754  0.341754  0.341754  1
