# generated using pymatgen
data_Li2CrP2O7
_symmetry_space_group_name_H-M   'P 1'
_cell_length_a   5.63275988
_cell_length_b   7.80777727
_cell_length_c   7.97725886
_cell_angle_alpha   64.16046024
_cell_angle_beta   90.13978926
_cell_angle_gamma   68.98193303
_symmetry_Int_Tables_number   1
_chemical_formula_structural   Li2CrP2O7
_chemical_formula_sum   'Li4 Cr2 P4 O14'
_cell_volume   289.43857065
_cell_formula_units_Z   2
loop_
 _symmetry_equiv_pos_site_id
 _symmetry_equiv_pos_as_xyz
  1  'x, y, z'
loop_
 _atom_site_type_symbol
 _atom_site_label
 _atom_site_symmetry_multiplicity
 _atom_site_fract_x
 _atom_site_fract_y
 _atom_site_fract_z
 _atom_site_occupancy
  Li  Li0  1  0.935986  0.440769  0.190582  1
  Li  Li1  1  0.624471  0.443168  0.689079  1
  Li  Li2  1  0.068415  0.551705  0.807387  1
  Li  Li3  1  0.380566  0.555557  0.305983  1
  Cr  Cr4  1  0.998856  0.999369  0.501200  1
  Cr  Cr5  1  0.001094  0.999077  0.000394  1
  P  P6  1  0.752141  0.775023  0.356995  1
  P  P7  1  0.245220  0.226618  0.641241  1
  P  P8  1  0.528448  0.225301  0.141097  1
  P  P9  1  0.473578  0.774954  0.858330  1
  O  O10  1  0.746620  0.613135  0.917714  1
  O  O11  1  0.660281  0.226097  0.972153  1
  O  O12  1  0.642100  0.612001  0.417269  1
  O  O13  1  0.937332  0.762254  0.215479  1
  O  O14  1  0.698820  0.237314  0.285149  1
  O  O15  1  0.346112  0.774512  0.029104  1
  O  O16  1  0.879595  0.775595  0.527402  1
  O  O17  1  0.299392  0.762108  0.717313  1
  O  O18  1  0.492738  0.001735  0.749078  1
  O  O19  1  0.255713  0.387935  0.079790  1
  O  O20  1  0.505797  0.000316  0.247335  1
  O  O21  1  0.351702  0.391851  0.581908  1
  O  O22  1  0.060733  0.237358  0.783855  1
  O  O23  1  0.116239  0.226613  0.471103  1
