# generated using pymatgen
data_Ba6Ti2Nb10Si8O51
_symmetry_space_group_name_H-M   'P 1'
_cell_length_a   9.09706139
_cell_length_b   18.14842168
_cell_length_c   12.05376011
_cell_angle_alpha   41.24103867
_cell_angle_beta   112.01573120
_cell_angle_gamma   119.91714797
_symmetry_Int_Tables_number   1
_chemical_formula_structural   Ba6Ti2Nb10Si8O51
_chemical_formula_sum   'Ba6 Ti2 Nb10 Si8 O51'
_cell_volume   1137.07970116
_cell_formula_units_Z   1
loop_
 _symmetry_equiv_pos_site_id
 _symmetry_equiv_pos_as_xyz
  1  'x, y, z'
loop_
 _atom_site_type_symbol
 _atom_site_label
 _atom_site_symmetry_multiplicity
 _atom_site_fract_x
 _atom_site_fract_y
 _atom_site_fract_z
 _atom_site_occupancy
  Ba  Ba0  1  0.999684  0.554043  0.499224  1
  Ba  Ba1  1  0.404346  0.950332  0.499024  1
  Ba  Ba2  1  0.592808  0.748176  0.499762  1
  Ba  Ba3  1  0.001054  0.052233  0.499515  1
  Ba  Ba4  1  0.405943  0.450809  0.500399  1
  Ba  Ba5  1  0.597391  0.247834  0.499689  1
  Ti  Ti6  1  0.999600  0.726710  0.794053  1
  Ti  Ti7  1  0.999393  0.018395  0.207892  1
  Nb  Nb8  1  0.238227  0.888152  0.229837  1
  Nb  Nb9  1  0.234223  0.632816  0.740818  1
  Nb  Nb10  1  0.760759  0.008154  0.743285  1
  Nb  Nb11  1  0.998801  0.244510  0.748414  1
  Nb  Nb12  1  0.000613  0.491236  0.253177  1
  Nb  Nb13  1  0.242923  0.384387  0.227649  1
  Nb  Nb14  1  0.238063  0.127253  0.743472  1
  Nb  Nb15  1  0.765200  0.516050  0.740744  1
  Nb  Nb16  1  0.762056  0.769362  0.228902  1
  Nb  Nb17  1  0.758412  0.263631  0.227422  1
  Si  Si18  1  0.325641  0.929945  0.796023  1
  Si  Si19  1  0.673285  0.767478  0.795936  1
  Si  Si20  1  0.330553  0.433869  0.799005  1
  Si  Si21  1  0.332223  0.731012  0.204938  1
  Si  Si22  1  0.667959  0.268548  0.798942  1
  Si  Si23  1  0.668207  0.564806  0.205179  1
  Si  Si24  1  0.326514  0.223830  0.207746  1
  Si  Si25  1  0.673706  0.061287  0.208063  1
  O  O26  1  0.175107  0.882266  0.713033  1
  O  O27  1  0.000754  0.792145  0.237976  1
  O  O28  1  0.169571  0.965458  0.246490  1
  O  O29  1  0.168499  0.711062  0.756499  1
  O  O30  1  0.000132  0.525562  0.770291  1
  O  O31  1  0.505680  0.983996  0.718949  1
  O  O32  1  0.231226  0.748667  0.503552  1
  O  O33  1  0.001174  0.637689  0.008955  1
  O  O34  1  0.998034  0.362492  0.500701  1
  O  O35  1  0.306674  0.767576  0.284026  1
  O  O36  1  0.491787  0.949355  0.285965  1
  O  O37  1  0.306452  0.549040  0.720609  1
  O  O38  1  0.492607  0.732362  0.719214  1
  O  O39  1  0.180695  0.386079  0.716851  1
  O  O40  1  0.699544  0.896089  0.717254  1
  O  O41  1  0.182485  0.601496  0.285129  1
  O  O42  1  0.327549  0.830107  0.000058  1
  O  O43  1  0.175892  0.205633  0.766498  1
  O  O44  1  0.000653  0.292810  0.235873  1
  O  O45  1  0.177061  0.468788  0.237389  1
  O  O46  1  0.998865  0.025926  0.770143  1
  O  O47  1  0.510817  0.705214  0.283390  1
  O  O48  1  0.824531  0.794357  0.714364  1
  O  O49  1  0.509287  0.485363  0.722847  1
  O  O50  1  0.229480  0.246298  0.505458  1
  O  O51  1  0.279677  0.499984  0.000986  1
  O  O52  1  0.831100  0.882045  0.243147  1
  O  O53  1  0.830936  0.625736  0.759041  1
  O  O54  1  0.721023  0.860563  0.001044  1
  O  O55  1  0.999364  0.144141  0.994398  1
  O  O56  1  0.769900  0.634365  0.503484  1
  O  O57  1  0.304240  0.262025  0.287099  1
  O  O58  1  0.489162  0.448959  0.284028  1
  O  O59  1  0.489778  0.230061  0.722367  1
  O  O60  1  0.300760  0.045485  0.718348  1
  O  O61  1  0.695465  0.613374  0.285707  1
  O  O62  1  0.692064  0.395990  0.719808  1
  O  O63  1  0.174663  0.093891  0.289613  1
  O  O64  1  0.671045  0.666429  0.000340  1
  O  O65  1  0.325370  0.327364  0.004217  1
  O  O66  1  0.507432  0.200520  0.284051  1
  O  O67  1  0.816329  0.509330  0.284676  1
  O  O68  1  0.816468  0.295158  0.716300  1
  O  O69  1  0.278349  0.000639  0.001588  1
  O  O70  1  0.822229  0.381393  0.235073  1
  O  O71  1  0.819878  0.115965  0.768521  1
  O  O72  1  0.721024  0.360210  0.001223  1
  O  O73  1  0.768531  0.133328  0.505217  1
  O  O74  1  0.702170  0.111268  0.288263  1
  O  O75  1  0.673049  0.165351  0.004261  1
  O  O76  1  0.823631  0.005914  0.288580  1
