# generated using pymatgen
data_LiMnP2O7
_symmetry_space_group_name_H-M   'P 1'
_cell_length_a   5.17193435
_cell_length_b   6.91236008
_cell_length_c   8.07193654
_cell_angle_alpha   67.50083801
_cell_angle_beta   89.31420656
_cell_angle_gamma   92.31437454
_symmetry_Int_Tables_number   1
_chemical_formula_structural   LiMnP2O7
_chemical_formula_sum   'Li2 Mn2 P4 O14'
_cell_volume   266.27412819
_cell_formula_units_Z   2
loop_
 _symmetry_equiv_pos_site_id
 _symmetry_equiv_pos_as_xyz
  1  'x, y, z'
loop_
 _atom_site_type_symbol
 _atom_site_label
 _atom_site_symmetry_multiplicity
 _atom_site_fract_x
 _atom_site_fract_y
 _atom_site_fract_z
 _atom_site_occupancy
  Li  Li0  1  0.295619  0.837757  0.990822  1
  Li  Li1  1  0.760979  0.163656  0.428965  1
  Mn  Mn2  1  0.221240  0.233571  0.730165  1
  Mn  Mn3  1  0.755751  0.784270  0.271763  1
  P  P4  1  0.282519  0.461390  0.302238  1
  P  P5  1  0.714564  0.537423  0.696477  1
  P  P6  1  0.240419  0.112987  0.176260  1
  P  P7  1  0.768571  0.889323  0.825440  1
  O  O8  1  0.872981  0.348574  0.776375  1
  O  O9  1  0.602139  0.035881  0.682546  1
  O  O10  1  0.276318  0.354594  0.155988  1
  O  O11  1  0.061736  0.944760  0.790041  1
  O  O12  1  0.148210  0.298376  0.473295  1
  O  O13  1  0.136587  0.659795  0.215690  1
  O  O14  1  0.293509  0.124900  0.984846  1
  O  O15  1  0.435141  0.981958  0.304224  1
  O  O16  1  0.424584  0.489257  0.679986  1
  O  O17  1  0.678247  0.860479  0.016626  1
  O  O18  1  0.726665  0.652411  0.837480  1
  O  O19  1  0.573681  0.500146  0.326798  1
  O  O20  1  0.827983  0.705847  0.519642  1
  O  O21  1  0.952107  0.055147  0.235996  1
