# generated using pymatgen
data_Nd4V5(Si2O11)2
_symmetry_space_group_name_H-M   'P 1'
_cell_length_a   5.71156107
_cell_length_b   7.32860098
_cell_length_c   11.14146208
_cell_angle_alpha   99.72358344
_cell_angle_beta   90.00000000
_cell_angle_gamma   112.93434591
_symmetry_Int_Tables_number   1
_chemical_formula_structural   Nd4V5(Si2O11)2
_chemical_formula_sum   'Nd4 V5 Si4 O22'
_cell_volume   422.20776387
_cell_formula_units_Z   1
loop_
 _symmetry_equiv_pos_site_id
 _symmetry_equiv_pos_as_xyz
  1  'x, y, z'
loop_
 _atom_site_type_symbol
 _atom_site_label
 _atom_site_symmetry_multiplicity
 _atom_site_fract_x
 _atom_site_fract_y
 _atom_site_fract_z
 _atom_site_occupancy
  O  O0  1  0.774594  0.549187  0.126153  1
  O  O1  1  0.225406  0.450813  0.873847  1
  O  O2  1  0.305796  0.141117  0.911219  1
  O  O3  1  0.164680  0.858883  0.088781  1
  O  O4  1  0.694204  0.858883  0.088781  1
  O  O5  1  0.835320  0.141117  0.911219  1
  O  O6  1  0.814980  0.629961  0.898285  1
  O  O7  1  0.185020  0.370039  0.101715  1
  O  O8  1  0.585785  0.171570  0.163998  1
  O  O9  1  0.414215  0.828430  0.836002  1
  O  O10  1  0.510783  0.545242  0.689645  1
  O  O11  1  0.965540  0.454758  0.310355  1
  O  O12  1  0.489217  0.454758  0.310355  1
  O  O13  1  0.349813  0.699626  0.485204  1
  O  O14  1  0.650187  0.300374  0.514796  1
  O  O15  1  0.142123  0.284245  0.472634  1
  O  O16  1  0.857877  0.715755  0.527366  1
  O  O17  1  0.782846  0.047221  0.631163  1
  O  O18  1  0.735625  0.952779  0.368837  1
  O  O19  1  0.217154  0.952779  0.368837  1
  O  O20  1  0.264375  0.047221  0.631163  1
  O  O21  1  0.034460  0.545242  0.689645  1
  Si  Si22  1  0.861284  0.722569  0.041632  1
  Si  Si23  1  0.138716  0.277431  0.958368  1
  Si  Si24  1  0.703108  0.406215  0.228101  1
  Si  Si25  1  0.296892  0.593785  0.771899  1
  V  V26  1  0.500000  0.000000  0.000000  1
  V  V27  1  0.500000  0.500000  0.500000  1
  V  V28  1  0.000000  0.500000  0.500000  1
  V  V29  1  0.000000  0.000000  0.500000  1
  V  V30  1  0.500000  0.000000  0.500000  1
  Nd  Nd31  1  0.927096  0.854192  0.750924  1
  Nd  Nd32  1  0.072904  0.145808  0.249076  1
  Nd  Nd33  1  0.643430  0.286860  0.756588  1
  Nd  Nd34  1  0.356570  0.713140  0.243412  1
