# generated using pymatgen
data_H5NO
_symmetry_space_group_name_H-M   'P 1'
_cell_length_a   5.00177746
_cell_length_b   6.10617119
_cell_length_c   7.72730372
_cell_angle_alpha   90.00000000
_cell_angle_beta   90.00000000
_cell_angle_gamma   90.00000000
_symmetry_Int_Tables_number   1
_chemical_formula_structural   H5NO
_chemical_formula_sum   'H20 N4 O4'
_cell_volume   236.00506486
_cell_formula_units_Z   4
loop_
 _symmetry_equiv_pos_site_id
 _symmetry_equiv_pos_as_xyz
  1  'x, y, z'
loop_
 _atom_site_type_symbol
 _atom_site_label
 _atom_site_symmetry_multiplicity
 _atom_site_fract_x
 _atom_site_fract_y
 _atom_site_fract_z
 _atom_site_occupancy
  H  H0  1  0.750820  0.716859  0.360660  1
  H  H1  1  0.742635  0.700134  0.565798  1
  H  H2  1  0.422768  0.424372  0.375071  1
  H  H3  1  0.759995  0.306031  0.594780  1
  H  H4  1  0.093475  0.423257  0.376689  1
  H  H5  1  0.749180  0.283141  0.860660  1
  H  H6  1  0.757365  0.299866  0.065798  1
  H  H7  1  0.406525  0.576743  0.876689  1
  H  H8  1  0.740005  0.693969  0.094780  1
  H  H9  1  0.077232  0.575628  0.875071  1
  H  H10  1  0.242635  0.799866  0.434202  1
  H  H11  1  0.250820  0.783141  0.639340  1
  H  H12  1  0.922768  0.075628  0.624929  1
  H  H13  1  0.259995  0.193969  0.405220  1
  H  H14  1  0.593475  0.076743  0.623311  1
  H  H15  1  0.249180  0.216859  0.139340  1
  H  H16  1  0.257365  0.200134  0.934202  1
  H  H17  1  0.577232  0.924372  0.124929  1
  H  H18  1  0.906525  0.923257  0.123311  1
  H  H19  1  0.240005  0.806031  0.905220  1
  N  N20  1  0.741239  0.836936  0.164813  1
  N  N21  1  0.758761  0.163064  0.664813  1
  N  N22  1  0.241239  0.663064  0.835187  1
  N  N23  1  0.258761  0.336936  0.335187  1
  O  O24  1  0.762332  0.609325  0.463109  1
  O  O25  1  0.737668  0.390675  0.963109  1
  O  O26  1  0.262332  0.890675  0.536891  1
  O  O27  1  0.237668  0.109325  0.036891  1
