# generated using pymatgen
data_BaNd2ZnO5
_symmetry_space_group_name_H-M   'P 1'
_cell_length_a   6.82223281
_cell_length_b   6.82223280
_cell_length_c   7.58512813
_cell_angle_alpha   116.72515069
_cell_angle_beta   116.72515066
_cell_angle_gamma   90.00000004
_symmetry_Int_Tables_number   1
_chemical_formula_structural   BaNd2ZnO5
_chemical_formula_sum   'Ba2 Nd4 Zn2 O10'
_cell_volume   272.43575623
_cell_formula_units_Z   2
loop_
 _symmetry_equiv_pos_site_id
 _symmetry_equiv_pos_as_xyz
  1  'x, y, z'
loop_
 _atom_site_type_symbol
 _atom_site_label
 _atom_site_symmetry_multiplicity
 _atom_site_fract_x
 _atom_site_fract_y
 _atom_site_fract_z
 _atom_site_occupancy
  O  O0  1  0.774911  0.274911  0.260704  1
  O  O1  1  0.514207  0.014207  0.739296  1
  O  O2  1  0.225089  0.725089  0.739296  1
  O  O3  1  0.014207  0.225089  0.739296  1
  O  O4  1  0.725089  0.514207  0.739296  1
  O  O5  1  0.985793  0.774911  0.260704  1
  O  O6  1  0.274911  0.485793  0.260704  1
  O  O7  1  0.485793  0.985793  0.260704  1
  O  O8  1  0.000000  0.000000  0.000000  1
  O  O9  1  0.500000  0.500000  0.000000  1
  Zn  Zn10  1  0.750000  0.250000  0.500000  1
  Zn  Zn11  1  0.250000  0.750000  0.500000  1
  Ba  Ba12  1  0.750000  0.750000  0.500000  1
  Ba  Ba13  1  0.250000  0.250000  0.500000  1
  Nd  Nd14  1  0.674070  0.825930  0.000000  1
  Nd  Nd15  1  0.174070  0.674070  0.000000  1
  Nd  Nd16  1  0.825930  0.325930  0.000000  1
  Nd  Nd17  1  0.325930  0.174070  0.000000  1
