# generated using pymatgen
data_NdAlGe2O7
_symmetry_space_group_name_H-M   'P 1'
_cell_length_a   6.59616131
_cell_length_b   7.32912725
_cell_length_c   11.48417871
_cell_angle_alpha   96.65975241
_cell_angle_beta   90.00000000
_cell_angle_gamma   90.00000000
_symmetry_Int_Tables_number   1
_chemical_formula_structural   NdAlGe2O7
_chemical_formula_sum   'Nd4 Al4 Ge8 O28'
_cell_volume   551.44611007
_cell_formula_units_Z   4
loop_
 _symmetry_equiv_pos_site_id
 _symmetry_equiv_pos_as_xyz
  1  'x, y, z'
loop_
 _atom_site_type_symbol
 _atom_site_label
 _atom_site_symmetry_multiplicity
 _atom_site_fract_x
 _atom_site_fract_y
 _atom_site_fract_z
 _atom_site_occupancy
  O  O0  1  0.379996  0.230382  0.803453  1
  O  O1  1  0.879996  0.269618  0.696547  1
  O  O2  1  0.620004  0.769618  0.196547  1
  O  O3  1  0.120004  0.730382  0.303453  1
  O  O4  1  0.182941  0.527275  0.687309  1
  O  O5  1  0.682941  0.972725  0.812691  1
  O  O6  1  0.817059  0.472725  0.312691  1
  O  O7  1  0.317059  0.027275  0.187309  1
  O  O8  1  0.617050  0.552247  0.776570  1
  O  O9  1  0.117050  0.947753  0.723430  1
  O  O10  1  0.382950  0.447753  0.223430  1
  O  O11  1  0.882950  0.052247  0.276570  1
  O  O12  1  0.173925  0.068895  0.475626  1
  O  O13  1  0.673925  0.431105  0.024374  1
  O  O14  1  0.826075  0.931105  0.524374  1
  O  O15  1  0.326075  0.568895  0.975626  1
  O  O16  1  0.001534  0.823912  0.072856  1
  O  O17  1  0.501534  0.676088  0.427144  1
  O  O18  1  0.998466  0.176088  0.927144  1
  O  O19  1  0.498466  0.323912  0.572856  1
  O  O20  1  0.340688  0.908492  0.914831  1
  O  O21  1  0.840688  0.591508  0.585169  1
  O  O22  1  0.659312  0.091508  0.085169  1
  O  O23  1  0.159312  0.408492  0.414831  1
  O  O24  1  0.948482  0.659315  0.864671  1
  O  O25  1  0.448482  0.840685  0.635329  1
  O  O26  1  0.051518  0.340685  0.135329  1
  O  O27  1  0.551518  0.159315  0.364671  1
  Al  Al28  1  0.398643  0.984146  0.770544  1
  Al  Al29  1  0.101357  0.484146  0.270544  1
  Al  Al30  1  0.601357  0.015854  0.229456  1
  Al  Al31  1  0.898643  0.515854  0.729456  1
  Ge  Ge32  1  0.841948  0.259941  0.049802  1
  Ge  Ge33  1  0.410759  0.416744  0.719574  1
  Ge  Ge34  1  0.658052  0.759941  0.549802  1
  Ge  Ge35  1  0.158052  0.740059  0.950198  1
  Ge  Ge36  1  0.589241  0.583256  0.280426  1
  Ge  Ge37  1  0.089241  0.916744  0.219574  1
  Ge  Ge38  1  0.910759  0.083256  0.780426  1
  Ge  Ge39  1  0.341948  0.240059  0.450198  1
  Nd  Nd40  1  0.147806  0.765099  0.526885  1
  Nd  Nd41  1  0.647806  0.734901  0.973115  1
  Nd  Nd42  1  0.852194  0.234901  0.473115  1
  Nd  Nd43  1  0.352194  0.265099  0.026885  1
