# generated using pymatgen
data_CaFeClO2
_symmetry_space_group_name_H-M   'P 1'
_cell_length_a   4.98412960
_cell_length_b   3.79045290
_cell_length_c   12.93942484
_cell_angle_alpha   88.99747839
_cell_angle_beta   94.42973899
_cell_angle_gamma   134.50659809
_symmetry_Int_Tables_number   1
_chemical_formula_structural   CaFeClO2
_chemical_formula_sum   'Ca2 Fe2 Cl2 O4'
_cell_volume   173.58471636
_cell_formula_units_Z   2
loop_
 _symmetry_equiv_pos_site_id
 _symmetry_equiv_pos_as_xyz
  1  'x, y, z'
loop_
 _atom_site_type_symbol
 _atom_site_label
 _atom_site_symmetry_multiplicity
 _atom_site_fract_x
 _atom_site_fract_y
 _atom_site_fract_z
 _atom_site_occupancy
  Ca  Ca0  1  0.479479  0.921048  0.839181  1
  Ca  Ca1  1  0.707538  0.432006  0.479794  1
  Fe  Fe2  1  0.027604  0.087379  0.267280  1
  Fe  Fe3  1  0.055551  0.937115  0.004944  1
  Cl  Cl4  1  0.585088  0.180090  0.266981  1
  Cl  Cl5  1  0.359054  0.738614  0.622042  1
  O  O6  1  0.084020  0.213150  0.132994  1
  O  O7  1  0.572604  0.248496  0.994641  1
  O  O8  1  0.021328  0.096057  0.864358  1
  O  O9  1  0.120891  0.170936  0.412253  1
