# generated using pymatgen
data_BaFe(Si2O5)2
_symmetry_space_group_name_H-M   'P 1'
_cell_length_a   7.70003175
_cell_length_b   7.70003530
_cell_length_c   8.04805485
_cell_angle_alpha   90.00012276
_cell_angle_beta   90.00047158
_cell_angle_gamma   89.99992827
_symmetry_Int_Tables_number   1
_chemical_formula_structural   BaFe(Si2O5)2
_chemical_formula_sum   'Ba2 Fe2 Si8 O20'
_cell_volume   477.17332715
_cell_formula_units_Z   2
loop_
 _symmetry_equiv_pos_site_id
 _symmetry_equiv_pos_as_xyz
  1  'x, y, z'
loop_
 _atom_site_type_symbol
 _atom_site_label
 _atom_site_symmetry_multiplicity
 _atom_site_fract_x
 _atom_site_fract_y
 _atom_site_fract_z
 _atom_site_occupancy
  Ba  Ba0  1  0.250006  0.750003  0.000004  1
  Ba  Ba1  1  0.749999  0.250005  0.000002  1
  Fe  Fe2  1  0.749998  0.750002  0.819735  1
  Fe  Fe3  1  0.249993  0.249998  0.180267  1
  Si  Si4  1  0.542352  0.542353  0.306262  1
  Si  Si5  1  0.457651  0.457648  0.693737  1
  Si  Si6  1  0.957643  0.957645  0.306262  1
  Si  Si7  1  0.957646  0.542352  0.306261  1
  Si  Si8  1  0.042357  0.457645  0.693737  1
  Si  Si9  1  0.457650  0.042354  0.693738  1
  Si  Si10  1  0.042355  0.042355  0.693738  1
  Si  Si11  1  0.542351  0.957646  0.306264  1
  O  O12  1  0.065522  0.065527  0.172190  1
  O  O13  1  0.749997  0.996552  0.272641  1
  O  O14  1  0.934483  0.565526  0.827815  1
  O  O15  1  0.003440  0.250001  0.727359  1
  O  O16  1  0.503443  0.749999  0.272637  1
  O  O17  1  0.065519  0.434474  0.172181  1
  O  O18  1  0.565529  0.934478  0.827817  1
  O  O19  1  0.434470  0.065522  0.172187  1
  O  O20  1  0.250004  0.003448  0.727357  1
  O  O21  1  0.749998  0.503444  0.272639  1
  O  O22  1  0.996551  0.749998  0.272642  1
  O  O23  1  0.434476  0.434477  0.172180  1
  O  O24  1  0.250005  0.496549  0.727359  1
  O  O25  1  0.499998  0.999993  0.500001  1
  O  O26  1  0.496557  0.250001  0.727354  1
  O  O27  1  0.565533  0.565530  0.827807  1
  O  O28  1  -0.000010  -0.000006  0.500003  1
  O  O29  1  0.934486  0.934484  0.827827  1
  O  O30  1  -0.000000  0.499995  0.499998  1
  O  O31  1  0.499996  0.500001  0.499998  1
