# generated using pymatgen
data_Tl2CuF3
_symmetry_space_group_name_H-M   'P 1'
_cell_length_a   6.58240899
_cell_length_b   6.19909776
_cell_length_c   38.14281756
_cell_angle_alpha   41.99020722
_cell_angle_beta   56.01007316
_cell_angle_gamma   75.39571607
_symmetry_Int_Tables_number   1
_chemical_formula_structural   Tl2CuF3
_chemical_formula_sum   'Tl12 Cu6 F18'
_cell_volume   825.04068773
_cell_formula_units_Z   6
loop_
 _symmetry_equiv_pos_site_id
 _symmetry_equiv_pos_as_xyz
  1  'x, y, z'
loop_
 _atom_site_type_symbol
 _atom_site_label
 _atom_site_symmetry_multiplicity
 _atom_site_fract_x
 _atom_site_fract_y
 _atom_site_fract_z
 _atom_site_occupancy
  Tl  Tl0  1  0.351303  0.301415  0.994800  1
  Tl  Tl1  1  0.300443  0.408931  0.820848  1
  Tl  Tl2  1  0.701350  0.601444  0.843067  1
  Tl  Tl3  1  0.305930  0.424331  0.651273  1
  Tl  Tl4  1  0.694979  0.572049  0.682468  1
  Tl  Tl5  1  0.303756  0.422098  0.485466  1
  Tl  Tl6  1  0.696244  0.577902  0.514534  1
  Tl  Tl7  1  0.305021  0.427951  0.317532  1
  Tl  Tl8  1  0.694070  0.575669  0.348727  1
  Tl  Tl9  1  0.298650  0.398556  0.156933  1
  Tl  Tl10  1  0.699557  0.591069  0.179152  1
  Tl  Tl11  1  0.648697  0.698585  0.005200  1
  Cu  Cu12  1  -0.015418  0.025514  0.831572  1
  Cu  Cu13  1  -0.001804  0.001367  0.666609  1
  Cu  Cu14  1  0.000000  0.000000  0.000000  1
  Cu  Cu15  1  0.000000  0.000000  0.500000  1
  Cu  Cu16  1  0.001804  -0.001367  0.333391  1
  Cu  Cu17  1  0.015418  -0.025514  0.168428  1
  F  F18  1  0.778908  0.739330  0.084907  1
  F  F19  1  0.754264  0.832194  0.912000  1
  F  F20  1  0.546038  0.057976  0.818319  1
  F  F21  1  0.771029  0.802866  0.747537  1
  F  F22  1  0.217868  0.208444  0.752539  1
  F  F23  1  0.498681  -0.006404  0.669243  1
  F  F24  1  0.774683  0.792945  0.581175  1
  F  F25  1  0.223947  0.198992  0.586204  1
  F  F26  1  0.500000  0.000000  0.500000  1
  F  F27  1  0.776053  0.801008  0.413796  1
  F  F28  1  0.225317  0.207055  0.418825  1
  F  F29  1  0.501319  0.006404  0.330757  1
  F  F30  1  0.782132  0.791556  0.247461  1
  F  F31  1  0.228971  0.197134  0.252463  1
  F  F32  1  0.453962  -0.057976  0.181681  1
  F  F33  1  0.245736  0.167806  0.088000  1
  F  F34  1  0.221092  0.260670  0.915093  1
  F  F35  1  0.000000  0.500000  0.000000  1
