# generated using pymatgen
data_Pr(In2Au)2
_symmetry_space_group_name_H-M   'P 1'
_cell_length_a   4.73647973
_cell_length_b   7.50788604
_cell_length_c   18.96183984
_cell_angle_alpha   89.94893877
_cell_angle_beta   90.01188952
_cell_angle_gamma   90.01115996
_symmetry_Int_Tables_number   1
_chemical_formula_structural   Pr(In2Au)2
_chemical_formula_sum   'Pr4 In16 Au8'
_cell_volume   674.30074493
_cell_formula_units_Z   4
loop_
 _symmetry_equiv_pos_site_id
 _symmetry_equiv_pos_as_xyz
  1  'x, y, z'
loop_
 _atom_site_type_symbol
 _atom_site_label
 _atom_site_symmetry_multiplicity
 _atom_site_fract_x
 _atom_site_fract_y
 _atom_site_fract_z
 _atom_site_occupancy
  Pr  Pr0  1  0.250484  0.525968  0.358359  1
  Pr  Pr1  1  0.250231  0.973565  0.858341  1
  Pr  Pr2  1  0.749109  0.025058  0.141671  1
  Pr  Pr3  1  0.749773  0.475052  0.641544  1
  In  In4  1  0.750651  0.234202  0.311714  1
  In  In5  1  0.750745  0.265244  0.811594  1
  In  In6  1  0.250171  0.734539  0.188454  1
  In  In7  1  0.750531  0.008274  0.568731  1
  In  In8  1  0.750115  0.674165  0.815113  1
  In  In9  1  0.249988  0.175234  0.684817  1
  In  In10  1  0.249266  0.850475  0.035210  1
  In  In11  1  0.249908  0.766003  0.688296  1
  In  In12  1  0.249735  0.508575  0.931295  1
  In  In13  1  0.749812  0.350674  0.464893  1
  In  In14  1  0.249960  0.325230  0.184789  1
  In  In15  1  0.249843  0.992179  0.431339  1
  In  In16  1  0.750166  0.825160  0.315142  1
  In  In17  1  0.749636  0.149288  0.964880  1
  In  In18  1  0.249894  0.649497  0.535141  1
  In  In19  1  0.750131  0.491649  0.068739  1
  Au  Au20  1  0.749356  0.757131  0.960464  1
  Au  Au21  1  0.749736  0.967089  0.719020  1
  Au  Au22  1  0.250074  0.257437  0.539520  1
  Au  Au23  1  0.250423  0.467001  0.781014  1
  Au  Au24  1  0.749819  0.742767  0.460506  1
  Au  Au25  1  0.249861  0.242781  0.039534  1
  Au  Au26  1  0.750337  0.533145  0.218900  1
  Au  Au27  1  0.250242  0.032619  0.280979  1
