# generated using pymatgen
data_Er2Mn3Si5
_symmetry_space_group_name_H-M   'P 1'
_cell_length_a   5.39286303
_cell_length_b   10.52298701
_cell_length_c   10.52298701
_cell_angle_alpha   90.00000000
_cell_angle_beta   90.00000000
_cell_angle_gamma   90.00000000
_symmetry_Int_Tables_number   1
_chemical_formula_structural   Er2Mn3Si5
_chemical_formula_sum   'Er8 Mn12 Si20'
_cell_volume   597.16928038
_cell_formula_units_Z   4
loop_
 _symmetry_equiv_pos_site_id
 _symmetry_equiv_pos_as_xyz
  1  'x, y, z'
loop_
 _atom_site_type_symbol
 _atom_site_label
 _atom_site_symmetry_multiplicity
 _atom_site_fract_x
 _atom_site_fract_y
 _atom_site_fract_z
 _atom_site_occupancy
  Er  Er0  1  0.500000  0.737896  0.573349  1
  Er  Er1  1  0.000000  0.073349  0.237896  1
  Er  Er2  1  0.000000  0.926651  0.762104  1
  Er  Er3  1  0.500000  0.573349  0.262104  1
  Er  Er4  1  0.500000  0.262104  0.426651  1
  Er  Er5  1  0.500000  0.426651  0.737896  1
  Er  Er6  1  0.000000  0.762104  0.073349  1
  Er  Er7  1  0.000000  0.237896  0.926651  1
  Mn  Mn8  1  0.500000  0.879131  0.143563  1
  Mn  Mn9  1  0.000000  0.620869  0.643563  1
  Mn  Mn10  1  0.500000  0.120869  0.856437  1
  Mn  Mn11  1  0.500000  0.143563  0.120869  1
  Mn  Mn12  1  0.000000  0.643563  0.379131  1
  Mn  Mn13  1  0.000000  0.379131  0.356437  1
  Mn  Mn14  1  0.250000  0.000000  0.500000  1
  Mn  Mn15  1  0.500000  0.856437  0.879131  1
  Mn  Mn16  1  0.000000  0.356437  0.620869  1
  Mn  Mn17  1  0.750000  0.000000  0.500000  1
  Mn  Mn18  1  0.750000  0.500000  0.000000  1
  Mn  Mn19  1  0.250000  0.500000  0.000000  1
  Si  Si20  1  0.748002  0.000000  0.000000  1
  Si  Si21  1  0.250000  0.823261  0.323261  1
  Si  Si22  1  0.000000  0.185119  0.476571  1
  Si  Si23  1  0.750000  0.323261  0.176739  1
  Si  Si24  1  0.750000  0.176739  0.676739  1
  Si  Si25  1  0.750000  0.676739  0.823261  1
  Si  Si26  1  0.500000  0.976571  0.685119  1
  Si  Si27  1  0.751998  0.500000  0.500000  1
  Si  Si28  1  0.500000  0.023429  0.314881  1
  Si  Si29  1  0.000000  0.523429  0.185119  1
  Si  Si30  1  0.000000  0.476571  0.814881  1
  Si  Si31  1  0.250000  0.176739  0.676739  1
  Si  Si32  1  0.500000  0.314881  0.976571  1
  Si  Si33  1  0.500000  0.685119  0.023429  1
  Si  Si34  1  0.250000  0.323261  0.176739  1
  Si  Si35  1  0.000000  0.814881  0.523429  1
  Si  Si36  1  0.750000  0.823261  0.323261  1
  Si  Si37  1  0.251998  0.000000  0.000000  1
  Si  Si38  1  0.250000  0.676739  0.823261  1
  Si  Si39  1  0.248002  0.500000  0.500000  1
