# generated using pymatgen
data_Ba3B(PO4)3
_symmetry_space_group_name_H-M   'P 1'
_cell_length_a   7.19498844
_cell_length_b   13.90258458
_cell_length_c   13.90258458
_cell_angle_alpha   62.76106309
_cell_angle_beta   75.00324026
_cell_angle_gamma   75.00324025
_symmetry_Int_Tables_number   1
_chemical_formula_structural   Ba3B(PO4)3
_chemical_formula_sum   'Ba12 B4 P12 O48'
_cell_volume   1178.28049947
_cell_formula_units_Z   4
loop_
 _symmetry_equiv_pos_site_id
 _symmetry_equiv_pos_as_xyz
  1  'x, y, z'
loop_
 _atom_site_type_symbol
 _atom_site_label
 _atom_site_symmetry_multiplicity
 _atom_site_fract_x
 _atom_site_fract_y
 _atom_site_fract_z
 _atom_site_occupancy
  B  B0  1  0.082839  0.667161  0.667161  1
  B  B1  1  0.917161  0.332839  0.332839  1
  B  B2  1  0.582839  0.167161  0.167161  1
  B  B3  1  0.417161  0.832839  0.832839  1
  O  O4  1  0.607055  0.570579  0.173516  1
  O  O5  1  0.648850  0.070579  0.673516  1
  O  O6  1  0.107055  0.673516  0.070579  1
  O  O7  1  0.851150  0.826484  0.429421  1
  O  O8  1  0.881340  0.452323  0.282283  1
  O  O9  1  0.615946  0.047677  0.217717  1
  O  O10  1  0.618660  0.217717  0.047677  1
  O  O11  1  0.884054  0.282283  0.452323  1
  O  O12  1  0.118660  0.547677  0.717717  1
  O  O13  1  0.384054  0.952323  0.782283  1
  O  O14  1  0.381340  0.782283  0.952323  1
  O  O15  1  0.115946  0.717717  0.547677  1
  O  O16  1  0.375338  0.205603  0.202674  1
  O  O17  1  0.783615  0.294397  0.297326  1
  O  O18  1  0.654813  0.868041  0.212922  1
  O  O19  1  0.716385  0.202674  0.205603  1
  O  O20  1  0.624662  0.794397  0.797326  1
  O  O21  1  0.216385  0.705603  0.702674  1
  O  O22  1  0.875338  0.702674  0.705603  1
  O  O23  1  0.283615  0.797326  0.794397  1
  O  O24  1  0.148850  0.173516  0.570579  1
  O  O25  1  0.392945  0.429421  0.826484  1
  O  O26  1  0.892945  0.326484  0.929421  1
  O  O27  1  0.351150  0.929421  0.326484  1
  O  O28  1  0.115491  0.380844  0.479379  1
  O  O29  1  0.975714  0.119156  0.020621  1
  O  O30  1  0.384509  0.020621  0.119156  1
  O  O31  1  0.524286  0.479379  0.380844  1
  O  O32  1  0.884509  0.619156  0.520621  1
  O  O33  1  0.024286  0.880844  0.979379  1
  O  O34  1  0.615491  0.979379  0.880844  1
  O  O35  1  0.475714  0.520621  0.619156  1
  O  O36  1  0.372477  0.412215  0.144173  1
  O  O37  1  0.928865  0.087785  0.355827  1
  O  O38  1  0.127523  0.355827  0.087785  1
  O  O39  1  0.571135  0.144173  0.412215  1
  O  O40  1  0.627523  0.587785  0.855827  1
  O  O41  1  0.071135  0.912215  0.644173  1
  O  O42  1  0.872477  0.644173  0.912215  1
  O  O43  1  0.428865  0.855827  0.587785  1
  O  O44  1  0.235777  0.787078  0.131959  1
  O  O45  1  0.154813  0.712922  0.368041  1
  O  O46  1  0.264223  0.368041  0.712922  1
  O  O47  1  0.345187  0.131959  0.787078  1
  O  O48  1  0.764223  0.212922  0.868041  1
  O  O49  1  0.845187  0.287078  0.631959  1
  O  O50  1  0.735777  0.631959  0.287078  1
  O  O51  1  0.124662  0.297326  0.294397  1
  P  P52  1  0.323790  0.464719  0.716709  1
  P  P53  1  0.505218  0.035281  0.783291  1
  P  P54  1  0.176210  0.783291  0.035281  1
  P  P55  1  0.994782  0.716709  0.464719  1
  P  P56  1  0.676210  0.535281  0.283291  1
  P  P57  1  0.494782  0.964719  0.216709  1
  P  P58  1  0.823790  0.216709  0.964719  1
  P  P59  1  0.005218  0.283291  0.535281  1
  P  P60  1  0.250000  0.824270  0.675730  1
  P  P61  1  0.750000  0.675730  0.824270  1
  P  P62  1  0.750000  0.175730  0.324270  1
  P  P63  1  0.250000  0.324270  0.175730  1
  Ba  Ba64  1  0.250000  0.069312  0.430688  1
  Ba  Ba65  1  0.750000  0.430688  0.069312  1
  Ba  Ba66  1  0.750000  0.930688  0.569312  1
  Ba  Ba67  1  0.250000  0.569312  0.930688  1
  Ba  Ba68  1  0.525348  0.711078  0.437021  1
  Ba  Ba69  1  0.673447  0.788922  0.062979  1
  Ba  Ba70  1  0.974652  0.062979  0.788922  1
  Ba  Ba71  1  0.826553  0.437021  0.711078  1
  Ba  Ba72  1  0.474652  0.288922  0.562979  1
  Ba  Ba73  1  0.326553  0.211078  0.937021  1
  Ba  Ba74  1  0.025348  0.937021  0.211078  1
  Ba  Ba75  1  0.173447  0.562979  0.288922  1
