# generated using pymatgen
data_CuHClO
_symmetry_space_group_name_H-M   'P 1'
_cell_length_a   5.96694392
_cell_length_b   6.48112938
_cell_length_c   8.00028444
_cell_angle_alpha   90.00000000
_cell_angle_beta   112.47032976
_cell_angle_gamma   90.00000000
_symmetry_Int_Tables_number   1
_chemical_formula_structural   CuHClO
_chemical_formula_sum   'Cu4 H4 Cl4 O4'
_cell_volume   285.90154900
_cell_formula_units_Z   4
loop_
 _symmetry_equiv_pos_site_id
 _symmetry_equiv_pos_as_xyz
  1  'x, y, z'
loop_
 _atom_site_type_symbol
 _atom_site_label
 _atom_site_symmetry_multiplicity
 _atom_site_fract_x
 _atom_site_fract_y
 _atom_site_fract_z
 _atom_site_occupancy
  Cu  Cu0  1  0.795208  0.375007  0.977501  1
  Cu  Cu1  1  0.704792  0.875007  0.022499  1
  Cu  Cu2  1  0.204792  0.624993  0.022499  1
  Cu  Cu3  1  0.295208  0.124993  0.977501  1
  H  H4  1  0.823047  0.147611  0.494179  1
  H  H5  1  0.676953  0.647611  0.505821  1
  H  H6  1  0.176953  0.852389  0.505821  1
  H  H7  1  0.323047  0.352389  0.494179  1
  Cl  Cl8  1  0.814501  0.028349  0.621841  1
  Cl  Cl9  1  0.685499  0.528349  0.378159  1
  Cl  Cl10  1  0.185499  0.971651  0.378159  1
  Cl  Cl11  1  0.314501  0.471651  0.621841  1
  O  O12  1  0.627014  0.152997  0.990970  1
  O  O13  1  0.872986  0.652997  0.009030  1
  O  O14  1  0.372986  0.847003  0.009030  1
  O  O15  1  0.127014  0.347003  0.990970  1
