# generated using pymatgen
data_Yb5S9
_symmetry_space_group_name_H-M   'P 1'
_cell_length_a   23.35592752
_cell_length_b   10.35483166
_cell_length_c   8.32818904
_cell_angle_alpha   59.50896892
_cell_angle_beta   53.76977371
_cell_angle_gamma   24.33668612
_symmetry_Int_Tables_number   1
_chemical_formula_structural   Yb5S9
_chemical_formula_sum   'Yb10 S18'
_cell_volume   666.60012090
_cell_formula_units_Z   2
loop_
 _symmetry_equiv_pos_site_id
 _symmetry_equiv_pos_as_xyz
  1  'x, y, z'
loop_
 _atom_site_type_symbol
 _atom_site_label
 _atom_site_symmetry_multiplicity
 _atom_site_fract_x
 _atom_site_fract_y
 _atom_site_fract_z
 _atom_site_occupancy
  Yb  Yb0  1  0.112865  0.193345  0.358310  1
  Yb  Yb1  1  0.341316  0.088090  0.210783  1
  Yb  Yb2  1  0.142563  0.642208  0.726041  1
  Yb  Yb3  1  0.457437  0.357792  0.273959  1
  Yb  Yb4  1  0.258684  0.911910  0.789217  1
  Yb  Yb5  1  0.690849  0.212886  0.265770  1
  Yb  Yb6  1  0.487135  0.806655  0.641690  1
  Yb  Yb7  1  0.948485  0.177100  0.281566  1
  Yb  Yb8  1  0.651515  0.822900  0.718434  1
  Yb  Yb9  1  0.909151  0.787114  0.734230  1
  S  S10  1  0.027384  0.238870  0.776874  1
  S  S11  1  0.239547  0.203317  0.012892  1
  S  S12  1  0.211520  0.302969  0.588555  1
  S  S13  1  0.099864  0.710607  0.106270  1
  S  S14  1  0.500136  0.289393  0.893730  1
  S  S15  1  0.164224  0.832247  0.355330  1
  S  S16  1  0.435776  0.167753  0.644670  1
  S  S17  1  0.360453  0.796683  0.987108  1
  S  S18  1  0.661836  0.402329  0.883345  1
  S  S19  1  0.388480  0.697031  0.411445  1
  S  S20  1  0.662631  0.152785  0.664644  1
  S  S21  1  0.799955  0.376335  0.103694  1
  S  S22  1  0.572616  0.761130  0.223126  1
  S  S23  1  0.800045  0.623665  0.896306  1
  S  S24  1  0.847561  0.210303  0.700570  1
  S  S25  1  0.752439  0.789697  0.299430  1
  S  S26  1  0.938164  0.597671  0.116655  1
  S  S27  1  0.937369  0.847215  0.335356  1
