# generated using pymatgen
data_Fe4Pb(CO)16
_symmetry_space_group_name_H-M   'P 1'
_cell_length_a   11.05433739
_cell_length_b   12.05704405
_cell_length_c   19.98845962
_cell_angle_alpha   90.00000000
_cell_angle_beta   90.00000000
_cell_angle_gamma   90.71357370
_symmetry_Int_Tables_number   1
_chemical_formula_structural   Fe4Pb(CO)16
_chemical_formula_sum   'Fe16 Pb4 C64 O64'
_cell_volume   2663.90791713
_cell_formula_units_Z   4
loop_
 _symmetry_equiv_pos_site_id
 _symmetry_equiv_pos_as_xyz
  1  'x, y, z'
loop_
 _atom_site_type_symbol
 _atom_site_label
 _atom_site_symmetry_multiplicity
 _atom_site_fract_x
 _atom_site_fract_y
 _atom_site_fract_z
 _atom_site_occupancy
  Fe  Fe0  1  0.538197  0.139776  0.349960  1
  Fe  Fe1  1  0.566873  0.379539  0.339129  1
  Fe  Fe2  1  0.433127  0.120461  0.839129  1
  Fe  Fe3  1  0.965392  0.229529  0.395753  1
  Fe  Fe4  1  0.461803  0.860224  0.650040  1
  Fe  Fe5  1  0.433127  0.620461  0.660871  1
  Fe  Fe6  1  0.538197  0.639776  0.150040  1
  Fe  Fe7  1  0.965392  0.729529  0.104247  1
  Fe  Fe8  1  0.034608  0.770471  0.604247  1
  Fe  Fe9  1  0.566873  0.879539  0.160871  1
  Fe  Fe10  1  0.828317  0.770445  0.977836  1
  Fe  Fe11  1  0.828317  0.270445  0.522164  1
  Fe  Fe12  1  0.171683  0.229555  0.022164  1
  Fe  Fe13  1  0.171683  0.729555  0.477836  1
  Fe  Fe14  1  0.461803  0.360224  0.849960  1
  Fe  Fe15  1  0.034608  0.270471  0.895753  1
  Pb  Pb16  1  0.727394  0.250128  0.400974  1
  Pb  Pb17  1  0.272606  0.249872  0.900974  1
  Pb  Pb18  1  0.727394  0.750128  0.099026  1
  Pb  Pb19  1  0.272606  0.749872  0.599026  1
  C  C20  1  0.966399  0.875448  0.125336  1
  C  C21  1  0.392731  0.646277  0.189173  1
  C  C22  1  0.435374  0.401705  0.288244  1
  C  C23  1  0.392731  0.146277  0.310827  1
  C  C24  1  0.108424  0.735560  0.062146  1
  C  C25  1  0.513368  0.357494  0.935720  1
  C  C26  1  0.993089  0.697559  0.189880  1
  C  C27  1  0.514986  0.120573  0.917277  1
  C  C28  1  0.433658  0.003374  0.640072  1
  C  C29  1  0.324706  0.129483  0.771277  1
  C  C30  1  0.566342  0.996626  0.359928  1
  C  C31  1  0.891576  0.764440  0.562146  1
  C  C32  1  0.152121  0.583798  0.497377  1
  C  C33  1  0.369541  0.493397  0.631364  1
  C  C34  1  0.435374  0.901705  0.211756  1
  C  C35  1  0.324706  0.629483  0.728723  1
  C  C36  1  0.847879  0.916202  0.997377  1
  C  C37  1  0.792126  0.124864  0.532648  1
  C  C38  1  0.792126  0.624864  0.967352  1
  C  C39  1  0.847879  0.416202  0.502623  1
  C  C40  1  0.297647  0.695420  0.427750  1
  C  C41  1  0.630459  0.006603  0.131364  1
  C  C42  1  0.033601  0.124552  0.874664  1
  C  C43  1  0.675294  0.370517  0.271277  1
  C  C44  1  0.152121  0.083798  0.002623  1
  C  C45  1  0.108424  0.235560  0.437854  1
  C  C46  1  0.702353  0.304580  0.572250  1
  C  C47  1  0.369541  0.993397  0.868636  1
  C  C48  1  0.938326  0.583953  0.086426  1
  C  C49  1  0.486632  0.142506  0.435720  1
  C  C50  1  0.006911  0.302441  0.810120  1
  C  C51  1  0.956036  0.265879  0.577907  1
  C  C52  1  0.033601  0.624552  0.625336  1
  C  C53  1  0.297647  0.195420  0.072250  1
  C  C54  1  0.564626  0.098295  0.788244  1
  C  C55  1  0.207874  0.875136  0.467353  1
  C  C56  1  0.956036  0.765879  0.922093  1
  C  C57  1  0.702353  0.804580  0.927750  1
  C  C58  1  0.485014  0.879427  0.082723  1
  C  C59  1  0.061674  0.416047  0.913574  1
  C  C60  1  0.993089  0.197559  0.310120  1
  C  C61  1  0.607269  0.853723  0.689173  1
  C  C62  1  0.675294  0.870517  0.228723  1
  C  C63  1  0.043964  0.734121  0.422093  1
  C  C64  1  0.891576  0.264440  0.937854  1
  C  C65  1  0.633698  0.643046  0.222962  1
  C  C66  1  0.633698  0.143046  0.277038  1
  C  C67  1  0.630459  0.506603  0.368636  1
  C  C68  1  0.366302  0.856954  0.722962  1
  C  C69  1  0.485014  0.379427  0.417277  1
  C  C70  1  0.006911  0.802441  0.689880  1
  C  C71  1  0.966399  0.375448  0.374664  1
  C  C72  1  0.513368  0.857494  0.564280  1
  C  C73  1  0.607269  0.353723  0.810827  1
  C  C74  1  0.207874  0.375136  0.032648  1
  C  C75  1  0.043964  0.234121  0.077907  1
  C  C76  1  0.938326  0.083953  0.413574  1
  C  C77  1  0.366302  0.356954  0.777038  1
  C  C78  1  0.564626  0.598295  0.711756  1
  C  C79  1  0.566342  0.496626  0.140072  1
  C  C80  1  0.514986  0.620573  0.582723  1
  C  C81  1  0.486632  0.642506  0.064280  1
  C  C82  1  0.433658  0.503374  0.859928  1
  C  C83  1  0.061674  0.916047  0.586426  1
  O  O84  1  0.797256  0.760153  0.536782  1
  O  O85  1  0.437043  0.391569  0.468452  1
  O  O86  1  0.562957  0.108431  0.968452  1
  O  O87  1  0.581127  0.901922  0.365809  1
  O  O88  1  0.202744  0.239847  0.463218  1
  O  O89  1  0.748078  0.870004  0.270655  1
  O  O90  1  0.331463  0.912282  0.892250  1
  O  O91  1  0.702263  0.352877  0.785923  1
  O  O92  1  0.702263  0.852877  0.714077  1
  O  O93  1  0.349135  0.915866  0.243759  1
  O  O94  1  0.012855  0.677261  0.245566  1
  O  O95  1  0.297935  0.862434  0.767035  1
  O  O96  1  0.145289  0.488219  0.504402  1
  O  O97  1  0.027559  0.532379  0.642420  1
  O  O98  1  0.987145  0.822739  0.745566  1
  O  O99  1  0.074250  0.511048  0.921367  1
  O  O100  1  0.668537  0.587718  0.392250  1
  O  O101  1  0.702065  0.137566  0.232965  1
  O  O102  1  0.702065  0.637566  0.267035  1
  O  O103  1  0.034948  0.262736  0.615871  1
  O  O104  1  0.418873  0.098078  0.634191  1
  O  O105  1  0.378054  0.171487  0.106657  1
  O  O106  1  0.621946  0.328513  0.606657  1
  O  O107  1  0.965052  0.737264  0.384129  1
  O  O108  1  0.748078  0.370004  0.229345  1
  O  O109  1  0.235150  0.966275  0.454892  1
  O  O110  1  0.145289  0.988219  0.995598  1
  O  O111  1  0.562957  0.608431  0.531548  1
  O  O112  1  0.544882  0.864205  0.508968  1
  O  O113  1  0.650865  0.084134  0.756241  1
  O  O114  1  0.027559  0.032379  0.857580  1
  O  O115  1  0.034948  0.762736  0.884129  1
  O  O116  1  0.251922  0.629996  0.770655  1
  O  O117  1  0.331463  0.412282  0.607750  1
  O  O118  1  0.455118  0.135795  0.491032  1
  O  O119  1  0.437043  0.891569  0.031548  1
  O  O120  1  0.235150  0.466275  0.045108  1
  O  O121  1  0.202744  0.739847  0.036782  1
  O  O122  1  0.621946  0.828513  0.893343  1
  O  O123  1  0.378054  0.671487  0.393343  1
  O  O124  1  0.418873  0.598078  0.865809  1
  O  O125  1  0.797256  0.260153  0.963218  1
  O  O126  1  0.854711  0.011781  0.004402  1
  O  O127  1  0.012855  0.177261  0.254434  1
  O  O128  1  0.854711  0.511781  0.495598  1
  O  O129  1  0.925750  0.988952  0.421367  1
  O  O130  1  0.965052  0.237264  0.115871  1
  O  O131  1  0.650865  0.584134  0.743759  1
  O  O132  1  0.455118  0.635795  0.008968  1
  O  O133  1  0.297737  0.147123  0.285923  1
  O  O134  1  0.925750  0.488952  0.078633  1
  O  O135  1  0.972441  0.967621  0.142420  1
  O  O136  1  0.581127  0.401922  0.134191  1
  O  O137  1  0.297935  0.362434  0.732965  1
  O  O138  1  0.764850  0.033725  0.545108  1
  O  O139  1  0.987145  0.322739  0.754434  1
  O  O140  1  0.349135  0.415866  0.256241  1
  O  O141  1  0.251922  0.129996  0.729345  1
  O  O142  1  0.074250  0.011048  0.578633  1
  O  O143  1  0.297737  0.647123  0.214077  1
  O  O144  1  0.668537  0.087718  0.107750  1
  O  O145  1  0.544882  0.364205  0.991032  1
  O  O146  1  0.764850  0.533725  0.954892  1
  O  O147  1  0.972441  0.467621  0.357580  1
