# generated using pymatgen
data_PdC2ClO2
_symmetry_space_group_name_H-M   'P 1'
_cell_length_a   9.77750450
_cell_length_b   11.64754343
_cell_length_c   11.64754302
_cell_angle_alpha   79.85335442
_cell_angle_beta   65.18283932
_cell_angle_gamma   65.18284033
_symmetry_Int_Tables_number   1
_chemical_formula_structural   PdC2ClO2
_chemical_formula_sum   'Pd8 C16 Cl8 O16'
_cell_volume   1092.78630375
_cell_formula_units_Z   8
loop_
 _symmetry_equiv_pos_site_id
 _symmetry_equiv_pos_as_xyz
  1  'x, y, z'
loop_
 _atom_site_type_symbol
 _atom_site_label
 _atom_site_symmetry_multiplicity
 _atom_site_fract_x
 _atom_site_fract_y
 _atom_site_fract_z
 _atom_site_occupancy
  Pd  Pd0  1  0.318127  0.374050  0.080669  1
  Pd  Pd1  1  0.648796  0.874050  0.419331  1
  Pd  Pd2  1  0.931873  0.419331  0.125950  1
  Pd  Pd3  1  0.307823  0.919331  0.374050  1
  Pd  Pd4  1  0.601204  0.080669  0.625950  1
  Pd  Pd5  1  0.477155  0.580669  0.874050  1
  Pd  Pd6  1  0.942177  0.125950  0.580669  1
  Pd  Pd7  1  0.772845  0.625950  0.919331  1
  C  C8  1  0.480188  0.003963  0.775739  1
  C  C9  1  0.259890  0.996037  0.224261  1
  C  C10  1  0.734151  0.496037  0.275739  1
  C  C11  1  0.832746  0.906018  0.280489  1
  C  C12  1  0.990110  0.275739  0.503963  1
  C  C13  1  0.505927  0.503963  0.724261  1
  C  C14  1  0.261236  0.719511  0.906018  1
  C  C15  1  0.769812  0.724261  0.496037  1
  C  C16  1  0.744073  0.775739  0.996037  1
  C  C17  1  0.515849  0.224261  0.003963  1
  C  C18  1  0.988764  0.593982  0.780489  1
  C  C19  1  0.886765  0.280489  0.093982  1
  C  C20  1  0.019253  0.093982  0.719511  1
  C  C21  1  0.230747  0.780489  0.406018  1
  C  C22  1  0.363235  0.406018  0.219511  1
  C  C23  1  0.417254  0.219511  0.593982  1
  Cl  Cl24  1  0.480995  0.654484  0.067579  1
  Cl  Cl25  1  0.203059  0.345516  0.932421  1
  Cl  Cl26  1  0.769005  0.432421  0.845516  1
  Cl  Cl27  1  0.385480  0.845516  0.567579  1
  Cl  Cl28  1  0.451425  0.067579  0.345516  1
  Cl  Cl29  1  0.798575  0.154484  0.432421  1
  Cl  Cl30  1  0.864520  0.932421  0.654484  1
  Cl  Cl31  1  0.046941  0.567579  0.154484  1
  O  O32  1  0.637121  0.138041  0.970652  1
  O  O33  1  0.224838  0.029348  0.138041  1
  O  O34  1  0.504186  0.470652  0.638041  1
  O  O35  1  0.392226  0.970652  0.861959  1
  O  O36  1  0.960210  0.901715  0.210932  1
  O  O37  1  0.857773  0.638041  0.529348  1
  O  O38  1  0.025162  0.361959  0.470652  1
  O  O39  1  0.421142  0.401715  0.289068  1
  O  O40  1  0.111925  0.598285  0.710932  1
  O  O41  1  0.138075  0.789068  0.901715  1
  O  O42  1  0.177143  0.710932  0.401715  1
  O  O43  1  0.828858  0.210932  0.098285  1
  O  O44  1  0.289790  0.289068  0.598285  1
  O  O45  1  0.745814  0.861959  0.029348  1
  O  O46  1  0.612879  0.529348  0.361959  1
  O  O47  1  0.072857  0.098285  0.789068  1
