# generated using pymatgen
data_Na2PdO3
_symmetry_space_group_name_H-M   'P 1'
_cell_length_a   5.62069765
_cell_length_b   5.62841310
_cell_length_c   38.60013202
_cell_angle_alpha   84.68487348
_cell_angle_beta   79.31298339
_cell_angle_gamma   60.04499885
_symmetry_Int_Tables_number   1
_chemical_formula_structural   Na2PdO3
_chemical_formula_sum   'Na32 Pd16 O48'
_cell_volume   1039.66484153
_cell_formula_units_Z   16
loop_
 _symmetry_equiv_pos_site_id
 _symmetry_equiv_pos_as_xyz
  1  'x, y, z'
loop_
 _atom_site_type_symbol
 _atom_site_label
 _atom_site_symmetry_multiplicity
 _atom_site_fract_x
 _atom_site_fract_y
 _atom_site_fract_z
 _atom_site_occupancy
  Na  Na0  1  0.168907  0.165639  0.000529  1
  Na  Na1  1  -0.000408  0.500191  0.374884  1
  Na  Na2  1  0.074365  0.851713  0.062470  1
  Na  Na3  1  0.417889  0.163987  0.062507  1
  Na  Na4  1  0.268310  0.492651  0.187636  1
  Na  Na5  1  0.000076  0.500087  0.624991  1
  Na  Na6  1  0.091617  0.815767  0.312177  1
  Na  Na7  1  0.406802  0.184255  0.311839  1
  Na  Na8  1  0.249983  0.500001  0.437386  1
  Na  Na9  1  0.665370  0.165516  0.124475  1
  Na  Na10  1  0.998058  0.501166  0.875309  1
  Na  Na11  1  0.092164  0.815755  0.562483  1
  Na  Na12  1  0.408031  0.184374  0.562464  1
  Na  Na13  1  0.500711  0.501058  0.249768  1
  Na  Na14  1  0.249942  0.500235  0.687586  1
  Na  Na15  1  0.092594  0.815960  0.812848  1
  Na  Na16  1  0.408354  0.184618  0.813173  1
  Na  Na17  1  0.758743  0.482052  0.062528  1
  Na  Na18  1  0.499961  0.500093  0.499939  1
  Na  Na19  1  0.239342  0.492621  0.937343  1
  Na  Na20  1  0.582862  0.833598  0.187006  1
  Na  Na21  1  0.898173  0.173530  0.186456  1
  Na  Na22  1  0.750097  0.500975  0.312512  1
  Na  Na23  1  0.500244  0.500176  0.750151  1
  Na  Na24  1  0.591779  0.815726  0.437363  1
  Na  Na25  1  0.907347  0.184217  0.437349  1
  Na  Na26  1  0.749881  0.500170  0.562503  1
  Na  Na27  1  0.592525  0.815477  0.687629  1
  Na  Na28  1  0.908417  0.184368  0.687641  1
  Na  Na29  1  0.749302  0.500642  0.812527  1
  Na  Na30  1  0.583111  0.833675  0.938038  1
  Na  Na31  1  0.928071  0.173384  0.938576  1
  Pd  Pd32  1  0.001509  0.499725  0.124790  1
  Pd  Pd33  1  0.164295  0.166743  0.249398  1
  Pd  Pd34  1  0.167551  0.164695  0.499939  1
  Pd  Pd35  1  0.498780  0.499527  0.000214  1
  Pd  Pd36  1  0.168574  0.164992  0.750245  1
  Pd  Pd37  1  0.333869  0.831981  0.124768  1
  Pd  Pd38  1  0.666564  0.164897  0.374741  1
  Pd  Pd39  1  0.331312  0.835601  0.374738  1
  Pd  Pd40  1  0.667740  0.164784  0.625050  1
  Pd  Pd41  1  0.332485  0.835336  0.625041  1
  Pd  Pd42  1  0.668929  0.166754  0.875608  1
  Pd  Pd43  1  0.333689  0.834378  0.875565  1
  Pd  Pd44  1  0.831999  0.834316  0.249430  1
  Pd  Pd45  1  0.832229  0.835285  0.499942  1
  Pd  Pd46  1  0.833095  0.835711  0.750254  1
  Pd  Pd47  1  0.834177  0.831720  0.000250  1
  O  O48  1  0.061797  0.165476  0.097692  1
  O  O49  1  0.035179  0.139852  0.347796  1
  O  O50  1  0.132566  0.526163  0.027332  1
  O  O51  1  0.036135  0.139411  0.598045  1
  O  O52  1  0.271294  0.165705  0.151764  1
  O  O53  1  0.103013  0.501307  0.276596  1
  O  O54  1  0.035151  0.139878  0.848416  1
  O  O55  1  0.324213  0.139030  0.401787  1
  O  O56  1  0.105144  0.499962  0.527087  1
  O  O57  1  0.341155  0.526332  0.097683  1
  O  O58  1  0.173428  0.861706  0.222456  1
  O  O59  1  0.535393  0.142513  0.222497  1
  O  O60  1  0.324672  0.139455  0.652034  1
  O  O61  1  0.106314  0.500093  0.777414  1
  O  O62  1  0.393665  0.499944  0.347586  1
  O  O63  1  0.175306  0.860584  0.472949  1
  O  O64  1  0.535834  0.139430  0.472968  1
  O  O65  1  0.491484  0.805345  0.027163  1
  O  O66  1  0.772690  0.165284  0.027318  1
  O  O67  1  0.630663  0.523945  0.151639  1
  O  O68  1  0.322272  0.142345  0.902510  1
  O  O69  1  0.394866  0.500061  0.597894  1
  O  O70  1  0.176012  0.861005  0.723226  1
  O  O71  1  0.536856  0.139118  0.723180  1
  O  O72  1  0.462978  0.860903  0.276431  1
  O  O73  1  0.825119  0.139766  0.276607  1
  O  O74  1  0.604618  0.500153  0.401864  1
  O  O75  1  0.702935  0.805523  0.097823  1
  O  O76  1  0.395597  0.501302  0.848419  1
  O  O77  1  0.202688  0.804814  0.973357  1
  O  O78  1  0.562916  0.165526  0.973259  1
  O  O79  1  0.463961  0.860456  0.526930  1
  O  O80  1  0.824426  0.139439  0.526924  1
  O  O81  1  0.605446  0.499960  0.652198  1
  O  O82  1  0.895122  0.500743  0.222319  1
  O  O83  1  0.674164  0.861308  0.347726  1
  O  O84  1  0.464588  0.861445  0.777277  1
  O  O85  1  0.825115  0.139920  0.777205  1
  O  O86  1  0.604250  0.500660  0.902677  1
  O  O87  1  0.894816  0.499906  0.472781  1
  O  O88  1  0.675459  0.860786  0.598042  1
  O  O89  1  -0.007707  0.804913  0.151676  1
  O  O90  1  0.895270  0.500296  0.723130  1
  O  O91  1  0.676120  0.860997  0.848565  1
  O  O92  1  0.963109  0.860968  0.401768  1
  O  O93  1  0.845452  0.523882  0.973348  1
  O  O94  1  0.964162  0.860579  0.652038  1
  O  O95  1  0.964877  0.861685  0.902548  1
