# generated using pymatgen
data_Cs3Sb2Cl9
_symmetry_space_group_name_H-M   'P 1'
_cell_length_a   7.75346758
_cell_length_b   13.28047582
_cell_length_c   18.96376627
_cell_angle_alpha   90.00000000
_cell_angle_beta   90.00000000
_cell_angle_gamma   90.00000000
_symmetry_Int_Tables_number   1
_chemical_formula_structural   Cs3Sb2Cl9
_chemical_formula_sum   'Cs12 Sb8 Cl36'
_cell_volume   1952.69405792
_cell_formula_units_Z   4
loop_
 _symmetry_equiv_pos_site_id
 _symmetry_equiv_pos_as_xyz
  1  'x, y, z'
loop_
 _atom_site_type_symbol
 _atom_site_label
 _atom_site_symmetry_multiplicity
 _atom_site_fract_x
 _atom_site_fract_y
 _atom_site_fract_z
 _atom_site_occupancy
  Cs  Cs0  1  0.250000  0.751027  0.752433  1
  Cs  Cs1  1  0.250000  0.414637  0.409413  1
  Cs  Cs2  1  0.750000  0.248973  0.247567  1
  Cs  Cs3  1  0.750000  0.585363  0.590587  1
  Cs  Cs4  1  0.750000  0.914637  0.090587  1
  Cs  Cs5  1  0.250000  0.748973  0.252433  1
  Cs  Cs6  1  0.250000  0.416951  0.082209  1
  Cs  Cs7  1  0.750000  0.251027  0.747567  1
  Cs  Cs8  1  0.250000  0.085363  0.909413  1
  Cs  Cs9  1  0.750000  0.916951  0.417791  1
  Cs  Cs10  1  0.750000  0.583049  0.917791  1
  Cs  Cs11  1  0.250000  0.083049  0.582209  1
  Sb  Sb12  1  0.250000  0.416401  0.815360  1
  Sb  Sb13  1  0.750000  0.916401  0.684640  1
  Sb  Sb14  1  0.750000  0.583599  0.184640  1
  Sb  Sb15  1  0.750000  0.235369  0.999151  1
  Sb  Sb16  1  0.250000  0.083599  0.315360  1
  Sb  Sb17  1  0.750000  0.264631  0.499151  1
  Sb  Sb18  1  0.250000  0.735369  0.500849  1
  Sb  Sb19  1  0.250000  0.764631  0.000849  1
  Cl  Cl20  1  0.016184  0.837158  0.924402  1
  Cl  Cl21  1  0.516184  0.162842  0.075598  1
  Cl  Cl22  1  0.750000  0.082403  0.923265  1
  Cl  Cl23  1  0.505109  0.000839  0.752151  1
  Cl  Cl24  1  0.994891  0.000839  0.752151  1
  Cl  Cl25  1  0.250000  0.583724  0.911056  1
  Cl  Cl26  1  0.495665  0.175820  0.405944  1
  Cl  Cl27  1  0.016184  0.662842  0.424402  1
  Cl  Cl28  1  0.494891  0.500839  0.747849  1
  Cl  Cl29  1  0.983816  0.337158  0.575598  1
  Cl  Cl30  1  0.995665  0.675820  0.094056  1
  Cl  Cl31  1  0.005109  0.500839  0.747849  1
  Cl  Cl32  1  0.994891  0.499161  0.252151  1
  Cl  Cl33  1  0.750000  0.416276  0.088944  1
  Cl  Cl34  1  0.004335  0.175820  0.405944  1
  Cl  Cl35  1  0.505109  0.499161  0.252151  1
  Cl  Cl36  1  0.250000  0.582403  0.576735  1
  Cl  Cl37  1  0.750000  0.083724  0.588944  1
  Cl  Cl38  1  0.483816  0.837158  0.924402  1
  Cl  Cl39  1  0.983816  0.162842  0.075598  1
  Cl  Cl40  1  0.250000  0.242446  0.240966  1
  Cl  Cl41  1  0.504335  0.824180  0.594056  1
  Cl  Cl42  1  0.495665  0.324180  0.905944  1
  Cl  Cl43  1  0.483816  0.662842  0.424402  1
  Cl  Cl44  1  0.516184  0.337158  0.575598  1
  Cl  Cl45  1  0.750000  0.757554  0.759034  1
  Cl  Cl46  1  0.750000  0.417597  0.423265  1
  Cl  Cl47  1  0.494891  0.999161  0.247849  1
  Cl  Cl48  1  0.005109  0.999161  0.247849  1
  Cl  Cl49  1  0.995665  0.824180  0.594056  1
  Cl  Cl50  1  0.750000  0.742446  0.259034  1
  Cl  Cl51  1  0.250000  0.916276  0.411056  1
  Cl  Cl52  1  0.250000  0.257554  0.740966  1
  Cl  Cl53  1  0.250000  0.917597  0.076735  1
  Cl  Cl54  1  0.004335  0.324180  0.905944  1
  Cl  Cl55  1  0.504335  0.675820  0.094056  1
