# generated using pymatgen
data_Ce3(Si3Pd10)2
_symmetry_space_group_name_H-M   'P 1'
_cell_length_a   9.07197080
_cell_length_b   5.38163441
_cell_length_c   11.85361825
_cell_angle_alpha   83.45000031
_cell_angle_beta   66.54109853
_cell_angle_gamma   79.71355434
_symmetry_Int_Tables_number   1
_chemical_formula_structural   Ce3(Si3Pd10)2
_chemical_formula_sum   'Ce3 Si6 Pd20'
_cell_volume   521.75892253
_cell_formula_units_Z   1
loop_
 _symmetry_equiv_pos_site_id
 _symmetry_equiv_pos_as_xyz
  1  'x, y, z'
loop_
 _atom_site_type_symbol
 _atom_site_label
 _atom_site_symmetry_multiplicity
 _atom_site_fract_x
 _atom_site_fract_y
 _atom_site_fract_z
 _atom_site_occupancy
  Ce  Ce0  1  0.374702  0.335841  0.243603  1
  Ce  Ce1  1  -0.000347  0.000656  -0.000004  1
  Ce  Ce2  1  0.626783  0.665983  0.757485  1
  Si  Si3  1  0.189993  0.902406  0.205825  1
  Si  Si4  1  0.275724  0.375954  0.708682  1
  Si  Si5  1  0.348972  0.793249  0.622870  1
  Si  Si6  1  0.649835  0.205537  0.377777  1
  Si  Si7  1  0.724581  0.622165  0.290822  1
  Si  Si8  1  0.809601  0.099004  0.793826  1
  Pd  Pd9  1  0.651575  0.356862  0.968507  1
  Pd  Pd10  1  0.878035  0.386569  0.601516  1
  Pd  Pd11  1  0.066848  0.820056  0.768770  1
  Pd  Pd12  1  0.346412  0.140739  0.035467  1
  Pd  Pd13  1  0.122865  0.614242  0.397918  1
  Pd  Pd14  1  0.931663  0.180357  0.231743  1
  Pd  Pd15  1  0.196161  0.175179  0.572450  1
  Pd  Pd16  1  0.804225  0.823239  0.427059  1
  Pd  Pd17  1  0.473079  0.880362  0.407471  1
  Pd  Pd18  1  0.678694  0.048723  0.178868  1
  Pd  Pd19  1  0.348643  0.643658  0.031878  1
  Pd  Pd20  1  0.021036  0.633367  0.192029  1
  Pd  Pd21  1  0.909212  0.880980  0.609799  1
  Pd  Pd22  1  0.178548  0.462447  0.921431  1
  Pd  Pd23  1  0.653548  0.860464  0.965126  1
  Pd  Pd24  1  0.319464  0.951034  0.821948  1
  Pd  Pd25  1  0.822388  0.538049  0.077600  1
  Pd  Pd26  1  0.526852  0.116226  0.592941  1
  Pd  Pd27  1  0.979554  0.366733  0.807179  1
  Pd  Pd28  1  0.091354  0.119915  0.389415  1
