# generated using pymatgen
data_K2SO4
_symmetry_space_group_name_H-M   'P 1'
_cell_length_a   5.92677670
_cell_length_b   6.07310088
_cell_length_c   7.94976716
_cell_angle_alpha   89.89681456
_cell_angle_beta   90.05286647
_cell_angle_gamma   120.82011173
_symmetry_Int_Tables_number   1
_chemical_formula_structural   K2SO4
_chemical_formula_sum   'K4 S2 O8'
_cell_volume   245.73371204
_cell_formula_units_Z   2
loop_
 _symmetry_equiv_pos_site_id
 _symmetry_equiv_pos_as_xyz
  1  'x, y, z'
loop_
 _atom_site_type_symbol
 _atom_site_label
 _atom_site_symmetry_multiplicity
 _atom_site_fract_x
 _atom_site_fract_y
 _atom_site_fract_z
 _atom_site_occupancy
  K  K0  1  0.350878  0.675440  0.750000  1
  K  K1  1  0.000000  0.000000  0.000000  1
  K  K2  1  0.000000  0.000000  0.500000  1
  K  K3  1  0.649122  0.324560  0.250000  1
  S  S4  1  0.331297  0.665649  0.250000  1
  S  S5  1  0.668703  0.334351  0.750000  1
  O  O6  1  0.158464  0.779787  0.246387  1
  O  O7  1  0.500616  0.755357  0.402064  1
  O  O8  1  0.500616  0.745260  0.097936  1
  O  O9  1  0.158464  0.378677  0.253613  1
  O  O10  1  0.841536  0.621323  0.746387  1
  O  O11  1  0.499384  0.244643  0.597936  1
  O  O12  1  0.499384  0.254740  0.902064  1
  O  O13  1  0.841536  0.220213  0.753613  1
