# generated using pymatgen
data_TbIn2Ni
_symmetry_space_group_name_H-M   'P 1'
_cell_length_a   4.34171579
_cell_length_b   5.65756104
_cell_length_c   7.43748090
_cell_angle_alpha   90.08622287
_cell_angle_beta   89.99881919
_cell_angle_gamma   112.48178541
_symmetry_Int_Tables_number   1
_chemical_formula_structural   TbIn2Ni
_chemical_formula_sum   'Tb2 In4 Ni2'
_cell_volume   168.80621811
_cell_formula_units_Z   2
loop_
 _symmetry_equiv_pos_site_id
 _symmetry_equiv_pos_as_xyz
  1  'x, y, z'
loop_
 _atom_site_type_symbol
 _atom_site_label
 _atom_site_symmetry_multiplicity
 _atom_site_fract_x
 _atom_site_fract_y
 _atom_site_fract_z
 _atom_site_occupancy
  Tb  Tb0  1  0.932351  0.863294  0.246859  1
  Tb  Tb1  1  0.068442  0.140847  0.748225  1
  In  In2  1  0.639952  0.285970  0.049514  1
  In  In3  1  0.642741  0.288576  0.448541  1
  In  In4  1  0.358612  0.715861  0.548209  1
  In  In5  1  0.357892  0.714722  0.947676  1
  Ni  Ni6  1  0.787078  0.572074  0.749677  1
  Ni  Ni7  1  0.212412  0.430349  0.247634  1
