# generated using pymatgen
data_PH3
_symmetry_space_group_name_H-M   'P 1'
_cell_length_a   7.34291886
_cell_length_b   6.93172152
_cell_length_c   6.92793312
_cell_angle_alpha   95.24516545
_cell_angle_beta   94.05653633
_cell_angle_gamma   107.69875486
_symmetry_Int_Tables_number   1
_chemical_formula_structural   PH3
_chemical_formula_sum   'P4 H12'
_cell_volume   332.71896715
_cell_formula_units_Z   4
loop_
 _symmetry_equiv_pos_site_id
 _symmetry_equiv_pos_as_xyz
  1  'x, y, z'
loop_
 _atom_site_type_symbol
 _atom_site_label
 _atom_site_symmetry_multiplicity
 _atom_site_fract_x
 _atom_site_fract_y
 _atom_site_fract_z
 _atom_site_occupancy
  P  P0  1  0.810408  0.680056  0.240017  1
  P  P1  1  0.335261  0.912408  0.753703  1
  P  P2  1  0.582485  0.196136  0.761987  1
  P  P3  1  0.231167  0.306712  0.188139  1
  H  H4  1  0.543353  0.002657  0.299706  1
  H  H5  1  0.844874  0.545251  0.373973  1
  H  H6  1  0.485898  0.324483  0.855105  1
  H  H7  1  0.060744  0.058923  0.608751  1
  H  H8  1  0.482110  0.980896  0.204380  1
  H  H9  1  0.958801  0.654958  0.126114  1
  H  H10  1  0.340496  0.851209  0.551255  1
  H  H11  1  0.380608  0.484029  0.150561  1
  H  H12  1  0.665098  0.173450  0.948781  1
  H  H13  1  0.088885  0.350187  0.064162  1
  H  H14  1  0.186294  0.411288  0.356353  1
  H  H15  1  0.003516  0.067356  0.517016  1
