# generated using pymatgen
data_CSe(ClF)3
_symmetry_space_group_name_H-M   'P 1'
_cell_length_a   7.67343565
_cell_length_b   19.43163193
_cell_length_c   19.54477857
_cell_angle_alpha   90.00000000
_cell_angle_beta   90.00000000
_cell_angle_gamma   90.00000000
_symmetry_Int_Tables_number   1
_chemical_formula_structural   CSe(ClF)3
_chemical_formula_sum   'C16 Se16 Cl48 F48'
_cell_volume   2914.27067032
_cell_formula_units_Z   16
loop_
 _symmetry_equiv_pos_site_id
 _symmetry_equiv_pos_as_xyz
  1  'x, y, z'
loop_
 _atom_site_type_symbol
 _atom_site_label
 _atom_site_symmetry_multiplicity
 _atom_site_fract_x
 _atom_site_fract_y
 _atom_site_fract_z
 _atom_site_occupancy
  C  C0  1  0.821697  0.924086  0.403643  1
  C  C1  1  0.321697  0.575914  0.596357  1
  C  C2  1  0.594742  0.696917  0.411148  1
  C  C3  1  0.321697  0.924086  0.096357  1
  C  C4  1  0.678303  0.424086  0.403643  1
  C  C5  1  0.178303  0.424086  0.096357  1
  C  C6  1  0.678303  0.075914  0.903643  1
  C  C7  1  0.094742  0.696917  0.088852  1
  C  C8  1  0.821697  0.575914  0.903643  1
  C  C9  1  0.905258  0.196917  0.411148  1
  C  C10  1  0.905258  0.303083  0.911148  1
  C  C11  1  0.405258  0.303083  0.588852  1
  C  C12  1  0.405258  0.196917  0.088852  1
  C  C13  1  0.094742  0.803083  0.588852  1
  C  C14  1  0.594742  0.803083  0.911148  1
  C  C15  1  0.178303  0.075914  0.596357  1
  Se  Se16  1  0.908482  0.434775  0.341986  1
  Se  Se17  1  0.408482  0.065225  0.658014  1
  Se  Se18  1  0.906845  0.741492  0.156708  1
  Se  Se19  1  0.093155  0.241492  0.343292  1
  Se  Se20  1  0.093155  0.258508  0.843292  1
  Se  Se21  1  0.593155  0.258508  0.656708  1
  Se  Se22  1  0.091518  0.565225  0.658014  1
  Se  Se23  1  0.906845  0.758508  0.656708  1
  Se  Se24  1  0.406845  0.741492  0.343292  1
  Se  Se25  1  0.408482  0.434775  0.158014  1
  Se  Se26  1  0.591518  0.565225  0.841986  1
  Se  Se27  1  0.908482  0.065225  0.841986  1
  Se  Se28  1  0.593155  0.241492  0.156708  1
  Se  Se29  1  0.091518  0.934775  0.158014  1
  Se  Se30  1  0.591518  0.934775  0.341986  1
  Se  Se31  1  0.406845  0.758508  0.843292  1
  Cl  Cl32  1  0.944677  0.657582  0.232605  1
  Cl  Cl33  1  0.513502  0.471055  0.901591  1
  Cl  Cl34  1  0.513502  0.028945  0.401591  1
  Cl  Cl35  1  0.748443  0.490922  0.260994  1
  Cl  Cl36  1  0.748443  0.009078  0.760994  1
  Cl  Cl37  1  0.444677  0.657582  0.267395  1
  Cl  Cl38  1  0.251557  0.990922  0.239006  1
  Cl  Cl39  1  0.486498  0.528945  0.098409  1
  Cl  Cl40  1  0.251557  0.509078  0.739006  1
  Cl  Cl41  1  0.013502  0.028945  0.098409  1
  Cl  Cl42  1  0.866166  0.318217  0.274298  1
  Cl  Cl43  1  0.013502  0.471055  0.598409  1
  Cl  Cl44  1  0.055323  0.342418  0.767395  1
  Cl  Cl45  1  0.986498  0.528945  0.401591  1
  Cl  Cl46  1  0.306818  0.190273  0.403056  1
  Cl  Cl47  1  0.248443  0.009078  0.739006  1
  Cl  Cl48  1  0.193182  0.690273  0.403056  1
  Cl  Cl49  1  0.084632  0.355297  0.423612  1
  Cl  Cl50  1  0.944677  0.842418  0.732605  1
  Cl  Cl51  1  0.366166  0.181783  0.725702  1
  Cl  Cl52  1  0.415368  0.644703  0.923612  1
  Cl  Cl53  1  0.693182  0.809727  0.596944  1
  Cl  Cl54  1  0.751557  0.990922  0.260994  1
  Cl  Cl55  1  0.444677  0.842418  0.767395  1
  Cl  Cl56  1  0.806818  0.309727  0.596944  1
  Cl  Cl57  1  0.133834  0.818217  0.225702  1
  Cl  Cl58  1  0.486498  0.971055  0.598409  1
  Cl  Cl59  1  0.133834  0.681783  0.725702  1
  Cl  Cl60  1  0.806818  0.190273  0.096944  1
  Cl  Cl61  1  0.193182  0.809727  0.903056  1
  Cl  Cl62  1  0.306818  0.309727  0.903056  1
  Cl  Cl63  1  0.055323  0.157582  0.267395  1
  Cl  Cl64  1  0.248443  0.490922  0.239006  1
  Cl  Cl65  1  0.415368  0.855297  0.423612  1
  Cl  Cl66  1  0.915368  0.644703  0.576388  1
  Cl  Cl67  1  0.633834  0.681783  0.774298  1
  Cl  Cl68  1  0.366166  0.318217  0.225702  1
  Cl  Cl69  1  0.986498  0.971055  0.901591  1
  Cl  Cl70  1  0.555323  0.157582  0.232605  1
  Cl  Cl71  1  0.084632  0.144703  0.923612  1
  Cl  Cl72  1  0.633834  0.818217  0.274298  1
  Cl  Cl73  1  0.584632  0.355297  0.076388  1
  Cl  Cl74  1  0.915368  0.855297  0.076388  1
  Cl  Cl75  1  0.751557  0.509078  0.760994  1
  Cl  Cl76  1  0.584632  0.144703  0.576388  1
  Cl  Cl77  1  0.693182  0.690273  0.096944  1
  Cl  Cl78  1  0.555323  0.342418  0.732605  1
  Cl  Cl79  1  0.866166  0.181783  0.774298  1
  F  F80  1  0.775974  0.590161  0.968140  1
  F  F81  1  0.744835  0.216059  0.392126  1
  F  F82  1  0.224026  0.090161  0.531860  1
  F  F83  1  0.744835  0.283941  0.892126  1
  F  F84  1  0.420446  0.873596  0.121881  1
  F  F85  1  0.579554  0.126404  0.878119  1
  F  F86  1  0.419379  0.128246  0.091853  1
  F  F87  1  0.590027  0.016457  0.902321  1
  F  F88  1  0.909973  0.516457  0.902321  1
  F  F89  1  0.775974  0.909839  0.468140  1
  F  F90  1  0.579554  0.373596  0.378119  1
  F  F91  1  0.419379  0.371754  0.591853  1
  F  F92  1  0.437384  0.217681  0.024860  1
  F  F93  1  0.079554  0.126404  0.621881  1
  F  F94  1  0.062616  0.782319  0.524860  1
  F  F95  1  0.919379  0.371754  0.908147  1
  F  F96  1  0.562616  0.782319  0.975140  1
  F  F97  1  0.437384  0.282319  0.524860  1
  F  F98  1  0.244835  0.216059  0.107874  1
  F  F99  1  0.755165  0.716059  0.392126  1
  F  F100  1  0.562616  0.717681  0.475140  1
  F  F101  1  0.920446  0.873596  0.378119  1
  F  F102  1  0.724026  0.409839  0.468140  1
  F  F103  1  0.255165  0.716059  0.107874  1
  F  F104  1  0.755165  0.783941  0.892126  1
  F  F105  1  0.409973  0.983543  0.097679  1
  F  F106  1  0.937384  0.282319  0.975140  1
  F  F107  1  0.919379  0.128246  0.408147  1
  F  F108  1  0.409973  0.516457  0.597679  1
  F  F109  1  0.080621  0.871754  0.591853  1
  F  F110  1  0.090027  0.016457  0.597679  1
  F  F111  1  0.909973  0.983543  0.402321  1
  F  F112  1  0.275974  0.590161  0.531860  1
  F  F113  1  0.090027  0.483543  0.097679  1
  F  F114  1  0.275974  0.909839  0.031860  1
  F  F115  1  0.255165  0.783941  0.607874  1
  F  F116  1  0.937384  0.217681  0.475140  1
  F  F117  1  0.244835  0.283941  0.607874  1
  F  F118  1  0.580621  0.628246  0.408147  1
  F  F119  1  0.420446  0.626404  0.621881  1
  F  F120  1  0.080621  0.628246  0.091853  1
  F  F121  1  0.224026  0.409839  0.031860  1
  F  F122  1  0.062616  0.717681  0.024860  1
  F  F123  1  0.580621  0.871754  0.908147  1
  F  F124  1  0.079554  0.373596  0.121881  1
  F  F125  1  0.920446  0.626404  0.878119  1
  F  F126  1  0.590027  0.483543  0.402321  1
  F  F127  1  0.724026  0.090161  0.968140  1
