# generated using pymatgen
data_Na11La7Th2Ti20O60
_symmetry_space_group_name_H-M   'P 1'
_cell_length_a   5.50818120
_cell_length_b   5.50865686
_cell_length_c   38.84190012
_cell_angle_alpha   89.94154111
_cell_angle_beta   89.97806332
_cell_angle_gamma   89.79484139
_symmetry_Int_Tables_number   1
_chemical_formula_structural   Na11La7Th2Ti20O60
_chemical_formula_sum   'Na11 La7 Th2 Ti20 O60'
_cell_volume   1178.55909828
_cell_formula_units_Z   1
loop_
 _symmetry_equiv_pos_site_id
 _symmetry_equiv_pos_as_xyz
  1  'x, y, z'
loop_
 _atom_site_type_symbol
 _atom_site_label
 _atom_site_symmetry_multiplicity
 _atom_site_fract_x
 _atom_site_fract_y
 _atom_site_fract_z
 _atom_site_occupancy
  Na  Na0  1  0.010718  0.007287  0.150559  1
  Na  Na1  1  0.014390  0.007168  0.347961  1
  Na  Na2  1  0.013933  0.005410  0.553619  1
  Na  Na3  1  0.006148  0.007318  0.748722  1
  Na  Na4  1  0.005751  0.006902  0.948896  1
  Na  Na5  1  0.495515  0.506650  0.049010  1
  Na  Na6  1  0.501347  0.508882  0.647380  1
  Na  Na7  1  0.502438  0.505988  0.253632  1
  Na  Na8  1  0.494076  0.507274  0.848876  1
  Na  Na9  1  0.513409  0.493871  0.345573  1
  Na  Na10  1  0.513811  0.496785  0.556103  1
  La  La11  1  0.505874  0.494279  0.748674  1
  La  La12  1  0.506677  0.494508  0.949060  1
  La  La13  1  -0.000066  0.995844  0.252807  1
  La  La14  1  0.991503  0.994044  0.048620  1
  La  La15  1  0.001535  0.994612  0.648396  1
  La  La16  1  0.995231  -0.000623  0.450043  1
  La  La17  1  0.992814  0.994300  0.848970  1
  Th  Th18  1  0.490036  0.498990  0.450175  1
  Th  Th19  1  0.524664  0.494959  0.150600  1
  Ti  Ti20  1  0.999934  0.509599  0.999049  1
  Ti  Ti21  1  0.007946  0.508798  0.099714  1
  Ti  Ti22  1  0.011270  0.505687  0.200915  1
  Ti  Ti23  1  0.012215  0.503738  0.301504  1
  Ti  Ti24  1  0.000663  0.495066  0.396297  1
  Ti  Ti25  1  0.999385  0.510254  0.798696  1
  Ti  Ti26  1  0.502957  0.006145  0.099217  1
  Ti  Ti27  1  0.498457  0.006606  0.998872  1
  Ti  Ti28  1  0.498738  -0.000386  0.504228  1
  Ti  Ti29  1  0.511979  0.004751  0.301770  1
  Ti  Ti30  1  0.506851  0.002408  0.201705  1
  Ti  Ti31  1  0.515763  0.004954  0.599017  1
  Ti  Ti32  1  0.500430  0.010638  0.898774  1
  Ti  Ti33  1  0.501518  -0.000063  0.396037  1
  Ti  Ti34  1  0.504750  0.008766  0.698415  1
  Ti  Ti35  1  0.498474  0.006365  0.798585  1
  Ti  Ti36  1  0.997598  0.496199  0.504013  1
  Ti  Ti37  1  0.004523  0.505978  0.698683  1
  Ti  Ti38  1  0.015745  0.500764  0.599119  1
  Ti  Ti39  1  0.001797  0.506625  0.898776  1
  O  O40  1  0.000676  0.420457  0.051371  1
  O  O41  1  0.995404  0.426826  0.248711  1
  O  O42  1  0.006903  0.430232  0.449366  1
  O  O43  1  0.995327  0.428017  0.650375  1
  O  O44  1  0.002118  0.422945  0.850912  1
  O  O45  1  0.262475  0.266829  0.189342  1
  O  O46  1  0.244111  0.249372  0.593554  1
  O  O47  1  0.259286  0.258916  0.394523  1
  O  O48  1  0.264263  0.266901  0.110533  1
  O  O49  1  0.243165  0.246379  0.305767  1
  O  O50  1  0.255399  0.252868  0.792896  1
  O  O51  1  0.255113  0.251877  0.993074  1
  O  O52  1  0.258892  0.259122  0.504299  1
  O  O53  1  0.253682  0.253389  0.708318  1
  O  O54  1  0.256801  0.253064  0.908679  1
  O  O55  1  0.239702  0.757280  0.206482  1
  O  O56  1  0.242051  0.751962  0.008700  1
  O  O57  1  0.238413  0.759006  0.092794  1
  O  O58  1  0.238491  0.750217  0.291610  1
  O  O59  1  0.250316  0.748112  0.488831  1
  O  O60  1  0.243305  0.750564  0.692988  1
  O  O61  1  0.237664  0.753221  0.608002  1
  O  O62  1  0.250642  0.747923  0.410699  1
  O  O63  1  0.243506  0.752032  0.893047  1
  O  O64  1  0.242244  0.753037  0.808426  1
  O  O65  1  0.494214  0.907179  0.149690  1
  O  O66  1  0.488197  0.921606  0.350398  1
  O  O67  1  0.487993  0.922386  0.549242  1
  O  O68  1  0.496334  0.923821  0.750768  1
  O  O69  1  0.497133  0.922694  0.951057  1
  O  O70  1  0.500892  0.069077  0.051125  1
  O  O71  1  0.493818  0.069236  0.248927  1
  O  O72  1  0.495488  0.069081  0.650420  1
  O  O73  1  0.493356  0.082117  0.449379  1
  O  O74  1  0.502870  0.067412  0.850846  1
  O  O75  1  0.747518  0.248280  0.109725  1
  O  O76  1  0.747158  0.248296  0.190318  1
  O  O77  1  0.753704  0.235187  0.305982  1
  O  O78  1  0.750225  0.244387  0.708121  1
  O  O79  1  0.757974  0.239271  0.395305  1
  O  O80  1  0.753802  0.237626  0.593404  1
  O  O81  1  0.756585  0.240424  0.503581  1
  O  O82  1  0.752146  0.243143  0.793007  1
  O  O83  1  0.752442  0.243154  0.908462  1
  O  O84  1  0.752070  0.241898  0.993222  1
  O  O85  1  0.742042  0.745011  0.092594  1
  O  O86  1  0.745925  0.742975  0.008600  1
  O  O87  1  0.740264  0.745177  0.206758  1
  O  O88  1  0.746827  0.750303  0.291167  1
  O  O89  1  0.738247  0.739200  0.488397  1
  O  O90  1  0.745245  0.745400  0.693001  1
  O  O91  1  0.738243  0.739043  0.411098  1
  O  O92  1  0.746762  0.752699  0.608470  1
  O  O93  1  0.746664  0.744024  0.808458  1
  O  O94  1  0.746880  0.742997  0.893120  1
  O  O95  1  0.975156  0.572592  0.149808  1
  O  O96  1  0.986684  0.575891  0.350377  1
  O  O97  1  0.985949  0.576000  0.549119  1
  O  O98  1  0.994573  0.567863  0.750677  1
  O  O99  1  0.995875  0.566662  0.951018  1
