# generated using pymatgen
data_W9C4
_symmetry_space_group_name_H-M   'P 1'
_cell_length_a   15.65418078
_cell_length_b   9.03800719
_cell_length_c   7.07690374
_cell_angle_alpha   50.31630454
_cell_angle_beta   42.49541538
_cell_angle_gamma   30.00013702
_symmetry_Int_Tables_number   1
_chemical_formula_structural   W9C4
_chemical_formula_sum   'W18 C8'
_cell_volume   338.19216204
_cell_formula_units_Z   2
loop_
 _symmetry_equiv_pos_site_id
 _symmetry_equiv_pos_as_xyz
  1  'x, y, z'
loop_
 _atom_site_type_symbol
 _atom_site_label
 _atom_site_symmetry_multiplicity
 _atom_site_fract_x
 _atom_site_fract_y
 _atom_site_fract_z
 _atom_site_occupancy
  W  W0  1  0.029912  0.000162  0.244717  1
  W  W1  1  0.022944  0.346485  0.250394  1
  W  W2  1  0.023888  0.665719  0.250403  1
  W  W3  1  0.360706  0.997687  0.254176  1
  W  W4  1  0.361974  0.334618  0.244691  1
  W  W5  1  0.303416  0.334609  0.755288  1
  W  W6  1  0.363401  0.665233  0.244704  1
  W  W7  1  0.702762  0.987795  0.250406  1
  W  W8  1  0.310378  0.665734  0.749604  1
  W  W9  1  0.693387  0.333994  0.254174  1
  W  W10  1  0.309449  0.987781  0.749600  1
  W  W11  1  0.630571  0.346481  0.749599  1
  W  W12  1  0.691724  0.668335  0.254180  1
  W  W13  1  0.639952  0.668336  0.745801  1
  W  W14  1  0.641611  0.997679  0.745825  1
  W  W15  1  0.972627  0.333982  0.745812  1
  W  W16  1  0.971361  0.665245  0.755310  1
  W  W17  1  0.969933  0.000133  0.755290  1
  C  C18  1  0.000962  0.998055  0.000010  1
  C  C19  1  0.332364  0.000952  -0.000009  1
  C  C20  1  0.166654  0.334402  0.500030  1
  C  C21  1  0.666662  0.001002  0.000020  1
  C  C22  1  0.166689  0.666640  0.499957  1
  C  C23  1  0.498950  0.334381  0.500026  1
  C  C24  1  0.666685  0.666651  0.999959  1
  C  C25  1  0.834372  0.331242  0.500034  1
