# generated using pymatgen
data_PtC2(ClO)2
_symmetry_space_group_name_H-M   'P 1'
_cell_length_a   6.74447463
_cell_length_b   7.26818619
_cell_length_c   12.98817448
_cell_angle_alpha   90.00000000
_cell_angle_beta   90.00000000
_cell_angle_gamma   104.99440715
_symmetry_Int_Tables_number   1
_chemical_formula_structural   PtC2(ClO)2
_chemical_formula_sum   'Pt4 C8 Cl8 O8'
_cell_volume   615.00326092
_cell_formula_units_Z   4
loop_
 _symmetry_equiv_pos_site_id
 _symmetry_equiv_pos_as_xyz
  1  'x, y, z'
loop_
 _atom_site_type_symbol
 _atom_site_label
 _atom_site_symmetry_multiplicity
 _atom_site_fract_x
 _atom_site_fract_y
 _atom_site_fract_z
 _atom_site_occupancy
  Pt  Pt0  1  0.779992  0.890818  0.770329  1
  Pt  Pt1  1  0.220008  0.109182  0.229671  1
  Pt  Pt2  1  0.279992  0.890818  0.729671  1
  Pt  Pt3  1  0.720008  0.109182  0.270329  1
  C  C4  1  0.728615  0.705170  0.877007  1
  C  C5  1  0.837726  0.105954  0.859605  1
  C  C6  1  0.271385  0.294830  0.122993  1
  C  C7  1  0.662274  0.894046  0.359605  1
  C  C8  1  0.228615  0.705170  0.622993  1
  C  C9  1  0.771385  0.294830  0.377007  1
  C  C10  1  0.337726  0.105954  0.640395  1
  C  C11  1  0.162274  0.894046  0.140395  1
  Cl  Cl12  1  0.660624  0.894725  0.132890  1
  Cl  Cl13  1  0.285419  0.364153  0.343615  1
  Cl  Cl14  1  0.785419  0.364153  0.156385  1
  Cl  Cl15  1  0.339376  0.105275  0.867110  1
  Cl  Cl16  1  0.714581  0.635847  0.656385  1
  Cl  Cl17  1  0.160624  0.894725  0.367110  1
  Cl  Cl18  1  0.214581  0.635847  0.843615  1
  Cl  Cl19  1  0.839376  0.105275  0.632890  1
  O  O20  1  0.197900  0.590512  0.560336  1
  O  O21  1  0.802100  0.409488  0.439664  1
  O  O22  1  0.697900  0.590512  0.939664  1
  O  O23  1  0.625896  0.763114  0.412278  1
  O  O24  1  0.874104  0.236886  0.912278  1
  O  O25  1  0.125896  0.763114  0.087722  1
  O  O26  1  0.374104  0.236886  0.587722  1
  O  O27  1  0.302100  0.409488  0.060336  1
