# generated using pymatgen
data_Tl2Zn(CN)4
_symmetry_space_group_name_H-M   'P 1'
_cell_length_a   17.81058380
_cell_length_b   17.81058378
_cell_length_c   17.81058379
_cell_angle_alpha   60.00000000
_cell_angle_beta   60.00000003
_cell_angle_gamma   59.99999998
_symmetry_Int_Tables_number   1
_chemical_formula_structural   Tl2Zn(CN)4
_chemical_formula_sum   'Tl32 Zn16 C64 N64'
_cell_volume   3995.02468233
_cell_formula_units_Z   16
loop_
 _symmetry_equiv_pos_site_id
 _symmetry_equiv_pos_as_xyz
  1  'x, y, z'
loop_
 _atom_site_type_symbol
 _atom_site_label
 _atom_site_symmetry_multiplicity
 _atom_site_fract_x
 _atom_site_fract_y
 _atom_site_fract_z
 _atom_site_occupancy
  Tl  Tl0  1  0.061567  0.061567  0.815300  1
  Tl  Tl1  1  0.098419  0.566381  0.022975  1
  Tl  Tl2  1  0.598419  0.812226  0.522975  1
  Tl  Tl3  1  0.061567  0.815300  0.061567  1
  Tl  Tl4  1  0.815300  0.061567  0.061567  1
  Tl  Tl5  1  0.098419  0.312226  0.566381  1
  Tl  Tl6  1  0.561567  0.561567  0.561567  1
  Tl  Tl7  1  0.561567  0.315300  0.561567  1
  Tl  Tl8  1  0.312226  0.098419  0.022975  1
  Tl  Tl9  1  0.312226  0.022975  0.566381  1
  Tl  Tl10  1  0.066381  0.598419  0.522975  1
  Tl  Tl11  1  0.522975  0.066381  0.598419  1
  Tl  Tl12  1  0.566381  0.022975  0.098419  1
  Tl  Tl13  1  0.812226  0.522975  0.598419  1
  Tl  Tl14  1  0.566381  0.098419  0.312226  1
  Tl  Tl15  1  0.561567  0.561567  0.315300  1
  Tl  Tl16  1  0.315300  0.561567  0.561567  1
  Tl  Tl17  1  0.522975  0.812226  0.066381  1
  Tl  Tl18  1  0.022975  0.098419  0.566381  1
  Tl  Tl19  1  0.522975  0.598419  0.812226  1
  Tl  Tl20  1  0.022975  0.566381  0.312226  1
  Tl  Tl21  1  0.066381  0.522975  0.812226  1
  Tl  Tl22  1  0.812226  0.066381  0.522975  1
  Tl  Tl23  1  0.812226  0.598419  0.066381  1
  Tl  Tl24  1  0.566381  0.312226  0.022975  1
  Tl  Tl25  1  0.061567  0.061567  0.061567  1
  Tl  Tl26  1  0.066381  0.812226  0.598419  1
  Tl  Tl27  1  0.022975  0.312226  0.098419  1
  Tl  Tl28  1  0.312226  0.566381  0.098419  1
  Tl  Tl29  1  0.598419  0.066381  0.812226  1
  Tl  Tl30  1  0.098419  0.022975  0.312226  1
  Tl  Tl31  1  0.598419  0.522975  0.066381  1
  Zn  Zn32  1  0.371239  0.371239  0.886284  1
  Zn  Zn33  1  0.886284  0.371239  0.371239  1
  Zn  Zn34  1  0.371239  0.371239  0.371239  1
  Zn  Zn35  1  0.871239  0.386284  0.871239  1
  Zn  Zn36  1  0.250000  0.250000  0.250000  1
  Zn  Zn37  1  0.871239  0.871239  0.386284  1
  Zn  Zn38  1  0.250000  0.750000  0.250000  1
  Zn  Zn39  1  0.371239  0.886284  0.371239  1
  Zn  Zn40  1  0.750000  0.750000  0.250000  1
  Zn  Zn41  1  0.750000  0.250000  0.750000  1
  Zn  Zn42  1  0.750000  0.750000  0.750000  1
  Zn  Zn43  1  0.750000  0.250000  0.250000  1
  Zn  Zn44  1  0.386284  0.871239  0.871239  1
  Zn  Zn45  1  0.871239  0.871239  0.871239  1
  Zn  Zn46  1  0.250000  0.750000  0.750000  1
  Zn  Zn47  1  0.250000  0.250000  0.750000  1
  C  C48  1  0.443450  0.385759  0.235414  1
  C  C49  1  0.935377  0.385759  0.443450  1
  C  C50  1  0.735414  0.885759  0.943450  1
  C  C51  1  0.735414  0.435377  0.885759  1
  C  C52  1  0.711457  0.170271  0.882611  1
  C  C53  1  0.235662  0.711457  0.882611  1
  C  C54  1  0.385759  0.935377  0.235414  1
  C  C55  1  0.387581  0.204140  0.204140  1
  C  C56  1  0.943450  0.735414  0.885759  1
  C  C57  1  0.885759  0.943450  0.735414  1
  C  C58  1  0.235662  0.170271  0.711457  1
  C  C59  1  0.435377  0.943450  0.885759  1
  C  C60  1  0.885759  0.735414  0.435377  1
  C  C61  1  0.670271  0.735662  0.211457  1
  C  C62  1  0.235662  0.882611  0.170271  1
  C  C63  1  0.235414  0.385759  0.935377  1
  C  C64  1  0.943450  0.885759  0.435377  1
  C  C65  1  0.711457  0.235662  0.170271  1
  C  C66  1  0.735662  0.211457  0.670271  1
  C  C67  1  0.418130  0.745609  0.418130  1
  C  C68  1  0.918130  0.918130  0.918130  1
  C  C69  1  0.204140  0.204140  0.387581  1
  C  C70  1  0.704140  0.704140  0.704140  1
  C  C71  1  0.887581  0.704140  0.704140  1
  C  C72  1  0.170271  0.882611  0.711457  1
  C  C73  1  0.211457  0.735662  0.382611  1
  C  C74  1  0.382611  0.211457  0.735662  1
  C  C75  1  0.211457  0.670271  0.735662  1
  C  C76  1  0.435377  0.885759  0.735414  1
  C  C77  1  0.704140  0.887581  0.704140  1
  C  C78  1  0.385759  0.443450  0.935377  1
  C  C79  1  0.170271  0.711457  0.235662  1
  C  C80  1  0.382611  0.735662  0.670271  1
  C  C81  1  0.385759  0.235414  0.443450  1
  C  C82  1  0.418130  0.418130  0.418130  1
  C  C83  1  0.670271  0.211457  0.382611  1
  C  C84  1  0.735662  0.382611  0.211457  1
  C  C85  1  0.670271  0.382611  0.735662  1
  C  C86  1  0.735414  0.943450  0.435377  1
  C  C87  1  0.211457  0.382611  0.670271  1
  C  C88  1  0.882611  0.711457  0.170271  1
  C  C89  1  0.204140  0.204140  0.204140  1
  C  C90  1  0.170271  0.235662  0.882611  1
  C  C91  1  0.918130  0.918130  0.245609  1
  C  C92  1  0.235414  0.935377  0.443450  1
  C  C93  1  0.204140  0.387581  0.204140  1
  C  C94  1  0.745609  0.418130  0.418130  1
  C  C95  1  0.885759  0.435377  0.943450  1
  C  C96  1  0.418130  0.418130  0.745609  1
  C  C97  1  0.443450  0.235414  0.935377  1
  C  C98  1  0.882611  0.170271  0.235662  1
  C  C99  1  0.443450  0.935377  0.385759  1
  C  C100  1  0.711457  0.882611  0.235662  1
  C  C101  1  0.943450  0.435377  0.735414  1
  C  C102  1  0.704140  0.704140  0.887581  1
  C  C103  1  0.935377  0.235414  0.385759  1
  C  C104  1  0.245609  0.918130  0.918130  1
  C  C105  1  0.235414  0.443450  0.385759  1
  C  C106  1  0.382611  0.670271  0.211457  1
  C  C107  1  0.935377  0.443450  0.235414  1
  C  C108  1  0.918130  0.245609  0.918130  1
  C  C109  1  0.735662  0.670271  0.382611  1
  C  C110  1  0.882611  0.235662  0.711457  1
  C  C111  1  0.435377  0.735414  0.943450  1
  N  N112  1  0.445103  0.445103  0.664690  1
  N  N113  1  0.960058  0.225359  0.690853  1
  N  N114  1  0.962215  0.402333  0.479956  1
  N  N115  1  0.177168  0.177168  0.468497  1
  N  N116  1  0.960058  0.123730  0.225359  1
  N  N117  1  0.968497  0.677168  0.677168  1
  N  N118  1  0.177168  0.177168  0.177168  1
  N  N119  1  0.123730  0.225359  0.960058  1
  N  N120  1  0.623730  0.460058  0.725359  1
  N  N121  1  0.445103  0.445103  0.445103  1
  N  N122  1  0.445103  0.664690  0.445103  1
  N  N123  1  0.945103  0.945103  0.945103  1
  N  N124  1  0.462215  0.655497  0.979956  1
  N  N125  1  0.123730  0.690853  0.225359  1
  N  N126  1  0.225359  0.690853  0.960058  1
  N  N127  1  0.677168  0.677168  0.968497  1
  N  N128  1  0.402333  0.962215  0.155497  1
  N  N129  1  0.479956  0.962215  0.402333  1
  N  N130  1  0.945103  0.164690  0.945103  1
  N  N131  1  0.690853  0.123730  0.960058  1
  N  N132  1  0.655497  0.462215  0.902333  1
  N  N133  1  0.177168  0.468497  0.177168  1
  N  N134  1  0.460058  0.725359  0.623730  1
  N  N135  1  0.979956  0.462215  0.655497  1
  N  N136  1  0.479956  0.155497  0.962215  1
  N  N137  1  0.677168  0.968497  0.677168  1
  N  N138  1  0.690853  0.960058  0.225359  1
  N  N139  1  0.725359  0.460058  0.190853  1
  N  N140  1  0.190853  0.460058  0.623730  1
  N  N141  1  0.460058  0.623730  0.190853  1
  N  N142  1  0.225359  0.123730  0.690853  1
  N  N143  1  0.164690  0.945103  0.945103  1
  N  N144  1  0.623730  0.190853  0.460058  1
  N  N145  1  0.677168  0.677168  0.677168  1
  N  N146  1  0.402333  0.155497  0.479956  1
  N  N147  1  0.462215  0.979956  0.902333  1
  N  N148  1  0.460058  0.190853  0.725359  1
  N  N149  1  0.462215  0.902333  0.655497  1
  N  N150  1  0.155497  0.962215  0.479956  1
  N  N151  1  0.962215  0.155497  0.402333  1
  N  N152  1  0.190853  0.725359  0.460058  1
  N  N153  1  0.402333  0.479956  0.962215  1
  N  N154  1  0.155497  0.402333  0.962215  1
  N  N155  1  0.655497  0.902333  0.979956  1
  N  N156  1  0.902333  0.462215  0.979956  1
  N  N157  1  0.225359  0.960058  0.123730  1
  N  N158  1  0.979956  0.655497  0.902333  1
  N  N159  1  0.979956  0.902333  0.462215  1
  N  N160  1  0.960058  0.690853  0.123730  1
  N  N161  1  0.479956  0.402333  0.155497  1
  N  N162  1  0.902333  0.979956  0.655497  1
  N  N163  1  0.468497  0.177168  0.177168  1
  N  N164  1  0.655497  0.979956  0.462215  1
  N  N165  1  0.690853  0.225359  0.123730  1
  N  N166  1  0.902333  0.655497  0.462215  1
  N  N167  1  0.945103  0.945103  0.164690  1
  N  N168  1  0.190853  0.623730  0.725359  1
  N  N169  1  0.664690  0.445103  0.445103  1
  N  N170  1  0.155497  0.479956  0.402333  1
  N  N171  1  0.962215  0.479956  0.155497  1
  N  N172  1  0.725359  0.623730  0.460058  1
  N  N173  1  0.123730  0.960058  0.690853  1
  N  N174  1  0.725359  0.190853  0.623730  1
  N  N175  1  0.623730  0.725359  0.190853  1
