# generated using pymatgen
data_Fe3C9S2O9
_symmetry_space_group_name_H-M   'P 1'
_cell_length_a   6.88624522
_cell_length_b   9.21092508
_cell_length_c   13.18122574
_cell_angle_alpha   93.98866698
_cell_angle_beta   94.12941784
_cell_angle_gamma   111.17748034
_symmetry_Int_Tables_number   1
_chemical_formula_structural   Fe3C9S2O9
_chemical_formula_sum   'Fe6 C18 S4 O18'
_cell_volume   773.46431907
_cell_formula_units_Z   2
loop_
 _symmetry_equiv_pos_site_id
 _symmetry_equiv_pos_as_xyz
  1  'x, y, z'
loop_
 _atom_site_type_symbol
 _atom_site_label
 _atom_site_symmetry_multiplicity
 _atom_site_fract_x
 _atom_site_fract_y
 _atom_site_fract_z
 _atom_site_occupancy
  Fe  Fe0  1  0.286155  0.197256  0.339594  1
  Fe  Fe1  1  0.713845  0.802744  0.660406  1
  Fe  Fe2  1  0.582332  0.737176  0.839939  1
  Fe  Fe3  1  0.131155  0.914942  0.241861  1
  Fe  Fe4  1  0.417668  0.262824  0.160061  1
  Fe  Fe5  1  0.868845  0.085058  0.758139  1
  C  C6  1  0.718060  0.910682  0.553318  1
  C  C7  1  0.281940  0.089318  0.446682  1
  C  C8  1  0.106811  0.811766  0.119588  1
  C  C9  1  0.646931  0.569841  0.873496  1
  C  C10  1  0.353069  0.430159  0.126504  1
  C  C11  1  0.143415  0.172207  0.735691  1
  C  C12  1  0.856585  0.827793  0.264309  1
  C  C13  1  0.907174  0.726242  0.619143  1
  C  C14  1  0.301951  0.622023  0.823683  1
  C  C15  1  0.203517  0.777137  0.315670  1
  C  C16  1  0.594736  0.824362  0.965942  1
  C  C17  1  0.698049  0.377977  0.176317  1
  C  C18  1  0.796483  0.222863  0.684330  1
  C  C19  1  0.495418  0.626906  0.619695  1
  C  C20  1  0.405264  0.175638  0.034058  1
  C  C21  1  0.504582  0.373094  0.380305  1
  C  C22  1  0.893189  0.188234  0.880412  1
  C  C23  1  0.092826  0.273758  0.380857  1
  S  S24  1  0.472606  0.077524  0.250637  1
  S  S25  1  0.527394  0.922476  0.749363  1
  S  S26  1  0.916682  0.873541  0.813638  1
  S  S27  1  0.083318  0.126459  0.186362  1
  O  O28  1  0.086964  0.749880  0.037859  1
  O  O29  1  0.683405  0.463027  0.896962  1
  O  O30  1  0.248901  0.685997  0.357296  1
  O  O31  1  0.318353  0.231689  0.724346  1
  O  O32  1  0.284005  0.025559  0.519704  1
  O  O33  1  0.969232  0.321468  0.407962  1
  O  O34  1  0.875764  0.450762  0.185594  1
  O  O35  1  0.316595  0.536973  0.103038  1
  O  O36  1  0.609402  0.883860  0.047920  1
  O  O37  1  0.124236  0.549238  0.814406  1
  O  O38  1  0.913036  0.250120  0.962141  1
  O  O39  1  0.390598  0.116140  0.952080  1
  O  O40  1  0.644550  0.486757  0.412110  1
  O  O41  1  0.681647  0.768311  0.275654  1
  O  O42  1  0.751099  0.314003  0.642704  1
  O  O43  1  0.355450  0.513243  0.587890  1
  O  O44  1  0.030769  0.678532  0.592038  1
  O  O45  1  0.715995  0.974441  0.480296  1
