# generated using pymatgen
data_Ta24Ti5Se48
_symmetry_space_group_name_H-M   'P 1'
_cell_length_a   21.06184283
_cell_length_b   12.16006088
_cell_length_c   14.79083996
_cell_angle_alpha   65.72809897
_cell_angle_beta   61.66280648
_cell_angle_gamma   29.99999834
_symmetry_Int_Tables_number   1
_chemical_formula_structural   Ta24Ti5Se48
_chemical_formula_sum   'Ta24 Ti5 Se48'
_cell_volume   1667.09830560
_cell_formula_units_Z   1
loop_
 _symmetry_equiv_pos_site_id
 _symmetry_equiv_pos_as_xyz
  1  'x, y, z'
loop_
 _atom_site_type_symbol
 _atom_site_label
 _atom_site_symmetry_multiplicity
 _atom_site_fract_x
 _atom_site_fract_y
 _atom_site_fract_z
 _atom_site_occupancy
  Ta  Ta0  1  0.074115  0.003145  0.251421  1
  Ta  Ta1  1  0.174872  0.000000  0.475385  1
  Ta  Ta2  1  0.077260  0.519944  0.251421  1
  Ta  Ta3  1  0.426248  0.992366  0.249783  1
  Ta  Ta4  1  0.249742  0.505657  0.249567  1
  Ta  Ta5  1  0.094643  0.479109  0.750217  1
  Ta  Ta6  1  0.584123  0.000000  0.247630  1
  Ta  Ta7  1  0.254707  0.495552  0.750433  1
  Ta  Ta8  1  0.418613  0.486743  0.249783  1
  Ta  Ta9  1  0.037372  0.000000  0.887883  1
  Ta  Ta10  1  0.755399  0.989895  0.249567  1
  Ta  Ta11  1  0.597203  0.476912  0.251421  1
  Ta  Ta12  1  0.402797  0.523088  0.748579  1
  Ta  Ta13  1  0.244601  0.010105  0.750433  1
  Ta  Ta14  1  0.962628  0.000000  0.112117  1
  Ta  Ta15  1  0.581387  0.513257  0.750217  1
  Ta  Ta16  1  0.745293  0.504448  0.249567  1
  Ta  Ta17  1  0.415877  0.000000  0.752370  1
  Ta  Ta18  1  0.905357  0.520891  0.249783  1
  Ta  Ta19  1  0.750258  0.494343  0.750433  1
  Ta  Ta20  1  0.573752  0.007634  0.750217  1
  Ta  Ta21  1  0.922740  0.480056  0.748579  1
  Ta  Ta22  1  0.825128  0.000000  0.524615  1
  Ta  Ta23  1  0.925885  0.996855  0.748579  1
  Ti  Ti24  1  0.326669  0.000000  0.019992  1
  Ti  Ti25  1  0.102443  0.000000  0.692673  1
  Ti  Ti26  1  0.673331  0.000000  0.980008  1
  Ti  Ti27  1  0.500000  0.000000  0.500000  1
  Ti  Ti28  1  0.897557  0.000000  0.307327  1
  Se  Se29  1  0.209154  0.328708  0.881746  1
  Se  Se30  1  0.949613  0.357854  0.605380  1
  Se  Se31  1  0.961600  0.207137  0.103154  1
  Se  Se32  1  0.207828  0.177078  0.376865  1
  Se  Se33  1  0.377449  0.331427  0.876992  1
  Se  Se34  1  0.123451  0.336938  0.621686  1
  Se  Se35  1  0.372984  0.172636  0.377486  1
  Se  Se36  1  0.119343  0.173836  0.129487  1
  Se  Se37  1  0.233491  0.804908  0.896846  1
  Se  Se38  1  0.969599  0.822573  0.623135  1
  Se  Se39  1  0.542009  0.338648  0.870513  1
  Se  Se40  1  0.296090  0.330926  0.622514  1
  Se  Se41  1  0.205526  0.671024  0.378314  1
  Se  Se42  1  0.963318  0.659234  0.123008  1
  Se  Se43  1  0.371239  0.837915  0.881746  1
  Se  Se44  1  0.137540  0.812073  0.605380  1
  Se  Se45  1  0.545620  0.158290  0.377486  1
  Se  Se46  1  0.293179  0.164811  0.129487  1
  Se  Se47  1  0.708876  0.327806  0.876992  1
  Se  Se48  1  0.460390  0.334085  0.621686  1
  Se  Se49  1  0.384906  0.645495  0.376865  1
  Se  Se50  1  0.168737  0.597771  0.103154  1
  Se  Se51  1  0.692533  0.169927  0.394620  1
  Se  Se52  1  0.462138  0.166623  0.118254  1
  Se  Se53  1  0.537862  0.833377  0.881746  1
  Se  Se54  1  0.307467  0.830073  0.605380  1
  Se  Se55  1  0.831263  0.402229  0.896846  1
  Se  Se56  1  0.615094  0.354505  0.623135  1
  Se  Se57  1  0.539610  0.665915  0.378314  1
  Se  Se58  1  0.291124  0.672194  0.123008  1
  Se  Se59  1  0.454380  0.841710  0.622514  1
  Se  Se60  1  0.706821  0.835189  0.870513  1
  Se  Se61  1  0.628761  0.162085  0.118254  1
  Se  Se62  1  0.862460  0.187927  0.394620  1
  Se  Se63  1  0.036682  0.340766  0.876992  1
  Se  Se64  1  0.794474  0.328976  0.621686  1
  Se  Se65  1  0.703910  0.669074  0.377486  1
  Se  Se66  1  0.457991  0.661352  0.129487  1
  Se  Se67  1  0.766509  0.195092  0.103154  1
  Se  Se68  1  0.030401  0.177427  0.376865  1
  Se  Se69  1  0.880657  0.826164  0.870513  1
  Se  Se70  1  0.627016  0.827364  0.622514  1
  Se  Se71  1  0.876549  0.663062  0.378314  1
  Se  Se72  1  0.622551  0.668573  0.123008  1
  Se  Se73  1  0.038400  0.792863  0.896846  1
  Se  Se74  1  0.792172  0.822922  0.623135  1
  Se  Se75  1  0.790846  0.671292  0.118254  1
  Se  Se76  1  0.050387  0.642146  0.394620  1
