# generated using pymatgen
data_C28Cl5
_symmetry_space_group_name_H-M   'P 1'
_cell_length_a   11.60310729
_cell_length_b   11.60310749
_cell_length_c   13.94963845
_cell_angle_alpha   90.00000000
_cell_angle_beta   90.00000000
_cell_angle_gamma   108.83994715
_symmetry_Int_Tables_number   1
_chemical_formula_structural   C28Cl5
_chemical_formula_sum   'C112 Cl20'
_cell_volume   1777.45034692
_cell_formula_units_Z   4
loop_
 _symmetry_equiv_pos_site_id
 _symmetry_equiv_pos_as_xyz
  1  'x, y, z'
loop_
 _atom_site_type_symbol
 _atom_site_label
 _atom_site_symmetry_multiplicity
 _atom_site_fract_x
 _atom_site_fract_y
 _atom_site_fract_z
 _atom_site_occupancy
  C  C0  1  0.062973  0.190188  0.567912  1
  C  C1  1  0.190188  0.062973  0.932088  1
  C  C2  1  0.733947  0.458019  0.301609  1
  C  C3  1  0.731838  0.605934  0.463694  1
  C  C4  1  0.541981  0.266053  0.698391  1
  C  C5  1  0.039462  0.677306  0.143614  1
  C  C6  1  0.605934  0.731838  0.463694  1
  C  C7  1  0.379770  0.530729  0.833890  1
  C  C8  1  0.046737  0.427012  0.700507  1
  C  C9  1  0.480723  0.157921  0.850889  1
  C  C10  1  0.937027  0.809812  0.067912  1
  C  C11  1  0.733947  0.458019  0.198391  1
  C  C12  1  0.427012  0.046737  0.700507  1
  C  C13  1  0.958611  0.958611  0.198500  1
  C  C14  1  0.206804  0.946163  0.700741  1
  C  C15  1  0.605934  0.731838  0.036306  1
  C  C16  1  0.000785  0.129753  0.650153  1
  C  C17  1  0.129753  0.000785  0.650153  1
  C  C18  1  0.960538  0.322694  0.643614  1
  C  C19  1  0.266053  0.541981  0.698391  1
  C  C20  1  0.167665  0.167665  0.966230  1
  C  C21  1  0.590363  0.839571  0.065423  1
  C  C22  1  0.689966  0.960327  0.052563  1
  C  C23  1  0.999215  0.870247  0.150153  1
  C  C24  1  0.039462  0.677306  0.356386  1
  C  C25  1  0.268162  0.394066  0.963694  1
  C  C26  1  0.544560  0.621350  0.086824  1
  C  C27  1  0.839571  0.590363  0.434577  1
  C  C28  1  0.946163  0.206804  0.799259  1
  C  C29  1  0.677306  0.039462  0.143614  1
  C  C30  1  0.394066  0.268162  0.963694  1
  C  C31  1  0.167665  0.167665  0.533770  1
  C  C32  1  0.266053  0.541981  0.801609  1
  C  C33  1  0.960538  0.322694  0.856386  1
  C  C34  1  0.129753  0.000785  0.849847  1
  C  C35  1  0.842079  0.519277  0.149111  1
  C  C36  1  0.937027  0.809812  0.432088  1
  C  C37  1  0.525911  0.451847  0.750000  1
  C  C38  1  0.000785  0.129753  0.849847  1
  C  C39  1  0.206804  0.946163  0.799259  1
  C  C40  1  0.731838  0.605934  0.036306  1
  C  C41  1  0.480723  0.157921  0.649111  1
  C  C42  1  0.046737  0.427012  0.799493  1
  C  C43  1  0.053837  0.793196  0.200741  1
  C  C44  1  0.519277  0.842079  0.350889  1
  C  C45  1  0.053837  0.793196  0.299259  1
  C  C46  1  0.541981  0.266053  0.801609  1
  C  C47  1  0.960327  0.689966  0.447437  1
  C  C48  1  0.870247  0.999215  0.349847  1
  C  C49  1  0.190188  0.062973  0.567912  1
  C  C50  1  0.842079  0.519277  0.350889  1
  C  C51  1  0.160429  0.409637  0.934577  1
  C  C52  1  0.322694  0.960538  0.643614  1
  C  C53  1  0.832335  0.832335  0.033770  1
  C  C54  1  0.455440  0.378650  0.913176  1
  C  C55  1  0.809812  0.937027  0.067912  1
  C  C56  1  0.953263  0.572988  0.200507  1
  C  C57  1  0.273941  0.273941  0.493816  1
  C  C58  1  0.160429  0.409637  0.565423  1
  C  C59  1  0.839571  0.590363  0.065423  1
  C  C60  1  0.041389  0.041389  0.698500  1
  C  C61  1  0.572988  0.953263  0.299493  1
  C  C62  1  0.953263  0.572988  0.299493  1
  C  C63  1  0.621350  0.544560  0.413176  1
  C  C64  1  0.474089  0.548153  0.250000  1
  C  C65  1  0.999215  0.870247  0.349847  1
  C  C66  1  0.590363  0.839571  0.434577  1
  C  C67  1  0.379770  0.530729  0.666110  1
  C  C68  1  0.469271  0.620230  0.333890  1
  C  C69  1  0.960327  0.689966  0.052563  1
  C  C70  1  0.469271  0.620230  0.166110  1
  C  C71  1  0.572988  0.953263  0.200507  1
  C  C72  1  0.689966  0.960327  0.447437  1
  C  C73  1  0.548153  0.474089  0.250000  1
  C  C74  1  0.793196  0.053837  0.200741  1
  C  C75  1  0.620230  0.469271  0.333890  1
  C  C76  1  0.157921  0.480723  0.850889  1
  C  C77  1  0.544560  0.621350  0.413176  1
  C  C78  1  0.378650  0.455440  0.586824  1
  C  C79  1  0.793196  0.053837  0.299259  1
  C  C80  1  0.310034  0.039673  0.552563  1
  C  C81  1  0.832335  0.832335  0.466230  1
  C  C82  1  0.621350  0.544560  0.086824  1
  C  C83  1  0.946163  0.206804  0.700741  1
  C  C84  1  0.620230  0.469271  0.166110  1
  C  C85  1  0.726059  0.726059  0.993816  1
  C  C86  1  0.039673  0.310034  0.947437  1
  C  C87  1  0.039673  0.310034  0.552563  1
  C  C88  1  0.726059  0.726059  0.506184  1
  C  C89  1  0.519277  0.842079  0.149111  1
  C  C90  1  0.958611  0.958611  0.301500  1
  C  C91  1  0.409637  0.160429  0.934577  1
  C  C92  1  0.268162  0.394066  0.536306  1
  C  C93  1  0.310034  0.039673  0.947437  1
  C  C94  1  0.378650  0.455440  0.913176  1
  C  C95  1  0.157921  0.480723  0.649111  1
  C  C96  1  0.458019  0.733947  0.301609  1
  C  C97  1  0.062973  0.190188  0.932088  1
  C  C98  1  0.870247  0.999215  0.150153  1
  C  C99  1  0.530729  0.379770  0.833890  1
  C  C100  1  0.530729  0.379770  0.666110  1
  C  C101  1  0.409637  0.160429  0.565423  1
  C  C102  1  0.273941  0.273941  0.006184  1
  C  C103  1  0.451847  0.525911  0.750000  1
  C  C104  1  0.041389  0.041389  0.801500  1
  C  C105  1  0.394066  0.268162  0.536306  1
  C  C106  1  0.427012  0.046737  0.799493  1
  C  C107  1  0.455440  0.378650  0.586824  1
  C  C108  1  0.322694  0.960538  0.856386  1
  C  C109  1  0.458019  0.733947  0.198391  1
  C  C110  1  0.809812  0.937027  0.432088  1
  C  C111  1  0.677306  0.039462  0.356386  1
  Cl  Cl112  1  0.971791  0.315052  0.437930  1
  Cl  Cl113  1  0.347931  0.819951  0.883000  1
  Cl  Cl114  1  0.684948  0.028209  0.937930  1
  Cl  Cl115  1  0.652069  0.180049  0.117000  1
  Cl  Cl116  1  0.819951  0.347931  0.883000  1
  Cl  Cl117  1  0.971791  0.315052  0.062070  1
  Cl  Cl118  1  0.180049  0.652069  0.117000  1
  Cl  Cl119  1  0.274503  0.274503  0.363405  1
  Cl  Cl120  1  0.684948  0.028209  0.562070  1
  Cl  Cl121  1  0.347931  0.819951  0.617000  1
  Cl  Cl122  1  0.819951  0.347931  0.617000  1
  Cl  Cl123  1  0.725497  0.725497  0.863405  1
  Cl  Cl124  1  0.315052  0.971791  0.437930  1
  Cl  Cl125  1  0.028209  0.684948  0.937930  1
  Cl  Cl126  1  0.652069  0.180049  0.383000  1
  Cl  Cl127  1  0.180049  0.652069  0.383000  1
  Cl  Cl128  1  0.028209  0.684948  0.562070  1
  Cl  Cl129  1  0.725497  0.725497  0.636595  1
  Cl  Cl130  1  0.315052  0.971791  0.062070  1
  Cl  Cl131  1  0.274503  0.274503  0.136595  1
