# generated using pymatgen
data_LiAlSiH2O5
_symmetry_space_group_name_H-M   'P 1'
_cell_length_a   4.98654934
_cell_length_b   8.42732425
_cell_length_c   11.90981814
_cell_angle_alpha   90.00000000
_cell_angle_beta   90.00000000
_cell_angle_gamma   90.00000000
_symmetry_Int_Tables_number   1
_chemical_formula_structural   LiAlSiH2O5
_chemical_formula_sum   'Li4 Al4 Si4 H8 O20'
_cell_volume   500.48948163
_cell_formula_units_Z   4
loop_
 _symmetry_equiv_pos_site_id
 _symmetry_equiv_pos_as_xyz
  1  'x, y, z'
loop_
 _atom_site_type_symbol
 _atom_site_label
 _atom_site_symmetry_multiplicity
 _atom_site_fract_x
 _atom_site_fract_y
 _atom_site_fract_z
 _atom_site_occupancy
  Li  Li0  1  -0.069686  0.969650  0.613624  1
  Li  Li1  1  -0.069686  0.530350  0.113624  1
  Li  Li2  1  0.430314  0.030350  0.386376  1
  Li  Li3  1  0.430314  0.469650  0.886376  1
  Al  Al4  1  0.447230  0.690829  0.264259  1
  Al  Al5  1  -0.052770  0.190829  0.235741  1
  Al  Al6  1  0.447230  0.809171  0.764259  1
  Al  Al7  1  -0.052770  0.309171  0.735741  1
  Si  Si8  1  0.857632  0.664075  0.713723  1
  Si  Si9  1  0.357632  0.335925  0.286277  1
  Si  Si10  1  0.357632  0.164075  0.786277  1
  Si  Si11  1  0.857632  0.835925  0.213723  1
  H  H12  1  0.231895  0.796249  0.500606  1
  H  H13  1  0.465063  0.155091  0.562763  1
  H  H14  1  0.965063  0.844909  0.437237  1
  H  H15  1  0.731895  0.296249  -0.000606  1
  H  H16  1  0.731895  0.203751  0.499394  1
  H  H17  1  0.465063  0.344909  0.062763  1
  H  H18  1  0.965063  0.655091  0.937237  1
  H  H19  1  0.231895  0.703751  0.000606  1
  O  O20  1  0.653552  0.718594  0.140382  1
  O  O21  1  0.159330  0.343994  0.170375  1
  O  O22  1  0.659330  0.656006  0.829625  1
  O  O23  1  0.653552  0.781406  0.640382  1
  O  O24  1  0.127331  0.612730  0.975482  1
  O  O25  1  0.615278  0.277931  0.766790  1
  O  O26  1  0.115278  0.777931  0.733210  1
  O  O27  1  0.153552  0.218594  0.359618  1
  O  O28  1  0.452274  0.507030  0.330833  1
  O  O29  1  0.153552  0.281406  0.859618  1
  O  O30  1  0.452274  -0.007030  0.830833  1
  O  O31  1  0.115278  0.722069  0.233210  1
  O  O32  1  -0.047726  0.007030  0.169167  1
  O  O33  1  0.627331  0.112730  0.524518  1
  O  O34  1  0.659330  0.843994  0.329625  1
  O  O35  1  0.615278  0.222069  0.266790  1
  O  O36  1  0.159330  0.156006  0.670375  1
  O  O37  1  0.127331  0.887270  0.475482  1
  O  O38  1  0.627331  0.387270  0.024518  1
  O  O39  1  -0.047726  0.492970  0.669167  1
