# generated using pymatgen
data_K6Cd4Sn3Se13
_symmetry_space_group_name_H-M   'P 1'
_cell_length_a   10.34080356
_cell_length_b   10.34080356
_cell_length_c   10.34080356
_cell_angle_alpha   94.97985352
_cell_angle_beta   94.97985352
_cell_angle_gamma   94.97985352
_symmetry_Int_Tables_number   1
_chemical_formula_structural   K6Cd4Sn3Se13
_chemical_formula_sum   'K6 Cd4 Sn3 Se13'
_cell_volume   1092.46356393
_cell_formula_units_Z   1
loop_
 _symmetry_equiv_pos_site_id
 _symmetry_equiv_pos_as_xyz
  1  'x, y, z'
loop_
 _atom_site_type_symbol
 _atom_site_label
 _atom_site_symmetry_multiplicity
 _atom_site_fract_x
 _atom_site_fract_y
 _atom_site_fract_z
 _atom_site_occupancy
  K  K0  1  0.367078  0.794606  0.367078  1
  K  K1  1  0.794606  0.367078  0.367078  1
  K  K2  1  0.367078  0.367078  0.794606  1
  K  K3  1  0.998493  0.998493  0.578581  1
  K  K4  1  0.998493  0.578581  0.998493  1
  K  K5  1  0.578581  0.998493  0.998493  1
  Se  Se6  1  0.683095  0.972538  0.390557  1
  Se  Se7  1  0.690074  0.690074  0.690074  1
  Se  Se8  1  0.568237  0.279101  0.568237  1
  Se  Se9  1  0.568237  0.568237  0.279101  1
  Se  Se10  1  0.279101  0.568237  0.568237  1
  Se  Se11  1  0.810893  0.810893  0.069709  1
  Se  Se12  1  0.069709  0.810893  0.810893  1
  Se  Se13  1  0.810893  0.069709  0.810893  1
  Se  Se14  1  0.683095  0.390557  0.972538  1
  Se  Se15  1  0.972538  0.683095  0.390557  1
  Se  Se16  1  0.390557  0.972538  0.683095  1
  Se  Se17  1  0.390557  0.683095  0.972538  1
  Se  Se18  1  0.972538  0.390557  0.683095  1
  Cd  Cd19  1  0.528591  0.528591  0.528591  1
  Cd  Cd20  1  0.635958  0.635958  0.932499  1
  Cd  Cd21  1  0.932499  0.635958  0.635958  1
  Cd  Cd22  1  0.635958  0.932499  0.635958  1
  Sn  Sn23  1  0.754165  0.294371  0.754165  1
  Sn  Sn24  1  0.754165  0.754165  0.294371  1
  Sn  Sn25  1  0.294371  0.754165  0.754165  1
