# generated using pymatgen
data_Ba2Tm(CuO2)4
_symmetry_space_group_name_H-M   'P 1'
_cell_length_a   3.86529732
_cell_length_b   3.88695816
_cell_length_c   13.86982072
_cell_angle_alpha   98.05495626
_cell_angle_beta   90.00000000
_cell_angle_gamma   90.00000000
_symmetry_Int_Tables_number   1
_chemical_formula_structural   Ba2Tm(CuO2)4
_chemical_formula_sum   'Ba2 Tm1 Cu4 O8'
_cell_volume   206.32775217
_cell_formula_units_Z   1
loop_
 _symmetry_equiv_pos_site_id
 _symmetry_equiv_pos_as_xyz
  1  'x, y, z'
loop_
 _atom_site_type_symbol
 _atom_site_label
 _atom_site_symmetry_multiplicity
 _atom_site_fract_x
 _atom_site_fract_y
 _atom_site_fract_z
 _atom_site_occupancy
  O  O0  1  0.000000  0.281538  0.563075  1
  O  O1  1  0.000000  0.718462  0.436925  1
  O  O2  1  0.000000  0.449342  0.898685  1
  O  O3  1  0.000000  0.550658  0.101315  1
  O  O4  1  0.500000  0.949308  0.898616  1
  O  O5  1  0.500000  0.050692  0.101384  1
  O  O6  1  0.000000  0.854878  0.709757  1
  O  O7  1  0.000000  0.145121  0.290243  1
  Cu  Cu8  1  0.000000  0.939885  0.879769  1
  Cu  Cu9  1  0.000000  0.060115  0.120231  1
  Cu  Cu10  1  0.000000  0.787453  0.574905  1
  Cu  Cu11  1  0.000000  0.212547  0.425095  1
  Ba  Ba12  1  0.500000  0.364772  0.729544  1
  Ba  Ba13  1  0.500000  0.635228  0.270456  1
  Tm  Tm14  1  0.500000  0.500000  0.000000  1
