# generated using pymatgen
data_CsMoP2O7
_symmetry_space_group_name_H-M   'P 1'
_cell_length_a   7.87831025
_cell_length_b   8.67588361
_cell_length_c   10.61114138
_cell_angle_alpha   90.00000000
_cell_angle_beta   90.00000000
_cell_angle_gamma   105.08222127
_symmetry_Int_Tables_number   1
_chemical_formula_structural   CsMoP2O7
_chemical_formula_sum   'Cs4 Mo4 P8 O28'
_cell_volume   700.30173649
_cell_formula_units_Z   4
loop_
 _symmetry_equiv_pos_site_id
 _symmetry_equiv_pos_as_xyz
  1  'x, y, z'
loop_
 _atom_site_type_symbol
 _atom_site_label
 _atom_site_symmetry_multiplicity
 _atom_site_fract_x
 _atom_site_fract_y
 _atom_site_fract_z
 _atom_site_occupancy
  O  O0  1  0.315435  0.297519  0.058307  1
  O  O1  1  0.684565  0.202481  0.558307  1
  O  O2  1  0.684565  0.702481  0.941693  1
  O  O3  1  0.315435  0.797519  0.441693  1
  O  O4  1  0.008305  0.772198  0.993673  1
  O  O5  1  0.991695  0.727802  0.493673  1
  O  O6  1  0.991695  0.227802  0.006327  1
  O  O7  1  0.008305  0.272198  0.506327  1
  O  O8  1  0.440656  0.732382  0.230888  1
  O  O9  1  0.559344  0.767618  0.730888  1
  O  O10  1  0.559344  0.267618  0.769112  1
  O  O11  1  0.440656  0.232382  0.269112  1
  O  O12  1  0.145532  0.503934  0.090093  1
  O  O13  1  0.854468  0.996066  0.590093  1
  O  O14  1  0.854468  0.496066  0.909907  1
  O  O15  1  0.145532  0.003934  0.409907  1
  O  O16  1  0.083219  0.259131  0.232785  1
  O  O17  1  0.916781  0.240869  0.732785  1
  O  O18  1  0.916781  0.740869  0.767215  1
  O  O19  1  0.083219  0.759131  0.267215  1
  O  O20  1  0.324582  0.514650  0.397704  1
  O  O21  1  0.675418  0.985350  0.897704  1
  O  O22  1  0.675418  0.485350  0.602296  1
  O  O23  1  0.324582  0.014650  0.102296  1
  O  O24  1  0.390716  0.263718  0.570245  1
  O  O25  1  0.609284  0.236282  0.070245  1
  O  O26  1  0.609284  0.736282  0.429755  1
  O  O27  1  0.390716  0.763718  0.929755  1
  P  P28  1  0.425922  0.186228  0.128832  1
  P  P29  1  0.574078  0.313772  0.628832  1
  P  P30  1  0.574078  0.813772  0.871168  1
  P  P31  1  0.425922  0.686228  0.371168  1
  P  P32  1  0.126628  0.826700  0.401198  1
  P  P33  1  0.873372  0.673300  0.901198  1
  P  P34  1  0.873372  0.173300  0.598802  1
  P  P35  1  0.126628  0.326700  0.098802  1
  Mo  Mo36  1  0.239112  0.756868  0.101542  1
  Mo  Mo37  1  0.760888  0.743132  0.601542  1
  Mo  Mo38  1  0.760888  0.243132  0.898458  1
  Mo  Mo39  1  0.239112  0.256868  0.398458  1
  Cs  Cs40  1  0.196649  0.551265  0.691664  1
  Cs  Cs41  1  0.803351  0.948735  0.191664  1
  Cs  Cs42  1  0.803351  0.448735  0.308336  1
  Cs  Cs43  1  0.196649  0.051265  0.808336  1
