# generated using pymatgen
data_H5NO2
_symmetry_space_group_name_H-M   'P 1'
_cell_length_a   6.47818118
_cell_length_b   8.51324342
_cell_length_c   5.97857696
_cell_angle_alpha   90.00000000
_cell_angle_beta   114.25911597
_cell_angle_gamma   90.00000000
_symmetry_Int_Tables_number   1
_chemical_formula_structural   H5NO2
_chemical_formula_sum   'H20 N4 O8'
_cell_volume   300.60509794
_cell_formula_units_Z   4
loop_
 _symmetry_equiv_pos_site_id
 _symmetry_equiv_pos_as_xyz
  1  'x, y, z'
loop_
 _atom_site_type_symbol
 _atom_site_label
 _atom_site_symmetry_multiplicity
 _atom_site_fract_x
 _atom_site_fract_y
 _atom_site_fract_z
 _atom_site_occupancy
  H  H0  1  0.461329  0.756023  0.594566  1
  H  H1  1  0.576764  0.921089  0.677614  1
  H  H2  1  0.538671  0.256023  0.905434  1
  H  H3  1  0.423236  0.421089  0.822386  1
  H  H4  1  0.538671  0.243977  0.405434  1
  H  H5  1  0.423236  0.078911  0.322386  1
  H  H6  1  0.461329  0.743977  0.094566  1
  H  H7  1  0.576764  0.578911  0.177614  1
  H  H8  1  0.810743  0.807405  0.508543  1
  H  H9  1  0.020653  0.734079  0.472669  1
  H  H10  1  0.844312  0.986192  0.208590  1
  H  H11  1  0.979347  0.234079  0.027331  1
  H  H12  1  0.189257  0.307405  0.991457  1
  H  H13  1  0.155688  0.486192  0.291410  1
  H  H14  1  0.155688  0.013808  0.791410  1
  H  H15  1  0.189257  0.192595  0.491457  1
  H  H16  1  0.979347  0.265921  0.527331  1
  H  H17  1  0.844312  0.513808  0.708590  1
  H  H18  1  0.810743  0.692595  0.008543  1
  H  H19  1  0.020653  0.765921  0.972669  1
  N  N20  1  0.779298  0.435070  0.559965  1
  N  N21  1  0.220702  0.935070  0.940035  1
  N  N22  1  0.220702  0.564930  0.440035  1
  N  N23  1  0.779298  0.064930  0.059965  1
  O  O24  1  0.553835  0.835838  0.560151  1
  O  O25  1  0.446165  0.335838  0.939849  1
  O  O26  1  0.446165  0.164162  0.439849  1
  O  O27  1  0.553835  0.664162  0.060151  1
  O  O28  1  0.947647  0.833388  0.481637  1
  O  O29  1  0.052353  0.333388  0.018363  1
  O  O30  1  0.052353  0.166612  0.518363  1
  O  O31  1  0.947647  0.666612  0.981637  1
