# generated using pymatgen
data_SiO2
_symmetry_space_group_name_H-M   'P 1'
_cell_length_a   8.55015742
_cell_length_b   12.56760496
_cell_length_c   29.31916701
_cell_angle_alpha   90.00000000
_cell_angle_beta   90.00000000
_cell_angle_gamma   90.00000000
_symmetry_Int_Tables_number   1
_chemical_formula_structural   SiO2
_chemical_formula_sum   'Si56 O112'
_cell_volume   3150.49111453
_cell_formula_units_Z   56
loop_
 _symmetry_equiv_pos_site_id
 _symmetry_equiv_pos_as_xyz
  1  'x, y, z'
loop_
 _atom_site_type_symbol
 _atom_site_label
 _atom_site_symmetry_multiplicity
 _atom_site_fract_x
 _atom_site_fract_y
 _atom_site_fract_z
 _atom_site_occupancy
  Si  Si0  1  0.188960  0.722724  0.298813  1
  Si  Si1  1  0.311587  0.035987  0.700500  1
  Si  Si2  1  0.311040  0.722724  0.201187  1
  Si  Si3  1  0.188413  0.964013  0.200500  1
  Si  Si4  1  0.814469  0.961315  0.607666  1
  Si  Si5  1  0.682221  0.793340  0.538007  1
  Si  Si6  1  0.311587  0.964013  0.299500  1
  Si  Si7  1  0.814005  0.439984  0.453319  1
  Si  Si8  1  0.185531  0.038685  0.392334  1
  Si  Si9  1  0.184374  0.383107  0.888954  1
  Si  Si10  1  0.685531  0.038685  0.107666  1
  Si  Si11  1  0.185995  0.439984  0.453319  1
  Si  Si12  1  0.314469  0.038685  0.107666  1
  Si  Si13  1  0.811587  0.964013  0.200500  1
  Si  Si14  1  0.688960  0.722724  0.201187  1
  Si  Si15  1  0.682148  0.185622  0.940924  1
  Si  Si16  1  0.811040  0.277276  0.701187  1
  Si  Si17  1  0.685531  0.961315  0.892334  1
  Si  Si18  1  0.682148  0.814378  0.059076  1
  Si  Si19  1  0.815626  0.616893  0.111046  1
  Si  Si20  1  0.817852  0.814378  0.440924  1
  Si  Si21  1  0.315626  0.616893  0.388954  1
  Si  Si22  1  0.182148  0.814378  0.440924  1
  Si  Si23  1  0.817852  0.185622  0.559076  1
  Si  Si24  1  0.817779  0.206660  0.038007  1
  Si  Si25  1  0.314005  0.439984  0.046681  1
  Si  Si26  1  0.685995  0.439984  0.046681  1
  Si  Si27  1  0.182148  0.185622  0.559076  1
  Si  Si28  1  0.188413  0.035987  0.799500  1
  Si  Si29  1  0.188960  0.277276  0.701187  1
  Si  Si30  1  0.182221  0.793340  0.961993  1
  Si  Si31  1  0.814469  0.038685  0.392334  1
  Si  Si32  1  0.185531  0.961315  0.607666  1
  Si  Si33  1  0.815626  0.383107  0.888954  1
  Si  Si34  1  0.314005  0.560016  0.953319  1
  Si  Si35  1  0.685995  0.560016  0.953319  1
  Si  Si36  1  0.315626  0.383107  0.611046  1
  Si  Si37  1  0.185995  0.560016  0.546681  1
  Si  Si38  1  0.314469  0.961315  0.892334  1
  Si  Si39  1  0.814005  0.560016  0.546681  1
  Si  Si40  1  0.317779  0.793340  0.538007  1
  Si  Si41  1  0.817779  0.793340  0.961993  1
  Si  Si42  1  0.317779  0.206660  0.461993  1
  Si  Si43  1  0.317852  0.814378  0.059076  1
  Si  Si44  1  0.682221  0.206660  0.461993  1
  Si  Si45  1  0.688413  0.964013  0.299500  1
  Si  Si46  1  0.684374  0.383107  0.611046  1
  Si  Si47  1  0.184374  0.616893  0.111046  1
  Si  Si48  1  0.182221  0.206660  0.038007  1
  Si  Si49  1  0.311040  0.277276  0.798813  1
  Si  Si50  1  0.317852  0.185622  0.940924  1
  Si  Si51  1  0.811587  0.035987  0.799500  1
  Si  Si52  1  0.684374  0.616893  0.388954  1
  Si  Si53  1  0.688960  0.277276  0.798813  1
  Si  Si54  1  0.811040  0.722724  0.298813  1
  Si  Si55  1  0.688413  0.035987  0.700500  1
  O  O56  1  0.000000  0.026553  0.801594  1
  O  O57  1  0.000000  0.730016  0.298447  1
  O  O58  1  0.281801  0.329457  0.448329  1
  O  O59  1  0.740138  0.500000  0.000000  1
  O  O60  1  0.276467  0.514750  0.090470  1
  O  O61  1  0.000000  0.062803  0.396733  1
  O  O62  1  0.781801  0.329457  0.051671  1
  O  O63  1  0.254565  0.642603  0.161321  1
  O  O64  1  0.282552  0.869122  0.581565  1
  O  O65  1  0.759862  0.500000  0.500000  1
  O  O66  1  0.706670  0.719061  0.422491  1
  O  O67  1  0.000000  0.589032  0.115133  1
  O  O68  1  0.217448  0.130878  0.081565  1
  O  O69  1  0.739322  0.840661  0.307884  1
  O  O70  1  0.500000  0.783525  0.068887  1
  O  O71  1  0.223533  0.485250  0.590470  1
  O  O72  1  0.727202  0.076264  0.914749  1
  O  O73  1  0.235272  0.038580  0.338777  1
  O  O74  1  0.293330  0.280939  0.577509  1
  O  O75  1  0.259862  0.500000  0.000000  1
  O  O76  1  0.782552  0.869122  0.918435  1
  O  O77  1  0.254565  0.357397  0.838679  1
  O  O78  1  0.245435  0.642603  0.338679  1
  O  O79  1  0.500000  0.410968  0.615133  1
  O  O80  1  0.718199  0.329457  0.448329  1
  O  O81  1  0.292159  0.829869  0.004587  1
  O  O82  1  0.500000  0.805151  0.523292  1
  O  O83  1  0.272798  0.923736  0.085251  1
  O  O84  1  0.250000  0.322690  0.750000  1
  O  O85  1  0.239322  0.840661  0.192116  1
  O  O86  1  0.000000  0.414358  0.455186  1
  O  O87  1  0.264728  0.961420  0.838777  1
  O  O88  1  0.750000  0.322690  0.750000  1
  O  O89  1  0.754565  0.357397  0.661321  1
  O  O90  1  0.000000  0.805151  0.976708  1
  O  O91  1  0.000000  0.410968  0.884867  1
  O  O92  1  0.250000  0.677310  0.250000  1
  O  O93  1  0.500000  0.062803  0.103267  1
  O  O94  1  0.707841  0.829869  0.004587  1
  O  O95  1  0.706670  0.280939  0.577509  1
  O  O96  1  0.500000  0.194849  0.476708  1
  O  O97  1  0.276467  0.485250  0.909530  1
  O  O98  1  0.718199  0.670543  0.551671  1
  O  O99  1  0.750000  0.004676  0.250000  1
  O  O100  1  0.772798  0.076264  0.585251  1
  O  O101  1  0.760678  0.840661  0.192116  1
  O  O102  1  0.206670  0.280939  0.922491  1
  O  O103  1  0.723533  0.514750  0.090470  1
  O  O104  1  0.500000  0.973447  0.301594  1
  O  O105  1  0.792159  0.829869  0.495413  1
  O  O106  1  0.281801  0.670543  0.551671  1
  O  O107  1  0.782552  0.130878  0.081565  1
  O  O108  1  0.739322  0.159339  0.692116  1
  O  O109  1  0.500000  0.589032  0.384867  1
  O  O110  1  0.218199  0.329457  0.051671  1
  O  O111  1  0.745435  0.357397  0.838679  1
  O  O112  1  0.764728  0.038580  0.338777  1
  O  O113  1  0.754565  0.642603  0.338679  1
  O  O114  1  0.500000  0.026553  0.698406  1
  O  O115  1  0.793330  0.280939  0.922491  1
  O  O116  1  0.250000  0.995324  0.750000  1
  O  O117  1  0.500000  0.937197  0.896733  1
  O  O118  1  0.707841  0.170131  0.995413  1
  O  O119  1  0.793330  0.719061  0.077509  1
  O  O120  1  0.500000  0.414358  0.044814  1
  O  O121  1  0.500000  0.216475  0.931113  1
  O  O122  1  0.207841  0.829869  0.495413  1
  O  O123  1  0.206670  0.719061  0.077509  1
  O  O124  1  0.772798  0.923736  0.414749  1
  O  O125  1  0.293330  0.719061  0.422491  1
  O  O126  1  0.245435  0.357397  0.661321  1
  O  O127  1  0.735272  0.961420  0.838777  1
  O  O128  1  0.760678  0.159339  0.807884  1
  O  O129  1  0.500000  0.585642  0.955186  1
  O  O130  1  0.500000  0.269984  0.798447  1
  O  O131  1  0.218199  0.670543  0.948329  1
  O  O132  1  0.292159  0.170131  0.995413  1
  O  O133  1  0.239322  0.159339  0.807884  1
  O  O134  1  0.235272  0.961420  0.661223  1
  O  O135  1  0.260678  0.159339  0.692116  1
  O  O136  1  0.717448  0.130878  0.418435  1
  O  O137  1  0.717448  0.869122  0.581565  1
  O  O138  1  0.000000  0.973447  0.198406  1
  O  O139  1  0.776467  0.485250  0.590470  1
  O  O140  1  0.207841  0.170131  0.504587  1
  O  O141  1  0.260678  0.840661  0.307884  1
  O  O142  1  0.735272  0.038580  0.161223  1
  O  O143  1  0.227202  0.076264  0.585251  1
  O  O144  1  0.000000  0.269984  0.701553  1
  O  O145  1  0.000000  0.585642  0.544814  1
  O  O146  1  0.000000  0.194849  0.023292  1
  O  O147  1  0.227202  0.923736  0.414749  1
  O  O148  1  0.792159  0.170131  0.504587  1
  O  O149  1  0.500000  0.730016  0.201553  1
  O  O150  1  0.272798  0.076264  0.914749  1
  O  O151  1  0.776467  0.514750  0.409530  1
  O  O152  1  0.750000  0.677310  0.250000  1
  O  O153  1  0.727202  0.923736  0.085251  1
  O  O154  1  0.723533  0.485250  0.909530  1
  O  O155  1  0.223533  0.514750  0.409530  1
  O  O156  1  0.250000  0.004676  0.250000  1
  O  O157  1  0.745435  0.642603  0.161321  1
  O  O158  1  0.282552  0.130878  0.418435  1
  O  O159  1  0.000000  0.216475  0.568887  1
  O  O160  1  0.764728  0.961420  0.661223  1
  O  O161  1  0.264728  0.038580  0.161223  1
  O  O162  1  0.217448  0.869122  0.918435  1
  O  O163  1  0.750000  0.995324  0.750000  1
  O  O164  1  0.000000  0.783525  0.431113  1
  O  O165  1  0.000000  0.937197  0.603267  1
  O  O166  1  0.240138  0.500000  0.500000  1
  O  O167  1  0.781801  0.670543  0.948329  1
