# generated using pymatgen
data_Ag3SI
_symmetry_space_group_name_H-M   'P 1'
_cell_length_a   10.15182099
_cell_length_b   7.09353374
_cell_length_c   7.01098586
_cell_angle_alpha   58.88259927
_cell_angle_beta   43.45931930
_cell_angle_gamma   44.64430502
_symmetry_Int_Tables_number   1
_chemical_formula_structural   Ag3SI
_chemical_formula_sum   'Ag6 S2 I2'
_cell_volume   244.03081644
_cell_formula_units_Z   2
loop_
 _symmetry_equiv_pos_site_id
 _symmetry_equiv_pos_as_xyz
  1  'x, y, z'
loop_
 _atom_site_type_symbol
 _atom_site_label
 _atom_site_symmetry_multiplicity
 _atom_site_fract_x
 _atom_site_fract_y
 _atom_site_fract_z
 _atom_site_occupancy
  Ag  Ag0  1  0.066861  0.499084  0.003070  1
  Ag  Ag1  1  0.051841  0.383993  0.493115  1
  Ag  Ag2  1  0.543759  0.009374  0.497536  1
  Ag  Ag3  1  0.576216  0.489560  0.004985  1
  Ag  Ag4  1  0.435848  0.616121  0.495286  1
  Ag  Ag5  1  0.938750  0.007667  0.492406  1
  S  S6  1  0.234272  0.503876  0.503489  1
  S  S7  1  0.731463  0.511070  0.505291  1
  I  I8  1  0.008776  0.999714  0.997784  1
  I  I9  1  0.509476  0.000554  0.997417  1
