# generated using pymatgen
data_NaTiFeO4
_symmetry_space_group_name_H-M   'P 1'
_cell_length_a   2.94994650
_cell_length_b   9.12496003
_cell_length_c   11.22757649
_cell_angle_alpha   90.00000000
_cell_angle_beta   90.00000000
_cell_angle_gamma   90.00000000
_symmetry_Int_Tables_number   1
_chemical_formula_structural   NaTiFeO4
_chemical_formula_sum   'Na4 Ti4 Fe4 O16'
_cell_volume   302.22551964
_cell_formula_units_Z   4
loop_
 _symmetry_equiv_pos_site_id
 _symmetry_equiv_pos_as_xyz
  1  'x, y, z'
loop_
 _atom_site_type_symbol
 _atom_site_label
 _atom_site_symmetry_multiplicity
 _atom_site_fract_x
 _atom_site_fract_y
 _atom_site_fract_z
 _atom_site_occupancy
  Na  Na0  1  0.750000  0.894252  0.393104  1
  Na  Na1  1  0.250000  0.605748  0.893104  1
  Na  Na2  1  0.250000  0.105748  0.606896  1
  Na  Na3  1  0.750000  0.394252  0.106896  1
  Ti  Ti4  1  0.750000  0.221656  0.329843  1
  Ti  Ti5  1  0.250000  0.278344  0.829843  1
  Ti  Ti6  1  0.250000  0.778344  0.670157  1
  Ti  Ti7  1  0.750000  0.721656  0.170157  1
  Fe  Fe8  1  0.750000  0.494470  0.612253  1
  Fe  Fe9  1  0.250000  0.005530  0.112253  1
  Fe  Fe10  1  0.750000  0.994470  0.887747  1
  Fe  Fe11  1  0.250000  0.505530  0.387747  1
  O  O12  1  0.750000  0.616213  0.313560  1
  O  O13  1  0.750000  0.378796  0.904914  1
  O  O14  1  0.250000  0.608293  0.541435  1
  O  O15  1  0.250000  0.121204  0.404914  1
  O  O16  1  0.250000  0.354356  0.267066  1
  O  O17  1  0.750000  0.645644  0.732934  1
  O  O18  1  0.750000  0.116213  0.186440  1
  O  O19  1  0.250000  0.883787  0.813560  1
  O  O20  1  0.750000  0.891707  0.041435  1
  O  O21  1  0.250000  0.383787  0.686440  1
  O  O22  1  0.250000  0.108293  0.958565  1
  O  O23  1  0.250000  0.621204  0.095086  1
  O  O24  1  0.750000  0.391707  0.458565  1
  O  O25  1  0.250000  0.854356  0.232934  1
  O  O26  1  0.750000  0.878796  0.595086  1
  O  O27  1  0.750000  0.145644  0.767066  1
