# generated using pymatgen
data_K4MnMo4O15
_symmetry_space_group_name_H-M   'P 1'
_cell_length_a   10.56859121
_cell_length_b   10.56859077
_cell_length_c   8.35686990
_cell_angle_alpha   90.00000000
_cell_angle_beta   90.00000000
_cell_angle_gamma   120.00000137
_symmetry_Int_Tables_number   1
_chemical_formula_structural   K4MnMo4O15
_chemical_formula_sum   'K8 Mn2 Mo8 O30'
_cell_volume   808.36676232
_cell_formula_units_Z   2
loop_
 _symmetry_equiv_pos_site_id
 _symmetry_equiv_pos_as_xyz
  1  'x, y, z'
loop_
 _atom_site_type_symbol
 _atom_site_label
 _atom_site_symmetry_multiplicity
 _atom_site_fract_x
 _atom_site_fract_y
 _atom_site_fract_z
 _atom_site_occupancy
  K  K0  1  0.911736  0.606908  0.140310  1
  K  K1  1  0.393092  0.304828  0.140310  1
  K  K2  1  0.088264  0.393092  0.859690  1
  K  K3  1  0.606908  0.695172  0.859690  1
  K  K4  1  0.000000  0.000000  0.000000  1
  K  K5  1  0.304828  0.911736  0.859690  1
  K  K6  1  0.695172  0.088264  0.140310  1
  K  K7  1  0.000000  0.000000  0.500000  1
  Mn  Mn8  1  0.666667  0.333333  0.466585  1
  Mn  Mn9  1  0.333333  0.666667  0.533415  1
  Mo  Mo10  1  0.017119  0.342017  0.360216  1
  Mo  Mo11  1  0.675102  0.017119  0.639784  1
  Mo  Mo12  1  0.333333  0.666667  0.142209  1
  Mo  Mo13  1  0.657983  0.675102  0.360216  1
  Mo  Mo14  1  0.666667  0.333333  0.857791  1
  Mo  Mo15  1  0.342017  0.324898  0.639784  1
  Mo  Mo16  1  0.324898  0.982881  0.360216  1
  Mo  Mo17  1  0.982881  0.657983  0.639784  1
  O  O18  1  0.479865  0.822498  0.049631  1
  O  O19  1  0.218360  0.211108  0.791271  1
  O  O20  1  0.520135  0.177502  0.950369  1
  O  O21  1  0.665710  0.186501  0.662268  1
  O  O22  1  0.186501  0.520791  0.337732  1
  O  O23  1  0.275220  0.258446  0.446378  1
  O  O24  1  0.494071  0.857346  0.660430  1
  O  O25  1  0.781640  0.788892  0.208729  1
  O  O26  1  0.505929  0.142654  0.339570  1
  O  O27  1  0.813499  0.479209  0.662268  1
  O  O28  1  0.983226  0.724780  0.446378  1
  O  O29  1  0.479209  0.665710  0.337732  1
  O  O30  1  0.857346  0.363275  0.339570  1
  O  O31  1  0.657367  0.479865  0.950369  1
  O  O32  1  0.342633  0.520135  0.049631  1
  O  O33  1  0.177502  0.657367  0.049631  1
  O  O34  1  0.363275  0.505929  0.660430  1
  O  O35  1  0.636725  0.494071  0.339570  1
  O  O36  1  0.016774  0.275220  0.553622  1
  O  O37  1  0.211108  0.992748  0.208729  1
  O  O38  1  0.142654  0.636725  0.660430  1
  O  O39  1  0.258446  0.983226  0.553622  1
  O  O40  1  0.007252  0.218360  0.208729  1
  O  O41  1  0.788892  0.007252  0.791271  1
  O  O42  1  0.822498  0.342633  0.950369  1
  O  O43  1  0.520791  0.334290  0.662268  1
  O  O44  1  0.741554  0.016774  0.446378  1
  O  O45  1  0.724780  0.741554  0.553622  1
  O  O46  1  0.334290  0.813499  0.337732  1
  O  O47  1  0.992748  0.781640  0.791271  1
