# generated using pymatgen
data_LiEu2Ge3
_symmetry_space_group_name_H-M   'P 1'
_cell_length_a   4.48257442
_cell_length_b   10.95986554
_cell_length_c   11.61931772
_cell_angle_alpha   90.00000000
_cell_angle_beta   90.00000000
_cell_angle_gamma   90.00000000
_symmetry_Int_Tables_number   1
_chemical_formula_structural   LiEu2Ge3
_chemical_formula_sum   'Li4 Eu8 Ge12'
_cell_volume   570.83863875
_cell_formula_units_Z   4
loop_
 _symmetry_equiv_pos_site_id
 _symmetry_equiv_pos_as_xyz
  1  'x, y, z'
loop_
 _atom_site_type_symbol
 _atom_site_label
 _atom_site_symmetry_multiplicity
 _atom_site_fract_x
 _atom_site_fract_y
 _atom_site_fract_z
 _atom_site_occupancy
  Eu  Eu0  1  0.500000  0.550392  0.850713  1
  Eu  Eu1  1  0.500000  0.449608  0.149287  1
  Eu  Eu2  1  0.500000  0.178263  0.929391  1
  Eu  Eu3  1  0.000000  0.678263  0.570609  1
  Eu  Eu4  1  0.000000  0.321737  0.429391  1
  Eu  Eu5  1  0.000000  0.050392  0.649287  1
  Eu  Eu6  1  0.000000  0.949608  0.350713  1
  Eu  Eu7  1  0.500000  0.821737  0.070609  1
  Li  Li8  1  0.000000  0.640934  0.282183  1
  Li  Li9  1  0.000000  0.359066  0.717817  1
  Li  Li10  1  0.500000  0.859066  0.782183  1
  Li  Li11  1  0.500000  0.140934  0.217817  1
  Ge  Ge12  1  0.000000  0.744375  0.859190  1
  Ge  Ge13  1  0.500000  0.889058  0.544113  1
  Ge  Ge14  1  0.000000  0.610942  0.044113  1
  Ge  Ge15  1  0.000000  0.389058  0.955887  1
  Ge  Ge16  1  0.500000  0.244375  0.640810  1
  Ge  Ge17  1  0.000000  0.255625  0.140810  1
  Ge  Ge18  1  0.000000  0.970836  0.896972  1
  Ge  Ge19  1  0.500000  0.470836  0.603028  1
  Ge  Ge20  1  0.000000  0.029164  0.103028  1
  Ge  Ge21  1  0.500000  0.110942  0.455887  1
  Ge  Ge22  1  0.500000  0.755625  0.359191  1
  Ge  Ge23  1  0.500000  0.529164  0.396972  1
