# generated using pymatgen
data_Si2H2O3
_symmetry_space_group_name_H-M   'P 1'
_cell_length_a   12.72398891
_cell_length_b   10.28117593
_cell_length_c   12.72292499
_cell_angle_alpha   104.94301188
_cell_angle_beta   139.90165830
_cell_angle_gamma   91.96797965
_symmetry_Int_Tables_number   1
_chemical_formula_structural   Si2H2O3
_chemical_formula_sum   'Si20 H20 O30'
_cell_volume   961.38685177
_cell_formula_units_Z   10
loop_
 _symmetry_equiv_pos_site_id
 _symmetry_equiv_pos_as_xyz
  1  'x, y, z'
loop_
 _atom_site_type_symbol
 _atom_site_label
 _atom_site_symmetry_multiplicity
 _atom_site_fract_x
 _atom_site_fract_y
 _atom_site_fract_z
 _atom_site_occupancy
  Si  Si0  1  0.694830  0.869019  0.582187  1
  Si  Si1  1  0.735645  0.619093  0.360547  1
  Si  Si2  1  0.258239  0.120241  0.383707  1
  Si  Si3  1  0.284841  0.372444  0.672944  1
  Si  Si4  1  0.104938  0.112887  0.867251  1
  Si  Si5  1  0.761680  0.417468  0.488880  1
  Si  Si6  1  0.926447  0.916768  0.153544  1
  Si  Si7  1  0.249561  0.615337  0.511799  1
  Si  Si8  1  0.404751  0.035306  0.208275  1
  Si  Si9  1  0.217791  0.503358  0.919037  1
  Si  Si10  1  0.584092  0.003599  0.785205  1
  Si  Si11  1  0.829888  0.535788  0.133246  1
  Si  Si12  1  0.380467  0.774508  0.939167  1
  Si  Si13  1  0.167623  0.746209  0.139156  1
  Si  Si14  1  0.609348  0.248601  0.080664  1
  Si  Si15  1  0.836122  0.275362  0.894604  1
  Si  Si16  1  0.142823  0.900648  0.640750  1
  Si  Si17  1  0.745794  0.633052  0.741223  1
  Si  Si18  1  0.891239  0.132748  0.387430  1
  Si  Si19  1  0.261747  0.401298  0.260240  1
  H  H20  1  0.992558  0.887497  0.831220  1
  H  H21  1  0.048179  0.397992  0.396668  1
  H  H22  1  0.947713  0.304599  0.669541  1
  H  H23  1  0.630584  0.805461  0.855835  1
  H  H24  1  0.215547  0.789308  0.004539  1
  H  H25  1  0.071625  0.646035  0.744201  1
  H  H26  1  0.903147  0.147277  0.076633  1
  H  H27  1  0.782313  0.286763  0.068204  1
  H  H28  1  0.883170  0.703112  0.335284  1
  H  H29  1  0.367855  0.202437  0.319276  1
  H  H30  1  0.596643  0.783782  0.314597  1
  H  H31  1  0.467187  0.288329  0.686115  1
  H  H32  1  0.992348  0.057399  0.594797  1
  H  H33  1  0.608690  0.392875  0.526773  1
  H  H34  1  0.870564  0.895060  0.288653  1
  H  H35  1  0.464329  0.554498  0.569208  1
  H  H36  1  0.614093  0.980607  0.245926  1
  H  H37  1  0.271331  0.531131  0.145166  1
  H  H38  1  0.386258  0.032031  0.759871  1
  H  H39  1  0.736158  0.480642  0.867692  1
  O  O40  1  0.939212  0.953297  0.775373  1
  O  O41  1  0.864707  0.590929  0.552858  1
  O  O42  1  0.036934  0.089598  0.223867  1
  O  O43  1  0.173276  0.458307  0.514368  1
  O  O44  1  0.272982  0.069809  0.027226  1
  O  O45  1  0.971609  0.408050  0.696194  1
  O  O46  1  0.710038  0.908266  0.936179  1
  O  O47  1  0.047115  0.576039  0.300827  1
  O  O48  1  0.250598  0.862850  0.105076  1
  O  O49  1  0.196257  0.664098  0.871970  1
  O  O50  1  0.792829  0.164480  0.968448  1
  O  O51  1  0.764120  0.362316  0.116198  1
  O  O52  1  0.242965  0.843891  0.799079  1
  O  O53  1  0.963494  0.687873  0.920702  1
  O  O54  1  0.763800  0.186628  0.224096  1
  O  O55  1  0.046188  0.345865  0.103509  1
  O  O56  1  0.703168  0.743392  0.645730  1
  O  O57  1  0.918289  0.751146  0.443630  1
  O  O58  1  0.305915  0.250041  0.330700  1
  O  O59  1  0.096273  0.245239  0.539853  1
  O  O60  1  0.678631  0.757277  0.415750  1
  O  O61  1  0.339393  0.261217  0.576673  1
  O  O62  1  0.072039  0.021408  0.692461  1
  O  O63  1  0.706209  0.474342  0.588121  1
  O  O64  1  0.887264  0.975214  0.269434  1
  O  O65  1  0.330522  0.518741  0.453254  1
  O  O66  1  0.491672  0.924235  0.163203  1
  O  O67  1  0.227325  0.584130  0.068959  1
  O  O68  1  0.515320  0.085910  0.856301  1
  O  O69  1  0.762724  0.424412  0.933965  1
