# generated using pymatgen
data_SiO4
_symmetry_space_group_name_H-M   'P 1'
_cell_length_a   4.93886224
_cell_length_b   4.98389008
_cell_length_c   10.91097370
_cell_angle_alpha   104.70296275
_cell_angle_beta   75.56270730
_cell_angle_gamma   118.70146086
_symmetry_Int_Tables_number   1
_chemical_formula_structural   SiO4
_chemical_formula_sum   'Si3 O12'
_cell_volume   225.27383717
_cell_formula_units_Z   3
loop_
 _symmetry_equiv_pos_site_id
 _symmetry_equiv_pos_as_xyz
  1  'x, y, z'
loop_
 _atom_site_type_symbol
 _atom_site_label
 _atom_site_symmetry_multiplicity
 _atom_site_fract_x
 _atom_site_fract_y
 _atom_site_fract_z
 _atom_site_occupancy
  Si  Si0  1  0.345510  0.575863  0.654411  1
  Si  Si1  1  0.385352  0.737578  0.009384  1
  Si  Si2  1  0.393641  0.960994  0.544374  1
  O  O3  1  0.270309  -0.016249  0.412210  1
  O  O4  1  0.175286  0.632628  0.825914  1
  O  O5  1  0.637692  0.897014  0.614110  1
  O  O6  1  0.727602  0.829887  0.025169  1
  O  O7  1  0.378555  0.267128  0.644066  1
  O  O8  1  0.677868  0.573446  0.285961  1
  O  O9  1  0.784392  0.561229  0.172366  1
  O  O10  1  0.183864  0.745424  0.153384  1
  O  O11  1  0.385393  0.933537  0.896022  1
  O  O12  1  0.593422  0.023482  0.392800  1
  O  O13  1  0.106789  0.609607  0.584686  1
  O  O14  1  0.164324  0.418432  0.901811  1
