# generated using pymatgen
data_Tc(CO)5
_symmetry_space_group_name_H-M   'P 1'
_cell_length_a   7.24407842
_cell_length_b   9.72581087
_cell_length_c   12.39735404
_cell_angle_alpha   82.77623815
_cell_angle_beta   73.01254593
_cell_angle_gamma   68.13536171
_symmetry_Int_Tables_number   1
_chemical_formula_structural   Tc(CO)5
_chemical_formula_sum   'Tc4 C20 O20'
_cell_volume   775.10980862
_cell_formula_units_Z   4
loop_
 _symmetry_equiv_pos_site_id
 _symmetry_equiv_pos_as_xyz
  1  'x, y, z'
loop_
 _atom_site_type_symbol
 _atom_site_label
 _atom_site_symmetry_multiplicity
 _atom_site_fract_x
 _atom_site_fract_y
 _atom_site_fract_z
 _atom_site_occupancy
  Tc  Tc0  1  0.699831  0.917474  0.222971  1
  Tc  Tc1  1  0.159724  0.417474  0.722971  1
  Tc  Tc2  1  0.840276  0.582526  0.277029  1
  Tc  Tc3  1  0.300169  0.082526  0.777029  1
  C  C4  1  0.264782  0.066573  0.625567  1
  C  C5  1  0.690333  0.862818  0.074872  1
  C  C6  1  0.413787  0.914953  0.293325  1
  C  C7  1  0.400888  0.869946  0.804198  1
  C  C8  1  0.628023  0.637182  0.425128  1
  C  C9  1  0.993784  0.896475  0.151191  1
  C  C10  1  0.956922  0.433427  0.874433  1
  C  C11  1  0.599112  0.130054  0.195802  1
  C  C12  1  0.043078  0.566573  0.125567  1
  C  C13  1  0.924967  0.369946  0.304198  1
  C  C14  1  0.958550  0.396475  0.651191  1
  C  C15  1  0.309667  0.137182  0.925128  1
  C  C16  1  0.622066  0.585047  0.206675  1
  C  C17  1  0.586213  0.085046  0.706675  1
  C  C18  1  0.735218  0.933427  0.374433  1
  C  C19  1  0.006216  0.103525  0.848809  1
  C  C20  1  0.377934  0.414953  0.793325  1
  C  C21  1  0.041450  0.603525  0.348809  1
  C  C22  1  0.371977  0.362818  0.574872  1
  C  C23  1  0.075033  0.630054  0.695802  1
  O  O24  1  0.756175  0.943333  0.462043  1
  O  O25  1  0.308954  0.169004  0.012414  1
  O  O26  1  0.161550  0.556667  0.037957  1
  O  O27  1  0.838450  0.443333  0.962043  1
  O  O28  1  0.844255  0.388553  0.605396  1
  O  O29  1  0.691046  0.830996  0.987586  1
  O  O30  1  0.977293  0.241939  0.316330  1
  O  O31  1  0.022707  0.758061  0.683670  1
  O  O32  1  0.464437  0.741939  0.816330  1
  O  O33  1  0.751619  0.086615  0.668467  1
  O  O34  1  0.161796  0.888553  0.105396  1
  O  O35  1  0.243825  0.056667  0.537957  1
  O  O36  1  0.509627  0.669004  0.512414  1
  O  O37  1  0.535563  0.258061  0.183670  1
  O  O38  1  0.838204  0.111447  0.894604  1
  O  O39  1  0.493298  0.586615  0.168467  1
  O  O40  1  0.506702  0.413385  0.831533  1
  O  O41  1  0.248381  0.913385  0.331533  1
  O  O42  1  0.490373  0.330996  0.487586  1
  O  O43  1  0.155745  0.611447  0.394604  1
