# generated using pymatgen
data_Pu5Pt3
_symmetry_space_group_name_H-M   'P 1'
_cell_length_a   8.53436560
_cell_length_b   8.50559083
_cell_length_c   6.02231069
_cell_angle_alpha   89.90647662
_cell_angle_beta   89.95063140
_cell_angle_gamma   120.04928717
_symmetry_Int_Tables_number   1
_chemical_formula_structural   Pu5Pt3
_chemical_formula_sum   'Pu10 Pt6'
_cell_volume   378.40094880
_cell_formula_units_Z   2
loop_
 _symmetry_equiv_pos_site_id
 _symmetry_equiv_pos_as_xyz
  1  'x, y, z'
loop_
 _atom_site_type_symbol
 _atom_site_label
 _atom_site_symmetry_multiplicity
 _atom_site_fract_x
 _atom_site_fract_y
 _atom_site_fract_z
 _atom_site_occupancy
  Pu  Pu0  1  0.254722  0.255605  0.754149  1
  Pu  Pu1  1  0.743860  0.998532  0.754281  1
  Pu  Pu2  1  0.001009  0.256025  0.245777  1
  Pu  Pu3  1  0.333623  0.666912  0.999521  1
  Pu  Pu4  1  0.000839  0.745049  0.754257  1
  Pu  Pu5  1  0.666632  0.333618  0.999845  1
  Pu  Pu6  1  0.254920  0.998759  0.245673  1
  Pu  Pu7  1  0.744208  0.745267  0.245896  1
  Pu  Pu8  1  0.333332  0.667113  0.500297  1
  Pu  Pu9  1  0.666632  0.333441  0.500197  1
  Pt  Pt10  1  0.000813  0.390270  0.749472  1
  Pt  Pt11  1  0.389579  0.998917  0.749415  1
  Pt  Pt12  1  0.001029  0.610473  0.250524  1
  Pt  Pt13  1  0.609828  0.610788  0.749340  1
  Pt  Pt14  1  0.389506  0.390380  0.250762  1
  Pt  Pt15  1  0.609469  0.998852  0.250592  1
