# generated using pymatgen
data_Li2EuGeS4
_symmetry_space_group_name_H-M   'P 1'
_cell_length_a   6.04114469
_cell_length_b   6.04533113
_cell_length_c   6.04015353
_cell_angle_alpha   100.59566509
_cell_angle_beta   114.08492598
_cell_angle_gamma   114.12055715
_symmetry_Int_Tables_number   1
_chemical_formula_structural   Li2EuGeS4
_chemical_formula_sum   'Li2 Eu1 Ge1 S4'
_cell_volume   166.73512016
_cell_formula_units_Z   1
loop_
 _symmetry_equiv_pos_site_id
 _symmetry_equiv_pos_as_xyz
  1  'x, y, z'
loop_
 _atom_site_type_symbol
 _atom_site_label
 _atom_site_symmetry_multiplicity
 _atom_site_fract_x
 _atom_site_fract_y
 _atom_site_fract_z
 _atom_site_occupancy
  Eu  Eu0  1  0.000052  0.000007  0.000049  1
  Li  Li1  1  0.500021  0.249969  0.749977  1
  Li  Li2  1  0.499988  0.749972  0.250014  1
  Ge  Ge3  1  -0.000088  0.499789  0.499968  1
  S  S4  1  0.000010  0.533083  0.135860  1
  S  S5  1  0.000055  0.136029  0.533100  1
  S  S6  1  0.397219  0.864276  0.864207  1
  S  S7  1  0.602743  0.466875  0.466825  1
