# generated using pymatgen
data_Ge9(Sb5Te12)2
_symmetry_space_group_name_H-M   'P 1'
_cell_length_a   6.19640209
_cell_length_b   6.14296365
_cell_length_c   37.14435867
_cell_angle_alpha   89.46576821
_cell_angle_beta   88.93857024
_cell_angle_gamma   90.35435479
_symmetry_Int_Tables_number   1
_chemical_formula_structural   Ge9(Sb5Te12)2
_chemical_formula_sum   'Ge9 Sb10 Te24'
_cell_volume   1413.54036596
_cell_formula_units_Z   1
loop_
 _symmetry_equiv_pos_site_id
 _symmetry_equiv_pos_as_xyz
  1  'x, y, z'
loop_
 _atom_site_type_symbol
 _atom_site_label
 _atom_site_symmetry_multiplicity
 _atom_site_fract_x
 _atom_site_fract_y
 _atom_site_fract_z
 _atom_site_occupancy
  Ge  Ge0  1  0.457496  0.538275  0.087059  1
  Ge  Ge1  1  0.459209  0.565083  0.255492  1
  Ge  Ge2  1  0.470556  0.528672  0.415841  1
  Ge  Ge3  1  0.472483  0.527149  0.914831  1
  Ge  Ge4  1  0.523922  0.008106  0.174408  1
  Ge  Ge5  1  0.959825  0.021757  0.580791  1
  Ge  Ge6  1  0.980739  0.003591  0.407468  1
  Ge  Ge7  1  0.959519  0.020974  0.748505  1
  Ge  Ge8  1  0.967728  0.009323  0.919426  1
  Sb  Sb9  1  0.489563  0.996445  0.494109  1
  Sb  Sb10  1  0.488788  0.973343  0.658020  1
  Sb  Sb11  1  0.490182  0.988762  0.825237  1
  Sb  Sb12  1  0.489231  0.994886  0.008687  1
  Sb  Sb13  1  0.972833  0.475610  0.160931  1
  Sb  Sb14  1  0.978435  0.495146  0.496690  1
  Sb  Sb15  1  0.951523  0.482722  0.325963  1
  Sb  Sb16  1  0.964836  0.490351  0.658053  1
  Sb  Sb17  1  0.983520  0.493265  0.823426  1
  Sb  Sb18  1  0.985473  0.501146  -0.000009  1
  Te  Te19  1  0.992476  0.993536  0.997390  1
  Te  Te20  1  0.992870  0.012565  0.168707  1
  Te  Te21  1  0.008043  0.002717  0.336223  1
  Te  Te22  1  0.996653  0.994834  0.667416  1
  Te  Te23  1  0.492852  0.495027  0.001005  1
  Te  Te24  1  0.496048  0.506800  0.167194  1
  Te  Te25  1  0.490388  0.494585  0.501410  1
  Te  Te26  1  0.491543  0.506445  0.335038  1
  Te  Te27  1  0.498310  0.492442  0.671927  1
  Te  Te28  1  0.491869  0.492899  0.836602  1
  Te  Te29  1  0.502385  0.006428  0.246436  1
  Te  Te30  1  0.500891  0.992601  0.083625  1
  Te  Te31  1  0.500269  0.999419  0.416792  1
  Te  Te32  1  0.510838  0.000625  0.582499  1
  Te  Te33  1  0.512568  0.006027  0.749237  1
  Te  Te34  1  0.508854  0.990403  0.915854  1
  Te  Te35  1  0.006563  0.483678  0.082311  1
  Te  Te36  1  0.010865  0.484224  0.250579  1
  Te  Te37  1  0.006719  0.504546  0.417859  1
  Te  Te38  1  0.012744  0.488461  0.582245  1
  Te  Te39  1  0.010835  0.490386  0.748618  1
  Te  Te40  1  0.003671  0.494746  0.917990  1
  Te  Te41  1  0.988969  0.997602  0.502119  1
  Te  Te42  1  0.995920  0.992400  0.832330  1
