# generated using pymatgen
data_Y5O4F7
_symmetry_space_group_name_H-M   'P 1'
_cell_length_a   8.01364204
_cell_length_b   7.89658902
_cell_length_c   7.04201552
_cell_angle_alpha   107.07977831
_cell_angle_beta   90.00000000
_cell_angle_gamma   90.00000000
_symmetry_Int_Tables_number   1
_chemical_formula_structural   Y5O4F7
_chemical_formula_sum   'Y10 O8 F14'
_cell_volume   425.96844626
_cell_formula_units_Z   2
loop_
 _symmetry_equiv_pos_site_id
 _symmetry_equiv_pos_as_xyz
  1  'x, y, z'
loop_
 _atom_site_type_symbol
 _atom_site_label
 _atom_site_symmetry_multiplicity
 _atom_site_fract_x
 _atom_site_fract_y
 _atom_site_fract_z
 _atom_site_occupancy
  Y  Y0  1  0.182175  0.385586  0.240650  1
  Y  Y1  1  0.205721  0.591716  0.877935  1
  Y  Y2  1  0.879587  0.329546  0.577790  1
  Y  Y3  1  0.478843  0.263967  0.604353  1
  Y  Y4  1  0.416874  0.950221  0.142411  1
  Y  Y5  1  0.521157  0.763967  0.604353  1
  Y  Y6  1  0.583126  0.450221  0.142411  1
  Y  Y7  1  0.120413  0.829546  0.577790  1
  Y  Y8  1  0.794279  0.091716  0.877935  1
  Y  Y9  1  0.817825  0.885586  0.240650  1
  O  O10  1  0.702152  0.115641  0.448233  1
  O  O11  1  0.342041  0.407293  0.000377  1
  O  O12  1  0.415097  0.237715  0.270882  1
  O  O13  1  0.296080  0.847410  0.827426  1
  O  O14  1  0.703920  0.347410  0.827426  1
  O  O15  1  0.584903  0.737715  0.270882  1
  O  O16  1  0.297848  0.615641  0.448233  1
  O  O17  1  0.657959  0.907293  0.000377  1
  F  F18  1  0.034725  0.144170  0.321343  1
  F  F19  1  -0.017760  0.927767  0.970951  1
  F  F20  1  0.804648  0.855394  0.598791  1
  F  F21  1  0.810566  0.289201  0.176925  1
  F  F22  1  0.986438  0.611886  0.685146  1
  F  F23  1  0.527006  0.064628  0.771855  1
  F  F24  1  0.661462  0.488059  0.484932  1
  F  F25  1  0.338538  -0.011941  0.484932  1
  F  F26  1  0.472994  0.564628  0.771855  1
  F  F27  1  0.189434  0.789201  0.176925  1
  F  F28  1  0.013562  0.111886  0.685146  1
  F  F29  1  0.017760  0.427767  0.970951  1
  F  F30  1  0.195352  0.355394  0.598791  1
  F  F31  1  0.965275  0.644170  0.321343  1
