# generated using pymatgen
data_Os3C12(IO6)2
_symmetry_space_group_name_H-M   'P 1'
_cell_length_a   9.38452950
_cell_length_b   10.45763499
_cell_length_c   11.70166333
_cell_angle_alpha   90.00000000
_cell_angle_beta   90.00000000
_cell_angle_gamma   99.99342261
_symmetry_Int_Tables_number   1
_chemical_formula_structural   Os3C12(IO6)2
_chemical_formula_sum   'Os6 C24 I4 O24'
_cell_volume   1130.97714542
_cell_formula_units_Z   2
loop_
 _symmetry_equiv_pos_site_id
 _symmetry_equiv_pos_as_xyz
  1  'x, y, z'
loop_
 _atom_site_type_symbol
 _atom_site_label
 _atom_site_symmetry_multiplicity
 _atom_site_fract_x
 _atom_site_fract_y
 _atom_site_fract_z
 _atom_site_occupancy
  Os  Os0  1  0.460488  0.725938  0.647279  1
  Os  Os1  1  0.039512  0.774062  0.147279  1
  Os  Os2  1  0.539512  0.274062  0.352721  1
  Os  Os3  1  0.500000  0.500000  0.500000  1
  Os  Os4  1  0.000000  0.000000  0.000000  1
  Os  Os5  1  0.960488  0.225938  0.852721  1
  C  C6  1  0.740846  0.298930  0.407562  1
  C  C7  1  0.651937  0.706348  0.704508  1
  C  C8  1  0.937621  0.089464  0.133478  1
  C  C9  1  0.461418  0.170122  0.479370  1
  C  C10  1  0.848063  0.793652  0.204508  1
  C  C11  1  0.151937  0.206348  0.795492  1
  C  C12  1  0.799374  0.920463  0.969943  1
  C  C13  1  0.437621  0.589464  0.366522  1
  C  C14  1  0.062379  0.910536  0.866522  1
  C  C15  1  0.961418  0.670122  0.020630  1
  C  C16  1  0.700626  0.579537  0.469943  1
  C  C17  1  0.038582  0.329878  0.979370  1
  C  C18  1  0.240846  0.798930  0.092438  1
  C  C19  1  0.440508  0.869744  0.745381  1
  C  C20  1  0.059492  0.630256  0.245381  1
  C  C21  1  0.559492  0.130256  0.254619  1
  C  C22  1  0.348063  0.293652  0.295492  1
  C  C23  1  0.200626  0.079537  0.030057  1
  C  C24  1  0.299374  0.420463  0.530057  1
  C  C25  1  0.759154  0.201070  0.907562  1
  C  C26  1  0.259154  0.701070  0.592438  1
  C  C27  1  0.940508  0.369744  0.754619  1
  C  C28  1  0.538582  0.829878  0.520630  1
  C  C29  1  0.562379  0.410536  0.633478  1
  I  I30  1  0.845404  0.062150  0.671650  1
  I  I31  1  0.154596  0.937850  0.328350  1
  I  I32  1  0.345404  0.562150  0.828350  1
  I  I33  1  0.654596  0.437850  0.171650  1
  O  O34  1  0.819056  0.629377  0.453874  1
  O  O35  1  0.600870  0.355459  0.710268  1
  O  O36  1  0.180944  0.370623  0.546126  1
  O  O37  1  0.399130  0.644541  0.289732  1
  O  O38  1  0.930605  0.457791  0.697022  1
  O  O39  1  0.139449  0.685934  0.564435  1
  O  O40  1  0.912761  0.604493  0.945091  1
  O  O41  1  0.412761  0.104493  0.554909  1
  O  O42  1  0.639449  0.185934  0.935565  1
  O  O43  1  0.319056  0.129377  0.046126  1
  O  O44  1  0.430605  0.957791  0.802978  1
  O  O45  1  0.360551  0.814066  0.064435  1
  O  O46  1  0.069395  0.542209  0.302978  1
  O  O47  1  0.587239  0.895507  0.445091  1
  O  O48  1  0.860551  0.314066  0.435565  1
  O  O49  1  0.899130  0.144541  0.210268  1
  O  O50  1  0.763890  0.693614  0.739500  1
  O  O51  1  0.680944  0.870623  0.953874  1
  O  O52  1  0.236110  0.306386  0.260500  1
  O  O53  1  0.263890  0.193614  0.760500  1
  O  O54  1  0.100870  0.855459  0.789732  1
  O  O55  1  0.569395  0.042209  0.197022  1
  O  O56  1  0.736110  0.806386  0.239500  1
  O  O57  1  0.087239  0.395507  0.054909  1
