# generated using pymatgen
data_Nb3IrS8
_symmetry_space_group_name_H-M   'P 1'
_cell_length_a   6.76813403
_cell_length_b   6.72653575
_cell_length_c   13.21163951
_cell_angle_alpha   97.86203993
_cell_angle_beta   74.94104554
_cell_angle_gamma   120.12493140
_symmetry_Int_Tables_number   1
_chemical_formula_structural   Nb3IrS8
_chemical_formula_sum   'Nb6 Ir2 S16'
_cell_volume   502.35499172
_cell_formula_units_Z   2
loop_
 _symmetry_equiv_pos_site_id
 _symmetry_equiv_pos_as_xyz
  1  'x, y, z'
loop_
 _atom_site_type_symbol
 _atom_site_label
 _atom_site_symmetry_multiplicity
 _atom_site_fract_x
 _atom_site_fract_y
 _atom_site_fract_z
 _atom_site_occupancy
  Nb  Nb0  1  0.032948  0.528291  0.001740  1
  Nb  Nb1  1  0.017446  0.000263  -0.000039  1
  Nb  Nb2  1  0.507889  0.473714  0.998346  1
  Nb  Nb3  1  0.239870  0.029674  0.503761  1
  Nb  Nb4  1  0.735431  0.500818  0.498977  1
  Nb  Nb5  1  0.714674  0.971048  0.498058  1
  Ir  Ir6  1  0.292650  0.502626  0.500243  1
  Ir  Ir7  1  0.459647  0.000514  -0.000249  1
  S  S8  1  0.095628  0.837739  0.131388  1
  S  S9  1  0.123567  0.338368  0.121074  1
  S  S10  1  0.152903  0.658308  0.396960  1
  S  S11  1  0.599174  0.845617  0.103438  1
  S  S12  1  0.339101  0.823739  0.619735  1
  S  S13  1  0.135632  0.180258  0.383036  1
  S  S14  1  0.612532  0.322121  0.118255  1
  S  S15  1  0.363194  0.340571  0.631570  1
  S  S16  1  0.408726  0.677564  0.881240  1
  S  S17  1  0.657129  0.662660  0.367561  1
  S  S18  1  0.840774  0.836881  0.621903  1
  S  S19  1  0.622752  0.159178  0.379474  1
  S  S20  1  0.391891  0.165358  0.868985  1
  S  S21  1  0.892358  0.344324  0.601908  1
  S  S22  1  0.907843  0.664369  0.878385  1
  S  S23  1  0.859506  0.156174  0.896550  1
