# generated using pymatgen
data_Te4WCl6
_symmetry_space_group_name_H-M   'P 1'
_cell_length_a   12.26834802
_cell_length_b   12.23434271
_cell_length_c   12.34443786
_cell_angle_alpha   60.29458782
_cell_angle_beta   76.76059025
_cell_angle_gamma   62.47324091
_symmetry_Int_Tables_number   1
_chemical_formula_structural   Te4WCl6
_chemical_formula_sum   'Te16 W4 Cl24'
_cell_volume   1427.16275516
_cell_formula_units_Z   4
loop_
 _symmetry_equiv_pos_site_id
 _symmetry_equiv_pos_as_xyz
  1  'x, y, z'
loop_
 _atom_site_type_symbol
 _atom_site_label
 _atom_site_symmetry_multiplicity
 _atom_site_fract_x
 _atom_site_fract_y
 _atom_site_fract_z
 _atom_site_occupancy
  Te  Te0  1  0.643109  0.379880  0.170913  1
  Te  Te1  1  0.922713  0.225980  0.415962  1
  Te  Te2  1  0.502128  0.360976  0.700764  1
  Te  Te3  1  0.577287  0.358058  0.415962  1
  Te  Te4  1  0.225157  0.894929  0.769432  1
  Te  Te5  1  0.356891  0.620120  0.829087  1
  Te  Te6  1  0.143109  0.550793  0.829087  1
  Te  Te7  1  0.002128  0.061740  0.299236  1
  Te  Te8  1  0.856891  0.449207  0.170913  1
  Te  Te9  1  0.774843  0.105071  0.230568  1
  Te  Te10  1  0.077287  0.774020  0.584038  1
  Te  Te11  1  0.725157  0.664361  0.230568  1
  Te  Te12  1  0.422713  0.641942  0.584038  1
  Te  Te13  1  0.274843  0.335639  0.769432  1
  Te  Te14  1  0.497872  0.639024  0.299236  1
  Te  Te15  1  0.997872  0.938260  0.700764  1
  W  W16  1  0.390290  0.103911  0.231032  1
  W  W17  1  0.609710  0.896089  0.768968  1
  W  W18  1  0.890290  0.334943  0.768968  1
  W  W19  1  0.109710  0.665057  0.231032  1
  Cl  Cl20  1  0.000032  0.285932  0.931389  1
  Cl  Cl21  1  0.794674  0.705908  0.856019  1
  Cl  Cl22  1  0.422326  0.092137  0.684887  1
  Cl  Cl23  1  0.910782  0.540221  0.648488  1
  Cl  Cl24  1  0.577674  0.907863  0.315113  1
  Cl  Cl25  1  0.294674  0.561927  0.143981  1
  Cl  Cl26  1  0.999968  0.714068  0.068611  1
  Cl  Cl27  1  0.280256  0.989569  0.398205  1
  Cl  Cl28  1  0.128137  0.874631  0.119612  1
  Cl  Cl29  1  0.628137  0.994243  0.880388  1
  Cl  Cl30  1  0.780256  0.387774  0.601795  1
  Cl  Cl31  1  0.219744  0.612226  0.398205  1
  Cl  Cl32  1  0.589218  0.811292  0.648488  1
  Cl  Cl33  1  0.410782  0.188708  0.351512  1
  Cl  Cl34  1  0.077674  0.222976  0.684887  1
  Cl  Cl35  1  0.871863  0.125369  0.880388  1
  Cl  Cl36  1  0.371863  0.005757  0.119612  1
  Cl  Cl37  1  0.499968  0.782679  0.931389  1
  Cl  Cl38  1  0.922326  0.777024  0.315113  1
  Cl  Cl39  1  0.089218  0.459779  0.351512  1
  Cl  Cl40  1  0.705326  0.438073  0.856019  1
  Cl  Cl41  1  0.500032  0.217321  0.068611  1
  Cl  Cl42  1  0.719744  0.010431  0.601795  1
  Cl  Cl43  1  0.205326  0.294092  0.143981  1
