# generated using pymatgen
data_NaBePO4
_symmetry_space_group_name_H-M   'P 1'
_cell_length_a   7.89767263
_cell_length_b   8.23002800
_cell_length_c   14.35522578
_cell_angle_alpha   90.08635836
_cell_angle_beta   90.00000000
_cell_angle_gamma   90.00000000
_symmetry_Int_Tables_number   1
_chemical_formula_structural   NaBePO4
_chemical_formula_sum   'Na12 Be12 P12 O48'
_cell_volume   933.06086552
_cell_formula_units_Z   12
loop_
 _symmetry_equiv_pos_site_id
 _symmetry_equiv_pos_as_xyz
  1  'x, y, z'
loop_
 _atom_site_type_symbol
 _atom_site_label
 _atom_site_symmetry_multiplicity
 _atom_site_fract_x
 _atom_site_fract_y
 _atom_site_fract_z
 _atom_site_occupancy
  Be  Be0  1  0.668495  0.068357  0.409399  1
  Be  Be1  1  0.168495  0.431643  0.090601  1
  Be  Be2  1  0.331505  0.931643  0.590601  1
  Be  Be3  1  0.831505  0.568357  0.909399  1
  Be  Be4  1  0.168624  0.401990  0.419053  1
  Be  Be5  1  0.668624  0.098010  0.080947  1
  Be  Be6  1  0.831376  0.598010  0.580947  1
  Be  Be7  1  0.331376  0.901990  0.919053  1
  Be  Be8  1  0.668518  0.579528  0.259123  1
  Be  Be9  1  0.168518  0.920472  0.240877  1
  Be  Be10  1  0.331482  0.420472  0.740877  1
  Be  Be11  1  0.831482  0.079528  0.759123  1
  O  O12  1  0.472501  0.009237  0.390808  1
  O  O13  1  0.972501  0.490763  0.109192  1
  O  O14  1  0.527499  0.990763  0.609192  1
  O  O15  1  0.027499  0.509237  0.890808  1
  O  O16  1  0.974510  0.336470  0.435496  1
  O  O17  1  0.474510  0.163530  0.064504  1
  O  O18  1  0.025490  0.663530  0.564504  1
  O  O19  1  0.525490  0.836470  0.935496  1
  O  O20  1  0.471616  0.576558  0.297929  1
  O  O21  1  0.971616  0.923442  0.202071  1
  O  O22  1  0.528384  0.423442  0.702071  1
  O  O23  1  0.028384  0.076558  0.797929  1
  O  O24  1  0.166743  0.959389  0.352410  1
  O  O25  1  0.666743  0.540611  0.147590  1
  O  O26  1  0.833257  0.040611  0.647590  1
  O  O27  1  0.333257  0.459389  0.852410  1
  O  O28  1  0.668839  0.255643  0.447693  1
  O  O29  1  0.168839  0.244357  0.052307  1
  O  O30  1  0.331161  0.744357  0.552307  1
  O  O31  1  0.831161  0.755643  0.947693  1
  O  O32  1  0.166889  0.554731  0.346429  1
  O  O33  1  0.666889  0.945269  0.153571  1
  O  O34  1  0.833111  0.445269  0.653571  1
  O  O35  1  0.333111  0.054731  0.846429  1
  O  O36  1  0.753345  0.941995  0.485531  1
  O  O37  1  0.253345  0.558005  0.014469  1
  O  O38  1  0.246655  0.058005  0.514469  1
  O  O39  1  0.746655  0.441995  0.985531  1
  O  O40  1  0.751650  0.547903  0.478571  1
  O  O41  1  0.251650  0.952097  0.021429  1
  O  O42  1  0.248350  0.452097  0.521429  1
  O  O43  1  0.748350  0.047903  0.978571  1
  O  O44  1  0.748774  0.755932  0.286713  1
  O  O45  1  0.248774  0.744068  0.213287  1
  O  O46  1  0.251226  0.244068  0.713287  1
  O  O47  1  0.751226  0.255932  0.786713  1
  O  O48  1  0.274756  0.248065  0.376934  1
  O  O49  1  0.774756  0.251935  0.123066  1
  O  O50  1  0.725244  0.751935  0.623066  1
  O  O51  1  0.225244  0.748065  0.876934  1
  O  O52  1  0.767724  0.434613  0.314355  1
  O  O53  1  0.267724  0.065387  0.185645  1
  O  O54  1  0.232276  0.565387  0.685645  1
  O  O55  1  0.732276  0.934613  0.814355  1
  O  O56  1  0.766687  0.058981  0.310012  1
  O  O57  1  0.266687  0.441019  0.189988  1
  O  O58  1  0.233313  0.941019  0.689988  1
  O  O59  1  0.733313  0.558981  0.810012  1
  Na  Na60  1  0.532090  0.728347  0.431232  1
  Na  Na61  1  0.032090  0.771653  0.068768  1
  Na  Na62  1  0.467910  0.271653  0.568768  1
  Na  Na63  1  0.967910  0.228347  0.931232  1
  Na  Na64  1  0.971873  0.769616  0.412323  1
  Na  Na65  1  0.471873  0.730384  0.087677  1
  Na  Na66  1  0.028127  0.230384  0.587677  1
  Na  Na67  1  0.528127  0.269616  0.912323  1
  Na  Na68  1  0.499571  0.252515  0.250598  1
  Na  Na69  1  0.999571  0.247485  0.249402  1
  Na  Na70  1  0.500429  0.747485  0.749402  1
  Na  Na71  1  0.000429  0.752515  0.750598  1
  P  P72  1  0.289556  0.068472  0.408827  1
  P  P73  1  0.789556  0.431528  0.091173  1
  P  P74  1  0.710444  0.931528  0.591173  1
  P  P75  1  0.210444  0.568472  0.908827  1
  P  P76  1  0.790656  0.394519  0.418929  1
  P  P77  1  0.290656  0.105481  0.081071  1
  P  P78  1  0.209344  0.605481  0.581071  1
  P  P79  1  0.709344  0.894519  0.918929  1
  P  P80  1  0.286511  0.580462  0.262116  1
  P  P81  1  0.786511  0.919538  0.237884  1
  P  P82  1  0.713489  0.419538  0.737884  1
  P  P83  1  0.213489  0.080462  0.762116  1
