# generated using pymatgen
data_Yb(HO)3
_symmetry_space_group_name_H-M   'P 1'
_cell_length_a   6.32190375
_cell_length_b   6.33285523
_cell_length_c   3.55489010
_cell_angle_alpha   90.00000000
_cell_angle_beta   90.00000000
_cell_angle_gamma   120.04026101
_symmetry_Int_Tables_number   1
_chemical_formula_structural   Yb(HO)3
_chemical_formula_sum   'Yb2 H6 O6'
_cell_volume   123.20488164
_cell_formula_units_Z   2
loop_
 _symmetry_equiv_pos_site_id
 _symmetry_equiv_pos_as_xyz
  1  'x, y, z'
loop_
 _atom_site_type_symbol
 _atom_site_label
 _atom_site_symmetry_multiplicity
 _atom_site_fract_x
 _atom_site_fract_y
 _atom_site_fract_z
 _atom_site_occupancy
  Yb  Yb0  1  0.332536  0.666104  0.250000  1
  Yb  Yb1  1  0.667464  0.333896  0.750000  1
  H  H2  1  0.853101  0.724380  0.250000  1
  H  H3  1  0.871925  0.147100  0.250000  1
  H  H4  1  0.275001  0.128199  0.250000  1
  H  H5  1  0.146899  0.275620  0.750000  1
  H  H6  1  0.128075  0.852900  0.750000  1
  H  H7  1  0.724999  0.871801  0.750000  1
  O  O8  1  0.919120  0.615356  0.250000  1
  O  O9  1  0.695187  0.080495  0.250000  1
  O  O10  1  0.385222  0.304176  0.250000  1
  O  O11  1  0.080880  0.384644  0.750000  1
  O  O12  1  0.304813  0.919505  0.750000  1
  O  O13  1  0.614778  0.695824  0.750000  1
