# generated using pymatgen
data_ZnH4(ClO3)2
_symmetry_space_group_name_H-M   'P 1'
_cell_length_a   6.43896939
_cell_length_b   7.08844059
_cell_length_c   6.46328089
_cell_angle_alpha   90.00000000
_cell_angle_beta   95.60153677
_cell_angle_gamma   90.00000000
_symmetry_Int_Tables_number   1
_chemical_formula_structural   ZnH4(ClO3)2
_chemical_formula_sum   'Zn2 H8 Cl4 O12'
_cell_volume   293.59001229
_cell_formula_units_Z   2
loop_
 _symmetry_equiv_pos_site_id
 _symmetry_equiv_pos_as_xyz
  1  'x, y, z'
loop_
 _atom_site_type_symbol
 _atom_site_label
 _atom_site_symmetry_multiplicity
 _atom_site_fract_x
 _atom_site_fract_y
 _atom_site_fract_z
 _atom_site_occupancy
  Zn  Zn0  1  0.500000  0.500000  0.500000  1
  Zn  Zn1  1  0.000000  0.000000  0.000000  1
  H  H2  1  0.397299  0.931972  0.195481  1
  H  H3  1  0.897299  0.568028  0.695481  1
  H  H4  1  0.602701  0.068028  0.804519  1
  H  H5  1  0.102701  0.431972  0.304519  1
  H  H6  1  0.111932  0.652434  0.356112  1
  H  H7  1  0.611932  0.847566  0.856112  1
  H  H8  1  0.888068  0.347566  0.643888  1
  H  H9  1  0.388068  0.152434  0.143888  1
  Cl  Cl10  1  0.273340  0.620179  0.919302  1
  Cl  Cl11  1  0.773340  0.879821  0.419302  1
  Cl  Cl12  1  0.726660  0.379821  0.080698  1
  Cl  Cl13  1  0.226660  0.120179  0.580698  1
  O  O14  1  0.064855  0.733465  0.847898  1
  O  O15  1  0.564855  0.766535  0.347898  1
  O  O16  1  0.935145  0.266535  0.152102  1
  O  O17  1  0.435145  0.233465  0.652102  1
  O  O18  1  0.455900  0.661591  0.775672  1
  O  O19  1  0.955900  0.838409  0.275672  1
  O  O20  1  0.544100  0.338409  0.224328  1
  O  O21  1  0.044100  0.161591  0.724328  1
  O  O22  1  0.189310  0.531213  0.380126  1
  O  O23  1  0.689310  0.968787  0.880126  1
  O  O24  1  0.810690  0.468787  0.619874  1
  O  O25  1  0.310690  0.031213  0.119874  1
