# generated using pymatgen
data_MnSbSe2Br
_symmetry_space_group_name_H-M   'P 1'
_cell_length_a   3.92553579
_cell_length_b   10.84222896
_cell_length_c   27.54396308
_cell_angle_alpha   90.10481948
_cell_angle_beta   90.09226665
_cell_angle_gamma   90.00652116
_symmetry_Int_Tables_number   1
_chemical_formula_structural   MnSbSe2Br
_chemical_formula_sum   'Mn8 Sb8 Se16 Br8'
_cell_volume   1172.31048783
_cell_formula_units_Z   8
loop_
 _symmetry_equiv_pos_site_id
 _symmetry_equiv_pos_as_xyz
  1  'x, y, z'
loop_
 _atom_site_type_symbol
 _atom_site_label
 _atom_site_symmetry_multiplicity
 _atom_site_fract_x
 _atom_site_fract_y
 _atom_site_fract_z
 _atom_site_occupancy
  Mn  Mn0  1  0.000250  0.000097  0.499601  1
  Mn  Mn1  1  0.000681  0.069987  0.244528  1
  Mn  Mn2  1  0.999028  0.576173  0.255891  1
  Mn  Mn3  1  0.000797  0.423278  0.743911  1
  Mn  Mn4  1  -0.000081  0.000425  0.000524  1
  Mn  Mn5  1  0.999596  0.930845  0.755447  1
  Mn  Mn6  1  -0.000172  0.490292  0.502238  1
  Mn  Mn7  1  0.000053  0.500493  -0.000662  1
  Sb  Sb8  1  0.000725  0.648950  0.144317  1
  Sb  Sb9  1  0.499393  0.826731  0.397544  1
  Sb  Sb10  1  0.000304  0.852846  0.644250  1
  Sb  Sb11  1  0.500458  0.173782  0.602998  1
  Sb  Sb12  1  0.499509  0.672215  0.896391  1
  Sb  Sb13  1  0.999635  0.146905  0.355587  1
  Sb  Sb14  1  0.500402  0.327833  0.103265  1
  Sb  Sb15  1  0.999411  0.351024  0.855543  1
  Se  Se16  1  0.999639  0.268735  0.035386  1
  Se  Se17  1  0.498114  0.278875  0.789373  1
  Se  Se18  1  0.501932  0.784597  0.710349  1
  Se  Se19  1  0.000136  0.767384  0.464509  1
  Se  Se20  1  -0.000496  0.235345  0.534951  1
  Se  Se21  1  0.999213  0.574223  0.818469  1
  Se  Se22  1  0.499905  0.052746  0.433969  1
  Se  Se23  1  0.500304  0.948989  0.565711  1
  Se  Se24  1  0.000639  0.425653  0.181294  1
  Se  Se25  1  0.499756  0.447191  0.933690  1
  Se  Se26  1  0.000492  0.731098  0.964136  1
  Se  Se27  1  0.497636  0.216285  0.289356  1
  Se  Se28  1  0.000719  0.079473  0.680479  1
  Se  Se29  1  0.999222  0.922068  0.319180  1
  Se  Se30  1  0.501959  0.720776  0.210635  1
  Se  Se31  1  0.500335  0.552776  0.065933  1
  Br  Br32  1  0.999693  0.583403  0.579036  1
  Br  Br33  1  0.500964  0.053677  0.181879  1
  Br  Br34  1  0.499832  0.946031  0.818101  1
  Br  Br35  1  0.000265  0.419206  0.421667  1
  Br  Br36  1  0.500653  0.445139  0.681917  1
  Br  Br37  1  0.999650  0.916434  0.078896  1
  Br  Br38  1  0.000328  0.082546  0.921707  1
  Br  Br39  1  0.499119  0.555473  0.318001  1
