# generated using pymatgen
data_CaMgSiO4
_symmetry_space_group_name_H-M   'P 1'
_cell_length_a   5.24359902
_cell_length_b   6.87931551
_cell_length_c   9.13294254
_cell_angle_alpha   90.00000000
_cell_angle_beta   90.00000000
_cell_angle_gamma   90.00000000
_symmetry_Int_Tables_number   1
_chemical_formula_structural   CaMgSiO4
_chemical_formula_sum   'Ca4 Mg4 Si4 O16'
_cell_volume   329.44690136
_cell_formula_units_Z   4
loop_
 _symmetry_equiv_pos_site_id
 _symmetry_equiv_pos_as_xyz
  1  'x, y, z'
loop_
 _atom_site_type_symbol
 _atom_site_label
 _atom_site_symmetry_multiplicity
 _atom_site_fract_x
 _atom_site_fract_y
 _atom_site_fract_z
 _atom_site_occupancy
  Ca  Ca0  1  0.037126  0.750000  0.649923  1
  Ca  Ca1  1  0.962874  0.250000  0.350077  1
  Ca  Ca2  1  0.537126  0.250000  0.850077  1
  Ca  Ca3  1  0.462874  0.750000  0.149923  1
  Mg  Mg4  1  0.500000  0.000000  0.500000  1
  Mg  Mg5  1  0.000000  0.000000  0.000000  1
  Mg  Mg6  1  0.000000  0.500000  0.000000  1
  Mg  Mg7  1  0.500000  0.500000  0.500000  1
  Si  Si8  1  0.043432  0.250000  0.682656  1
  Si  Si9  1  0.456568  0.250000  0.182656  1
  Si  Si10  1  0.543432  0.750000  0.817344  1
  Si  Si11  1  0.956568  0.750000  0.317344  1
  O  O12  1  0.750862  0.250000  0.615025  1
  O  O13  1  0.200161  0.441698  0.626573  1
  O  O14  1  0.250862  0.750000  0.884975  1
  O  O15  1  0.200161  0.058302  0.626573  1
  O  O16  1  0.700161  0.558302  0.873427  1
  O  O17  1  0.749138  0.250000  0.115025  1
  O  O18  1  0.799839  0.558302  0.373427  1
  O  O19  1  0.249138  0.750000  0.384975  1
  O  O20  1  0.938554  0.750000  0.135405  1
  O  O21  1  0.799839  0.941698  0.373427  1
  O  O22  1  0.299839  0.058302  0.126573  1
  O  O23  1  0.061446  0.250000  0.864595  1
  O  O24  1  0.438554  0.250000  0.364595  1
  O  O25  1  0.299839  0.441698  0.126573  1
  O  O26  1  0.700161  0.941698  0.873427  1
  O  O27  1  0.561446  0.750000  0.635405  1
