# generated using pymatgen
data_Ba(HO2)2
_symmetry_space_group_name_H-M   'P 1'
_cell_length_a   4.18278913
_cell_length_b   9.53109992
_cell_length_c   8.58083235
_cell_angle_alpha   90.00000000
_cell_angle_beta   81.37880722
_cell_angle_gamma   90.00000000
_symmetry_Int_Tables_number   1
_chemical_formula_structural   Ba(HO2)2
_chemical_formula_sum   'Ba4 H8 O16'
_cell_volume   338.22319279
_cell_formula_units_Z   4
loop_
 _symmetry_equiv_pos_site_id
 _symmetry_equiv_pos_as_xyz
  1  'x, y, z'
loop_
 _atom_site_type_symbol
 _atom_site_label
 _atom_site_symmetry_multiplicity
 _atom_site_fract_x
 _atom_site_fract_y
 _atom_site_fract_z
 _atom_site_occupancy
  Ba  Ba0  1  0.377098  0.294685  0.630953  1
  Ba  Ba1  1  0.622902  0.794685  0.869047  1
  Ba  Ba2  1  0.622902  0.705315  0.369047  1
  Ba  Ba3  1  0.377098  0.205315  0.130953  1
  H  H4  1  0.042768  0.604422  0.649824  1
  H  H5  1  0.957232  0.104422  0.850176  1
  H  H6  1  0.957232  0.395578  0.350176  1
  H  H7  1  0.042768  0.895578  0.149824  1
  H  H8  1  0.200471  0.928266  0.629234  1
  H  H9  1  0.799529  0.428266  0.870766  1
  H  H10  1  0.799529  0.071734  0.370766  1
  H  H11  1  0.200471  0.571734  0.129234  1
  O  O12  1  0.848394  0.494813  0.649052  1
  O  O13  1  0.151606  0.994813  0.850948  1
  O  O14  1  0.151606  0.505187  0.350948  1
  O  O15  1  0.848394  0.005187  0.149052  1
  O  O16  1  0.201191  0.698391  0.657696  1
  O  O17  1  0.798809  0.198391  0.842304  1
  O  O18  1  0.798809  0.301609  0.342304  1
  O  O19  1  0.201191  0.801609  0.157696  1
  O  O20  1  0.045359  0.806573  0.567609  1
  O  O21  1  0.954641  0.306573  0.932391  1
  O  O22  1  0.954641  0.193427  0.432391  1
  O  O23  1  0.045359  0.693427  0.067609  1
  O  O24  1  0.333435  0.002119  0.687293  1
  O  O25  1  0.666565  0.502119  0.812707  1
  O  O26  1  0.666565  0.997881  0.312707  1
  O  O27  1  0.333435  0.497881  0.187293  1
