# generated using pymatgen
data_K2NaMnO4
_symmetry_space_group_name_H-M   'P 1'
_cell_length_a   7.81866659
_cell_length_b   7.81866697
_cell_length_c   10.14696487
_cell_angle_alpha   110.70893373
_cell_angle_beta   110.70893481
_cell_angle_gamma   94.71222894
_symmetry_Int_Tables_number   1
_chemical_formula_structural   K2NaMnO4
_chemical_formula_sum   'K8 Na4 Mn4 O16'
_cell_volume   527.29499909
_cell_formula_units_Z   4
loop_
 _symmetry_equiv_pos_site_id
 _symmetry_equiv_pos_as_xyz
  1  'x, y, z'
loop_
 _atom_site_type_symbol
 _atom_site_label
 _atom_site_symmetry_multiplicity
 _atom_site_fract_x
 _atom_site_fract_y
 _atom_site_fract_z
 _atom_site_occupancy
  K  K0  1  0.057955  0.307955  0.250000  1
  K  K1  1  0.692045  0.942045  0.250000  1
  K  K2  1  0.307955  0.057955  0.750000  1
  K  K3  1  0.735300  0.485300  0.970600  1
  K  K4  1  0.485300  0.735300  0.470600  1
  K  K5  1  0.264700  0.514700  0.029400  1
  K  K6  1  0.942045  0.692045  0.750000  1
  K  K7  1  0.514700  0.264700  0.529400  1
  Na  Na8  1  0.716695  0.966695  0.933389  1
  Na  Na9  1  0.966695  0.716695  0.433389  1
  Na  Na10  1  0.283305  0.033305  0.066611  1
  Na  Na11  1  0.033305  0.283305  0.566611  1
  Mn  Mn12  1  0.868814  0.131186  0.750000  1
  Mn  Mn13  1  0.131186  0.868814  0.250000  1
  Mn  Mn14  1  0.618814  0.381186  0.250000  1
  Mn  Mn15  1  0.381186  0.618814  0.750000  1
  O  O16  1  0.917939  0.356437  0.762442  1
  O  O17  1  0.356437  0.917939  0.262442  1
  O  O18  1  0.615820  0.203980  0.088434  1
  O  O19  1  0.082061  0.643563  0.237558  1
  O  O20  1  0.384180  0.796020  0.911566  1
  O  O21  1  0.203980  0.615820  0.588434  1
  O  O22  1  0.884455  0.972615  0.588434  1
  O  O23  1  0.643563  0.082061  0.737558  1
  O  O24  1  0.972615  0.884455  0.088434  1
  O  O25  1  0.406004  0.344502  0.262442  1
  O  O26  1  0.655497  0.593996  0.237558  1
  O  O27  1  0.344502  0.406004  0.762442  1
  O  O28  1  0.593996  0.655497  0.737558  1
  O  O29  1  0.027385  0.115545  0.911566  1
  O  O30  1  0.796020  0.384180  0.411566  1
  O  O31  1  0.115545  0.027385  0.411566  1
