# generated using pymatgen
data_Tl4Mo(CN)8
_symmetry_space_group_name_H-M   'P 1'
_cell_length_a   7.41431753
_cell_length_b   15.92875935
_cell_length_c   16.11913022
_cell_angle_alpha   60.85786174
_cell_angle_beta   76.70381004
_cell_angle_gamma   76.54193118
_symmetry_Int_Tables_number   1
_chemical_formula_structural   Tl4Mo(CN)8
_chemical_formula_sum   'Tl16 Mo4 C32 N32'
_cell_volume   1601.72730904
_cell_formula_units_Z   4
loop_
 _symmetry_equiv_pos_site_id
 _symmetry_equiv_pos_as_xyz
  1  'x, y, z'
loop_
 _atom_site_type_symbol
 _atom_site_label
 _atom_site_symmetry_multiplicity
 _atom_site_fract_x
 _atom_site_fract_y
 _atom_site_fract_z
 _atom_site_occupancy
  Tl  Tl0  1  0.798254  0.236001  0.638716  1
  Tl  Tl1  1  0.350108  0.211057  0.415622  1
  Tl  Tl2  1  0.327029  0.736001  0.138716  1
  Tl  Tl3  1  0.537240  0.613213  0.884690  1
  Tl  Tl4  1  0.267823  0.441967  0.482248  1
  Tl  Tl5  1  0.672971  0.263999  0.861284  1
  Tl  Tl6  1  0.649892  0.788943  0.584378  1
  Tl  Tl7  1  0.192039  0.058033  0.017752  1
  Tl  Tl8  1  0.807961  0.941967  0.982248  1
  Tl  Tl9  1  0.462760  0.386787  0.115310  1
  Tl  Tl10  1  0.201746  0.763999  0.361284  1
  Tl  Tl11  1  0.976787  0.288943  0.084378  1
  Tl  Tl12  1  0.023213  0.711057  0.915622  1
  Tl  Tl13  1  0.964856  0.113213  0.384690  1
  Tl  Tl14  1  0.035144  0.886787  0.615310  1
  Tl  Tl15  1  0.732177  0.558033  0.517752  1
  Mo  Mo16  1  0.861069  0.516148  0.239102  1
  Mo  Mo17  1  0.383680  0.016148  0.739102  1
  Mo  Mo18  1  0.138931  0.483852  0.760898  1
  Mo  Mo19  1  0.616320  0.983852  0.260898  1
  C  C20  1  0.199953  0.333527  0.862334  1
  C  C21  1  0.208054  0.474624  0.888258  1
  C  C22  1  0.866624  0.911098  0.209700  1
  C  C23  1  0.363298  0.884752  0.736909  1
  C  C24  1  0.513360  0.928276  0.184755  1
  C  C25  1  0.076667  0.585221  0.618727  1
  C  C26  1  0.645762  0.927174  0.788415  1
  C  C27  1  0.984959  0.615248  0.763091  1
  C  C28  1  0.875085  0.451271  0.850828  1
  C  C29  1  0.395813  0.166473  0.637666  1
  C  C30  1  0.626392  0.571724  0.315245  1
  C  C31  1  0.486640  0.071724  0.815245  1
  C  C32  1  0.636702  0.115248  0.263091  1
  C  C33  1  0.133376  0.088902  0.790300  1
  C  C34  1  0.012578  0.411098  0.709700  1
  C  C35  1  0.373608  0.428276  0.684755  1
  C  C36  1  0.570936  0.025376  0.611742  1
  C  C37  1  0.923333  0.414779  0.381273  1
  C  C38  1  0.429064  0.974624  0.388258  1
  C  C39  1  0.987422  0.588902  0.290300  1
  C  C40  1  0.719385  0.085221  0.118727  1
  C  C41  1  0.361351  0.572826  0.711585  1
  C  C42  1  0.822816  0.951271  0.350828  1
  C  C43  1  0.177184  0.048729  0.649172  1
  C  C44  1  0.015041  0.384752  0.236909  1
  C  C45  1  0.791946  0.525376  0.111742  1
  C  C46  1  0.638649  0.427174  0.288415  1
  C  C47  1  0.280615  0.914779  0.881273  1
  C  C48  1  0.800047  0.666473  0.137666  1
  C  C49  1  0.604187  0.833527  0.362334  1
  C  C50  1  0.124915  0.548729  0.149172  1
  C  C51  1  0.354238  0.072826  0.211585  1
  N  N52  1  0.241385  0.472042  0.957370  1
  N  N53  1  0.776740  0.746267  0.075817  1
  N  N54  1  0.213125  0.119703  0.183355  1
  N  N55  1  0.947238  0.374624  0.677304  1
  N  N56  1  0.778695  0.142031  0.041798  1
  N  N57  1  0.736476  0.428186  0.904071  1
  N  N58  1  0.344151  0.814570  0.734294  1
  N  N59  1  0.502967  0.599290  0.360947  1
  N  N60  1  0.263524  0.571814  0.095929  1
  N  N61  1  0.516183  0.380297  0.316645  1
  N  N62  1  0.497033  0.400710  0.639053  1
  N  N63  1  0.483817  0.619703  0.683355  1
  N  N64  1  0.655849  0.185430  0.265706  1
  N  N65  1  0.893015  0.685430  0.765706  1
  N  N66  1  0.329204  0.972042  0.457370  1
  N  N67  1  0.401175  0.246267  0.575817  1
  N  N68  1  0.037477  0.642031  0.541798  1
  N  N69  1  0.052762  0.625376  0.322696  1
  N  N70  1  0.999166  0.125376  0.822696  1
  N  N71  1  0.000834  0.874624  0.177304  1
  N  N72  1  0.962523  0.357969  0.458203  1
  N  N73  1  0.536796  0.099290  0.860947  1
  N  N74  1  0.931267  0.928186  0.404071  1
  N  N75  1  0.758615  0.527958  0.042630  1
  N  N76  1  0.221305  0.857969  0.958202  1
  N  N77  1  0.106985  0.314570  0.234294  1
  N  N78  1  0.670796  0.027958  0.542630  1
  N  N79  1  0.223260  0.253733  0.924183  1
  N  N80  1  0.598825  0.753733  0.424183  1
  N  N81  1  0.463204  0.900710  0.139053  1
  N  N82  1  0.786875  0.880297  0.816645  1
  N  N83  1  0.068733  0.071814  0.595929  1
