# generated using pymatgen
data_Mg2TiO4
_symmetry_space_group_name_H-M   'P 1'
_cell_length_a   6.07605787
_cell_length_b   18.23332659
_cell_length_c   10.33750508
_cell_angle_alpha   53.98596813
_cell_angle_beta   90.07760234
_cell_angle_gamma   90.00181427
_symmetry_Int_Tables_number   1
_chemical_formula_structural   Mg2TiO4
_chemical_formula_sum   'Mg24 Ti12 O48'
_cell_volume   926.36748997
_cell_formula_units_Z   12
loop_
 _symmetry_equiv_pos_site_id
 _symmetry_equiv_pos_as_xyz
  1  'x, y, z'
loop_
 _atom_site_type_symbol
 _atom_site_label
 _atom_site_symmetry_multiplicity
 _atom_site_fract_x
 _atom_site_fract_y
 _atom_site_fract_z
 _atom_site_occupancy
  Mg  Mg0  1  0.004504  0.416806  0.996764  1
  Mg  Mg1  1  0.995780  0.748313  0.002766  1
  Mg  Mg2  1  0.996148  0.751147  0.500753  1
  Mg  Mg3  1  0.249170  0.083230  0.751423  1
  Mg  Mg4  1  0.251601  0.417082  0.747430  1
  Mg  Mg5  1  0.245262  0.749860  0.751220  1
  Mg  Mg6  1  0.244305  0.207766  0.125136  1
  Mg  Mg7  1  0.253237  0.540405  0.124112  1
  Mg  Mg8  1  0.245178  0.873709  0.126189  1
  Mg  Mg9  1  0.259206  0.291961  0.373714  1
  Mg  Mg10  1  0.250436  0.625132  0.377646  1
  Mg  Mg11  1  0.257855  0.960766  0.373164  1
  Mg  Mg12  1  0.500147  0.083217  0.000266  1
  Mg  Mg13  1  0.742239  0.208186  0.628025  1
  Mg  Mg14  1  0.759793  0.291269  0.871856  1
  Mg  Mg15  1  0.748783  0.543236  0.621903  1
  Mg  Mg16  1  0.745705  0.624432  0.875002  1
  Mg  Mg17  1  0.741222  0.876238  0.625515  1
  Mg  Mg18  1  0.752149  0.956408  0.877650  1
  Mg  Mg19  1  0.753632  0.249983  0.248907  1
  Mg  Mg20  1  0.747361  0.917681  0.250319  1
  Mg  Mg21  1  0.752370  0.582413  0.251126  1
  Mg  Mg22  1  0.001380  0.084208  0.497930  1
  Mg  Mg23  1  0.002961  0.415597  0.500892  1
  Ti  Ti24  1  0.000436  0.078227  0.001620  1
  Ti  Ti25  1  0.254457  0.249912  0.750808  1
  Ti  Ti26  1  0.235789  0.584415  0.749108  1
  Ti  Ti27  1  0.230993  0.915323  0.750677  1
  Ti  Ti28  1  0.503112  0.085978  0.507049  1
  Ti  Ti29  1  0.501543  0.421559  0.495138  1
  Ti  Ti30  1  0.505308  0.412713  0.995952  1
  Ti  Ti31  1  0.495522  0.756372  0.499172  1
  Ti  Ti32  1  0.495657  0.744216  0.003265  1
  Ti  Ti33  1  0.745004  0.085419  0.248684  1
  Ti  Ti34  1  0.770114  0.415523  0.248767  1
  Ti  Ti35  1  0.760498  0.749683  0.252093  1
  O  O36  1  0.017260  0.166433  0.762527  1
  O  O37  1  0.034535  0.330701  0.745507  1
  O  O38  1  0.031513  0.505910  0.745534  1
  O  O39  1  0.026406  0.662713  0.749922  1
  O  O40  1  0.023214  0.837051  0.751860  1
  O  O41  1  0.029587  0.995738  0.749243  1
  O  O42  1  0.241432  0.164900  -0.013809  1
  O  O43  1  0.262696  0.499332  -0.017084  1
  O  O44  1  0.257407  0.831186  -0.012933  1
  O  O45  1  0.262877  0.000147  0.517306  1
  O  O46  1  0.261168  0.334362  0.513237  1
  O  O47  1  0.259435  0.669817  0.513502  1
  O  O48  1  0.264249  0.156499  0.500146  1
  O  O49  1  0.266945  0.343451  -0.002364  1
  O  O50  1  0.235279  0.009006  0.001744  1
  O  O51  1  0.267670  0.490271  0.498434  1
  O  O52  1  0.258863  0.824940  0.500355  1
  O  O53  1  0.258638  0.675551  0.001719  1
  O  O54  1  0.468516  0.168500  0.755985  1
  O  O55  1  0.515695  0.674620  0.237251  1
  O  O56  1  0.518253  0.158669  0.262098  1
  O  O57  1  0.477139  0.831372  0.767078  1
  O  O58  1  0.514826  0.826663  0.263381  1
  O  O59  1  0.519982  0.490924  0.264102  1
  O  O60  1  0.531462  0.006850  0.244871  1
  O  O61  1  0.523651  0.342156  0.232585  1
  O  O62  1  0.478890  0.669098  0.734833  1
  O  O63  1  0.485168  0.332198  0.737002  1
  O  O64  1  0.483397  0.499879  0.762113  1
  O  O65  1  0.483769  0.001216  0.738058  1
  O  O66  1  0.764225  0.009917  -0.000071  1
  O  O67  1  0.741797  0.343801  0.996353  1
  O  O68  1  0.736880  0.157370  0.500570  1
  O  O69  1  0.733159  0.675271  0.002153  1
  O  O70  1  0.735023  0.824482  0.500309  1
  O  O71  1  0.738170  0.488961  0.500525  1
  O  O72  1  0.736498  0.821328  0.016655  1
  O  O73  1  0.759688  0.155876  0.014020  1
  O  O74  1  0.741522  0.489027  0.012965  1
  O  O75  1  0.741600  0.343815  0.483295  1
  O  O76  1  0.733816  0.678433  0.485879  1
  O  O77  1  0.741160  0.011493  0.486554  1
  O  O78  1  0.983011  0.008227  0.238268  1
  O  O79  1  0.969902  0.161929  0.253067  1
  O  O80  1  0.977237  0.337932  0.247556  1
  O  O81  1  0.972785  0.495599  0.249154  1
  O  O82  1  0.967896  0.669844  0.253806  1
  O  O83  1  0.966856  0.828157  0.252701  1
