# generated using pymatgen
data_MnSb6(Pb2S7)2
_symmetry_space_group_name_H-M   'P 1'
_cell_length_a   4.03600356
_cell_length_b   15.97886328
_cell_length_c   19.37850325
_cell_angle_alpha   90.00000000
_cell_angle_beta   90.00000000
_cell_angle_gamma   92.02113297
_symmetry_Int_Tables_number   1
_chemical_formula_structural   MnSb6(Pb2S7)2
_chemical_formula_sum   'Mn2 Sb12 Pb8 S28'
_cell_volume   1248.95671431
_cell_formula_units_Z   2
loop_
 _symmetry_equiv_pos_site_id
 _symmetry_equiv_pos_as_xyz
  1  'x, y, z'
loop_
 _atom_site_type_symbol
 _atom_site_label
 _atom_site_symmetry_multiplicity
 _atom_site_fract_x
 _atom_site_fract_y
 _atom_site_fract_z
 _atom_site_occupancy
  Mn  Mn0  1  0.500000  0.000000  0.000000  1
  Mn  Mn1  1  0.500000  0.500000  0.500000  1
  Sb  Sb2  1  0.090646  0.682170  0.437648  1
  Sb  Sb3  1  0.876901  0.870526  0.340139  1
  Sb  Sb4  1  0.123038  0.896806  0.549360  1
  Sb  Sb5  1  0.876962  0.103194  0.450640  1
  Sb  Sb6  1  0.909354  0.317830  0.562352  1
  Sb  Sb7  1  0.909354  0.817830  0.937648  1
  Sb  Sb8  1  0.876901  0.370526  0.159861  1
  Sb  Sb9  1  0.090646  0.182170  0.062352  1
  Sb  Sb10  1  0.123038  0.396806  0.950640  1
  Sb  Sb11  1  0.123099  0.629474  0.840139  1
  Sb  Sb12  1  0.123099  0.129474  0.659861  1
  Sb  Sb13  1  0.876962  0.603194  0.049360  1
  Pb  Pb14  1  0.460559  0.314589  0.360068  1
  Pb  Pb15  1  0.539441  0.185411  0.860068  1
  Pb  Pb16  1  0.435627  0.072872  0.260462  1
  Pb  Pb17  1  0.460559  0.814589  0.139932  1
  Pb  Pb18  1  0.435627  0.572872  0.239538  1
  Pb  Pb19  1  0.564373  0.427128  0.760462  1
  Pb  Pb20  1  0.564373  0.927128  0.739538  1
  Pb  Pb21  1  0.539441  0.685411  0.639932  1
  S  S22  1  0.026029  0.096570  0.956039  1
  S  S23  1  0.552207  0.003245  0.600916  1
  S  S24  1  0.057850  0.318154  0.840750  1
  S  S25  1  0.529844  0.786640  0.503770  1
  S  S26  1  0.405207  0.777253  0.297680  1
  S  S27  1  0.447793  0.996755  0.399084  1
  S  S28  1  0.552207  0.503245  0.899084  1
  S  S29  1  0.081153  0.551687  0.730664  1
  S  S30  1  0.405207  0.277253  0.202320  1
  S  S31  1  0.594793  0.722747  0.797680  1
  S  S32  1  0.515900  0.583002  0.395084  1
  S  S33  1  0.594793  0.222747  0.702320  1
  S  S34  1  0.529844  0.286640  0.996230  1
  S  S35  1  0.470156  0.213360  0.496230  1
  S  S36  1  0.447793  0.496755  0.100916  1
  S  S37  1  0.515900  0.083002  0.104916  1
  S  S38  1  0.081153  0.051687  0.769336  1
  S  S39  1  0.942150  0.181846  0.340749  1
  S  S40  1  0.918847  0.448313  0.269336  1
  S  S41  1  0.942150  0.681846  0.159250  1
  S  S42  1  0.484100  0.416998  0.604916  1
  S  S43  1  0.973971  0.403430  0.456039  1
  S  S44  1  0.484100  0.916998  0.895084  1
  S  S45  1  0.918847  0.948313  0.230664  1
  S  S46  1  0.470156  0.713360  0.003770  1
  S  S47  1  0.973971  0.903430  0.043961  1
  S  S48  1  0.057850  0.818154  0.659250  1
  S  S49  1  0.026029  0.596570  0.543961  1
