# generated using pymatgen
data_Ce2USe4
_symmetry_space_group_name_H-M   'P 1'
_cell_length_a   7.67266512
_cell_length_b   7.67266499
_cell_length_c   7.67266565
_cell_angle_alpha   109.34640316
_cell_angle_beta   109.72114210
_cell_angle_gamma   109.34640555
_symmetry_Int_Tables_number   1
_chemical_formula_structural   Ce2USe4
_chemical_formula_sum   'Ce4 U2 Se8'
_cell_volume   347.70478293
_cell_formula_units_Z   2
loop_
 _symmetry_equiv_pos_site_id
 _symmetry_equiv_pos_as_xyz
  1  'x, y, z'
loop_
 _atom_site_type_symbol
 _atom_site_label
 _atom_site_symmetry_multiplicity
 _atom_site_fract_x
 _atom_site_fract_y
 _atom_site_fract_z
 _atom_site_occupancy
  Ce  Ce0  1  0.250000  0.625999  0.375999  1
  Ce  Ce1  1  0.624001  0.374001  0.250000  1
  Ce  Ce2  1  0.750000  0.874001  0.124001  1
  Ce  Ce3  1  0.875999  0.125999  0.750000  1
  U  U4  1  0.125000  0.750000  0.875000  1
  U  U5  1  0.375000  0.250000  0.625000  1
  Se  Se6  1  0.153497  0.149004  0.153510  1
  Se  Se7  1  0.495494  -0.000013  0.346490  1
  Se  Se8  1  0.346503  0.500013  0.995507  1
  Se  Se9  1  0.653510  0.649004  0.653497  1
  Se  Se10  1  0.495507  0.000013  0.846503  1
  Se  Se11  1  0.004493  0.850996  0.504506  1
  Se  Se12  1  0.846490  0.499987  0.995494  1
  Se  Se13  1  0.004506  0.350996  0.504493  1
