# generated using pymatgen
data_Cu2BiAsO6
_symmetry_space_group_name_H-M   'P 1'
_cell_length_a   5.29358290
_cell_length_b   7.75145730
_cell_length_c   12.48774510
_cell_angle_alpha   90.01534991
_cell_angle_beta   90.00000571
_cell_angle_gamma   90.00002787
_symmetry_Int_Tables_number   1
_chemical_formula_structural   Cu2BiAsO6
_chemical_formula_sum   'Cu8 Bi4 As4 O24'
_cell_volume   512.40939924
_cell_formula_units_Z   4
loop_
 _symmetry_equiv_pos_site_id
 _symmetry_equiv_pos_as_xyz
  1  'x, y, z'
loop_
 _atom_site_type_symbol
 _atom_site_label
 _atom_site_symmetry_multiplicity
 _atom_site_fract_x
 _atom_site_fract_y
 _atom_site_fract_z
 _atom_site_occupancy
  Cu  Cu0  1  0.750000  0.218390  0.872331  1
  Cu  Cu1  1  0.750000  0.544957  0.194075  1
  Cu  Cu2  1  0.250000  0.781506  0.127742  1
  Cu  Cu3  1  0.750006  0.281444  0.372281  1
  Cu  Cu4  1  0.250000  0.044871  0.305907  1
  Cu  Cu5  1  0.250000  0.718619  0.627828  1
  Cu  Cu6  1  0.250000  0.455105  0.805875  1
  Cu  Cu7  1  0.750000  0.955069  0.694072  1
  Bi  Bi8  1  0.750000  0.649894  0.942593  1
  Bi  Bi9  1  0.250000  0.149996  0.557417  1
  Bi  Bi10  1  0.749999  0.850087  0.442599  1
  Bi  Bi11  1  0.250000  0.350067  0.057430  1
  As  As12  1  0.250001  0.524589  0.372716  1
  As  As13  1  0.750000  0.475617  0.627293  1
  As  As14  1  0.250000  0.975423  0.872695  1
  As  As15  1  0.750000  0.024505  0.127266  1
  O  O16  1  0.250000  0.755811  0.879098  1
  O  O17  1  0.989042  0.055943  0.799781  1
  O  O18  1  0.489253  0.555949  0.700171  1
  O  O19  1  0.498857  0.389285  0.910843  1
  O  O20  1  0.501270  0.610648  0.089244  1
  O  O21  1  0.499024  0.110727  0.410904  1
  O  O22  1  0.250000  0.744217  0.379086  1
  O  O23  1  0.750000  0.255966  0.620930  1
  O  O24  1  0.510957  0.055943  0.799781  1
  O  O25  1  0.749999  0.565097  0.502831  1
  O  O26  1  0.010745  0.555949  0.700171  1
  O  O27  1  0.511116  0.443979  0.299740  1
  O  O28  1  0.988886  0.443980  0.299740  1
  O  O29  1  0.001143  0.389285  0.910843  1
  O  O30  1  0.998729  0.610648  0.089244  1
  O  O31  1  0.489183  0.943974  0.200129  1
  O  O32  1  0.750000  0.244147  0.120933  1
  O  O33  1  0.749999  0.934831  0.002822  1
  O  O34  1  0.501383  0.889398  0.589201  1
  O  O35  1  0.998617  0.889398  0.589201  1
  O  O36  1  0.010816  0.943974  0.200129  1
  O  O37  1  0.249999  0.434836  0.497064  1
  O  O38  1  0.249999  0.065154  0.997093  1
  O  O39  1  0.000979  0.110725  0.410904  1
