# generated using pymatgen
data_Fe3MoC11SeS3O11
_symmetry_space_group_name_H-M   'P 1'
_cell_length_a   10.96932200
_cell_length_b   11.77326689
_cell_length_c   17.59619967
_cell_angle_alpha   90.00000000
_cell_angle_beta   90.00000000
_cell_angle_gamma   108.85480737
_symmetry_Int_Tables_number   1
_chemical_formula_structural   Fe3MoC11SeS3O11
_chemical_formula_sum   'Fe12 Mo4 C44 Se4 S12 O44'
_cell_volume   2150.51813387
_cell_formula_units_Z   4
loop_
 _symmetry_equiv_pos_site_id
 _symmetry_equiv_pos_as_xyz
  1  'x, y, z'
loop_
 _atom_site_type_symbol
 _atom_site_label
 _atom_site_symmetry_multiplicity
 _atom_site_fract_x
 _atom_site_fract_y
 _atom_site_fract_z
 _atom_site_occupancy
  Fe  Fe0  1  0.804626  0.166909  0.071831  1
  Fe  Fe1  1  0.695374  0.333091  0.571831  1
  Fe  Fe2  1  0.609191  0.098548  0.229182  1
  Fe  Fe3  1  0.390809  0.901452  0.770818  1
  Fe  Fe4  1  0.664760  0.692368  0.134533  1
  Fe  Fe5  1  0.164760  0.192368  0.365467  1
  Fe  Fe6  1  0.195374  0.833091  0.928169  1
  Fe  Fe7  1  0.835240  0.807632  0.634533  1
  Fe  Fe8  1  0.109191  0.598548  0.270818  1
  Fe  Fe9  1  0.304626  0.666909  0.428169  1
  Fe  Fe10  1  0.890809  0.401452  0.729182  1
  Fe  Fe11  1  0.335240  0.307632  0.865467  1
  Mo  Mo12  1  0.207793  0.445443  0.354238  1
  Mo  Mo13  1  0.792207  0.554557  0.645762  1
  Mo  Mo14  1  0.707793  0.945443  0.145762  1
  Mo  Mo15  1  0.292207  0.054557  0.854238  1
  C  C16  1  0.053544  0.497777  0.743740  1
  C  C17  1  0.725550  0.376656  0.473422  1
  C  C18  1  0.886791  0.953499  0.111703  1
  C  C19  1  0.078334  0.045117  0.400348  1
  C  C20  1  0.668256  0.647520  0.231336  1
  C  C21  1  0.202497  0.684930  0.933238  1
  C  C22  1  0.774450  0.123344  0.973422  1
  C  C23  1  0.323014  0.188735  0.385165  1
  C  C24  1  0.386791  0.453499  0.388297  1
  C  C25  1  0.753061  0.597332  0.752188  1
  C  C26  1  0.553544  0.997777  0.756260  1
  C  C27  1  0.274450  0.623344  0.526578  1
  C  C28  1  0.477111  0.707825  0.438701  1
  C  C29  1  0.746939  0.902668  0.252188  1
  C  C30  1  0.356722  0.911609  0.671509  1
  C  C31  1  0.946456  0.502223  0.256260  1
  C  C32  1  0.022889  0.792175  0.938701  1
  C  C33  1  0.331744  0.352480  0.768664  1
  C  C34  1  0.446456  0.002223  0.243740  1
  C  C35  1  0.168256  0.147520  0.268664  1
  C  C36  1  0.613209  0.546501  0.611703  1
  C  C37  1  0.921666  0.954883  0.599652  1
  C  C38  1  0.143278  0.588391  0.171509  1
  C  C39  1  0.176986  0.311265  0.885165  1
  C  C40  1  0.113209  0.046501  0.888297  1
  C  C41  1  0.578334  0.545117  0.099652  1
  C  C42  1  0.253061  0.097332  0.747812  1
  C  C43  1  0.422060  0.762106  0.767603  1
  C  C44  1  0.522889  0.292175  0.561299  1
  C  C45  1  0.823014  0.688735  0.114835  1
  C  C46  1  0.643278  0.088391  0.328491  1
  C  C47  1  0.797503  0.315070  0.066762  1
  C  C48  1  0.246939  0.402668  0.247812  1
  C  C49  1  0.922060  0.262106  0.732397  1
  C  C50  1  0.831744  0.852480  0.731336  1
  C  C51  1  0.856722  0.411609  0.828491  1
  C  C52  1  0.077940  0.737894  0.267603  1
  C  C53  1  0.297503  0.815070  0.433238  1
  C  C54  1  0.676986  0.811265  0.614835  1
  C  C55  1  0.702497  0.184930  0.566762  1
  C  C56  1  0.421666  0.454883  0.900348  1
  C  C57  1  0.225550  0.876656  0.026578  1
  C  C58  1  0.977111  0.207825  0.061299  1
  C  C59  1  0.577940  0.237894  0.232397  1
  Se  Se60  1  0.989114  0.269650  0.364440  1
  Se  Se61  1  0.489114  0.769650  0.135560  1
  Se  Se62  1  0.510886  0.230350  0.864440  1
  Se  Se63  1  0.010886  0.730350  0.635560  1
  S  S64  1  0.908014  0.421202  0.600488  1
  S  S65  1  0.591986  0.078798  0.100488  1
  S  S66  1  0.820131  0.147833  0.198699  1
  S  S67  1  0.408014  0.921202  0.899512  1
  S  S68  1  0.621472  0.803190  0.038396  1
  S  S69  1  0.320131  0.647833  0.301301  1
  S  S70  1  0.091986  0.578798  0.399512  1
  S  S71  1  0.679869  0.352167  0.698699  1
  S  S72  1  0.179869  0.852167  0.801301  1
  S  S73  1  0.121472  0.303190  0.461604  1
  S  S74  1  0.378528  0.196810  0.961604  1
  S  S75  1  0.878528  0.696810  0.538396  1
  O  O76  1  0.747252  0.402576  0.410207  1
  O  O77  1  0.488627  0.454778  0.407740  1
  O  O78  1  0.551168  0.325364  0.234010  1
  O  O79  1  0.774731  0.886434  0.314186  1
  O  O80  1  0.835027  0.418262  0.892492  1
  O  O81  1  0.511373  0.545222  0.592260  1
  O  O82  1  0.925006  0.682750  0.103880  1
  O  O83  1  0.706987  0.087940  0.564752  1
  O  O84  1  0.293013  0.912060  0.435248  1
  O  O85  1  0.011373  0.045222  0.907740  1
  O  O86  1  0.225269  0.113566  0.685814  1
  O  O87  1  0.425006  0.182750  0.396120  1
  O  O88  1  0.522288  0.449710  0.078016  1
  O  O89  1  0.670660  0.615658  0.293425  1
  O  O90  1  0.022287  0.949710  0.421984  1
  O  O91  1  0.658287  0.058440  0.744470  1
  O  O92  1  0.829340  0.884342  0.793425  1
  O  O93  1  0.448832  0.674636  0.765990  1
  O  O94  1  0.051168  0.825364  0.265990  1
  O  O95  1  0.170660  0.115658  0.206575  1
  O  O96  1  0.725269  0.613566  0.814186  1
  O  O97  1  0.247252  0.902576  0.089793  1
  O  O98  1  0.329340  0.384342  0.706575  1
  O  O99  1  0.793013  0.412060  0.064752  1
  O  O100  1  0.206987  0.587940  0.935248  1
  O  O101  1  0.411783  0.263334  0.556994  1
  O  O102  1  0.164973  0.581738  0.107508  1
  O  O103  1  0.335027  0.918262  0.607508  1
  O  O104  1  0.158287  0.558440  0.755530  1
  O  O105  1  0.841713  0.441560  0.244470  1
  O  O106  1  0.988627  0.954778  0.092260  1
  O  O107  1  0.588217  0.736666  0.443006  1
  O  O108  1  0.088217  0.236666  0.056994  1
  O  O109  1  0.477712  0.550290  0.921984  1
  O  O110  1  0.977712  0.050290  0.578016  1
  O  O111  1  0.911783  0.763334  0.943006  1
  O  O112  1  0.274731  0.386434  0.185814  1
  O  O113  1  0.664973  0.081738  0.392492  1
  O  O114  1  0.252748  0.597424  0.589793  1
  O  O115  1  0.341713  0.941560  0.255530  1
  O  O116  1  0.574994  0.817250  0.603880  1
  O  O117  1  0.074994  0.317250  0.896120  1
  O  O118  1  0.948832  0.174636  0.734010  1
  O  O119  1  0.752748  0.097424  0.910207  1
