# generated using pymatgen
data_LiPrS2
_symmetry_space_group_name_H-M   'P 1'
_cell_length_a   8.03519306
_cell_length_b   10.66086197
_cell_length_c   7.00337784
_cell_angle_alpha   29.16206498
_cell_angle_beta   55.02614457
_cell_angle_gamma   41.09837319
_symmetry_Int_Tables_number   1
_chemical_formula_structural   LiPrS2
_chemical_formula_sum   'Li2 Pr2 S4'
_cell_volume   185.29935840
_cell_formula_units_Z   2
loop_
 _symmetry_equiv_pos_site_id
 _symmetry_equiv_pos_as_xyz
  1  'x, y, z'
loop_
 _atom_site_type_symbol
 _atom_site_label
 _atom_site_symmetry_multiplicity
 _atom_site_fract_x
 _atom_site_fract_y
 _atom_site_fract_z
 _atom_site_occupancy
  Li  Li0  1  0.257423  0.499743  0.993843  1
  Li  Li1  1  0.499594  0.005402  0.999495  1
  Pr  Pr2  1  0.998206  0.004199  0.999472  1
  Pr  Pr3  1  0.747104  0.504742  0.999070  1
  S  S4  1  0.994671  0.504057  0.503969  1
  S  S5  1  0.498981  0.495148  0.506472  1
  S  S6  1  0.245615  0.996340  0.509715  1
  S  S7  1  0.744480  0.007141  0.494034  1
