# generated using pymatgen
data_H6N2O
_symmetry_space_group_name_H-M   'P 1'
_cell_length_a   4.91448358
_cell_length_b   4.91448375
_cell_length_c   10.61015700
_cell_angle_alpha   90.00000000
_cell_angle_beta   90.00000000
_cell_angle_gamma   119.99999886
_symmetry_Int_Tables_number   1
_chemical_formula_structural   H6N2O
_chemical_formula_sum   'H18 N6 O3'
_cell_volume   221.92602730
_cell_formula_units_Z   3
loop_
 _symmetry_equiv_pos_site_id
 _symmetry_equiv_pos_as_xyz
  1  'x, y, z'
loop_
 _atom_site_type_symbol
 _atom_site_label
 _atom_site_symmetry_multiplicity
 _atom_site_fract_x
 _atom_site_fract_y
 _atom_site_fract_z
 _atom_site_occupancy
  H  H0  1  0.803226  0.722615  0.747897  1
  H  H1  1  0.080734  0.277395  0.918749  1
  H  H2  1  0.408765  0.615067  0.932703  1
  H  H3  1  0.439897  0.906467  0.765574  1
  H  H4  1  0.533461  0.093720  0.901244  1
  H  H5  1  0.793481  0.384872  0.733968  1
  H  H6  1  0.466570  0.560103  0.432241  1
  H  H7  1  0.919388  0.196774  0.414564  1
  H  H8  1  0.591391  0.206519  0.400634  1
  H  H9  1  0.196660  0.919266  0.585416  1
  H  H10  1  0.206302  0.591235  0.599370  1
  H  H11  1  0.560258  0.466539  0.567911  1
  H  H12  1  0.722605  0.803340  0.252082  1
  H  H13  1  0.906280  0.439742  0.234577  1
  H  H14  1  0.277385  0.080612  0.081230  1
  H  H15  1  0.615128  0.408609  0.067301  1
  H  H16  1  0.384933  0.793698  0.266037  1
  H  H17  1  0.093533  0.533430  0.098908  1
  N  N18  1  0.749519  0.166886  0.350535  1
  N  N19  1  0.417367  0.250481  0.017201  1
  N  N20  1  0.833114  0.582633  0.683868  1
  N  N21  1  0.250613  0.417359  0.982799  1
  N  N22  1  0.166746  0.749387  0.649465  1
  N  N23  1  0.582641  0.833254  0.316132  1
  O  O24  1  0.611911  0.000126  0.833391  1
  O  O25  1  0.388215  0.388089  0.500057  1
  O  O26  1  0.999874  0.611785  0.166724  1
