# generated using pymatgen
data_InAg(WO4)2
_symmetry_space_group_name_H-M   'P 1'
_cell_length_a   5.16928169
_cell_length_b   5.94101822
_cell_length_c   10.41253098
_cell_angle_alpha   90.00000000
_cell_angle_beta   90.99413138
_cell_angle_gamma   90.00000000
_symmetry_Int_Tables_number   1
_chemical_formula_structural   InAg(WO4)2
_chemical_formula_sum   'In2 Ag2 W4 O16'
_cell_volume   319.72898887
_cell_formula_units_Z   2
loop_
 _symmetry_equiv_pos_site_id
 _symmetry_equiv_pos_as_xyz
  1  'x, y, z'
loop_
 _atom_site_type_symbol
 _atom_site_label
 _atom_site_symmetry_multiplicity
 _atom_site_fract_x
 _atom_site_fract_y
 _atom_site_fract_z
 _atom_site_occupancy
  In  In0  1  0.750000  0.320258  0.500000  1
  In  In1  1  0.250000  0.679742  0.500000  1
  Ag  Ag2  1  0.750000  0.321638  0.000000  1
  Ag  Ag3  1  0.250000  0.678362  0.000000  1
  W  W4  1  0.256879  0.170072  0.261132  1
  W  W5  1  0.243121  0.170072  0.738868  1
  W  W6  1  0.743121  0.829928  0.738868  1
  W  W7  1  0.756879  0.829928  0.261132  1
  O  O8  1  0.050820  0.894890  0.630460  1
  O  O9  1  0.127777  0.364074  0.147475  1
  O  O10  1  0.949180  0.105110  0.369540  1
  O  O11  1  0.929597  0.096877  0.827062  1
  O  O12  1  0.601155  0.625458  0.613946  1
  O  O13  1  0.070403  0.903123  0.172938  1
  O  O14  1  0.570403  0.096877  0.172938  1
  O  O15  1  0.429597  0.903123  0.827062  1
  O  O16  1  0.449180  0.894890  0.369540  1
  O  O17  1  0.550820  0.105110  0.630460  1
  O  O18  1  0.627777  0.635926  0.147475  1
  O  O19  1  0.101155  0.374542  0.613946  1
  O  O20  1  0.398845  0.374542  0.386054  1
  O  O21  1  0.898845  0.625458  0.386054  1
  O  O22  1  0.872223  0.635926  0.852525  1
  O  O23  1  0.372223  0.364074  0.852525  1
