# generated using pymatgen
data_Ba17Yb16Zn8Pt4O57
_symmetry_space_group_name_H-M   'P 1'
_cell_length_a   5.74425619
_cell_length_b   16.51135407
_cell_length_c   16.50848716
_cell_angle_alpha   88.29056656
_cell_angle_beta   79.99171993
_cell_angle_gamma   79.96011900
_symmetry_Int_Tables_number   1
_chemical_formula_structural   Ba17Yb16Zn8Pt4O57
_chemical_formula_sum   'Ba17 Yb16 Zn8 Pt4 O57'
_cell_volume   1518.31594496
_cell_formula_units_Z   1
loop_
 _symmetry_equiv_pos_site_id
 _symmetry_equiv_pos_as_xyz
  1  'x, y, z'
loop_
 _atom_site_type_symbol
 _atom_site_label
 _atom_site_symmetry_multiplicity
 _atom_site_fract_x
 _atom_site_fract_y
 _atom_site_fract_z
 _atom_site_occupancy
  Yb  Yb0  1  0.747379  0.757360  0.745360  1
  Yb  Yb1  1  0.509012  0.890163  0.089606  1
  Yb  Yb2  1  0.597824  0.910429  0.889985  1
  Yb  Yb3  1  0.170822  0.776270  0.879164  1
  Yb  Yb4  1  0.399257  0.089851  0.109560  1
  Yb  Yb5  1  0.827330  0.224041  0.120313  1
  Yb  Yb6  1  0.495190  0.254115  0.756149  1
  Yb  Yb7  1  0.324311  0.626502  0.725908  1
  Yb  Yb8  1  0.490022  0.109037  0.910162  1
  Yb  Yb9  1  0.947484  0.878866  0.223786  1
  Yb  Yb10  1  0.251859  0.243880  0.254733  1
  Yb  Yb11  1  0.051977  0.120161  0.775296  1
  Yb  Yb12  1  0.952196  0.725245  0.373620  1
  Yb  Yb13  1  0.677437  0.373460  0.273961  1
  Yb  Yb14  1  0.048951  0.274125  0.626005  1
  Yb  Yb15  1  0.506123  0.744629  0.242879  1
  Ba  Ba16  1  0.728997  0.163362  0.380217  1
  Ba  Ba17  1  0.561809  0.373029  0.507607  1
  Ba  Ba18  1  0.109340  0.618928  0.162539  1
  Ba  Ba19  1  0.440889  0.628556  0.491790  1
  Ba  Ba20  1  0.651241  0.994595  0.698991  1
  Ba  Ba21  1  0.812183  0.921136  0.452745  1
  Ba  Ba22  1  0.932365  0.508812  0.627442  1
  Ba  Ba23  1  0.069825  0.491619  0.371480  1
  Ba  Ba24  1  0.271566  0.837522  0.620015  1
  Ba  Ba25  1  0.892032  0.380381  0.836417  1
  Ba  Ba26  1  0.267312  0.547120  0.920860  1
  Ba  Ba27  1  0.353630  0.299895  0.990919  1
  Ba  Ba28  1  0.344409  0.008668  0.300179  1
  Ba  Ba29  1  0.647149  0.698974  0.006113  1
  Ba  Ba30  1  0.734378  0.452333  0.077618  1
  Ba  Ba31  1  -0.001237  -0.000278  0.000500  1
  Ba  Ba32  1  0.187295  0.078985  0.545975  1
  Zn  Zn33  1  0.072281  0.796574  0.056390  1
  Zn  Zn34  1  0.214017  0.406102  0.165282  1
  Zn  Zn35  1  0.380683  0.833523  0.405593  1
  Zn  Zn36  1  0.619925  0.167134  0.592061  1
  Zn  Zn37  1  0.127929  0.943644  0.796501  1
  Zn  Zn38  1  0.787714  0.592671  0.832963  1
  Zn  Zn39  1  0.868144  0.057323  0.203192  1
  Zn  Zn40  1  0.927681  0.202277  0.942783  1
  Pt  Pt41  1  0.417499  0.438557  0.726728  1
  Pt  Pt42  1  0.583912  0.560709  0.272585  1
  Pt  Pt43  1  0.145951  0.273305  0.439049  1
  Pt  Pt44  1  0.856144  0.727590  0.561236  1
  O  O45  1  0.823249  0.170949  0.676787  1
  O  O46  1  0.403762  0.313609  0.360956  1
  O  O47  1  0.605708  0.516560  0.766573  1
  O  O48  1  0.273947  0.788582  0.144903  1
  O  O49  1  0.113466  0.517495  0.766734  1
  O  O50  1  0.075964  0.687908  0.640531  1
  O  O51  1  0.293454  0.939280  0.464320  1
  O  O52  1  0.833444  0.007385  0.318031  1
  O  O53  1  0.173901  0.980108  0.157168  1
  O  O54  1  0.890030  0.481783  0.233090  1
  O  O55  1  0.501991  0.322121  0.171297  1
  O  O56  1  0.686460  0.980853  0.155655  1
  O  O57  1  0.791454  0.789156  0.144627  1
  O  O58  1  0.309654  0.019586  0.843611  1
  O  O59  1  0.499031  0.678014  0.828647  1
  O  O60  1  0.698553  0.061775  0.533828  1
  O  O61  1  0.673253  0.826981  0.322391  1
  O  O62  1  0.062640  0.144408  0.211201  1
  O  O63  1  0.762992  0.638617  0.313390  1
  O  O64  1  0.598760  0.686128  0.639674  1
  O  O65  1  0.391599  0.381828  0.836287  1
  O  O66  1  0.495512  -0.000401  -0.000004  1
  O  O67  1  0.579852  0.145016  0.211083  1
  O  O68  1  0.006075  0.321779  0.171147  1
  O  O69  1  0.934584  0.855598  0.789036  1
  O  O70  1  0.327468  0.171498  0.677893  1
  O  O71  1  0.209794  0.209992  0.854895  1
  O  O72  1  0.944675  0.620421  0.495760  1
  O  O73  1  0.396680  0.482340  0.232286  1
  O  O74  1  0.727308  0.209669  0.854524  1
  O  O75  1  0.284993  0.639211  0.312301  1
  O  O76  1  0.926842  0.312779  0.359950  1
  O  O77  1  0.764989  0.534145  0.937934  1
  O  O78  1  0.844066  0.843051  0.980310  1
  O  O79  1  0.121247  0.767918  0.482974  1
  O  O80  1  0.235448  0.360921  0.686605  1
  O  O81  1  0.822243  0.019626  0.842582  1
  O  O82  1  0.163729  0.993263  0.681408  1
  O  O83  1  0.628247  0.767134  0.482858  1
  O  O84  1  0.178186  0.827411  0.321482  1
  O  O85  1  0.668563  0.155723  0.019373  1
  O  O86  1  0.713930  0.360193  0.686327  1
  O  O87  1  0.845260  0.317501  0.991550  1
  O  O88  1  0.880096  0.233705  0.516714  1
  O  O89  1  0.239439  0.464838  0.060584  1
  O  O90  1  0.230676  0.163409  0.383366  1
  O  O91  1  0.155362  0.156573  0.019545  1
  O  O92  1  0.371635  0.234697  0.517948  1
  O  O93  1  0.612726  0.616418  0.162422  1
  O  O94  1  0.770471  0.837293  0.617447  1
  O  O95  1  0.438994  0.504396  0.619613  1
  O  O96  1  0.058223  0.381244  0.503319  1
  O  O97  1  0.416357  0.855496  0.788235  1
  O  O98  1  0.994547  0.678454  0.828749  1
  O  O99  1  0.331556  0.842942  0.980347  1
  O  O100  1  0.561332  0.495809  0.380076  1
  O  O101  1  0.158759  0.681643  0.007571  1
