# generated using pymatgen
data_SrTe5O11
_symmetry_space_group_name_H-M   'P 1'
_cell_length_a   3.95487781
_cell_length_b   8.15516920
_cell_length_c   24.67771291
_cell_angle_alpha   63.15381924
_cell_angle_beta   61.26342576
_cell_angle_gamma   60.99057304
_symmetry_Int_Tables_number   1
_chemical_formula_structural   SrTe5O11
_chemical_formula_sum   'Sr2 Te10 O22'
_cell_volume   585.05157777
_cell_formula_units_Z   2
loop_
 _symmetry_equiv_pos_site_id
 _symmetry_equiv_pos_as_xyz
  1  'x, y, z'
loop_
 _atom_site_type_symbol
 _atom_site_label
 _atom_site_symmetry_multiplicity
 _atom_site_fract_x
 _atom_site_fract_y
 _atom_site_fract_z
 _atom_site_occupancy
  Sr  Sr0  1  0.000000  0.000000  0.833333  1
  Sr  Sr1  1  0.000000  0.500000  0.833333  1
  Te  Te2  1  0.998720  0.107302  0.964659  1
  Te  Te3  1  0.919203  0.464343  0.038818  1
  Te  Te4  1  0.973502  0.545356  0.160381  1
  Te  Te5  1  0.036592  0.051013  0.470798  1
  Te  Te6  1  0.000000  0.500000  0.333333  1
  Te  Te7  1  0.963408  0.948987  0.195869  1
  Te  Te8  1  0.026498  0.454644  0.506286  1
  Te  Te9  1  0.000000  0.000000  0.333333  1
  Te  Te10  1  0.080797  0.535657  0.627849  1
  Te  Te11  1  0.001280  0.892698  0.702008  1
  O  O12  1  0.118650  0.197082  0.061423  1
  O  O13  1  0.317218  0.035683  0.215699  1
  O  O14  1  0.297693  0.491540  0.070256  1
  O  O15  1  0.606486  0.508651  0.128288  1
  O  O16  1  0.312428  0.045467  0.380702  1
  O  O17  1  0.152740  0.654205  0.231018  1
  O  O18  1  0.803418  0.813249  0.127778  1
  O  O19  1  0.722295  0.327907  0.316600  1
  O  O20  1  0.277705  0.672093  0.350067  1
  O  O21  1  0.196582  0.186751  0.538889  1
  O  O22  1  0.687572  0.954533  0.285965  1
  O  O23  1  0.847260  0.345795  0.435648  1
  O  O24  1  0.378138  0.961539  0.720107  1
  O  O25  1  0.393514  0.491349  0.538379  1
  O  O26  1  0.682782  0.964317  0.450967  1
  O  O27  1  0.702307  0.508460  0.596411  1
  O  O28  1  0.240591  0.156514  0.867631  1
  O  O29  1  0.236270  0.611874  0.717285  1
  O  O30  1  0.881350  0.802918  0.605244  1
  O  O31  1  0.759409  0.843486  0.799036  1
  O  O32  1  0.763730  0.388126  0.949381  1
  O  O33  1  0.621862  0.038461  0.946559  1
