# generated using pymatgen
data_Na2PH5O6
_symmetry_space_group_name_H-M   'P 1'
_cell_length_a   11.13971631
_cell_length_b   7.24621707
_cell_length_c   15.47810996
_cell_angle_alpha   90.00000000
_cell_angle_beta   90.00000000
_cell_angle_gamma   90.00000000
_symmetry_Int_Tables_number   1
_chemical_formula_structural   Na2PH5O6
_chemical_formula_sum   'Na16 P8 H40 O48'
_cell_volume   1249.40545685
_cell_formula_units_Z   8
loop_
 _symmetry_equiv_pos_site_id
 _symmetry_equiv_pos_as_xyz
  1  'x, y, z'
loop_
 _atom_site_type_symbol
 _atom_site_label
 _atom_site_symmetry_multiplicity
 _atom_site_fract_x
 _atom_site_fract_y
 _atom_site_fract_z
 _atom_site_occupancy
  Na  Na0  1  0.783192  0.349163  0.194207  1
  Na  Na1  1  0.283192  0.150837  0.805793  1
  Na  Na2  1  0.216808  0.849163  0.305793  1
  Na  Na3  1  0.716808  0.650837  0.694207  1
  Na  Na4  1  0.216808  0.650837  0.805793  1
  Na  Na5  1  0.716808  0.849163  0.194207  1
  Na  Na6  1  0.783192  0.150837  0.694207  1
  Na  Na7  1  0.283192  0.349163  0.305793  1
  Na  Na8  1  0.918589  0.284393  0.472720  1
  Na  Na9  1  0.418589  0.215607  0.527280  1
  Na  Na10  1  0.081411  0.784393  0.027280  1
  Na  Na11  1  0.581411  0.715607  0.972720  1
  Na  Na12  1  0.081411  0.715607  0.527280  1
  Na  Na13  1  0.581411  0.784393  0.472720  1
  Na  Na14  1  0.918589  0.215607  0.972720  1
  Na  Na15  1  0.418589  0.284393  0.027280  1
  P  P16  1  0.531473  0.139084  0.328059  1
  P  P17  1  0.031473  0.360916  0.671941  1
  P  P18  1  0.468527  0.639084  0.171941  1
  P  P19  1  0.968527  0.860916  0.828059  1
  P  P20  1  0.468527  0.860916  0.671941  1
  P  P21  1  0.968527  0.639084  0.328059  1
  P  P22  1  0.531473  0.360916  0.828059  1
  P  P23  1  0.031473  0.139084  0.171941  1
  H  H24  1  0.873192  0.948019  0.397234  1
  H  H25  1  0.373192  0.551981  0.602766  1
  H  H26  1  0.126808  0.448019  0.102766  1
  H  H27  1  0.626808  0.051981  0.897234  1
  H  H28  1  0.126808  0.051981  0.602766  1
  H  H29  1  0.626808  0.448019  0.397234  1
  H  H30  1  0.873192  0.551981  0.897234  1
  H  H31  1  0.373192  0.948019  0.102766  1
  H  H32  1  0.752630  0.061669  0.376264  1
  H  H33  1  0.252630  0.438331  0.623736  1
  H  H34  1  0.247370  0.561669  0.123736  1
  H  H35  1  0.747370  0.938331  0.876264  1
  H  H36  1  0.247370  0.938331  0.623736  1
  H  H37  1  0.747370  0.561669  0.376264  1
  H  H38  1  0.752630  0.438331  0.876264  1
  H  H39  1  0.252630  0.061669  0.123736  1
  H  H40  1  0.465691  0.505263  0.710697  1
  H  H41  1  0.965691  0.994737  0.289303  1
  H  H42  1  0.534309  0.005263  0.789303  1
  H  H43  1  0.034309  0.494737  0.210697  1
  H  H44  1  0.534309  0.494737  0.289303  1
  H  H45  1  0.034309  0.005263  0.710697  1
  H  H46  1  0.465691  0.994737  0.210697  1
  H  H47  1  0.965691  0.505263  0.789303  1
  H  H48  1  0.345511  0.459945  0.914652  1
  H  H49  1  0.845511  0.040055  0.085348  1
  H  H50  1  0.654489  0.959945  0.585348  1
  H  H51  1  0.154489  0.540055  0.414652  1
  H  H52  1  0.654489  0.540055  0.085348  1
  H  H53  1  0.154489  0.959945  0.914652  1
  H  H54  1  0.345511  0.040055  0.414652  1
  H  H55  1  0.845511  0.459945  0.585348  1
  H  H56  1  0.230300  0.457111  0.976534  1
  H  H57  1  0.730300  0.042889  0.023466  1
  H  H58  1  0.769700  0.957111  0.523466  1
  H  H59  1  0.269700  0.542889  0.476534  1
  H  H60  1  0.769700  0.542889  0.023466  1
  H  H61  1  0.269700  0.957111  0.976534  1
  H  H62  1  0.230300  0.042889  0.476534  1
  H  H63  1  0.730300  0.457111  0.523466  1
  O  O64  1  0.503419  0.342334  0.354496  1
  O  O65  1  0.003419  0.157666  0.645504  1
  O  O66  1  0.496581  0.842334  0.145504  1
  O  O67  1  0.996581  0.657666  0.854496  1
  O  O68  1  0.496581  0.657666  0.645504  1
  O  O69  1  0.996581  0.842334  0.354496  1
  O  O70  1  0.503419  0.157666  0.854496  1
  O  O71  1  0.003419  0.342334  0.145504  1
  O  O72  1  0.660434  0.107495  0.296274  1
  O  O73  1  0.160434  0.392505  0.703726  1
  O  O74  1  0.339566  0.607495  0.203726  1
  O  O75  1  0.839566  0.892505  0.796274  1
  O  O76  1  0.339566  0.892505  0.703726  1
  O  O77  1  0.839566  0.607495  0.296274  1
  O  O78  1  0.660434  0.392505  0.796274  1
  O  O79  1  0.160434  0.107495  0.203726  1
  O  O80  1  0.493949  0.012494  0.403460  1
  O  O81  1  0.993949  0.487506  0.596540  1
  O  O82  1  0.506051  0.512494  0.096540  1
  O  O83  1  0.006051  0.987506  0.903460  1
  O  O84  1  0.506051  0.987506  0.596540  1
  O  O85  1  0.006051  0.512494  0.403460  1
  O  O86  1  0.493949  0.487506  0.903460  1
  O  O87  1  0.993949  0.012494  0.096540  1
  O  O88  1  0.439514  0.103458  0.249570  1
  O  O89  1  0.939514  0.396542  0.750430  1
  O  O90  1  0.560486  0.603458  0.250430  1
  O  O91  1  0.060486  0.896542  0.749570  1
  O  O92  1  0.560486  0.896542  0.750430  1
  O  O93  1  0.060486  0.603458  0.249570  1
  O  O94  1  0.439514  0.396542  0.749570  1
  O  O95  1  0.939514  0.103458  0.250430  1
  O  O96  1  0.811335  0.029892  0.424022  1
  O  O97  1  0.311335  0.470108  0.575978  1
  O  O98  1  0.188665  0.529892  0.075978  1
  O  O99  1  0.688665  0.970108  0.924022  1
  O  O100  1  0.188665  0.970108  0.575978  1
  O  O101  1  0.688665  0.529892  0.424022  1
  O  O102  1  0.811335  0.470108  0.924022  1
  O  O103  1  0.311335  0.029892  0.075978  1
  O  O104  1  0.760983  0.086321  0.081212  1
  O  O105  1  0.260983  0.413679  0.918788  1
  O  O106  1  0.239017  0.586321  0.418788  1
  O  O107  1  0.739017  0.913679  0.581212  1
  O  O108  1  0.239017  0.913679  0.918788  1
  O  O109  1  0.739017  0.586321  0.081212  1
  O  O110  1  0.760983  0.413679  0.581212  1
  O  O111  1  0.260983  0.086321  0.418788  1
