# generated using pymatgen
data_Mn5Ge2
_symmetry_space_group_name_H-M   'P 1'
_cell_length_a   5.18199732
_cell_length_b   6.08736678
_cell_length_c   6.90863912
_cell_angle_alpha   116.05638591
_cell_angle_beta   111.97617625
_cell_angle_gamma   90.00318670
_symmetry_Int_Tables_number   1
_chemical_formula_structural   Mn5Ge2
_chemical_formula_sum   'Mn10 Ge4'
_cell_volume   177.98378656
_cell_formula_units_Z   2
loop_
 _symmetry_equiv_pos_site_id
 _symmetry_equiv_pos_as_xyz
  1  'x, y, z'
loop_
 _atom_site_type_symbol
 _atom_site_label
 _atom_site_symmetry_multiplicity
 _atom_site_fract_x
 _atom_site_fract_y
 _atom_site_fract_z
 _atom_site_occupancy
  Mn  Mn0  1  0.976958  0.729920  0.455657  1
  Mn  Mn1  1  0.603854  0.911911  0.211369  1
  Mn  Mn2  1  0.475235  0.730632  0.455828  1
  Mn  Mn3  1  0.520309  0.268543  0.545055  1
  Mn  Mn4  1  0.247917  0.499277  0.000041  1
  Mn  Mn5  1  0.105978  0.305054  0.217783  1
  Mn  Mn6  1  0.889384  0.693776  0.782416  1
  Mn  Mn7  1  0.392470  0.087863  0.789642  1
  Mn  Mn8  1  0.747791  0.499494  0.000240  1
  Mn  Mn9  1  0.019336  0.269158  0.545018  1
  Ge  Ge10  1  0.618480  0.338884  0.242885  1
  Ge  Ge11  1  0.116415  0.903384  0.236157  1
  Ge  Ge12  1  0.377297  0.660518  0.757871  1
  Ge  Ge13  1  0.879479  0.095909  0.764193  1
