# generated using pymatgen
data_MnGa
_symmetry_space_group_name_H-M   'P 1'
_cell_length_a   7.85374393
_cell_length_b   7.85718013
_cell_length_c   7.85582481
_cell_angle_alpha   108.77751729
_cell_angle_beta   108.83147385
_cell_angle_gamma   108.90352542
_symmetry_Int_Tables_number   1
_chemical_formula_structural   MnGa
_chemical_formula_sum   'Mn13 Ga13'
_cell_volume   381.67993631
_cell_formula_units_Z   13
loop_
 _symmetry_equiv_pos_site_id
 _symmetry_equiv_pos_as_xyz
  1  'x, y, z'
loop_
 _atom_site_type_symbol
 _atom_site_label
 _atom_site_symmetry_multiplicity
 _atom_site_fract_x
 _atom_site_fract_y
 _atom_site_fract_z
 _atom_site_occupancy
  Mn  Mn0  1  0.187685  0.187671  0.832986  1
  Mn  Mn1  1  0.823329  0.603821  0.823319  1
  Mn  Mn2  1  0.823354  0.823260  0.603880  1
  Mn  Mn3  1  0.812228  0.166910  0.812278  1
  Mn  Mn4  1  0.176669  0.396307  0.176692  1
  Mn  Mn5  1  0.176832  0.176802  0.396173  1
  Mn  Mn6  1  0.833188  0.187706  0.187787  1
  Mn  Mn7  1  0.166952  0.812271  0.812150  1
  Mn  Mn8  1  0.187633  0.833154  0.187747  1
  Mn  Mn9  1  0.812288  0.812290  0.166857  1
  Mn  Mn10  1  0.603780  0.823149  0.823402  1
  Mn  Mn11  1  0.396038  0.176758  0.176661  1
  Mn  Mn12  1  0.500128  0.500074  0.500002  1
  Ga  Ga13  1  0.540316  0.191760  0.540331  1
  Ga  Ga14  1  0.121060  0.879001  0.499972  1
  Ga  Ga15  1  0.121080  0.500069  0.879096  1
  Ga  Ga16  1  0.878894  0.120975  0.499991  1
  Ga  Ga17  1  0.540340  0.540399  0.191804  1
  Ga  Ga18  1  0.459634  0.808215  0.459659  1
  Ga  Ga19  1  0.499930  0.878862  0.120998  1
  Ga  Ga20  1  0.191723  0.540329  0.540230  1
  Ga  Ga21  1  0.500062  0.120939  0.879027  1
  Ga  Ga22  1  0.459618  0.459690  0.808278  1
  Ga  Ga23  1  0.808301  0.459656  0.459724  1
  Ga  Ga24  1  0.999987  0.000035  0.999951  1
  Ga  Ga25  1  0.878949  0.499894  0.121006  1
