# generated using pymatgen
data_Sr(H8O5)2
_symmetry_space_group_name_H-M   'P 1'
_cell_length_a   6.13981186
_cell_length_b   6.50723323
_cell_length_c   11.48721373
_cell_angle_alpha   89.01822418
_cell_angle_beta   91.88504076
_cell_angle_gamma   90.64841603
_symmetry_Int_Tables_number   1
_chemical_formula_structural   Sr(H8O5)2
_chemical_formula_sum   'Sr2 H32 O20'
_cell_volume   458.60854717
_cell_formula_units_Z   2
loop_
 _symmetry_equiv_pos_site_id
 _symmetry_equiv_pos_as_xyz
  1  'x, y, z'
loop_
 _atom_site_type_symbol
 _atom_site_label
 _atom_site_symmetry_multiplicity
 _atom_site_fract_x
 _atom_site_fract_y
 _atom_site_fract_z
 _atom_site_occupancy
  Sr  Sr0  1  0.968016  0.006203  0.501396  1
  Sr  Sr1  1  0.005262  0.982146  0.002516  1
  H  H2  1  0.055798  0.307940  0.289228  1
  H  H3  1  0.244123  0.369310  0.388794  1
  H  H4  1  0.913861  0.621548  0.342279  1
  H  H5  1  0.676339  0.623402  0.394835  1
  H  H6  1  0.697083  0.186665  0.289576  1
  H  H7  1  0.576585  0.280583  0.395112  1
  H  H8  1  0.386211  0.933083  0.361289  1
  H  H9  1  0.348929  0.698315  0.403213  1
  H  H10  1  0.965151  0.316632  0.792069  1
  H  H11  1  0.750188  0.356941  0.872791  1
  H  H12  1  0.083078  0.611828  0.829612  1
  H  H13  1  0.299400  0.602933  0.908529  1
  H  H14  1  0.400529  0.255446  0.888612  1
  H  H15  1  0.286510  0.132963  0.784129  1
  H  H16  1  0.565814  0.926080  0.856418  1
  H  H17  1  0.632255  0.694518  0.887969  1
  H  H18  1  0.789369  0.749261  0.714954  1
  H  H19  1  0.696767  0.617319  0.607845  1
  H  H20  1  0.261479  0.411659  0.618265  1
  H  H21  1  0.018738  0.480539  0.635583  1
  H  H22  1  0.353647  0.774512  0.629991  1
  H  H23  1  0.447789  0.000959  0.628227  1
  H  H24  1  0.718273  0.168510  0.710542  1
  H  H25  1  0.600906  0.292326  0.602116  1
  H  H26  1  0.184613  0.753285  0.233548  1
  H  H27  1  0.070352  0.578557  0.153996  1
  H  H28  1  0.753850  0.416679  0.073249  1
  H  H29  1  0.093958  0.288086  0.131580  1
  H  H30  1  0.712245  0.828029  0.220672  1
  H  H31  1  0.609442  0.730660  0.108185  1
  H  H32  1  0.438227  0.271642  0.097442  1
  H  H33  1  0.453957  0.036697  0.133379  1
  O  O34  1  0.478526  0.495933  0.438759  1
  O  O35  1  0.553073  0.475032  0.927898  1
  O  O36  1  0.492092  0.492254  0.568751  1
  O  O37  1  0.596738  0.474693  0.055722  1
  O  O38  1  0.098638  0.302351  0.374428  1
  O  O39  1  0.799519  0.716243  0.362520  1
  O  O40  1  0.636775  0.147056  0.364509  1
  O  O41  1  0.271178  0.828128  0.372029  1
  O  O42  1  0.858798  0.252642  0.844161  1
  O  O43  1  0.161330  0.680373  0.892671  1
  O  O44  1  0.333162  0.120146  0.866018  1
  O  O45  1  0.693308  0.833555  0.861012  1
  O  O46  1  0.833993  0.695375  0.639205  1
  O  O47  1  0.116333  0.360474  0.649112  1
  O  O48  1  0.307991  0.918599  0.632278  1
  O  O49  1  0.666137  0.150206  0.628634  1
  O  O50  1  0.140349  0.717759  0.152147  1
  O  O51  1  0.943705  0.324443  0.148080  1
  O  O52  1  0.661332  0.865009  0.139846  1
  O  O53  1  0.346596  0.148986  0.116527  1
