# generated using pymatgen
data_FeHO2
_symmetry_space_group_name_H-M   'P 1'
_cell_length_a   10.66591696
_cell_length_b   6.11941737
_cell_length_c   11.29527114
_cell_angle_alpha   93.09423400
_cell_angle_beta   89.92181508
_cell_angle_gamma   85.14938318
_symmetry_Int_Tables_number   1
_chemical_formula_structural   FeHO2
_chemical_formula_sum   'Fe16 H16 O32'
_cell_volume   733.50893695
_cell_formula_units_Z   16
loop_
 _symmetry_equiv_pos_site_id
 _symmetry_equiv_pos_as_xyz
  1  'x, y, z'
loop_
 _atom_site_type_symbol
 _atom_site_label
 _atom_site_symmetry_multiplicity
 _atom_site_fract_x
 _atom_site_fract_y
 _atom_site_fract_z
 _atom_site_occupancy
  Fe  Fe0  1  0.364023  0.028378  0.098275  1
  Fe  Fe1  1  0.139699  0.993793  0.646950  1
  Fe  Fe2  1  0.858798  0.283894  0.574366  1
  Fe  Fe3  1  0.670617  0.246762  0.123866  1
  Fe  Fe4  1  0.677975  0.952816  0.840152  1
  Fe  Fe5  1  0.864788  0.978271  0.304170  1
  Fe  Fe6  1  0.191798  0.223234  0.375609  1
  Fe  Fe7  1  0.344024  0.233187  0.819904  1
  Fe  Fe8  1  0.328954  0.513754  0.095749  1
  Fe  Fe9  1  0.159489  0.502690  0.644437  1
  Fe  Fe10  1  0.825574  0.808549  0.586174  1
  Fe  Fe11  1  0.709403  0.736884  0.120476  1
  Fe  Fe12  1  0.689089  0.453087  0.830406  1
  Fe  Fe13  1  0.880339  0.494875  0.302820  1
  Fe  Fe14  1  0.194873  0.705783  0.358890  1
  Fe  Fe15  1  0.378944  0.736783  0.818241  1
  H  H16  1  0.025278  0.988486  0.445541  1
  H  H17  1  0.386530  0.960438  0.615649  1
  H  H18  1  0.531550  0.263316  0.924292  1
  H  H19  1  0.921308  0.199417  0.103823  1
  H  H20  1  0.672658  0.126916  0.649032  1
  H  H21  1  0.615923  0.999440  0.314839  1
  H  H22  1  0.159081  0.321233  0.166940  1
  H  H23  1  0.448519  0.311985  0.241627  1
  H  H24  1  0.101011  0.281163  0.850396  1
  H  H25  1  0.398909  0.451807  0.619000  1
  H  H26  1  0.862530  0.660059  0.770755  1
  H  H27  1  0.997220  0.544808  0.507451  1
  H  H28  1  0.630031  0.536201  0.318284  1
  H  H29  1  0.194489  0.863495  0.165066  1
  H  H30  1  0.505815  0.698762  0.041484  1
  H  H31  1  0.098646  0.763680  0.842237  1
  O  O32  1  0.293224  0.976451  0.338447  1
  O  O33  1  0.051631  0.982056  0.360976  1
  O  O34  1  0.342758  0.972968  0.691456  1
  O  O35  1  0.336239  -0.006131  0.921891  1
  O  O36  1  0.783671  0.195350  0.845800  1
  O  O37  1  0.535696  0.230066  0.838685  1
  O  O38  1  0.865703  0.221929  0.172822  1
  O  O39  1  0.834120  0.255627  0.408544  1
  O  O40  1  0.673191  0.966559  0.657575  1
  O  O41  1  0.958065  0.029501  0.615856  1
  O  O42  1  0.675508  0.002994  0.249809  1
  O  O43  1  0.668920  0.981484  0.020069  1
  O  O44  1  0.217038  0.264752  0.103858  1
  O  O45  1  0.471023  0.283974  0.156547  1
  O  O46  1  0.151291  0.264501  0.777552  1
  O  O47  1  0.178191  0.232152  0.546644  1
  O  O48  1  0.307118  0.429468  0.346637  1
  O  O49  1  0.064523  0.460231  0.344215  1
  O  O50  1  0.349239  0.475725  0.691374  1
  O  O51  1  0.334289  0.505161  0.926810  1
  O  O52  1  0.813330  0.693562  0.842780  1
  O  O53  1  0.559267  0.711789  0.826715  1
  O  O54  1  0.879191  0.727315  0.180804  1
  O  O55  1  0.835791  0.748204  0.412125  1
  O  O56  1  0.719329  0.420754  0.659990  1
  O  O57  1  0.969278  0.533126  0.591147  1
  O  O58  1  0.683619  0.507581  0.248380  1
  O  O59  1  0.673306  0.482868  0.014331  1
  O  O60  1  0.195011  0.705720  0.173634  1
  O  O61  1  0.458386  0.735534  0.115945  1
  O  O62  1  0.148444  0.755648  0.769562  1
  O  O63  1  0.180118  0.735172  0.536163  1
