# generated using pymatgen
data_Ba9La3Mg5Nb7O36
_symmetry_space_group_name_H-M   'P 1'
_cell_length_a   5.81651727
_cell_length_b   34.90856531
_cell_length_c   10.07880495
_cell_angle_alpha   29.98453715
_cell_angle_beta   54.75289798
_cell_angle_gamma   60.00896553
_symmetry_Int_Tables_number   1
_chemical_formula_structural   Ba9La3Mg5Nb7O36
_chemical_formula_sum   'Ba9 La3 Mg5 Nb7 O36'
_cell_volume   835.25290571
_cell_formula_units_Z   1
loop_
 _symmetry_equiv_pos_site_id
 _symmetry_equiv_pos_as_xyz
  1  'x, y, z'
loop_
 _atom_site_type_symbol
 _atom_site_label
 _atom_site_symmetry_multiplicity
 _atom_site_fract_x
 _atom_site_fract_y
 _atom_site_fract_z
 _atom_site_occupancy
  Ba  Ba0  1  0.241958  1.000000  0.258042  1
  Ba  Ba1  1  0.257215  0.169984  0.232835  1
  Ba  Ba2  1  0.743444  0.170431  0.745263  1
  Ba  Ba3  1  0.751406  0.336926  0.737813  1
  Ba  Ba4  1  0.752326  0.500000  0.747674  1
  Ba  Ba5  1  0.257215  0.830016  0.252735  1
  Ba  Ba6  1  0.751406  0.663074  0.759374  1
  Ba  Ba7  1  0.743444  0.829569  0.767849  1
  Ba  Ba8  1  0.757148  0.000000  0.742852  1
  La  La9  1  0.231473  0.334601  0.264724  1
  La  La10  1  0.246564  0.500000  0.253436  1
  La  La11  1  0.231473  0.665399  0.272330  1
  Mg  Mg12  1  0.000435  0.166768  0.999261  1
  Mg  Mg13  1  0.999100  0.336318  0.991944  1
  Mg  Mg14  1  0.999100  0.663682  0.009856  1
  Mg  Mg15  1  0.000784  0.500000  0.999216  1
  Mg  Mg16  1  0.000435  0.833232  -0.000131  1
  Nb  Nb17  1  -0.000611  0.000000  0.000611  1
  Nb  Nb18  1  0.501093  0.000000  0.498907  1
  Nb  Nb19  1  0.497969  0.174801  0.477630  1
  Nb  Nb20  1  0.501686  0.336325  0.489339  1
  Nb  Nb21  1  0.498016  0.500000  0.501984  1
  Nb  Nb22  1  0.501686  0.663675  0.507290  1
  Nb  Nb23  1  0.497969  0.825199  0.526431  1
  O  O24  1  0.257875  0.081255  0.257326  1
  O  O25  1  0.246292  1.000000  0.753708  1
  O  O26  1  0.739945  0.081255  0.257326  1
  O  O27  1  0.250469  0.250450  0.255585  1
  O  O28  1  0.243484  0.081762  0.756243  1
  O  O29  1  0.738966  0.165506  0.264517  1
  O  O30  1  0.257191  0.168319  0.737853  1
  O  O31  1  0.735657  0.250450  0.255585  1
  O  O32  1  0.753458  0.081762  0.756243  1
  O  O33  1  0.256949  0.416158  0.247049  1
  O  O34  1  0.257530  0.256455  0.718870  1
  O  O35  1  0.257509  0.340713  0.720350  1
  O  O36  1  0.746698  0.335471  0.246890  1
  O  O37  1  0.752003  0.416158  0.247049  1
  O  O38  1  0.766003  0.256455  0.718870  1
  O  O39  1  0.256413  0.581025  0.254522  1
  O  O40  1  0.256413  0.418975  0.740673  1
  O  O41  1  0.746945  0.500000  0.253055  1
  O  O42  1  0.255196  0.500000  0.744804  1
  O  O43  1  0.748392  0.581025  0.254522  1
  O  O44  1  0.748392  0.418975  0.740673  1
  O  O45  1  0.257530  0.743545  0.257596  1
  O  O46  1  0.256949  0.583842  0.743999  1
  O  O47  1  0.746698  0.664529  0.259715  1
  O  O48  1  0.257509  0.659287  0.764632  1
  O  O49  1  0.766003  0.743545  0.257596  1
  O  O50  1  0.752003  0.583842  0.743999  1
  O  O51  1  0.250469  0.749550  0.758289  1
  O  O52  1  0.243484  0.918238  0.246815  1
  O  O53  1  0.738966  0.834494  0.257550  1
  O  O54  1  0.257191  0.831681  0.747765  1
  O  O55  1  0.735657  0.749550  0.758289  1
  O  O56  1  0.753458  0.918238  0.246815  1
  O  O57  1  0.257875  0.918745  0.744853  1
  O  O58  1  0.751745  0.000000  0.248255  1
  O  O59  1  0.739945  0.918745  0.744853  1
