# generated using pymatgen
data_Ca2Ga2Si(HO4)2
_symmetry_space_group_name_H-M   'P 1'
_cell_length_a   7.80153343
_cell_length_b   7.85449856
_cell_length_c   7.81999697
_cell_angle_alpha   109.26597648
_cell_angle_beta   109.66204797
_cell_angle_gamma   109.49189503
_symmetry_Int_Tables_number   1
_chemical_formula_structural   Ca2Ga2Si(HO4)2
_chemical_formula_sum   'Ca4 Ga4 Si2 H4 O16'
_cell_volume   368.84650536
_cell_formula_units_Z   2
loop_
 _symmetry_equiv_pos_site_id
 _symmetry_equiv_pos_as_xyz
  1  'x, y, z'
loop_
 _atom_site_type_symbol
 _atom_site_label
 _atom_site_symmetry_multiplicity
 _atom_site_fract_x
 _atom_site_fract_y
 _atom_site_fract_z
 _atom_site_occupancy
  Ca  Ca0  1  0.008303  0.010477  0.725546  1
  Ca  Ca1  1  0.273229  0.280451  0.282585  1
  Ca  Ca2  1  0.712517  0.990921  0.988899  1
  Ca  Ca3  1  0.000070  0.722727  0.000377  1
  Ga  Ga4  1  0.500161  0.257249  0.742100  1
  Ga  Ga5  1  0.500397  0.743016  0.259043  1
  Ga  Ga6  1  0.751211  0.243893  0.490641  1
  Ga  Ga7  1  0.751513  0.492261  0.246437  1
  Si  Si8  1  0.247652  0.511331  0.755101  1
  Si  Si9  1  0.246710  0.755346  0.510139  1
  H  H10  1  0.666642  0.654955  0.627088  1
  H  H11  1  0.373642  0.035557  0.036485  1
  H  H12  1  0.964666  0.998413  0.338486  1
  H  H13  1  0.966904  0.341961  0.001328  1
  O  O14  1  0.992274  0.993502  0.225179  1
  O  O15  1  0.275235  0.577641  0.576639  1
  O  O16  1  0.267619  0.714805  0.299381  1
  O  O17  1  0.268905  0.301403  0.714063  1
  O  O18  1  0.429499  0.988141  0.712394  1
  O  O19  1  0.431207  0.712111  0.988688  1
  O  O20  1  0.233786  0.008529  0.009079  1
  O  O21  1  0.743380  0.995113  0.450957  1
  O  O22  1  0.774269  0.773340  0.765486  1
  O  O23  1  0.543918  0.277660  0.533185  1
  O  O24  1  0.548225  0.538716  0.288693  1
  O  O25  1  0.718999  0.250313  0.249155  1
  O  O26  1  0.741802  0.451888  0.995463  1
  O  O27  1  0.015770  0.462343  0.728173  1
  O  O28  1  0.015576  0.729136  0.463064  1
  O  O29  1  0.994017  0.228702  0.996145  1
