# generated using pymatgen
data_Cs3VH8(Cl3O2)2
_symmetry_space_group_name_H-M   'P 1'
_cell_length_a   10.35305409
_cell_length_b   10.35305409
_cell_length_c   10.35305409
_cell_angle_alpha   131.79553172
_cell_angle_beta   60.53200164
_cell_angle_gamma   145.63546344
_symmetry_Int_Tables_number   1
_chemical_formula_structural   Cs3VH8(Cl3O2)2
_chemical_formula_sum   'Cs3 V1 H8 Cl6 O4'
_cell_volume   462.49185796
_cell_formula_units_Z   1
loop_
 _symmetry_equiv_pos_site_id
 _symmetry_equiv_pos_as_xyz
  1  'x, y, z'
loop_
 _atom_site_type_symbol
 _atom_site_label
 _atom_site_symmetry_multiplicity
 _atom_site_fract_x
 _atom_site_fract_y
 _atom_site_fract_z
 _atom_site_occupancy
  Cs  Cs0  1  0.000000  0.000000  0.000000  1
  Cs  Cs1  1  0.687096  0.500000  0.187096  1
  Cs  Cs2  1  0.312904  0.500000  0.812904  1
  V  V3  1  0.500000  0.000000  0.500000  1
  H  H4  1  0.096430  0.796698  0.494023  1
  H  H5  1  0.302674  0.602407  0.505977  1
  H  H6  1  0.903570  0.397593  0.700268  1
  H  H7  1  0.697326  0.203302  0.299732  1
  H  H8  1  0.087161  0.593735  0.303438  1
  H  H9  1  0.290297  0.783723  0.696562  1
  H  H10  1  0.912839  0.216277  0.506574  1
  H  H11  1  0.709703  0.406265  0.493426  1
  Cl  Cl12  1  0.158859  0.758641  0.914078  1
  Cl  Cl13  1  0.844563  0.244782  0.085922  1
  Cl  Cl14  1  0.841141  0.755218  0.599781  1
  Cl  Cl15  1  0.155437  0.241359  0.400219  1
  Cl  Cl16  1  0.500000  0.284550  0.784550  1
  Cl  Cl17  1  0.500000  0.715450  0.215450  1
  O  O18  1  0.186343  0.767201  0.419460  1
  O  O19  1  0.347741  0.766883  0.580540  1
  O  O20  1  0.813657  0.233117  0.580858  1
  O  O21  1  0.652259  0.232799  0.419142  1
