# generated using pymatgen
data_SrLa11Mg3Ga9O34
_symmetry_space_group_name_H-M   'P 1'
_cell_length_a   5.58448634
_cell_length_b   5.62461553
_cell_length_c   33.64216622
_cell_angle_alpha   59.82736602
_cell_angle_beta   59.59824908
_cell_angle_gamma   59.68065990
_symmetry_Int_Tables_number   1
_chemical_formula_structural   SrLa11Mg3Ga9O34
_chemical_formula_sum   'Sr1 La11 Mg3 Ga9 O34'
_cell_volume   742.15160014
_cell_formula_units_Z   1
loop_
 _symmetry_equiv_pos_site_id
 _symmetry_equiv_pos_as_xyz
  1  'x, y, z'
loop_
 _atom_site_type_symbol
 _atom_site_label
 _atom_site_symmetry_multiplicity
 _atom_site_fract_x
 _atom_site_fract_y
 _atom_site_fract_z
 _atom_site_occupancy
  Sr  Sr0  1  0.233070  0.751023  0.130587  1
  La  La1  1  0.740317  0.284908  0.038303  1
  La  La2  1  0.256377  0.695082  0.297888  1
  La  La3  1  0.736487  0.282133  0.206936  1
  La  La4  1  0.251387  0.739908  0.459419  1
  La  La5  1  0.756248  0.247258  0.373196  1
  La  La6  1  0.250002  0.740998  0.626455  1
  La  La7  1  0.748944  0.257934  0.540776  1
  La  La8  1  0.248908  0.739959  0.793628  1
  La  La9  1  0.749841  0.259042  0.706939  1
  La  La10  1  0.256831  0.739376  0.958475  1
  La  La11  1  0.753912  0.262099  0.871796  1
  Mg  Mg12  1  0.526937  0.979883  0.994311  1
  Mg  Mg13  1  0.521533  0.987505  0.161138  1
  Mg  Mg14  1  0.973178  0.537756  0.252653  1
  Ga  Ga15  1  0.969716  0.536898  0.087520  1
  Ga  Ga16  1  0.000212  0.500150  0.583232  1
  Ga  Ga17  1  0.499738  0.999518  0.500156  1
  Ga  Ga18  1  0.505323  0.994224  0.333008  1
  Ga  Ga19  1  0.499670  0.999878  0.666826  1
  Ga  Ga20  1  0.998843  0.495612  0.417778  1
  Ga  Ga21  1  0.501155  0.997873  0.833262  1
  Ga  Ga22  1  0.000727  0.500769  0.749568  1
  Ga  Ga23  1  0.998031  0.497697  0.917912  1
  O  O24  1  0.294256  0.690807  0.032257  1
  O  O25  1  0.205672  0.304459  0.130102  1
  O  O26  1  0.291194  0.704935  0.202359  1
  O  O27  1  0.808523  0.672793  0.036011  1
  O  O28  1  0.217031  0.296216  0.298216  1
  O  O29  1  0.714084  0.286927  0.136382  1
  O  O30  1  0.253440  0.171310  0.387333  1
  O  O31  1  0.755023  0.862889  0.105066  1
  O  O32  1  0.284580  0.705302  0.366572  1
  O  O33  1  0.777541  0.678553  0.205361  1
  O  O34  1  0.215836  0.305624  0.464463  1
  O  O35  1  0.731417  0.265933  0.301131  1
  O  O36  1  0.250308  0.167379  0.555327  1
  O  O37  1  0.733354  0.851449  0.279560  1
  O  O38  1  0.283720  0.715830  0.531866  1
  O  O39  1  0.785224  0.681619  0.370477  1
  O  O40  1  0.217718  0.307104  0.630395  1
  O  O41  1  0.717698  0.281314  0.468243  1
  O  O42  1  0.250226  0.167627  0.722003  1
  O  O43  1  0.749923  0.830817  0.444854  1
  O  O44  1  0.284590  0.715855  0.698612  1
  O  O45  1  0.784534  0.692736  0.535765  1
  O  O46  1  0.218187  0.305907  0.797102  1
  O  O47  1  0.716930  0.284102  0.634239  1
  O  O48  1  0.244528  0.175171  0.889135  1
  O  O49  1  0.750476  0.831268  0.611337  1
  O  O50  1  0.290521  0.712704  0.865067  1
  O  O51  1  0.784307  0.693049  0.702395  1
  O  O52  1  0.202002  0.308406  0.967797  1
  O  O53  1  0.716296  0.283515  0.800600  1
  O  O54  1  0.752375  0.831366  0.777429  1
  O  O55  1  0.783163  0.692202  0.868881  1
  O  O56  1  0.695994  0.289849  0.970988  1
  O  O57  1  0.761942  0.831898  0.940182  1
