# generated using pymatgen
data_Nd3Al3Si3(NO6)2
_symmetry_space_group_name_H-M   'P 1'
_cell_length_a   8.08927798
_cell_length_b   8.04210635
_cell_length_c   4.91032057
_cell_angle_alpha   90.50839038
_cell_angle_beta   90.00000000
_cell_angle_gamma   120.19422228
_symmetry_Int_Tables_number   1
_chemical_formula_structural   Nd3Al3Si3(NO6)2
_chemical_formula_sum   'Nd3 Al3 Si3 N2 O12'
_cell_volume   276.08567239
_cell_formula_units_Z   1
loop_
 _symmetry_equiv_pos_site_id
 _symmetry_equiv_pos_as_xyz
  1  'x, y, z'
loop_
 _atom_site_type_symbol
 _atom_site_label
 _atom_site_symmetry_multiplicity
 _atom_site_fract_x
 _atom_site_fract_y
 _atom_site_fract_z
 _atom_site_occupancy
  Nd  Nd0  1  0.989454  0.402791  0.004959  1
  Nd  Nd1  1  0.586664  0.597209  0.995041  1
  Nd  Nd2  1  0.415542  0.000000  0.000000  1
  Al  Al3  1  0.001741  0.764420  0.508460  1
  Al  Al4  1  0.008116  0.000000  0.000000  1
  Al  Al5  1  0.237321  0.235580  0.491540  1
  Si  Si6  1  0.334310  0.666675  0.542047  1
  Si  Si7  1  0.667636  0.333325  0.457953  1
  Si  Si8  1  0.740160  0.000000  0.500000  1
  N  N9  1  0.540208  0.841321  0.684427  1
  N  N10  1  0.698887  0.158679  0.315573  1
  O  O11  1  0.136814  0.916645  0.241016  1
  O  O12  1  0.152305  0.682598  0.673136  1
  O  O13  1  0.101103  0.226628  0.206523  1
  O  O14  1  0.325086  0.659450  0.208541  1
  O  O15  1  0.297923  0.459827  0.673935  1
  O  O16  1  0.220169  0.083355  0.758984  1
  O  O17  1  0.469707  0.317402  0.326864  1
  O  O18  1  0.788234  0.877822  0.265264  1
  O  O19  1  0.874475  0.773372  0.793477  1
  O  O20  1  0.665637  0.340550  0.791459  1
  O  O21  1  0.838096  0.540173  0.326065  1
  O  O22  1  0.910412  0.122178  0.734736  1
