# generated using pymatgen
data_K2CoCl4
_symmetry_space_group_name_H-M   'P 1'
_cell_length_a   14.55514674
_cell_length_b   14.55514670
_cell_length_c   27.21581454
_cell_angle_alpha   89.93401607
_cell_angle_beta   89.93401607
_cell_angle_gamma   119.00204953
_symmetry_Int_Tables_number   1
_chemical_formula_structural   K2CoCl4
_chemical_formula_sum   'K48 Co24 Cl96'
_cell_volume   5042.71055662
_cell_formula_units_Z   24
loop_
 _symmetry_equiv_pos_site_id
 _symmetry_equiv_pos_as_xyz
  1  'x, y, z'
loop_
 _atom_site_type_symbol
 _atom_site_label
 _atom_site_symmetry_multiplicity
 _atom_site_fract_x
 _atom_site_fract_y
 _atom_site_fract_z
 _atom_site_occupancy
  K  K0  1  0.264498  0.928764  0.044361  1
  K  K1  1  0.112152  0.175564  0.331151  1
  K  K2  1  0.463617  0.782109  0.543598  1
  K  K3  1  0.175564  0.112152  0.831151  1
  K  K4  1  0.632566  0.071516  0.999331  1
  K  K5  1  0.282147  0.456156  0.119827  1
  K  K6  1  0.814084  0.484081  0.709932  1
  K  K7  1  0.969380  0.303095  0.211292  1
  K  K8  1  0.071516  0.632566  0.499331  1
  K  K9  1  0.568917  0.129933  0.501188  1
  K  K10  1  0.626986  0.568153  0.498906  1
  K  K11  1  0.665294  0.595784  0.167690  1
  K  K12  1  0.269929  0.951343  0.380921  1
  K  K13  1  0.452237  0.792562  0.880263  1
  K  K14  1  0.303095  0.969380  0.711292  1
  K  K15  1  0.300342  0.476674  0.789790  1
  K  K16  1  0.928764  0.264498  0.544361  1
  K  K17  1  0.951343  0.269929  0.880921  1
  K  K18  1  0.111281  0.673668  0.169669  1
  K  K19  1  0.138853  0.072393  0.500313  1
  K  K20  1  0.667530  0.606180  0.833452  1
  K  K21  1  0.783854  0.938585  0.119041  1
  K  K22  1  0.807504  0.968524  0.790805  1
  K  K23  1  0.792562  0.452237  0.380263  1
  K  K24  1  0.172299  0.609729  0.665308  1
  K  K25  1  0.484081  0.814084  0.209932  1
  K  K26  1  0.165226  0.104424  0.166695  1
  K  K27  1  0.790639  0.953716  0.457093  1
  K  K28  1  0.568153  0.626986  0.998906  1
  K  K29  1  0.953716  0.790639  0.957093  1
  K  K30  1  0.259557  0.431096  0.456022  1
  K  K31  1  0.609729  0.172299  0.165308  1
  K  K32  1  0.476674  0.300342  0.289791  1
  K  K33  1  0.456156  0.282147  0.619827  1
  K  K34  1  0.595784  0.665294  0.667690  1
  K  K35  1  0.072393  0.138853  0.000313  1
  K  K36  1  0.658482  0.090869  0.335441  1
  K  K37  1  0.173124  0.608311  0.331799  1
  K  K38  1  0.129933  0.568917  0.001188  1
  K  K39  1  0.606180  0.667530  0.333452  1
  K  K40  1  0.968524  0.807504  0.290805  1
  K  K41  1  0.938585  0.783854  0.619041  1
  K  K42  1  0.782109  0.463617  0.043598  1
  K  K43  1  0.673668  0.111281  0.669669  1
  K  K44  1  0.608311  0.173124  0.831799  1
  K  K45  1  0.090869  0.658482  0.835441  1
  K  K46  1  0.431096  0.259557  0.956022  1
  K  K47  1  0.104424  0.165226  0.666695  1
  Co  Co48  1  0.438298  0.272440  0.094825  1
  Co  Co49  1  0.774941  0.442279  0.905669  1
  Co  Co50  1  0.290076  0.953082  0.572501  1
  Co  Co51  1  0.789264  0.464591  0.572068  1
  Co  Co52  1  0.272440  0.438298  0.594825  1
  Co  Co53  1  0.802656  0.464912  0.242487  1
  Co  Co54  1  0.464912  0.802656  0.742487  1
  Co  Co55  1  0.297669  0.968165  0.240384  1
  Co  Co56  1  0.287240  0.462672  0.927175  1
  Co  Co57  1  0.462672  0.287240  0.427175  1
  Co  Co58  1  0.947338  0.779108  0.096343  1
  Co  Co59  1  0.953082  0.290076  0.072501  1
  Co  Co60  1  0.968165  0.297669  0.740384  1
  Co  Co61  1  0.965044  0.799517  0.759713  1
  Co  Co62  1  0.944975  0.279273  0.403996  1
  Co  Co63  1  0.300502  0.467462  0.258608  1
  Co  Co64  1  0.442279  0.774941  0.405669  1
  Co  Co65  1  0.791711  0.955068  0.929451  1
  Co  Co66  1  0.799517  0.965044  0.259713  1
  Co  Co67  1  0.464591  0.789264  0.072068  1
  Co  Co68  1  0.279273  0.944975  0.903996  1
  Co  Co69  1  0.779108  0.947338  0.596343  1
  Co  Co70  1  0.955068  0.791711  0.429451  1
  Co  Co71  1  0.467462  0.300502  0.758608  1
  Cl  Cl72  1  0.784684  0.718653  0.064495  1
  Cl  Cl73  1  0.738498  0.782373  0.921413  1
  Cl  Cl74  1  0.700029  0.306649  0.278945  1
  Cl  Cl75  1  0.679722  0.509503  0.612139  1
  Cl  Cl76  1  0.805836  0.700324  0.723307  1
  Cl  Cl77  1  0.480709  0.162165  0.053715  1
  Cl  Cl78  1  0.014847  0.467778  0.752288  1
  Cl  Cl79  1  0.782915  0.228434  0.434913  1
  Cl  Cl80  1  0.245571  0.782299  0.577429  1
  Cl  Cl81  1  0.970040  0.015099  0.245639  1
  Cl  Cl82  1  0.009689  0.317211  0.994349  1
  Cl  Cl83  1  0.015099  0.970040  0.745639  1
  Cl  Cl84  1  0.467778  0.014847  0.252288  1
  Cl  Cl85  1  0.439047  0.760371  0.662534  1
  Cl  Cl86  1  0.072894  0.751732  0.720454  1
  Cl  Cl87  1  0.561189  0.443744  0.388634  1
  Cl  Cl88  1  0.252291  0.439046  0.337931  1
  Cl  Cl89  1  0.176153  0.989088  0.613820  1
  Cl  Cl90  1  0.291090  0.236511  0.417098  1
  Cl  Cl91  1  0.266423  0.586457  0.220380  1
  Cl  Cl92  1  0.933395  0.745405  0.176652  1
  Cl  Cl93  1  0.815585  0.513486  0.492984  1
  Cl  Cl94  1  0.278682  0.243491  0.069319  1
  Cl  Cl95  1  0.930563  0.237750  0.324433  1
  Cl  Cl96  1  0.241044  0.432659  0.675524  1
  Cl  Cl97  1  0.551344  0.439237  0.073366  1
  Cl  Cl98  1  0.561397  0.948617  0.108815  1
  Cl  Cl99  1  0.751732  0.072894  0.220454  1
  Cl  Cl100  1  0.935074  0.754738  0.839312  1
  Cl  Cl101  1  0.045056  0.952463  0.392084  1
  Cl  Cl102  1  0.257380  0.080938  0.280646  1
  Cl  Cl103  1  0.948647  0.041899  0.573392  1
  Cl  Cl104  1  0.020805  0.693281  0.057072  1
  Cl  Cl105  1  0.041899  0.948647  0.073392  1
  Cl  Cl106  1  0.513486  0.815585  0.992984  1
  Cl  Cl107  1  0.439237  0.551344  0.573366  1
  Cl  Cl108  1  0.432659  0.241044  0.175524  1
  Cl  Cl109  1  0.934208  0.557912  0.935610  1
  Cl  Cl110  1  0.051228  0.446837  0.111275  1
  Cl  Cl111  1  0.586457  0.266423  0.720380  1
  Cl  Cl112  1  0.782373  0.738498  0.421413  1
  Cl  Cl113  1  0.191885  0.013584  0.946739  1
  Cl  Cl114  1  0.194340  0.312420  0.220584  1
  Cl  Cl115  1  0.656829  0.479383  0.942482  1
  Cl  Cl116  1  0.169444  0.497075  0.887656  1
  Cl  Cl117  1  0.782299  0.245571  0.077429  1
  Cl  Cl118  1  0.557912  0.934208  0.435610  1
  Cl  Cl119  1  0.693281  0.020805  0.557072  1
  Cl  Cl120  1  0.292416  0.732451  0.084441  1
  Cl  Cl121  1  0.228434  0.782915  0.934913  1
  Cl  Cl122  1  0.012807  0.816772  0.507384  1
  Cl  Cl123  1  0.315201  0.514704  0.005869  1
  Cl  Cl124  1  0.576809  0.759977  0.781320  1
  Cl  Cl125  1  0.306649  0.700029  0.778945  1
  Cl  Cl126  1  0.812161  0.193080  0.777951  1
  Cl  Cl127  1  0.043225  0.451093  0.421528  1
  Cl  Cl128  1  0.754738  0.935074  0.339312  1
  Cl  Cl129  1  0.732451  0.292416  0.584441  1
  Cl  Cl130  1  0.686055  0.000307  0.886788  1
  Cl  Cl131  1  0.193080  0.812161  0.277951  1
  Cl  Cl132  1  0.757633  0.443696  0.824136  1
  Cl  Cl133  1  0.760371  0.439047  0.162534  1
  Cl  Cl134  1  0.507371  0.469029  0.746935  1
  Cl  Cl135  1  0.000307  0.686055  0.386788  1
  Cl  Cl136  1  0.718653  0.784684  0.564495  1
  Cl  Cl137  1  0.446837  0.051228  0.611275  1
  Cl  Cl138  1  0.451093  0.043225  0.921528  1
  Cl  Cl139  1  0.080938  0.257380  0.780646  1
  Cl  Cl140  1  0.237750  0.930563  0.824433  1
  Cl  Cl141  1  0.479383  0.656829  0.442482  1
  Cl  Cl142  1  0.250009  0.939632  0.161221  1
  Cl  Cl143  1  0.514704  0.315201  0.505869  1
  Cl  Cl144  1  0.939632  0.250009  0.661221  1
  Cl  Cl145  1  0.469029  0.507371  0.246935  1
  Cl  Cl146  1  0.511524  0.972448  0.756238  1
  Cl  Cl147  1  0.972448  0.511524  0.256238  1
  Cl  Cl148  1  0.013584  0.191885  0.446739  1
  Cl  Cl149  1  0.443744  0.561189  0.888634  1
  Cl  Cl150  1  0.497075  0.169444  0.387656  1
  Cl  Cl151  1  0.443696  0.757633  0.324136  1
  Cl  Cl152  1  0.745405  0.933395  0.676652  1
  Cl  Cl153  1  0.948617  0.561397  0.608815  1
  Cl  Cl154  1  0.281263  0.744176  0.428854  1
  Cl  Cl155  1  0.989088  0.176153  0.113820  1
  Cl  Cl156  1  0.317211  0.009689  0.494349  1
  Cl  Cl157  1  0.744176  0.281263  0.928854  1
  Cl  Cl158  1  0.509503  0.679722  0.112139  1
  Cl  Cl159  1  0.700324  0.805836  0.223307  1
  Cl  Cl160  1  0.816772  0.012807  0.007384  1
  Cl  Cl161  1  0.236511  0.291090  0.917098  1
  Cl  Cl162  1  0.243491  0.278682  0.569319  1
  Cl  Cl163  1  0.439046  0.252291  0.837931  1
  Cl  Cl164  1  0.759977  0.576809  0.281320  1
  Cl  Cl165  1  0.312420  0.194340  0.720584  1
  Cl  Cl166  1  0.952463  0.045056  0.892084  1
  Cl  Cl167  1  0.162165  0.480709  0.553715  1
