# generated using pymatgen
data_Cs2Cu3(P2O7)2
_symmetry_space_group_name_H-M   'P 1'
_cell_length_a   7.89249182
_cell_length_b   8.01528458
_cell_length_c   11.04683985
_cell_angle_alpha   90.00000000
_cell_angle_beta   90.00000000
_cell_angle_gamma   104.06331123
_symmetry_Int_Tables_number   1
_chemical_formula_structural   Cs2Cu3(P2O7)2
_chemical_formula_sum   'Cs4 Cu6 P8 O28'
_cell_volume   677.88391877
_cell_formula_units_Z   2
loop_
 _symmetry_equiv_pos_site_id
 _symmetry_equiv_pos_as_xyz
  1  'x, y, z'
loop_
 _atom_site_type_symbol
 _atom_site_label
 _atom_site_symmetry_multiplicity
 _atom_site_fract_x
 _atom_site_fract_y
 _atom_site_fract_z
 _atom_site_occupancy
  Cs  Cs0  1  0.539918  0.744822  0.314353  1
  Cs  Cs1  1  0.039918  0.744822  0.185647  1
  Cs  Cs2  1  0.460082  0.255178  0.685647  1
  Cs  Cs3  1  0.960082  0.255178  0.814353  1
  Cu  Cu4  1  0.271815  0.282694  0.108347  1
  Cu  Cu5  1  0.000000  0.000000  0.500000  1
  Cu  Cu6  1  0.228185  0.717306  0.608347  1
  Cu  Cu7  1  0.771815  0.282694  0.391653  1
  Cu  Cu8  1  0.500000  0.000000  0.000000  1
  Cu  Cu9  1  0.728185  0.717306  0.891653  1
  P  P10  1  0.662624  0.380912  0.048958  1
  P  P11  1  0.653487  0.868150  0.657939  1
  P  P12  1  0.337376  0.619088  0.951042  1
  P  P13  1  0.837376  0.619088  0.548958  1
  P  P14  1  0.846513  0.131850  0.157939  1
  P  P15  1  0.153487  0.868150  0.842061  1
  P  P16  1  0.162624  0.380912  0.451042  1
  P  P17  1  0.346513  0.131850  0.342061  1
  O  O18  1  0.287474  0.009727  0.908716  1
  O  O19  1  0.526372  0.152494  0.398454  1
  O  O20  1  0.286811  0.313249  0.353733  1
  O  O21  1  0.485232  0.577322  0.875724  1
  O  O22  1  0.340407  0.099751  0.203840  1
  O  O23  1  0.396551  0.761505  0.045996  1
  O  O24  1  0.973628  0.847506  0.898454  1
  O  O25  1  0.787474  0.009727  0.591284  1
  O  O26  1  0.840407  0.099751  0.296160  1
  O  O27  1  0.896551  0.761505  0.454004  1
  O  O28  1  0.713189  0.686751  0.646267  1
  O  O29  1  0.159593  0.900249  0.703840  1
  O  O30  1  0.659593  0.900249  0.796160  1
  O  O31  1  0.286890  0.541212  0.505052  1
  O  O32  1  0.985232  0.577322  0.624276  1
  O  O33  1  0.213110  0.458788  0.005052  1
  O  O34  1  0.014768  0.422678  0.375724  1
  O  O35  1  0.712526  0.990273  0.091284  1
  O  O36  1  0.786811  0.313249  0.146267  1
  O  O37  1  0.603449  0.238495  0.954004  1
  O  O38  1  0.473628  0.847506  0.601546  1
  O  O39  1  0.026372  0.152494  0.101546  1
  O  O40  1  0.103449  0.238495  0.545996  1
  O  O41  1  0.213189  0.686751  0.853733  1
  O  O42  1  0.713110  0.458788  0.494948  1
  O  O43  1  0.786890  0.541212  0.994948  1
  O  O44  1  0.514768  0.422678  0.124276  1
  O  O45  1  0.212526  0.990273  0.408716  1
