# generated using pymatgen
data_BePbF4
_symmetry_space_group_name_H-M   'P 1'
_cell_length_a   5.33730066
_cell_length_b   7.32583605
_cell_length_c   9.16898882
_cell_angle_alpha   90.00000000
_cell_angle_beta   90.00000000
_cell_angle_gamma   90.00000000
_symmetry_Int_Tables_number   1
_chemical_formula_structural   BePbF4
_chemical_formula_sum   'Be4 Pb4 F16'
_cell_volume   358.50920116
_cell_formula_units_Z   4
loop_
 _symmetry_equiv_pos_site_id
 _symmetry_equiv_pos_as_xyz
  1  'x, y, z'
loop_
 _atom_site_type_symbol
 _atom_site_label
 _atom_site_symmetry_multiplicity
 _atom_site_fract_x
 _atom_site_fract_y
 _atom_site_fract_z
 _atom_site_occupancy
  Be  Be0  1  0.250000  0.742747  0.132791  1
  Be  Be1  1  0.750000  0.242747  0.367209  1
  Be  Be2  1  0.750000  0.257253  0.867209  1
  Be  Be3  1  0.250000  0.757253  0.632791  1
  Pb  Pb4  1  0.250000  0.278457  0.662906  1
  Pb  Pb5  1  0.750000  0.778457  0.837094  1
  Pb  Pb6  1  0.750000  0.721543  0.337094  1
  Pb  Pb7  1  0.250000  0.221543  0.162906  1
  F  F8  1  0.750000  0.036976  0.321076  1
  F  F9  1  0.496367  0.709333  0.552222  1
  F  F10  1  0.250000  0.646859  0.778435  1
  F  F11  1  0.750000  0.146859  0.721565  1
  F  F12  1  0.996367  0.290667  0.447778  1
  F  F13  1  0.250000  0.963024  0.678924  1
  F  F14  1  0.496367  0.790667  0.052222  1
  F  F15  1  0.996367  0.209333  0.947778  1
  F  F16  1  0.503633  0.209333  0.947778  1
  F  F17  1  0.250000  0.536976  0.178924  1
  F  F18  1  0.750000  0.463024  0.821076  1
  F  F19  1  0.003633  0.790667  0.052222  1
  F  F20  1  0.250000  0.853141  0.278435  1
  F  F21  1  0.503633  0.290667  0.447778  1
  F  F22  1  0.003633  0.709333  0.552222  1
  F  F23  1  0.750000  0.353141  0.221565  1
