# generated using pymatgen
data_Sr8(TiS3)7
_symmetry_space_group_name_H-M   'P 1'
_cell_length_a   11.65987903
_cell_length_b   11.65987927
_cell_length_c   20.90191563
_cell_angle_alpha   90.00000000
_cell_angle_beta   90.00000000
_cell_angle_gamma   119.99999930
_symmetry_Int_Tables_number   1
_chemical_formula_structural   Sr8(TiS3)7
_chemical_formula_sum   'Sr24 Ti21 S63'
_cell_volume   2460.96152252
_cell_formula_units_Z   3
loop_
 _symmetry_equiv_pos_site_id
 _symmetry_equiv_pos_as_xyz
  1  'x, y, z'
loop_
 _atom_site_type_symbol
 _atom_site_label
 _atom_site_symmetry_multiplicity
 _atom_site_fract_x
 _atom_site_fract_y
 _atom_site_fract_z
 _atom_site_occupancy
  Sr  Sr0  1  0.021855  0.685804  0.188466  1
  Sr  Sr1  1  0.306098  0.968015  0.319036  1
  Sr  Sr2  1  0.992054  0.359541  0.563510  1
  Sr  Sr3  1  0.303532  0.971790  0.058909  1
  Sr  Sr4  1  0.367487  0.007946  0.563510  1
  Sr  Sr5  1  0.028210  0.331742  0.058909  1
  Sr  Sr6  1  0.031985  0.338083  0.319036  1
  Sr  Sr7  1  0.314196  0.336051  0.188466  1
  Sr  Sr8  1  0.663949  0.978145  0.188466  1
  Sr  Sr9  1  0.335230  0.301903  0.679571  1
  Sr  Sr10  1  0.360066  0.364019  0.436470  1
  Sr  Sr11  1  0.331733  0.303447  0.941180  1
  Sr  Sr12  1  0.668258  0.696468  0.058909  1
  Sr  Sr13  1  0.640459  0.632513  0.563510  1
  Sr  Sr14  1  0.661917  0.693902  0.319036  1
  Sr  Sr15  1  0.336060  0.021441  0.811512  1
  Sr  Sr16  1  0.685381  0.663940  0.811512  1
  Sr  Sr17  1  0.966673  0.664770  0.679571  1
  Sr  Sr18  1  0.971714  0.668267  0.941180  1
  Sr  Sr19  1  0.635981  0.996046  0.436470  1
  Sr  Sr20  1  0.696553  0.028286  0.941180  1
  Sr  Sr21  1  0.003954  0.639934  0.436470  1
  Sr  Sr22  1  0.698097  0.033327  0.679571  1
  Sr  Sr23  1  0.978559  0.314619  0.811512  1
  Ti  Ti24  1  0.333333  0.666667  0.666036  1
  Ti  Ti25  1  0.333333  0.666667  0.097250  1
  Ti  Ti26  1  0.333333  0.666667  0.239773  1
  Ti  Ti27  1  0.333333  0.666667  0.951484  1
  Ti  Ti28  1  0.000000  0.000000  0.998347  1
  Ti  Ti29  1  0.000000  0.000000  0.140353  1
  Ti  Ti30  1  0.333333  0.666667  0.807458  1
  Ti  Ti31  1  0.000000  0.000000  0.281437  1
  Ti  Ti32  1  0.000000  0.000000  0.574941  1
  Ti  Ti33  1  0.000000  0.000000  0.721147  1
  Ti  Ti34  1  0.000000  0.000000  0.858876  1
  Ti  Ti35  1  0.333333  0.666667  0.383762  1
  Ti  Ti36  1  0.333333  0.666667  0.524594  1
  Ti  Ti37  1  0.666667  0.333333  0.475451  1
  Ti  Ti38  1  0.666667  0.333333  0.617138  1
  Ti  Ti39  1  0.000000  0.000000  0.428029  1
  Ti  Ti40  1  0.666667  0.333333  0.191683  1
  Ti  Ti41  1  0.666667  0.333333  0.333126  1
  Ti  Ti42  1  0.666667  0.333333  0.761050  1
  Ti  Ti43  1  0.666667  0.333333  0.902613  1
  Ti  Ti44  1  0.666667  0.333333  0.048006  1
  S  S45  1  0.156379  0.984688  0.650089  1
  S  S46  1  0.164326  0.994229  0.205577  1
  S  S47  1  0.156436  0.972817  0.931530  1
  S  S48  1  0.152250  0.643878  0.312182  1
  S  S49  1  0.162247  0.659909  0.589109  1
  S  S50  1  0.170146  0.672000  0.032548  1
  S  S51  1  0.144430  0.565199  0.884163  1
  S  S52  1  0.249196  0.772370  0.736249  1
  S  S53  1  0.307517  0.823020  0.449704  1
  S  S54  1  0.167209  0.498149  0.174826  1
  S  S55  1  0.330940  0.832791  0.174826  1
  S  S56  1  0.005771  0.170096  0.205577  1
  S  S57  1  0.015312  0.171691  0.650089  1
  S  S58  1  0.176980  0.484497  0.449704  1
  S  S59  1  0.027183  0.183619  0.931530  1
  S  S60  1  0.227630  0.476826  0.736249  1
  S  S61  1  0.420769  0.855570  0.884163  1
  S  S62  1  0.491628  0.847750  0.312182  1
  S  S63  1  0.501854  0.829854  0.032548  1
  S  S64  1  0.340091  0.502338  0.589109  1
  S  S65  1  0.497662  0.837753  0.589109  1
  S  S66  1  0.170987  0.164649  0.794049  1
  S  S67  1  0.328000  0.498146  0.032548  1
  S  S68  1  0.162140  0.166845  0.348643  1
  S  S69  1  0.356122  0.508372  0.312182  1
  S  S70  1  0.183389  0.156187  0.068237  1
  S  S71  1  0.186044  0.092331  0.499027  1
  S  S72  1  0.434801  0.579231  0.884163  1
  S  S73  1  0.523174  0.750804  0.736249  1
  S  S74  1  0.501851  0.669060  0.174826  1
  S  S75  1  0.515503  0.692483  0.449704  1
  S  S76  1  0.492663  0.320765  0.551193  1
  S  S77  1  0.497868  0.330528  0.825400  1
  S  S78  1  0.476748  0.249892  0.263812  1
  S  S79  1  0.565295  0.420919  0.115996  1
  S  S80  1  0.816381  0.843564  0.931530  1
  S  S81  1  0.645724  0.493413  0.688540  1
  S  S82  1  0.828309  0.843621  0.650089  1
  S  S83  1  0.671903  0.501834  0.967613  1
  S  S84  1  0.829904  0.835674  0.205577  1
  S  S85  1  0.504384  0.160932  0.410808  1
  S  S86  1  0.656547  0.495616  0.410808  1
  S  S87  1  0.498166  0.170069  0.967613  1
  S  S88  1  0.506587  0.152310  0.688540  1
  S  S89  1  0.906287  0.813956  0.499027  1
  S  S90  1  0.579081  0.144376  0.115996  1
  S  S91  1  0.773144  0.523252  0.263812  1
  S  S92  1  0.972798  0.816611  0.068237  1
  S  S93  1  0.828102  0.507337  0.551193  1
  S  S94  1  0.004705  0.837860  0.348643  1
  S  S95  1  0.993662  0.829013  0.794049  1
  S  S96  1  0.669472  0.167339  0.825400  1
  S  S97  1  0.832661  0.502132  0.825400  1
  S  S98  1  0.679235  0.171898  0.551193  1
  S  S99  1  0.750108  0.226856  0.263812  1
  S  S100  1  0.855624  0.434705  0.115996  1
  S  S101  1  0.829931  0.328097  0.967613  1
  S  S102  1  0.839068  0.343453  0.410808  1
  S  S103  1  0.847690  0.354276  0.688540  1
  S  S104  1  0.843813  0.027202  0.068237  1
  S  S105  1  0.835351  0.006338  0.794049  1
  S  S106  1  0.833155  0.995295  0.348643  1
  S  S107  1  0.907669  0.093713  0.499027  1
