# generated using pymatgen
data_CsRe6S8Br3
_symmetry_space_group_name_H-M   'P 1'
_cell_length_a   6.43187585
_cell_length_b   15.33820638
_cell_length_c   18.85394905
_cell_angle_alpha   90.00000000
_cell_angle_beta   90.00000000
_cell_angle_gamma   97.34792707
_symmetry_Int_Tables_number   1
_chemical_formula_structural   CsRe6S8Br3
_chemical_formula_sum   'Cs4 Re24 S32 Br12'
_cell_volume   1844.73218285
_cell_formula_units_Z   4
loop_
 _symmetry_equiv_pos_site_id
 _symmetry_equiv_pos_as_xyz
  1  'x, y, z'
loop_
 _atom_site_type_symbol
 _atom_site_label
 _atom_site_symmetry_multiplicity
 _atom_site_fract_x
 _atom_site_fract_y
 _atom_site_fract_z
 _atom_site_occupancy
  Cs  Cs0  1  0.713744  0.248147  0.520283  1
  Cs  Cs1  1  0.786256  0.251853  0.020283  1
  Cs  Cs2  1  0.213744  0.748147  0.979717  1
  Cs  Cs3  1  0.286256  0.751853  0.479717  1
  Re  Re4  1  0.950632  0.953140  0.339081  1
  Re  Re5  1  0.373357  0.449829  0.663503  1
  Re  Re6  1  0.293008  0.959066  0.261838  1
  Re  Re7  1  0.126643  0.050171  0.163503  1
  Re  Re8  1  0.431050  0.398251  0.294894  1
  Re  Re9  1  0.873357  0.949829  0.836497  1
  Re  Re10  1  0.646131  0.605184  0.202658  1
  Re  Re11  1  0.549368  0.546860  0.839081  1
  Re  Re12  1  0.049368  0.046860  0.660919  1
  Re  Re13  1  0.715622  0.455731  0.740783  1
  Re  Re14  1  0.215622  0.955731  0.759217  1
  Re  Re15  1  0.450632  0.453140  0.160919  1
  Re  Re16  1  0.206992  0.540934  0.761838  1
  Re  Re17  1  0.284378  0.544269  0.259217  1
  Re  Re18  1  0.784378  0.044269  0.240783  1
  Re  Re19  1  0.793008  0.459066  0.238162  1
  Re  Re20  1  0.626643  0.550171  0.336497  1
  Re  Re21  1  0.568950  0.601749  0.705106  1
  Re  Re22  1  0.706992  0.040934  0.738162  1
  Re  Re23  1  0.853869  0.894816  0.702658  1
  Re  Re24  1  0.068950  0.101749  0.794894  1
  Re  Re25  1  0.931050  0.898251  0.205106  1
  Re  Re26  1  0.353869  0.394816  0.797342  1
  Re  Re27  1  0.146131  0.105184  0.297342  1
  S  S28  1  0.872902  0.605803  0.780502  1
  S  S29  1  0.372902  0.105803  0.719498  1
  S  S30  1  0.450324  0.109014  0.222084  1
  S  S31  1  0.254462  0.911371  0.139452  1
  S  S32  1  0.982857  0.180035  0.203569  1
  S  S33  1  0.323175  0.592007  0.136929  1
  S  S34  1  0.708516  0.988110  0.617526  1
  S  S35  1  0.049676  0.390986  0.722084  1
  S  S36  1  0.627098  0.894197  0.280502  1
  S  S37  1  0.676825  0.407993  0.863071  1
  S  S38  1  0.785831  0.991692  0.120181  1
  S  S39  1  0.593980  0.323168  0.201152  1
  S  S40  1  0.754462  0.411371  0.360548  1
  S  S41  1  0.245538  0.588629  0.639452  1
  S  S42  1  0.714169  0.508308  0.620181  1
  S  S43  1  0.285831  0.491692  0.379819  1
  S  S44  1  0.093980  0.823168  0.298848  1
  S  S45  1  0.208516  0.488110  0.882474  1
  S  S46  1  0.517143  0.319965  0.703569  1
  S  S47  1  0.482857  0.680035  0.296431  1
  S  S48  1  0.214169  0.008308  0.879819  1
  S  S49  1  0.906020  0.176832  0.701152  1
  S  S50  1  0.017143  0.819965  0.796431  1
  S  S51  1  0.291484  0.011890  0.382474  1
  S  S52  1  0.950324  0.609014  0.277916  1
  S  S53  1  0.127098  0.394197  0.219498  1
  S  S54  1  0.745538  0.088629  0.860548  1
  S  S55  1  0.791484  0.511890  0.117526  1
  S  S56  1  0.406020  0.676832  0.798848  1
  S  S57  1  0.176825  0.907993  0.636929  1
  S  S58  1  0.823175  0.092007  0.363071  1
  S  S59  1  0.549676  0.890986  0.777916  1
  Br  Br60  1  0.214670  0.247181  0.867438  1
  Br  Br61  1  0.831706  0.884365  0.458871  1
  Br  Br62  1  0.785330  0.752819  0.132562  1
  Br  Br63  1  0.168294  0.115635  0.541129  1
  Br  Br64  1  0.714670  0.747181  0.632562  1
  Br  Br65  1  0.744528  0.618491  0.456427  1
  Br  Br66  1  0.285330  0.252819  0.367438  1
  Br  Br67  1  0.255472  0.381509  0.543573  1
  Br  Br68  1  0.668294  0.615635  0.958871  1
  Br  Br69  1  0.331706  0.384365  0.041129  1
  Br  Br70  1  0.755472  0.881509  0.956427  1
  Br  Br71  1  0.244528  0.118491  0.043573  1
