# generated using pymatgen
data_LiGd(PO3)4
_symmetry_space_group_name_H-M   'P 1'
_cell_length_a   7.15567216
_cell_length_b   9.02419158
_cell_length_c   9.01708766
_cell_angle_alpha   65.74718199
_cell_angle_beta   66.62271615
_cell_angle_gamma   66.64221157
_symmetry_Int_Tables_number   1
_chemical_formula_structural   LiGd(PO3)4
_chemical_formula_sum   'Li2 Gd2 P8 O24'
_cell_volume   467.95281791
_cell_formula_units_Z   2
loop_
 _symmetry_equiv_pos_site_id
 _symmetry_equiv_pos_as_xyz
  1  'x, y, z'
loop_
 _atom_site_type_symbol
 _atom_site_label
 _atom_site_symmetry_multiplicity
 _atom_site_fract_x
 _atom_site_fract_y
 _atom_site_fract_z
 _atom_site_occupancy
  Li  Li0  1  0.794989  0.250000  0.750000  1
  Li  Li1  1  0.205011  0.750000  0.250000  1
  O  O2  1  0.258055  0.527060  0.724870  1
  O  O3  1  0.509986  0.972940  0.775130  1
  O  O4  1  0.741945  0.472940  0.275130  1
  O  O5  1  0.490014  0.027060  0.224870  1
  O  O6  1  0.338883  0.728794  0.417424  1
  O  O7  1  0.485101  0.771206  0.082576  1
  O  O8  1  0.661117  0.271206  0.582576  1
  O  O9  1  0.514899  0.228794  0.917424  1
  O  O10  1  0.899228  0.817073  0.958242  1
  O  O11  1  0.674543  0.682927  0.541758  1
  O  O12  1  0.100772  0.182927  0.041758  1
  O  O13  1  0.325457  0.317073  0.458242  1
  O  O14  1  0.718702  0.231741  0.082078  1
  O  O15  1  0.032522  0.268259  0.417922  1
  O  O16  1  0.281298  0.768259  0.917922  1
  O  O17  1  0.967478  0.731741  0.582078  1
  O  O18  1  0.162927  0.849183  0.660764  1
  O  O19  1  0.672873  0.650817  0.839236  1
  O  O20  1  0.837073  0.150817  0.339236  1
  O  O21  1  0.327127  0.349183  0.160764  1
  O  O22  1  0.938760  0.929556  0.204402  1
  O  O23  1  0.072718  0.570444  0.295598  1
  O  O24  1  0.061240  0.070444  0.795598  1
  O  O25  1  0.927282  0.429556  0.704402  1
  P  P26  1  0.200683  0.695389  0.597248  1
  P  P27  1  0.493320  0.804611  0.902752  1
  P  P28  1  0.799318  0.304611  0.402752  1
  P  P29  1  0.506680  0.195389  0.097248  1
  P  P30  1  0.190665  0.384509  0.340259  1
  P  P31  1  0.915433  0.115491  0.159741  1
  P  P32  1  0.809335  0.615491  0.659741  1
  P  P33  1  0.084567  0.884509  0.840259  1
  Gd  Gd34  1  0.297353  0.250000  0.750000  1
  Gd  Gd35  1  0.702647  0.750000  0.250000  1
