# generated using pymatgen
data_CeTmS3
_symmetry_space_group_name_H-M   'P 1'
_cell_length_a   3.93317325
_cell_length_b   16.37900100
_cell_length_c   21.10535562
_cell_angle_alpha   90.00000000
_cell_angle_beta   90.00000000
_cell_angle_gamma   90.00000000
_symmetry_Int_Tables_number   1
_chemical_formula_structural   CeTmS3
_chemical_formula_sum   'Ce12 Tm12 S36'
_cell_volume   1359.63758215
_cell_formula_units_Z   12
loop_
 _symmetry_equiv_pos_site_id
 _symmetry_equiv_pos_as_xyz
  1  'x, y, z'
loop_
 _atom_site_type_symbol
 _atom_site_label
 _atom_site_symmetry_multiplicity
 _atom_site_fract_x
 _atom_site_fract_y
 _atom_site_fract_z
 _atom_site_occupancy
  Ce  Ce0  1  0.750000  0.669914  0.912762  1
  Ce  Ce1  1  0.250000  0.663111  0.254975  1
  Ce  Ce2  1  0.250000  0.163111  0.245025  1
  Ce  Ce3  1  0.250000  0.330086  0.087238  1
  Ce  Ce4  1  0.750000  0.836889  0.754975  1
  Ce  Ce5  1  0.250000  0.830086  0.412762  1
  Ce  Ce6  1  0.750000  0.804157  0.077986  1
  Ce  Ce7  1  0.750000  0.304157  0.422014  1
  Ce  Ce8  1  0.750000  0.336889  0.745025  1
  Ce  Ce9  1  0.250000  0.695843  0.577986  1
  Ce  Ce10  1  0.750000  0.169914  0.587238  1
  Ce  Ce11  1  0.250000  0.195843  0.922014  1
  Tm  Tm12  1  0.250000  0.566166  0.079411  1
  Tm  Tm13  1  0.250000  0.095470  0.751100  1
  Tm  Tm14  1  0.250000  0.595470  0.748900  1
  Tm  Tm15  1  0.750000  0.055682  0.069748  1
  Tm  Tm16  1  0.750000  0.404530  0.251100  1
  Tm  Tm17  1  0.750000  0.904530  0.248900  1
  Tm  Tm18  1  0.750000  0.433834  0.920589  1
  Tm  Tm19  1  0.750000  0.933834  0.579411  1
  Tm  Tm20  1  0.250000  0.944318  0.930252  1
  Tm  Tm21  1  0.250000  0.066166  0.420589  1
  Tm  Tm22  1  0.750000  0.555682  0.430252  1
  Tm  Tm23  1  0.250000  0.444318  0.569748  1
  S  S24  1  0.250000  0.446100  0.694850  1
  S  S25  1  0.750000  0.178635  0.816867  1
  S  S26  1  0.250000  0.961862  0.318366  1
  S  S27  1  0.750000  0.553900  0.305150  1
  S  S28  1  0.750000  0.060870  0.941070  1
  S  S29  1  0.750000  0.038138  0.681634  1
  S  S30  1  0.750000  0.646931  0.149172  1
  S  S31  1  0.250000  0.946100  0.805150  1
  S  S32  1  0.750000  0.340221  0.564306  1
  S  S33  1  0.250000  0.545028  0.947584  1
  S  S34  1  0.250000  0.461862  0.181634  1
  S  S35  1  0.250000  0.159779  0.064306  1
  S  S36  1  0.250000  0.853069  0.649172  1
  S  S37  1  0.750000  0.146931  0.350828  1
  S  S38  1  0.250000  0.821365  0.183133  1
  S  S39  1  0.250000  0.729778  0.821879  1
  S  S40  1  0.250000  0.353069  0.850828  1
  S  S41  1  0.750000  0.053900  0.194850  1
  S  S42  1  0.750000  0.538138  0.818366  1
  S  S43  1  0.250000  0.710205  0.016226  1
  S  S44  1  0.750000  0.678635  0.683133  1
  S  S45  1  0.750000  0.289795  0.983774  1
  S  S46  1  0.250000  0.045028  0.552416  1
  S  S47  1  0.250000  0.210205  0.483774  1
  S  S48  1  0.250000  0.659779  0.435694  1
  S  S49  1  0.750000  0.789795  0.516226  1
  S  S50  1  0.750000  0.560870  0.558930  1
  S  S51  1  0.250000  0.939130  0.058930  1
  S  S52  1  0.750000  0.770222  0.321879  1
  S  S53  1  0.750000  0.270222  0.178121  1
  S  S54  1  0.250000  0.321365  0.316867  1
  S  S55  1  0.250000  0.229778  0.678121  1
  S  S56  1  0.250000  0.439130  0.441070  1
  S  S57  1  0.750000  0.840221  0.935694  1
  S  S58  1  0.750000  0.454972  0.052416  1
  S  S59  1  0.750000  0.954972  0.447584  1
