# generated using pymatgen
data_K8Ti5P2(O4F11)2
_symmetry_space_group_name_H-M   'P 1'
_cell_length_a   10.43544278
_cell_length_b   10.98433840
_cell_length_c   25.06839273
_cell_angle_alpha   90.00000000
_cell_angle_beta   98.33724264
_cell_angle_gamma   90.00000000
_symmetry_Int_Tables_number   1
_chemical_formula_structural   K8Ti5P2(O4F11)2
_chemical_formula_sum   'K32 Ti20 P8 O32 F88'
_cell_volume   2843.13260825
_cell_formula_units_Z   4
loop_
 _symmetry_equiv_pos_site_id
 _symmetry_equiv_pos_as_xyz
  1  'x, y, z'
loop_
 _atom_site_type_symbol
 _atom_site_label
 _atom_site_symmetry_multiplicity
 _atom_site_fract_x
 _atom_site_fract_y
 _atom_site_fract_z
 _atom_site_occupancy
  K  K0  1  0.296064  0.411302  0.302633  1
  K  K1  1  0.844209  0.555646  0.302508  1
  K  K2  1  0.203936  0.911302  0.197367  1
  K  K3  1  0.299008  0.242334  0.146838  1
  K  K4  1  0.458825  0.220691  0.722493  1
  K  K5  1  0.213617  0.578601  0.505832  1
  K  K6  1  0.713617  0.921399  0.005832  1
  K  K7  1  0.720551  0.191267  0.351558  1
  K  K8  1  0.344209  0.944354  0.802508  1
  K  K9  1  0.612102  0.298376  0.056096  1
  K  K10  1  0.430396  0.253802  0.449841  1
  K  K11  1  0.958825  0.279309  0.222493  1
  K  K12  1  0.069604  0.753802  0.050159  1
  K  K13  1  0.155791  0.444354  0.697492  1
  K  K14  1  0.220551  0.308733  0.851558  1
  K  K15  1  0.779449  0.691267  0.148442  1
  K  K16  1  0.887898  0.798376  0.443904  1
  K  K17  1  0.112102  0.201624  0.556096  1
  K  K18  1  0.200992  0.742334  0.353162  1
  K  K19  1  0.286383  0.078601  0.994168  1
  K  K20  1  0.387898  0.701624  0.943904  1
  K  K21  1  0.703936  0.588698  0.697367  1
  K  K22  1  0.041175  0.720691  0.777507  1
  K  K23  1  0.786383  0.421399  0.494168  1
  K  K24  1  0.700992  0.757666  0.853162  1
  K  K25  1  0.930396  0.246198  0.949841  1
  K  K26  1  0.541175  0.779309  0.277507  1
  K  K27  1  0.799008  0.257666  0.646838  1
  K  K28  1  0.796064  0.088698  0.802633  1
  K  K29  1  0.279449  0.808733  0.648442  1
  K  K30  1  0.655791  0.055646  0.197492  1
  K  K31  1  0.569604  0.746198  0.550159  1
  Ti  Ti32  1  0.255327  0.929391  0.496347  1
  Ti  Ti33  1  0.755327  0.570609  0.996347  1
  Ti  Ti34  1  0.117172  0.579490  0.183327  1
  Ti  Ti35  1  0.045017  0.881820  0.904919  1
  Ti  Ti36  1  0.454983  0.381820  0.595081  1
  Ti  Ti37  1  0.595686  0.421145  0.195663  1
  Ti  Ti38  1  0.453968  0.878921  0.101883  1
  Ti  Ti39  1  0.954983  0.118180  0.095081  1
  Ti  Ti40  1  0.095686  0.078855  0.695663  1
  Ti  Ti41  1  0.953968  0.621079  0.601883  1
  Ti  Ti42  1  0.244673  0.429391  0.003653  1
  Ti  Ti43  1  0.904314  0.921145  0.304337  1
  Ti  Ti44  1  0.882828  0.420510  0.816673  1
  Ti  Ti45  1  0.046032  0.378921  0.398117  1
  Ti  Ti46  1  0.404314  0.578855  0.804337  1
  Ti  Ti47  1  0.546032  0.121079  0.898117  1
  Ti  Ti48  1  0.744673  0.070609  0.503653  1
  Ti  Ti49  1  0.545017  0.618180  0.404919  1
  Ti  Ti50  1  0.382828  0.079490  0.316673  1
  Ti  Ti51  1  0.617172  0.920510  0.683327  1
  P  P52  1  0.375709  0.587769  0.113633  1
  P  P53  1  0.514602  0.915900  0.424990  1
  P  P54  1  0.985398  0.415900  0.075010  1
  P  P55  1  0.485398  0.084100  0.575010  1
  P  P56  1  0.624291  0.412231  0.886367  1
  P  P57  1  0.014602  0.584100  0.924990  1
  P  P58  1  0.124291  0.087769  0.386367  1
  P  P59  1  0.875709  0.912231  0.613633  1
  O  O60  1  0.590419  0.101967  0.538495  1
  O  O61  1  0.854004  0.441864  0.039891  1
  O  O62  1  0.728287  0.384012  0.849787  1
  O  O63  1  0.462274  0.481265  0.137043  1
  O  O64  1  0.040009  0.202481  0.390355  1
  O  O65  1  0.037726  0.981265  0.362957  1
  O  O66  1  0.409581  0.898033  0.461505  1
  O  O67  1  0.540009  0.297519  0.890355  1
  O  O68  1  0.459991  0.702481  0.109645  1
  O  O69  1  0.537726  0.518735  0.862957  1
  O  O70  1  0.526540  0.798461  0.392283  1
  O  O71  1  0.473460  0.201539  0.607717  1
  O  O72  1  0.145996  0.558136  0.960109  1
  O  O73  1  0.026540  0.701539  0.892283  1
  O  O74  1  0.959991  0.797519  0.609645  1
  O  O75  1  0.354004  0.058136  0.539891  1
  O  O76  1  0.645996  0.941864  0.460109  1
  O  O77  1  0.228287  0.115988  0.349787  1
  O  O78  1  0.022617  0.524339  0.113486  1
  O  O79  1  0.771713  0.884012  0.650213  1
  O  O80  1  0.973460  0.298461  0.107717  1
  O  O81  1  0.271713  0.615988  0.150213  1
  O  O82  1  0.307287  0.555381  0.056728  1
  O  O83  1  0.477383  0.024339  0.386514  1
  O  O84  1  0.090419  0.398033  0.038495  1
  O  O85  1  0.692713  0.444619  0.943272  1
  O  O86  1  0.909581  0.601967  0.961505  1
  O  O87  1  0.192713  0.055381  0.443272  1
  O  O88  1  0.977383  0.475661  0.886514  1
  O  O89  1  0.962274  0.018735  0.637043  1
  O  O90  1  0.807287  0.944619  0.556728  1
  O  O91  1  0.522617  0.975661  0.613486  1
  F  F92  1  0.203628  0.637891  0.249496  1
  F  F93  1  0.778823  0.852776  0.249279  1
  F  F94  1  0.048646  0.734251  0.162056  1
  F  F95  1  0.912650  0.895969  0.844508  1
  F  F96  1  0.839818  0.193533  0.546102  1
  F  F97  1  0.275592  0.563833  0.849080  1
  F  F98  1  0.681912  0.195500  0.453916  1
  F  F99  1  0.919313  0.876182  0.951466  1
  F  F100  1  0.546404  0.128684  0.973485  1
  F  F101  1  0.329502  0.374772  0.642473  1
  F  F102  1  0.271111  0.879596  0.092748  1
  F  F103  1  0.618816  0.543831  0.033953  1
  F  F104  1  0.323941  0.352486  0.535616  1
  F  F105  1  0.881184  0.043831  0.466047  1
  F  F106  1  0.660182  0.693533  0.953898  1
  F  F107  1  0.863467  0.082067  0.278373  1
  F  F108  1  0.224408  0.063833  0.650920  1
  F  F109  1  0.278823  0.647224  0.749279  1
  F  F110  1  0.956892  0.607975  0.678671  1
  F  F111  1  0.670498  0.625228  0.357527  1
  F  F112  1  0.941512  0.764262  0.334871  1
  F  F113  1  0.412650  0.604031  0.344508  1
  F  F114  1  0.058488  0.235738  0.665129  1
  F  F115  1  0.362390  0.113205  0.887486  1
  F  F116  1  0.580687  0.376182  0.548534  1
  F  F117  1  0.703628  0.862109  0.749496  1
  F  F118  1  0.953596  0.628684  0.526515  1
  F  F119  1  0.296372  0.137891  0.250504  1
  F  F120  1  0.441512  0.735738  0.834871  1
  F  F121  1  0.176059  0.852486  0.964384  1
  F  F122  1  0.551791  0.948021  0.901957  1
  F  F123  1  0.136533  0.917933  0.721627  1
  F  F124  1  0.381184  0.456169  0.966047  1
  F  F125  1  0.587350  0.395969  0.655492  1
  F  F126  1  0.671027  0.084121  0.699873  1
  F  F127  1  0.543108  0.107975  0.821329  1
  F  F128  1  0.228889  0.379596  0.407252  1
  F  F129  1  0.829502  0.125228  0.142473  1
  F  F130  1  0.363467  0.417933  0.778373  1
  F  F131  1  0.823941  0.147514  0.035616  1
  F  F132  1  0.533254  0.597774  0.760911  1
  F  F133  1  0.948209  0.448021  0.598043  1
  F  F134  1  0.456892  0.892025  0.178671  1
  F  F135  1  0.160182  0.806467  0.453898  1
  F  F136  1  0.818088  0.695500  0.046084  1
  F  F137  1  0.828973  0.584121  0.800127  1
  F  F138  1  0.328973  0.915879  0.300127  1
  F  F139  1  0.548646  0.765749  0.662056  1
  F  F140  1  0.080687  0.123818  0.048534  1
  F  F141  1  0.046404  0.371316  0.473485  1
  F  F142  1  0.451354  0.234251  0.337944  1
  F  F143  1  0.063849  0.050038  0.913054  1
  F  F144  1  0.728889  0.120404  0.907252  1
  F  F145  1  0.318088  0.804500  0.546084  1
  F  F146  1  0.966746  0.097774  0.739089  1
  F  F147  1  0.118816  0.956169  0.533953  1
  F  F148  1  0.775592  0.936167  0.349080  1
  F  F149  1  0.636533  0.582067  0.221627  1
  F  F150  1  0.676059  0.647514  0.464384  1
  F  F151  1  0.031722  0.452597  0.783769  1
  F  F152  1  0.448209  0.051979  0.098043  1
  F  F153  1  0.051791  0.551979  0.401957  1
  F  F154  1  0.558488  0.264262  0.165129  1
  F  F155  1  0.137610  0.613205  0.612514  1
  F  F156  1  0.466746  0.402226  0.239089  1
  F  F157  1  0.339818  0.306467  0.046102  1
  F  F158  1  0.170498  0.874772  0.857527  1
  F  F159  1  0.862390  0.386795  0.387486  1
  F  F160  1  0.221177  0.147224  0.750721  1
  F  F161  1  0.951354  0.265749  0.837944  1
  F  F162  1  0.563849  0.449962  0.413054  1
  F  F163  1  0.936151  0.949962  0.086946  1
  F  F164  1  0.468278  0.952597  0.716231  1
  F  F165  1  0.453596  0.871316  0.026515  1
  F  F166  1  0.181912  0.304500  0.953916  1
  F  F167  1  0.771111  0.620404  0.592748  1
  F  F168  1  0.087350  0.104031  0.155492  1
  F  F169  1  0.721177  0.352776  0.250721  1
  F  F170  1  0.436151  0.550038  0.586946  1
  F  F171  1  0.724408  0.436167  0.150920  1
  F  F172  1  0.531722  0.047403  0.283769  1
  F  F173  1  0.968278  0.547403  0.216231  1
  F  F174  1  0.796372  0.362109  0.750504  1
  F  F175  1  0.033254  0.902226  0.260911  1
  F  F176  1  0.419313  0.623818  0.451466  1
  F  F177  1  0.043108  0.392025  0.321329  1
  F  F178  1  0.637610  0.886795  0.112514  1
  F  F179  1  0.171027  0.415879  0.199873  1
