# generated using pymatgen
data_Ta2H4O7
_symmetry_space_group_name_H-M   'P 1'
_cell_length_a   7.46237713
_cell_length_b   7.72945337
_cell_length_c   7.49804708
_cell_angle_alpha   58.66540502
_cell_angle_beta   62.21641831
_cell_angle_gamma   59.11817667
_symmetry_Int_Tables_number   1
_chemical_formula_structural   Ta2H4O7
_chemical_formula_sum   'Ta4 H8 O14'
_cell_volume   305.10400412
_cell_formula_units_Z   2
loop_
 _symmetry_equiv_pos_site_id
 _symmetry_equiv_pos_as_xyz
  1  'x, y, z'
loop_
 _atom_site_type_symbol
 _atom_site_label
 _atom_site_symmetry_multiplicity
 _atom_site_fract_x
 _atom_site_fract_y
 _atom_site_fract_z
 _atom_site_occupancy
  Ta  Ta0  1  0.500000  0.000000  0.500000  1
  Ta  Ta1  1  0.500000  0.500000  0.000000  1
  Ta  Ta2  1  0.000000  0.500000  0.500000  1
  Ta  Ta3  1  0.500000  0.500000  0.500000  1
  H  H4  1  0.071290  0.678710  0.071290  1
  H  H5  1  0.678710  0.071290  0.678710  1
  H  H6  1  0.928710  0.321290  0.928710  1
  H  H7  1  0.321290  0.928710  0.321290  1
  H  H8  1  0.786887  0.786887  0.963113  1
  H  H9  1  0.963113  0.963113  0.786887  1
  H  H10  1  0.036887  0.036887  0.213113  1
  H  H11  1  0.213113  0.213113  0.036887  1
  O  O12  1  0.548219  0.201781  0.201781  1
  O  O13  1  0.201781  0.548219  0.548219  1
  O  O14  1  0.195548  0.195548  0.554452  1
  O  O15  1  0.554452  0.554452  0.195548  1
  O  O16  1  0.168346  0.581654  0.168346  1
  O  O17  1  0.581654  0.168346  0.581654  1
  O  O18  1  0.451781  0.798219  0.798219  1
  O  O19  1  0.798219  0.451781  0.451781  1
  O  O20  1  0.804452  0.804452  0.445548  1
  O  O21  1  0.445548  0.445548  0.804452  1
  O  O22  1  0.831654  0.418346  0.831654  1
  O  O23  1  0.418346  0.831654  0.418346  1
  O  O24  1  0.875000  0.875000  0.875000  1
  O  O25  1  0.125000  0.125000  0.125000  1
