# generated using pymatgen
data_Gd2Be2GeO7
_symmetry_space_group_name_H-M   'P 1'
_cell_length_a   4.86829352
_cell_length_b   7.51922272
_cell_length_c   7.51505212
_cell_angle_alpha   89.95807589
_cell_angle_beta   89.93997216
_cell_angle_gamma   90.06263191
_symmetry_Int_Tables_number   1
_chemical_formula_structural   Gd2Be2GeO7
_chemical_formula_sum   'Gd4 Be4 Ge2 O14'
_cell_volume   275.09397995
_cell_formula_units_Z   2
loop_
 _symmetry_equiv_pos_site_id
 _symmetry_equiv_pos_as_xyz
  1  'x, y, z'
loop_
 _atom_site_type_symbol
 _atom_site_label
 _atom_site_symmetry_multiplicity
 _atom_site_fract_x
 _atom_site_fract_y
 _atom_site_fract_z
 _atom_site_occupancy
  Gd  Gd0  1  0.504616  0.658631  0.158749  1
  Gd  Gd1  1  0.504448  0.341318  0.841396  1
  Gd  Gd2  1  0.495031  0.841296  0.658692  1
  Gd  Gd3  1  0.495759  0.158693  0.341305  1
  Be  Be4  1  0.953586  0.134447  0.634947  1
  Be  Be5  1  0.046381  0.365582  0.134540  1
  Be  Be6  1  0.953571  0.864888  0.365483  1
  Be  Be7  1  0.046449  0.634965  0.865193  1
  Ge  Ge8  1  0.000106  0.999636  0.999508  1
  Ge  Ge9  1  0.000141  0.500715  0.499972  1
  O  O10  1  0.280263  0.857637  0.358510  1
  O  O11  1  0.212079  0.419395  0.327650  1
  O  O12  1  0.788413  0.327548  0.581171  1
  O  O13  1  0.719540  0.358647  0.141516  1
  O  O14  1  0.788210  0.918661  0.172242  1
  O  O15  1  0.212094  0.581131  0.671743  1
  O  O16  1  0.818017  0.999745  0.500220  1
  O  O17  1  0.280380  0.141314  0.642035  1
  O  O18  1  0.182565  0.500291  0.999835  1
  O  O19  1  0.719892  0.642165  0.858101  1
  O  O20  1  0.211700  0.172437  0.080774  1
  O  O21  1  0.787261  0.080883  0.828243  1
  O  O22  1  0.212145  0.828354  0.919004  1
  O  O23  1  0.787354  0.671623  0.419172  1
