# generated using pymatgen
data_Eu(GdS2)2
_symmetry_space_group_name_H-M   'P 1'
_cell_length_a   7.34951319
_cell_length_b   7.34951316
_cell_length_c   7.34951360
_cell_angle_alpha   109.29701423
_cell_angle_beta   109.29701420
_cell_angle_gamma   109.82019661
_symmetry_Int_Tables_number   1
_chemical_formula_structural   Eu(GdS2)2
_chemical_formula_sum   'Eu2 Gd4 S8'
_cell_volume   305.59185090
_cell_formula_units_Z   2
loop_
 _symmetry_equiv_pos_site_id
 _symmetry_equiv_pos_as_xyz
  1  'x, y, z'
loop_
 _atom_site_type_symbol
 _atom_site_label
 _atom_site_symmetry_multiplicity
 _atom_site_fract_x
 _atom_site_fract_y
 _atom_site_fract_z
 _atom_site_occupancy
  Eu  Eu0  1  0.625000  0.375000  0.250000  1
  Eu  Eu1  1  0.875000  0.125000  0.750000  1
  Gd  Gd2  1  0.123541  0.750000  0.873541  1
  Gd  Gd3  1  0.250000  0.623541  0.373541  1
  Gd  Gd4  1  0.376459  0.250000  0.626459  1
  Gd  Gd5  1  0.750000  0.876459  0.126459  1
  S  S6  1  0.144287  0.142842  0.152042  1
  S  S7  1  0.355713  0.507755  0.998555  1
  S  S8  1  0.492245  0.990801  0.847958  1
  S  S9  1  0.642842  0.644287  0.652042  1
  S  S10  1  0.490801  0.992245  0.347958  1
  S  S11  1  0.007755  0.855713  0.498555  1
  S  S12  1  0.857158  0.509199  0.001445  1
  S  S13  1  0.009199  0.357158  0.501445  1
