# generated using pymatgen
data_U17O31
_symmetry_space_group_name_H-M   'P 1'
_cell_length_a   3.83968288
_cell_length_b   65.45381023
_cell_length_c   10.18587214
_cell_angle_alpha   19.08199163
_cell_angle_beta   55.56651932
_cell_angle_gamma   60.09000257
_symmetry_Int_Tables_number   1
_chemical_formula_structural   U17O31
_chemical_formula_sum   'U17 O31'
_cell_volume   684.16700719
_cell_formula_units_Z   1
loop_
 _symmetry_equiv_pos_site_id
 _symmetry_equiv_pos_as_xyz
  1  'x, y, z'
loop_
 _atom_site_type_symbol
 _atom_site_label
 _atom_site_symmetry_multiplicity
 _atom_site_fract_x
 _atom_site_fract_y
 _atom_site_fract_z
 _atom_site_occupancy
  U  U0  1  0.994775  0.000249  0.002058  1
  U  U1  1  0.003638  0.061289  0.983608  1
  U  U2  1  0.994880  0.173905  0.017950  1
  U  U3  1  0.001087  0.117564  0.999758  1
  U  U4  1  0.005896  0.234894  0.998319  1
  U  U5  1  0.989983  0.354660  0.996922  1
  U  U6  1  0.013479  0.294906  0.986551  1
  U  U7  1  0.997316  0.412654  0.996762  1
  U  U8  1  0.002164  0.471138  0.995451  1
  U  U9  1  0.994216  0.526390  0.020980  1
  U  U10  1  0.005429  0.587908  0.998226  1
  U  U11  1  0.988866  0.707804  0.996545  1
  U  U12  1  0.019246  0.647883  0.982533  1
  U  U13  1  0.001086  0.766933  0.986667  1
  U  U14  1  0.999113  0.821298  0.013230  1
  U  U15  1  0.010756  0.880487  0.003381  1
  U  U16  1  0.980695  0.940231  0.018223  1
  O  O17  1  0.251472  0.036037  0.294799  1
  O  O18  1  0.250520  0.104804  0.239104  1
  O  O19  1  0.248208  0.160881  0.256190  1
  O  O20  1  0.739643  0.014803  0.756361  1
  O  O21  1  0.752894  0.074370  0.743300  1
  O  O22  1  0.260242  0.220630  0.242920  1
  O  O23  1  0.750195  0.130536  0.760171  1
  O  O24  1  0.751500  0.200845  0.694212  1
  O  O25  1  0.241204  0.338518  0.254272  1
  O  O26  1  0.774714  0.251261  0.726391  1
  O  O27  1  0.249779  0.397720  0.246408  1
  O  O28  1  0.727139  0.307480  0.772852  1
  O  O29  1  0.249300  0.455526  0.252481  1
  O  O30  1  0.746601  0.357443  0.810093  1
  O  O31  1  0.246423  0.513792  0.257562  1
  O  O32  1  0.260146  0.573668  0.242443  1
  O  O33  1  0.750074  0.426771  0.748253  1
  O  O34  1  0.749130  0.485785  0.747804  1
  O  O35  1  0.239285  0.691964  0.252700  1
  O  O36  1  0.747476  0.552054  0.706719  1
  O  O37  1  0.253922  0.750533  0.244362  1
  O  O38  1  0.775850  0.604315  0.724997  1
  O  O39  1  0.248042  0.806649  0.263616  1
  O  O40  1  0.734433  0.661291  0.763080  1
  O  O41  1  0.255988  0.876531  0.195639  1
  O  O42  1  0.744089  0.711612  0.804819  1
  O  O43  1  0.751850  0.781615  0.736282  1
  O  O44  1  0.265646  0.926913  0.237061  1
  O  O45  1  0.746386  0.837625  0.755875  1
  O  O46  1  0.224435  0.983848  0.275210  1
  O  O47  1  0.760791  0.896339  0.746858  1
