# generated using pymatgen
data_SiO2
_symmetry_space_group_name_H-M   'P 1'
_cell_length_a   7.62785796
_cell_length_b   18.27427641
_cell_length_c   26.11480795
_cell_angle_alpha   90.00000000
_cell_angle_beta   90.00000000
_cell_angle_gamma   90.00000000
_symmetry_Int_Tables_number   1
_chemical_formula_structural   SiO2
_chemical_formula_sum   'Si60 O120'
_cell_volume   3640.23669592
_cell_formula_units_Z   60
loop_
 _symmetry_equiv_pos_site_id
 _symmetry_equiv_pos_as_xyz
  1  'x, y, z'
loop_
 _atom_site_type_symbol
 _atom_site_label
 _atom_site_symmetry_multiplicity
 _atom_site_fract_x
 _atom_site_fract_y
 _atom_site_fract_z
 _atom_site_occupancy
  Si  Si0  1  0.046739  0.166442  0.912448  1
  Si  Si1  1  0.546739  0.833558  0.087552  1
  Si  Si2  1  0.953261  0.666442  0.087552  1
  Si  Si3  1  0.453261  0.333558  0.912448  1
  Si  Si4  1  0.953261  0.833558  0.087552  1
  Si  Si5  1  0.453261  0.166442  0.912448  1
  Si  Si6  1  0.046739  0.333558  0.912448  1
  Si  Si7  1  0.546739  0.666442  0.087552  1
  Si  Si8  1  0.047237  0.975381  0.144310  1
  Si  Si9  1  0.547237  0.024619  0.855690  1
  Si  Si10  1  0.952763  0.475381  0.855690  1
  Si  Si11  1  0.452763  0.524619  0.144310  1
  Si  Si12  1  0.952763  0.024619  0.855690  1
  Si  Si13  1  0.452763  0.975381  0.144310  1
  Si  Si14  1  0.047237  0.524619  0.144310  1
  Si  Si15  1  0.547237  0.475381  0.855690  1
  Si  Si16  1  0.045605  0.058803  0.246379  1
  Si  Si17  1  0.545605  0.941197  0.753621  1
  Si  Si18  1  0.954395  0.558803  0.753621  1
  Si  Si19  1  0.454395  0.441197  0.246379  1
  Si  Si20  1  0.954395  0.941197  0.753621  1
  Si  Si21  1  0.454395  0.058803  0.246379  1
  Si  Si22  1  0.045605  0.441197  0.246379  1
  Si  Si23  1  0.545605  0.558803  0.753621  1
  Si  Si24  1  0.954889  0.054829  0.361475  1
  Si  Si25  1  0.454889  0.945171  0.638525  1
  Si  Si26  1  0.045111  0.554829  0.638525  1
  Si  Si27  1  0.545111  0.445171  0.361475  1
  Si  Si28  1  0.045111  0.945171  0.638525  1
  Si  Si29  1  0.545111  0.054829  0.361475  1
  Si  Si30  1  0.954889  0.445171  0.361475  1
  Si  Si31  1  0.454889  0.554829  0.638525  1
  Si  Si32  1  0.045732  0.946148  0.452511  1
  Si  Si33  1  0.545732  0.053852  0.547489  1
  Si  Si34  1  0.954268  0.446148  0.547489  1
  Si  Si35  1  0.454268  0.553852  0.452511  1
  Si  Si36  1  0.954268  0.053852  0.547489  1
  Si  Si37  1  0.454268  0.946148  0.452511  1
  Si  Si38  1  0.045732  0.553852  0.452511  1
  Si  Si39  1  0.545732  0.446148  0.547489  1
  Si  Si40  1  0.750000  0.165233  0.995803  1
  Si  Si41  1  0.250000  0.834767  0.004197  1
  Si  Si42  1  0.250000  0.665233  0.004197  1
  Si  Si43  1  0.750000  0.334767  0.995803  1
  Si  Si44  1  0.750000  0.078946  0.102062  1
  Si  Si45  1  0.250000  0.921054  0.897938  1
  Si  Si46  1  0.250000  0.578946  0.897938  1
  Si  Si47  1  0.750000  0.421054  0.102062  1
  Si  Si48  1  0.750000  0.162962  0.204164  1
  Si  Si49  1  0.250000  0.837038  0.795836  1
  Si  Si50  1  0.250000  0.662962  0.795836  1
  Si  Si51  1  0.750000  0.337038  0.204164  1
  Si  Si52  1  0.250000  0.164427  0.397063  1
  Si  Si53  1  0.750000  0.835573  0.602937  1
  Si  Si54  1  0.750000  0.664427  0.602937  1
  Si  Si55  1  0.250000  0.335573  0.397063  1
  Si  Si56  1  0.250000  0.164629  0.520731  1
  Si  Si57  1  0.750000  0.835371  0.479269  1
  Si  Si58  1  0.750000  0.664629  0.479269  1
  Si  Si59  1  0.250000  0.335371  0.520731  1
  O  O60  1  0.575636  0.148957  0.961691  1
  O  O61  1  0.075636  0.851043  0.038309  1
  O  O62  1  0.424364  0.648957  0.038309  1
  O  O63  1  0.924364  0.351043  0.961691  1
  O  O64  1  0.424364  0.851043  0.038309  1
  O  O65  1  0.924364  0.148957  0.961691  1
  O  O66  1  0.575636  0.351043  0.961691  1
  O  O67  1  0.075636  0.648957  0.038309  1
  O  O68  1  0.750000  0.111137  0.044667  1
  O  O69  1  0.250000  0.888863  0.955333  1
  O  O70  1  0.250000  0.611137  0.955333  1
  O  O71  1  0.750000  0.388863  0.044667  1
  O  O72  1  0.750000  0.250000  0.015001  1
  O  O73  1  0.250000  0.750000  0.984999  1
  O  O74  1  0.575620  0.028809  0.110148  1
  O  O75  1  0.075620  0.971191  0.889852  1
  O  O76  1  0.424380  0.528809  0.889852  1
  O  O77  1  0.924380  0.471191  0.110148  1
  O  O78  1  0.424380  0.971191  0.889852  1
  O  O79  1  0.924380  0.028809  0.110148  1
  O  O80  1  0.575620  0.471191  0.110148  1
  O  O81  1  0.075620  0.528809  0.889852  1
  O  O82  1  0.750000  0.146355  0.142904  1
  O  O83  1  0.250000  0.853645  0.857096  1
  O  O84  1  0.250000  0.646355  0.857096  1
  O  O85  1  0.750000  0.353645  0.142904  1
  O  O86  1  0.574522  0.128207  0.230104  1
  O  O87  1  0.074522  0.871793  0.769896  1
  O  O88  1  0.425478  0.628207  0.769896  1
  O  O89  1  0.925478  0.371793  0.230104  1
  O  O90  1  0.425478  0.871793  0.769896  1
  O  O91  1  0.925478  0.128207  0.230104  1
  O  O92  1  0.574522  0.371793  0.230104  1
  O  O93  1  0.074522  0.628207  0.769896  1
  O  O94  1  0.750000  0.250000  0.214112  1
  O  O95  1  0.250000  0.750000  0.785888  1
  O  O96  1  0.250000  0.156671  0.929746  1
  O  O97  1  0.750000  0.843329  0.070254  1
  O  O98  1  0.750000  0.656671  0.070254  1
  O  O99  1  0.250000  0.343329  0.929746  1
  O  O100  1  0.002473  0.109893  0.865999  1
  O  O101  1  0.502473  0.890107  0.134001  1
  O  O102  1  0.997527  0.609893  0.134001  1
  O  O103  1  0.497527  0.390107  0.865999  1
  O  O104  1  0.997527  0.890107  0.134001  1
  O  O105  1  0.497527  0.109893  0.865999  1
  O  O106  1  0.002473  0.390107  0.865999  1
  O  O107  1  0.502473  0.609893  0.134001  1
  O  O108  1  0.012874  0.250000  0.892562  1
  O  O109  1  0.512874  0.750000  0.107438  1
  O  O110  1  0.987126  0.750000  0.107438  1
  O  O111  1  0.487126  0.250000  0.892562  1
  O  O112  1  0.020524  0.992548  0.205164  1
  O  O113  1  0.520524  0.007452  0.794836  1
  O  O114  1  0.979476  0.492548  0.794836  1
  O  O115  1  0.479476  0.507452  0.205164  1
  O  O116  1  0.979476  0.007452  0.794836  1
  O  O117  1  0.479476  0.992548  0.205164  1
  O  O118  1  0.020524  0.507452  0.205164  1
  O  O119  1  0.520524  0.492548  0.794836  1
  O  O120  1  0.250000  0.989988  0.128071  1
  O  O121  1  0.750000  0.010012  0.871929  1
  O  O122  1  0.750000  0.489988  0.871929  1
  O  O123  1  0.250000  0.510012  0.128071  1
  O  O124  1  0.250000  0.084566  0.247995  1
  O  O125  1  0.750000  0.915434  0.752005  1
  O  O126  1  0.750000  0.584566  0.752005  1
  O  O127  1  0.250000  0.415434  0.247995  1
  O  O128  1  0.985535  0.029365  0.302362  1
  O  O129  1  0.485535  0.970635  0.697638  1
  O  O130  1  0.014465  0.529365  0.697638  1
  O  O131  1  0.514465  0.470635  0.302362  1
  O  O132  1  0.014465  0.970635  0.697638  1
  O  O133  1  0.514465  0.029365  0.302362  1
  O  O134  1  0.985535  0.470635  0.302362  1
  O  O135  1  0.485535  0.529365  0.697638  1
  O  O136  1  0.074893  0.126116  0.373783  1
  O  O137  1  0.574893  0.873884  0.626217  1
  O  O138  1  0.925107  0.626116  0.626217  1
  O  O139  1  0.425107  0.373884  0.373783  1
  O  O140  1  0.925107  0.873884  0.626217  1
  O  O141  1  0.425107  0.126116  0.373783  1
  O  O142  1  0.074893  0.373884  0.373783  1
  O  O143  1  0.574893  0.626116  0.626217  1
  O  O144  1  0.250000  0.250000  0.380803  1
  O  O145  1  0.750000  0.750000  0.619197  1
  O  O146  1  0.250000  0.156021  0.458719  1
  O  O147  1  0.750000  0.843979  0.541281  1
  O  O148  1  0.750000  0.656021  0.541281  1
  O  O149  1  0.250000  0.343979  0.458719  1
  O  O150  1  0.075293  0.126358  0.544327  1
  O  O151  1  0.575293  0.873642  0.455673  1
  O  O152  1  0.924707  0.626358  0.455673  1
  O  O153  1  0.424707  0.373642  0.544327  1
  O  O154  1  0.924707  0.873642  0.455673  1
  O  O155  1  0.424707  0.126358  0.544327  1
  O  O156  1  0.075293  0.373642  0.544327  1
  O  O157  1  0.575293  0.626358  0.455673  1
  O  O158  1  0.250000  0.250000  0.536837  1
  O  O159  1  0.750000  0.750000  0.463163  1
  O  O160  1  0.009589  0.987612  0.398511  1
  O  O161  1  0.509589  0.012388  0.601489  1
  O  O162  1  0.990411  0.487612  0.601489  1
  O  O163  1  0.490411  0.512388  0.398511  1
  O  O164  1  0.990411  0.012388  0.601489  1
  O  O165  1  0.490411  0.987612  0.398511  1
  O  O166  1  0.009589  0.512388  0.398511  1
  O  O167  1  0.509589  0.487612  0.601489  1
  O  O168  1  0.750000  0.076075  0.370295  1
  O  O169  1  0.250000  0.923925  0.629705  1
  O  O170  1  0.250000  0.576075  0.629705  1
  O  O171  1  0.750000  0.423925  0.370295  1
  O  O172  1  0.250000  0.921612  0.455567  1
  O  O173  1  0.750000  0.078388  0.544433  1
  O  O174  1  0.750000  0.421612  0.544433  1
  O  O175  1  0.250000  0.578388  0.455567  1
  O  O176  1  0.000000  0.000000  0.500000  1
  O  O177  1  0.500000  0.000000  0.500000  1
  O  O178  1  0.000000  0.500000  0.500000  1
  O  O179  1  0.500000  0.500000  0.500000  1
