# generated using pymatgen
data_Nd2Mo2O7
_symmetry_space_group_name_H-M   'P 1'
_cell_length_a   7.53350957
_cell_length_b   7.51756698
_cell_length_c   7.52560525
_cell_angle_alpha   59.93158491
_cell_angle_beta   59.98497184
_cell_angle_gamma   60.06201745
_symmetry_Int_Tables_number   1
_chemical_formula_structural   Nd2Mo2O7
_chemical_formula_sum   'Nd4 Mo4 O14'
_cell_volume   301.32115021
_cell_formula_units_Z   2
loop_
 _symmetry_equiv_pos_site_id
 _symmetry_equiv_pos_as_xyz
  1  'x, y, z'
loop_
 _atom_site_type_symbol
 _atom_site_label
 _atom_site_symmetry_multiplicity
 _atom_site_fract_x
 _atom_site_fract_y
 _atom_site_fract_z
 _atom_site_occupancy
  Nd  Nd0  1  0.000000  0.500000  0.500000  1
  Nd  Nd1  1  0.500000  0.500000  0.000000  1
  Nd  Nd2  1  0.500000  1.000000  0.500000  1
  Nd  Nd3  1  0.500000  0.500000  0.500001  1
  Mo  Mo4  1  0.000000  -0.000000  1.000000  1
  Mo  Mo5  1  0.000000  0.500000  1.000000  1
  Mo  Mo6  1  0.000000  0.000000  0.500000  1
  Mo  Mo7  1  0.500000  -0.000000  0.000000  1
  O  O8  1  0.672346  0.088749  0.660316  1
  O  O9  1  0.905696  0.330097  0.926159  1
  O  O10  1  0.665803  0.667621  0.085383  1
  O  O11  1  0.918051  0.915569  0.332322  1
  O  O12  1  0.661041  0.076473  0.091710  1
  O  O13  1  0.923300  0.338415  0.328712  1
  O  O14  1  0.625948  0.624495  0.624386  1
  O  O15  1  0.338959  0.923527  0.908291  1
  O  O16  1  0.327654  0.911251  0.339683  1
  O  O17  1  0.334197  0.332379  0.914617  1
  O  O18  1  0.076700  0.661586  0.671288  1
  O  O19  1  0.374053  0.375506  0.375614  1
  O  O20  1  0.081949  0.084431  0.667679  1
  O  O21  1  0.094305  0.669904  0.073840  1
