# generated using pymatgen
data_CsSc3(CuTe3)2
_symmetry_space_group_name_H-M   'P 1'
_cell_length_a   4.15718564
_cell_length_b   9.18975391
_cell_length_c   10.40116070
_cell_angle_alpha   112.41078050
_cell_angle_beta   89.87669023
_cell_angle_gamma   103.06958759
_symmetry_Int_Tables_number   1
_chemical_formula_structural   CsSc3(CuTe3)2
_chemical_formula_sum   'Cs1 Sc3 Cu2 Te6'
_cell_volume   356.27175549
_cell_formula_units_Z   1
loop_
 _symmetry_equiv_pos_site_id
 _symmetry_equiv_pos_as_xyz
  1  'x, y, z'
loop_
 _atom_site_type_symbol
 _atom_site_label
 _atom_site_symmetry_multiplicity
 _atom_site_fract_x
 _atom_site_fract_y
 _atom_site_fract_z
 _atom_site_occupancy
  Cs  Cs0  1  0.002788  0.002036  0.504236  1
  Sc  Sc1  1  0.285429  0.578559  0.865891  1
  Sc  Sc2  1  0.707678  0.421874  0.135093  1
  Sc  Sc3  1  0.995106  0.000198  0.001108  1
  Cu  Cu4  1  0.281155  0.556150  0.586326  1
  Cu  Cu5  1  0.726972  0.448968  0.415541  1
  Te  Te6  1  0.566670  0.145082  0.214037  1
  Te  Te7  1  0.138763  0.282450  0.925140  1
  Te  Te8  1  0.703825  0.407371  0.650037  1
  Te  Te9  1  0.853160  0.718082  0.076240  1
  Te  Te10  1  0.425973  0.857143  0.787905  1
  Te  Te11  1  0.297556  0.595611  0.350659  1
