# generated using pymatgen
data_SrLa5F17
_symmetry_space_group_name_H-M   'P 1'
_cell_length_a   7.20369523
_cell_length_b   7.26912322
_cell_length_c   7.36389260
_cell_angle_alpha   90.20268279
_cell_angle_beta   89.40460470
_cell_angle_gamma   119.45798633
_symmetry_Int_Tables_number   1
_chemical_formula_structural   SrLa5F17
_chemical_formula_sum   'Sr1 La5 F17'
_cell_volume   335.73563973
_cell_formula_units_Z   1
loop_
 _symmetry_equiv_pos_site_id
 _symmetry_equiv_pos_as_xyz
  1  'x, y, z'
loop_
 _atom_site_type_symbol
 _atom_site_label
 _atom_site_symmetry_multiplicity
 _atom_site_fract_x
 _atom_site_fract_y
 _atom_site_fract_z
 _atom_site_occupancy
  Sr  Sr0  1  0.995891  0.660335  0.277111  1
  La  La1  1  0.356212  0.021475  0.743353  1
  La  La2  1  0.334996  0.338221  0.243672  1
  La  La3  1  0.658554  -0.000656  0.243503  1
  La  La4  1  0.649003  0.660774  0.750112  1
  La  La5  1  0.996160  0.317422  0.748441  1
  F  F6  1  0.320432  0.957211  0.427790  1
  F  F7  1  0.049062  0.359815  0.427090  1
  F  F8  1  0.342598  0.666695  0.192926  1
  F  F9  1  0.311580  0.668806  0.757251  1
  F  F10  1  0.003158  0.987680  0.759706  1
  F  F11  1  0.314902  0.345092  0.917704  1
  F  F12  1  0.658102  0.969824  0.917082  1
  F  F13  1  0.358843  0.322956  0.583426  1
  F  F14  1  0.636105  0.686246  0.422873  1
  F  F15  1  0.343283  0.024269  0.067408  1
  F  F16  1  0.704665  0.643045  0.062086  1
  F  F17  1  0.998740  0.011219  0.250471  1
  F  F18  1  0.673115  0.338396  0.806600  1
  F  F19  1  0.652489  0.321765  0.304119  1
  F  F20  1  0.962245  0.641142  0.623532  1
  F  F21  1  0.681868  0.037777  0.582717  1
  F  F22  1  0.960298  0.334292  0.067825  1
