# generated using pymatgen
data_Er2Fe3Si5
_symmetry_space_group_name_H-M   'P 1'
_cell_length_a   5.42064165
_cell_length_b   10.32804963
_cell_length_c   10.32804963
_cell_angle_alpha   90.00000000
_cell_angle_beta   90.00000000
_cell_angle_gamma   90.00000000
_symmetry_Int_Tables_number   1
_chemical_formula_structural   Er2Fe3Si5
_chemical_formula_sum   'Er8 Fe12 Si20'
_cell_volume   578.21230556
_cell_formula_units_Z   4
loop_
 _symmetry_equiv_pos_site_id
 _symmetry_equiv_pos_as_xyz
  1  'x, y, z'
loop_
 _atom_site_type_symbol
 _atom_site_label
 _atom_site_symmetry_multiplicity
 _atom_site_fract_x
 _atom_site_fract_y
 _atom_site_fract_z
 _atom_site_occupancy
  Er  Er0  1  0.000000  0.763304  0.071143  1
  Er  Er1  1  0.000000  0.928857  0.763304  1
  Er  Er2  1  0.500000  0.428857  0.736696  1
  Er  Er3  1  0.000000  0.071143  0.236696  1
  Er  Er4  1  0.500000  0.571143  0.263304  1
  Er  Er5  1  0.500000  0.263304  0.428857  1
  Er  Er6  1  0.500000  0.736696  0.571143  1
  Er  Er7  1  0.000000  0.236696  0.928857  1
  Fe  Fe8  1  0.000000  0.354323  0.621827  1
  Fe  Fe9  1  0.000000  0.621827  0.645677  1
  Fe  Fe10  1  0.500000  0.121827  0.854323  1
  Fe  Fe11  1  0.000000  0.645677  0.378173  1
  Fe  Fe12  1  0.500000  0.878173  0.145677  1
  Fe  Fe13  1  0.000000  0.378173  0.354323  1
  Fe  Fe14  1  0.500000  0.854323  0.878173  1
  Fe  Fe15  1  0.750000  0.500000  0.000000  1
  Fe  Fe16  1  0.500000  0.145677  0.121827  1
  Fe  Fe17  1  0.250000  0.000000  0.500000  1
  Fe  Fe18  1  0.750000  0.000000  0.500000  1
  Fe  Fe19  1  0.250000  0.500000  0.000000  1
  Si  Si20  1  0.737163  0.000000  0.000000  1
  Si  Si21  1  0.750000  0.823944  0.323944  1
  Si  Si22  1  0.000000  0.180647  0.476212  1
  Si  Si23  1  0.750000  0.323944  0.176056  1
  Si  Si24  1  0.237163  0.500000  0.500000  1
  Si  Si25  1  0.500000  0.976212  0.680647  1
  Si  Si26  1  0.262837  0.000000  0.000000  1
  Si  Si27  1  0.000000  0.523788  0.180647  1
  Si  Si28  1  0.250000  0.323944  0.176056  1
  Si  Si29  1  0.762837  0.500000  0.500000  1
  Si  Si30  1  0.500000  0.023788  0.319353  1
  Si  Si31  1  0.250000  0.823944  0.323944  1
  Si  Si32  1  0.250000  0.676056  0.823944  1
  Si  Si33  1  0.750000  0.676056  0.823944  1
  Si  Si34  1  0.500000  0.319353  0.976212  1
  Si  Si35  1  0.000000  0.476212  0.819353  1
  Si  Si36  1  0.500000  0.680647  0.023788  1
  Si  Si37  1  0.250000  0.176056  0.676056  1
  Si  Si38  1  0.750000  0.176056  0.676056  1
  Si  Si39  1  0.000000  0.819353  0.523788  1
