# generated using pymatgen
data_Na2MgSiO4
_symmetry_space_group_name_H-M   'P 1'
_cell_length_a   5.33561050
_cell_length_b   5.57139408
_cell_length_c   7.04508091
_cell_angle_alpha   90.00000000
_cell_angle_beta   90.18318018
_cell_angle_gamma   90.00000000
_symmetry_Int_Tables_number   1
_chemical_formula_structural   Na2MgSiO4
_chemical_formula_sum   'Na4 Mg2 Si2 O8'
_cell_volume   209.42656171
_cell_formula_units_Z   2
loop_
 _symmetry_equiv_pos_site_id
 _symmetry_equiv_pos_as_xyz
  1  'x, y, z'
loop_
 _atom_site_type_symbol
 _atom_site_label
 _atom_site_symmetry_multiplicity
 _atom_site_fract_x
 _atom_site_fract_y
 _atom_site_fract_z
 _atom_site_occupancy
  O  O0  1  0.138219  0.789701  0.439865  1
  O  O1  1  0.638219  0.210299  0.939865  1
  O  O2  1  0.074549  0.845100  0.056916  1
  O  O3  1  0.574549  0.154900  0.556916  1
  O  O4  1  0.188864  0.287352  0.777625  1
  O  O5  1  0.568826  0.599321  0.717039  1
  O  O6  1  0.068826  0.400678  0.217039  1
  O  O7  1  0.688864  0.712648  0.277625  1
  Na  Na8  1  0.511615  0.332851  0.249553  1
  Na  Na9  1  0.008293  0.183015  0.494575  1
  Na  Na10  1  0.011615  0.667149  0.749553  1
  Na  Na11  1  0.508293  0.816985  0.994575  1
  Mg  Mg12  1  0.998793  0.185930  0.000353  1
  Mg  Mg13  1  0.498793  0.814070  0.500353  1
  Si  Si14  1  0.494911  0.312593  0.747624  1
  Si  Si15  1  0.994911  0.687407  0.247624  1
