# generated using pymatgen
data_K2SbF5
_symmetry_space_group_name_H-M   'P 1'
_cell_length_a   6.60549451
_cell_length_b   17.52709001
_cell_length_c   29.08965010
_cell_angle_alpha   101.17566904
_cell_angle_beta   90.00000000
_cell_angle_gamma   90.00000000
_symmetry_Int_Tables_number   1
_chemical_formula_structural   K2SbF5
_chemical_formula_sum   'K44 Sb22 F110'
_cell_volume   3303.99423475
_cell_formula_units_Z   22
loop_
 _symmetry_equiv_pos_site_id
 _symmetry_equiv_pos_as_xyz
  1  'x, y, z'
loop_
 _atom_site_type_symbol
 _atom_site_label
 _atom_site_symmetry_multiplicity
 _atom_site_fract_x
 _atom_site_fract_y
 _atom_site_fract_z
 _atom_site_occupancy
  K  K0  1  0.238893  0.648591  0.374005  1
  K  K1  1  0.245123  0.587917  0.522664  1
  K  K2  1  0.245592  0.744952  0.067145  1
  K  K3  1  0.744063  0.499881  0.750176  1
  K  K4  1  0.741659  0.451361  0.893455  1
  K  K5  1  0.257043  0.225296  0.430890  1
  K  K6  1  0.247189  0.738175  0.644431  1
  K  K7  1  0.791217  0.951192  0.133605  1
  K  K8  1  0.263086  0.676291  0.793200  1
  K  K9  1  0.229365  0.952745  0.611783  1
  K  K10  1  0.759284  0.590055  0.022272  1
  K  K11  1  0.232759  0.842755  0.916975  1
  K  K12  1  0.745706  0.533374  0.171838  1
  K  K13  1  0.291217  0.048808  0.866395  1
  K  K14  1  0.245706  0.466626  0.828162  1
  K  K15  1  0.757043  0.774704  0.569110  1
  K  K16  1  0.752759  0.813872  0.006822  1
  K  K17  1  0.753699  0.712915  0.709421  1
  K  K18  1  0.745592  0.255048  0.932855  1
  K  K19  1  0.229599  0.010414  0.464815  1
  K  K20  1  0.231622  0.313974  0.703131  1
  K  K21  1  0.761613  0.137254  0.659068  1
  K  K22  1  0.258909  0.100194  0.735391  1
  K  K23  1  0.253699  0.287085  0.290579  1
  K  K24  1  0.731622  0.686026  0.296869  1
  K  K25  1  0.752983  0.073263  0.822290  1
  K  K26  1  0.763086  0.323709  0.206800  1
  K  K27  1  0.732759  0.157245  0.083025  1
  K  K28  1  0.738893  0.351409  0.625995  1
  K  K29  1  0.241659  0.548639  0.106545  1
  K  K30  1  0.729599  0.989586  0.535185  1
  K  K31  1  0.745123  0.412083  0.477336  1
  K  K32  1  0.729365  0.047255  0.388217  1
  K  K33  1  0.259284  0.409945  0.977728  1
  K  K34  1  0.747189  0.261825  0.355569  1
  K  K35  1  0.252983  0.926737  0.177710  1
  K  K36  1  0.261613  0.862746  0.340932  1
  K  K37  1  0.217118  0.154384  0.171163  1
  K  K38  1  0.235216  0.371794  0.555146  1
  K  K39  1  0.735216  0.628206  0.444854  1
  K  K40  1  0.244063  0.500119  0.249824  1
  K  K41  1  0.717118  0.845616  0.828837  1
  K  K42  1  0.252759  0.186128  0.993178  1
  K  K43  1  0.758909  0.899806  0.264609  1
  Sb  Sb44  1  0.757836  0.833926  0.412577  1
  Sb  Sb45  1  0.740923  0.030890  0.957665  1
  Sb  Sb46  1  0.233976  0.072840  0.317343  1
  Sb  Sb47  1  0.747870  0.473067  0.321642  1
  Sb  Sb48  1  0.244631  0.439472  0.407019  1
  Sb  Sb49  1  0.732651  0.112594  0.237414  1
  Sb  Sb50  1  0.758365  0.198183  0.502811  1
  Sb  Sb51  1  0.258365  0.801817  0.497189  1
  Sb  Sb52  1  0.733976  0.927160  0.682657  1
  Sb  Sb53  1  0.229984  0.264312  0.854398  1
  Sb  Sb54  1  0.232651  0.887406  0.762586  1
  Sb  Sb55  1  0.247870  0.526933  0.678358  1
  Sb  Sb56  1  0.260295  0.619002  0.951538  1
  Sb  Sb57  1  0.257836  0.166074  0.587423  1
  Sb  Sb58  1  0.240923  0.969110  0.042335  1
  Sb  Sb59  1  0.760295  0.380998  0.048462  1
  Sb  Sb60  1  0.258521  0.342797  0.133193  1
  Sb  Sb61  1  0.729984  0.735688  0.145602  1
  Sb  Sb62  1  0.736747  0.288113  0.773731  1
  Sb  Sb63  1  0.236747  0.711887  0.226269  1
  Sb  Sb64  1  0.758521  0.657203  0.866807  1
  Sb  Sb65  1  0.744631  0.560528  0.592981  1
  F  F66  1  0.946220  0.650135  0.116107  1
  F  F67  1  0.278439  0.879721  0.829136  1
  F  F68  1  0.504182  0.551976  0.325338  1
  F  F69  1  0.542419  0.656099  0.602468  1
  F  F70  1  0.470236  0.877661  0.535542  1
  F  F71  1  0.742066  0.579851  0.528058  1
  F  F72  1  0.955141  0.926850  0.411482  1
  F  F73  1  0.008381  0.514978  0.436313  1
  F  F74  1  0.027512  0.984087  0.320591  1
  F  F75  1  0.528119  0.299715  0.019802  1
  F  F76  1  0.485165  0.235927  0.623975  1
  F  F77  1  0.483889  0.417149  0.167118  1
  F  F78  1  0.540354  0.289447  0.517970  1
  F  F79  1  0.960264  0.201645  0.244931  1
  F  F80  1  0.510145  0.850725  0.648301  1
  F  F81  1  0.447106  0.526945  0.439474  1
  F  F82  1  0.050127  0.526501  0.935528  1
  F  F83  1  0.508381  0.485022  0.563687  1
  F  F84  1  0.444023  0.615812  0.212357  1
  F  F85  1  0.214326  0.328104  0.198761  1
  F  F86  1  0.521344  0.742985  0.875099  1
  F  F87  1  0.622103  0.112585  0.924957  1
  F  F88  1  0.024050  0.172404  0.853721  1
  F  F89  1  0.886491  0.127138  0.998667  1
  F  F90  1  0.694757  0.847888  0.348112  1
  F  F91  1  0.243315  0.510976  0.744057  1
  F  F92  1  0.524207  0.200904  0.234142  1
  F  F93  1  0.483544  0.075377  0.010823  1
  F  F94  1  0.773350  0.759057  0.082209  1
  F  F95  1  0.967571  0.012082  0.690958  1
  F  F96  1  0.947106  0.473055  0.560526  1
  F  F97  1  0.062142  0.439513  0.158292  1
  F  F98  1  0.242066  0.420149  0.471942  1
  F  F99  1  0.471388  0.791842  0.252305  1
  F  F100  1  0.122103  0.887415  0.075043  1
  F  F101  1  0.970236  0.122339  0.464458  1
  F  F102  1  0.743315  0.489024  0.255943  1
  F  F103  1  0.550127  0.473499  0.064472  1
  F  F104  1  0.040354  0.710553  0.482030  1
  F  F105  1  0.467571  0.987918  0.309042  1
  F  F106  1  0.951614  0.825435  0.162237  1
  F  F107  1  0.555244  0.380378  0.291021  1
  F  F108  1  0.475924  0.531054  0.949332  1
  F  F109  1  0.273350  0.240943  0.917791  1
  F  F110  1  0.944023  0.384188  0.787643  1
  F  F111  1  0.531270  0.208425  0.736215  1
  F  F112  1  0.478612  0.355598  0.402499  1
  F  F113  1  0.055244  0.619622  0.708979  1
  F  F114  1  0.437316  0.169345  0.339995  1
  F  F115  1  0.719006  0.405314  0.984889  1
  F  F116  1  0.509179  0.373554  0.774995  1
  F  F117  1  0.484631  0.691541  0.989145  1
  F  F118  1  0.445794  0.431165  0.671836  1
  F  F119  1  0.985165  0.764073  0.376025  1
  F  F120  1  0.975924  0.468946  0.050668  1
  F  F121  1  0.460264  0.798355  0.755069  1
  F  F122  1  0.563023  0.735192  0.389626  1
  F  F123  1  0.983544  0.924623  0.989177  1
  F  F124  1  0.019772  0.081848  0.574711  1
  F  F125  1  0.013896  0.966201  0.795562  1
  F  F126  1  0.777690  0.309756  0.709588  1
  F  F127  1  0.937316  0.830655  0.660005  1
  F  F128  1  0.988842  0.399754  0.292253  1
  F  F129  1  0.277690  0.690244  0.290412  1
  F  F130  1  0.286752  0.062788  0.383370  1
  F  F131  1  0.442976  0.983473  0.783211  1
  F  F132  1  0.978612  0.644402  0.597501  1
  F  F133  1  0.009179  0.626446  0.225005  1
  F  F134  1  0.691673  0.214016  0.438579  1
  F  F135  1  0.028119  0.700285  0.980198  1
  F  F136  1  0.945794  0.568835  0.328164  1
  F  F137  1  0.511483  0.660659  0.107683  1
  F  F138  1  0.562142  0.560487  0.841708  1
  F  F139  1  0.103279  0.037111  0.105525  1
  F  F140  1  0.455141  0.073150  0.588518  1
  F  F141  1  0.984631  0.308459  0.010855  1
  F  F142  1  0.010145  0.149275  0.351699  1
  F  F143  1  0.970099  0.285833  0.498754  1
  F  F144  1  0.451614  0.174565  0.837763  1
  F  F145  1  0.527512  0.015913  0.679409  1
  F  F146  1  0.191673  0.785984  0.561421  1
  F  F147  1  0.544599  0.106099  0.481045  1
  F  F148  1  0.044599  0.893901  0.518955  1
  F  F149  1  0.219006  0.594686  0.015111  1
  F  F150  1  0.194757  0.152112  0.651888  1
  F  F151  1  0.021344  0.257015  0.124901  1
  F  F152  1  0.004182  0.448024  0.674662  1
  F  F153  1  0.386491  0.872862  0.001333  1
  F  F154  1  0.971388  0.208158  0.747695  1
  F  F155  1  0.968121  0.748192  0.866261  1
  F  F156  1  0.063023  0.264808  0.610374  1
  F  F157  1  0.485828  0.963394  0.084630  1
  F  F158  1  0.011483  0.339341  0.892317  1
  F  F159  1  0.983889  0.582851  0.832882  1
  F  F160  1  0.778439  0.120279  0.170864  1
  F  F161  1  0.446220  0.349865  0.883893  1
  F  F162  1  0.513896  0.033799  0.204438  1
  F  F163  1  0.714326  0.671896  0.801239  1
  F  F164  1  0.603279  0.962889  0.894475  1
  F  F165  1  0.031270  0.791575  0.263785  1
  F  F166  1  0.786752  0.937212  0.616630  1
  F  F167  1  0.519772  0.918152  0.425289  1
  F  F168  1  0.042419  0.343901  0.397532  1
  F  F169  1  0.024207  0.799096  0.765858  1
  F  F170  1  0.468121  0.251808  0.133739  1
  F  F171  1  0.985828  0.036606  0.915370  1
  F  F172  1  0.488842  0.600246  0.707747  1
  F  F173  1  0.942976  0.016527  0.216789  1
  F  F174  1  0.470099  0.714167  0.501246  1
  F  F175  1  0.524050  0.827596  0.146279  1
