# generated using pymatgen
data_Fe35O36
_symmetry_space_group_name_H-M   'P 1'
_cell_length_a   9.26692386
_cell_length_b   16.38421682
_cell_length_c   11.13090642
_cell_angle_alpha   42.83572569
_cell_angle_beta   56.43183620
_cell_angle_gamma   40.82027203
_symmetry_Int_Tables_number   1
_chemical_formula_structural   Fe35O36
_chemical_formula_sum   'Fe35 O36'
_cell_volume   751.10791739
_cell_formula_units_Z   1
loop_
 _symmetry_equiv_pos_site_id
 _symmetry_equiv_pos_as_xyz
  1  'x, y, z'
loop_
 _atom_site_type_symbol
 _atom_site_label
 _atom_site_symmetry_multiplicity
 _atom_site_fract_x
 _atom_site_fract_y
 _atom_site_fract_z
 _atom_site_occupancy
  Fe  Fe0  1  0.170032  0.249298  0.996612  1
  Fe  Fe1  1  0.996138  0.501853  0.996437  1
  Fe  Fe2  1  0.226494  0.163268  0.336662  1
  Fe  Fe3  1  0.058664  0.415184  0.335250  1
  Fe  Fe4  1  0.515375  0.243150  0.993919  1
  Fe  Fe5  1  0.270077  0.077924  0.676647  1
  Fe  Fe6  1  0.335105  0.502152  0.997669  1
  Fe  Fe7  1  0.114658  0.334573  0.664512  1
  Fe  Fe8  1  0.551588  0.166496  0.336581  1
  Fe  Fe9  1  0.838422  0.237153  0.006062  1
  Fe  Fe10  1  0.609107  0.084963  0.665735  1
  Fe  Fe11  1  0.389172  0.416396  0.331631  1
  Fe  Fe12  1  0.167024  0.760129  0.994355  1
  Fe  Fe13  1  0.890352  0.166763  0.331117  1
  Fe  Fe14  1  0.664156  0.498990  0.003196  1
  Fe  Fe15  1  0.208713  0.677663  0.322594  1
  Fe  Fe16  1  0.437904  0.337941  0.659785  1
  Fe  Fe17  1  0.937832  0.083944  0.675036  1
  Fe  Fe18  1  0.722421  0.418156  0.333769  1
  Fe  Fe19  1  0.482707  0.758303  0.005300  1
  Fe  Fe20  1  0.279497  0.581429  0.668043  1
  Fe  Fe21  1  0.060182  0.917003  0.321032  1
  Fe  Fe22  1  0.789943  0.322582  0.675817  1
  Fe  Fe23  1  0.563197  0.662695  0.337523  1
  Fe  Fe24  1  0.325439  0.003357  0.996183  1
  Fe  Fe25  1  0.111105  0.831753  0.669161  1
  Fe  Fe26  1  0.830210  0.747820  0.003856  1
  Fe  Fe27  1  0.614362  0.580659  0.668518  1
  Fe  Fe28  1  0.387171  0.918168  0.329082  1
  Fe  Fe29  1  0.883982  0.668118  0.333889  1
  Fe  Fe30  1  0.679530  0.995681  0.004423  1
  Fe  Fe31  1  0.451365  0.830178  0.664265  1
  Fe  Fe32  1  0.946697  0.582210  0.666776  1
  Fe  Fe33  1  0.727440  0.924192  0.323380  1
  Fe  Fe34  1  0.773612  0.836130  0.668201  1
  O  O35  1  0.098861  0.088372  0.175830  1
  O  O36  1  0.148845  0.007728  0.497650  1
  O  O37  1  0.436094  0.083498  0.173466  1
  O  O38  1  0.277006  0.339582  0.161238  1
  O  O39  1  0.503805  0.997819  0.500421  1
  O  O40  1  0.061583  0.180599  0.822106  1
  O  O41  1  0.764884  0.088170  0.172943  1
  O  O42  1  0.113569  0.585642  0.169584  1
  O  O43  1  0.334956  0.242629  0.510199  1
  O  O44  1  0.630591  0.322361  0.173792  1
  O  O45  1  0.387842  0.167642  0.837474  1
  O  O46  1  0.169034  0.492326  0.506452  1
  O  O47  1  0.675383  0.248667  0.484600  1
  O  O48  1  0.457267  0.576952  0.169864  1
  O  O49  1  0.011121  0.737953  0.518615  1
  O  O50  1  0.225786  0.426892  0.824956  1
  O  O51  1  0.948036  0.320224  0.173769  1
  O  O52  1  0.704376  0.182027  0.814815  1
  O  O53  1  0.479593  0.508248  0.507957  1
  O  O54  1  0.297550  0.821353  0.180581  1
  O  O55  1  0.071987  0.660065  0.821087  1
  O  O56  1  0.784659  0.585026  0.160965  1
  O  O57  1  0.997714  0.253100  0.490070  1
  O  O58  1  0.331731  0.743091  0.512656  1
  O  O59  1  0.539859  0.426627  0.821512  1
  O  O60  1  0.837669  0.495748  0.497486  1
  O  O61  1  0.600441  0.842330  0.158108  1
  O  O62  1  0.388135  0.661075  0.840166  1
  O  O63  1  0.669958  0.751387  0.493308  1
  O  O64  1  0.884920  0.420453  0.830628  1
  O  O65  1  0.231709  0.913319  0.823448  1
  O  O66  1  0.941082  0.827816  0.173613  1
  O  O67  1  0.717447  0.666778  0.838760  1
  O  O68  1  0.560748  0.915114  0.828485  1
  O  O69  1  0.841542  0.010364  0.480996  1
  O  O70  1  0.885857  0.913388  0.830913  1
