# generated using pymatgen
data_RbHSeO4
_symmetry_space_group_name_H-M   'P 1'
_cell_length_a   10.75113746
_cell_length_b   4.67763374
_cell_length_c   10.75494729
_cell_angle_alpha   78.31919104
_cell_angle_beta   138.23833015
_cell_angle_gamma   102.13852834
_symmetry_Int_Tables_number   1
_chemical_formula_structural   RbHSeO4
_chemical_formula_sum   'Rb3 H3 Se3 O12'
_cell_volume   351.31516409
_cell_formula_units_Z   3
loop_
 _symmetry_equiv_pos_site_id
 _symmetry_equiv_pos_as_xyz
  1  'x, y, z'
loop_
 _atom_site_type_symbol
 _atom_site_label
 _atom_site_symmetry_multiplicity
 _atom_site_fract_x
 _atom_site_fract_y
 _atom_site_fract_z
 _atom_site_occupancy
  Rb  Rb0  1  0.487999  0.002647  0.488415  1
  Rb  Rb1  1  0.250551  0.578810  0.919904  1
  Rb  Rb2  1  0.922529  0.419607  0.253209  1
  H  H3  1  0.868480  0.546562  0.875362  1
  H  H4  1  0.866036  0.138262  0.550305  1
  H  H5  1  0.549806  0.861754  0.866815  1
  Se  Se6  1  0.001951  0.011265  0.999005  1
  Se  Se7  1  0.743854  0.696747  0.408960  1
  Se  Se8  1  0.409887  0.300508  0.744778  1
  O  O9  1  0.898436  0.292644  0.837217  1
  O  O10  1  0.827953  0.713014  0.888612  1
  O  O11  1  0.184517  0.937005  0.057195  1
  O  O12  1  0.052827  0.050136  0.183005  1
  O  O13  1  0.905838  0.467577  0.516496  1
  O  O14  1  0.517994  0.532034  0.907805  1
  O  O15  1  0.700170  0.904015  0.237692  1
  O  O16  1  0.236259  0.091486  0.698281  1
  O  O17  1  0.847929  0.922778  0.585741  1
  O  O18  1  0.585507  0.076938  0.848069  1
  O  O19  1  0.553949  0.529437  0.346593  1
  O  O20  1  0.350718  0.464674  0.556952  1
