# generated using pymatgen
data_Bi4O5
_symmetry_space_group_name_H-M   'P 1'
_cell_length_a   5.68503245
_cell_length_b   7.81342443
_cell_length_c   7.81342443
_cell_angle_alpha   88.98462070
_cell_angle_beta   96.04552081
_cell_angle_gamma   96.04552081
_symmetry_Int_Tables_number   1
_chemical_formula_structural   Bi4O5
_chemical_formula_sum   'Bi8 O10'
_cell_volume   343.21156397
_cell_formula_units_Z   2
loop_
 _symmetry_equiv_pos_site_id
 _symmetry_equiv_pos_as_xyz
  1  'x, y, z'
loop_
 _atom_site_type_symbol
 _atom_site_label
 _atom_site_symmetry_multiplicity
 _atom_site_fract_x
 _atom_site_fract_y
 _atom_site_fract_z
 _atom_site_occupancy
  Bi  Bi0  1  0.254979  0.198945  0.041088  1
  Bi  Bi1  1  0.241337  0.235943  0.530966  1
  Bi  Bi2  1  0.298324  0.766630  0.461959  1
  Bi  Bi3  1  0.202546  0.712161  0.940788  1
  Bi  Bi4  1  0.741337  0.030966  0.735943  1
  Bi  Bi5  1  0.702546  0.440788  0.212161  1
  Bi  Bi6  1  0.754979  0.541088  0.698945  1
  Bi  Bi7  1  0.798324  0.961959  0.266630  1
  O  O8  1  0.999675  0.240793  0.263931  1
  O  O9  1  0.030316  0.978045  0.522285  1
  O  O10  1  0.356423  0.485723  0.040127  1
  O  O11  1  0.444105  0.168833  0.791876  1
  O  O12  1  0.639297  0.696522  0.364384  1
  O  O13  1  0.499675  0.763931  0.740793  1
  O  O14  1  0.530316  0.022285  0.478045  1
  O  O15  1  0.856423  0.540127  0.985723  1
  O  O16  1  -0.055895  0.291876  0.668833  1
  O  O17  1  0.139297  0.864384  0.196522  1
