# generated using pymatgen
data_H6N4O9
_symmetry_space_group_name_H-M   'P 1'
_cell_length_a   6.86048714
_cell_length_b   13.22286625
_cell_length_c   4.97651163
_cell_angle_alpha   90.00000000
_cell_angle_beta   89.18840640
_cell_angle_gamma   90.00000000
_symmetry_Int_Tables_number   1
_chemical_formula_structural   H6N4O9
_chemical_formula_sum   'H12 N8 O18'
_cell_volume   451.40047523
_cell_formula_units_Z   2
loop_
 _symmetry_equiv_pos_site_id
 _symmetry_equiv_pos_as_xyz
  1  'x, y, z'
loop_
 _atom_site_type_symbol
 _atom_site_label
 _atom_site_symmetry_multiplicity
 _atom_site_fract_x
 _atom_site_fract_y
 _atom_site_fract_z
 _atom_site_occupancy
  H  H0  1  0.863309  0.020495  0.611653  1
  H  H1  1  0.136691  0.520495  0.888347  1
  H  H2  1  0.266060  0.014529  0.153407  1
  H  H3  1  0.370693  0.019354  0.743451  1
  H  H4  1  0.629307  0.519354  0.756549  1
  H  H5  1  0.733940  0.514529  0.346593  1
  H  H6  1  0.864577  0.414998  0.323533  1
  H  H7  1  0.135423  0.914998  0.176467  1
  H  H8  1  0.896686  0.845836  0.923430  1
  H  H9  1  0.903171  0.153062  0.095124  1
  H  H10  1  0.096829  0.653062  0.404876  1
  H  H11  1  0.103314  0.345836  0.576570  1
  N  N12  1  0.840509  0.475978  0.450490  1
  N  N13  1  0.159491  0.975978  0.049510  1
  N  N14  1  0.598898  0.973949  0.559562  1
  N  N15  1  0.401102  0.473949  0.940438  1
  N  N16  1  0.782651  0.735102  0.107556  1
  N  N17  1  0.801761  0.257537  0.878866  1
  N  N18  1  0.198239  0.757537  0.621134  1
  N  N19  1  0.217349  0.235102  0.392444  1
  O  O20  1  0.778157  0.015999  0.454766  1
  O  O21  1  0.221843  0.515999  0.045234  1
  O  O22  1  0.506154  0.922152  0.402271  1
  O  O23  1  0.493770  0.055029  0.696642  1
  O  O24  1  0.506230  0.555029  0.803358  1
  O  O25  1  0.493846  0.422152  0.097729  1
  O  O26  1  0.653851  0.707685  0.260610  1
  O  O27  1  0.677679  0.281327  0.719684  1
  O  O28  1  0.322321  0.781327  0.780316  1
  O  O29  1  0.346149  0.207685  0.239390  1
  O  O30  1  0.920006  0.685252  0.013653  1
  O  O31  1  0.935547  0.309480  0.970099  1
  O  O32  1  0.064453  0.809480  0.529901  1
  O  O33  1  0.079994  0.185252  0.486347  1
  O  O34  1  0.775040  0.836842  0.030130  1
  O  O35  1  0.792937  0.157401  0.969711  1
  O  O36  1  0.207063  0.657401  0.530289  1
  O  O37  1  0.224960  0.336842  0.469870  1
