# generated using pymatgen
data_KCe2CuSe6
_symmetry_space_group_name_H-M   'P 1'
_cell_length_a   7.10960758
_cell_length_b   7.10960747
_cell_length_c   22.60704594
_cell_angle_alpha   96.09872192
_cell_angle_beta   96.09872181
_cell_angle_gamma   108.92601038
_symmetry_Int_Tables_number   1
_chemical_formula_structural   KCe2CuSe6
_chemical_formula_sum   'K4 Ce8 Cu4 Se24'
_cell_volume   1062.71943158
_cell_formula_units_Z   4
loop_
 _symmetry_equiv_pos_site_id
 _symmetry_equiv_pos_as_xyz
  1  'x, y, z'
loop_
 _atom_site_type_symbol
 _atom_site_label
 _atom_site_symmetry_multiplicity
 _atom_site_fract_x
 _atom_site_fract_y
 _atom_site_fract_z
 _atom_site_occupancy
  K  K0  1  0.877421  0.627421  0.750000  1
  K  K1  1  0.627421  0.877421  0.250000  1
  K  K2  1  0.122579  0.372579  0.250000  1
  K  K3  1  0.372579  0.122579  0.750000  1
  Ce  Ce4  1  0.037138  0.287139  0.574277  1
  Ce  Ce5  1  0.212559  0.462559  0.925118  1
  Ce  Ce6  1  0.462559  0.212559  0.425118  1
  Ce  Ce7  1  0.787441  0.537441  0.074882  1
  Ce  Ce8  1  0.287139  0.037138  0.074277  1
  Ce  Ce9  1  0.537441  0.787441  0.574882  1
  Ce  Ce10  1  0.712862  0.962862  0.925723  1
  Ce  Ce11  1  0.962862  0.712862  0.425723  1
  Cu  Cu12  1  0.538399  0.288399  0.576797  1
  Cu  Cu13  1  0.461601  0.711601  0.423203  1
  Cu  Cu14  1  0.288399  0.538399  0.076797  1
  Cu  Cu15  1  0.711601  0.461601  0.923203  1
  Se  Se16  1  0.238939  0.492409  0.478557  1
  Se  Se17  1  0.039964  0.068054  0.358882  1
  Se  Se18  1  0.819905  0.275892  0.847917  1
  Se  Se19  1  0.427974  0.471987  0.652083  1
  Se  Se20  1  0.180095  0.724108  0.152083  1
  Se  Se21  1  0.507591  0.761061  0.021443  1
  Se  Se22  1  0.290827  0.818918  0.858881  1
  Se  Se23  1  0.572026  0.528013  0.347917  1
  Se  Se24  1  0.986148  0.739617  0.978557  1
  Se  Se25  1  0.709173  0.181082  0.141119  1
  Se  Se26  1  0.960036  0.931946  0.641119  1
  Se  Se27  1  0.528013  0.572026  0.847917  1
  Se  Se28  1  0.068054  0.039964  0.858881  1
  Se  Se29  1  0.260383  0.013852  0.521443  1
  Se  Se30  1  0.739617  0.986148  0.478557  1
  Se  Se31  1  0.275892  0.819905  0.347917  1
  Se  Se32  1  0.181082  0.709173  0.641119  1
  Se  Se33  1  0.818918  0.290827  0.358882  1
  Se  Se34  1  0.013852  0.260383  0.021443  1
  Se  Se35  1  0.492409  0.238939  0.978557  1
  Se  Se36  1  0.761061  0.507591  0.521443  1
  Se  Se37  1  0.471987  0.427974  0.152083  1
  Se  Se38  1  0.724108  0.180095  0.652083  1
  Se  Se39  1  0.931946  0.960036  0.141119  1
