# generated using pymatgen
data_BiIr3(CO)9
_symmetry_space_group_name_H-M   'P 1'
_cell_length_a   8.18583292
_cell_length_b   9.13444053
_cell_length_c   12.14313938
_cell_angle_alpha   85.04305566
_cell_angle_beta   78.89565727
_cell_angle_gamma   68.85728693
_symmetry_Int_Tables_number   1
_chemical_formula_structural   BiIr3(CO)9
_chemical_formula_sum   'Bi2 Ir6 C18 O18'
_cell_volume   830.86114810
_cell_formula_units_Z   2
loop_
 _symmetry_equiv_pos_site_id
 _symmetry_equiv_pos_as_xyz
  1  'x, y, z'
loop_
 _atom_site_type_symbol
 _atom_site_label
 _atom_site_symmetry_multiplicity
 _atom_site_fract_x
 _atom_site_fract_y
 _atom_site_fract_z
 _atom_site_occupancy
  Bi  Bi0  1  0.055070  0.189628  0.411409  1
  Bi  Bi1  1  0.944930  0.810372  0.588591  1
  Ir  Ir2  1  0.851750  0.574176  0.716457  1
  Ir  Ir3  1  0.037455  0.216818  0.183449  1
  Ir  Ir4  1  0.630052  0.893199  0.742447  1
  Ir  Ir5  1  0.369948  0.106801  0.257553  1
  Ir  Ir6  1  0.962545  0.783182  0.816551  1
  Ir  Ir7  1  0.148250  0.425824  0.283543  1
  C  C8  1  0.868734  0.732012  0.967137  1
  C  C9  1  0.922927  0.588379  0.320804  1
  C  C10  1  0.791416  0.343652  0.209681  1
  C  C11  1  0.608006  0.108464  0.741248  1
  C  C12  1  0.131266  0.267988  0.032863  1
  C  C13  1  0.018478  0.018220  0.167567  1
  C  C14  1  0.727206  0.528704  0.614338  1
  C  C15  1  0.077073  0.411621  0.679196  1
  C  C16  1  0.753943  0.499053  0.858121  1
  C  C17  1  0.208584  0.656348  0.790319  1
  C  C18  1  0.523946  0.103821  0.357634  1
  C  C19  1  0.246057  0.500947  0.141879  1
  C  C20  1  0.496811  0.863428  0.886076  1
  C  C21  1  0.391994  0.891536  0.258752  1
  C  C22  1  0.272794  0.471296  0.385662  1
  C  C23  1  0.503189  0.136572  0.113924  1
  C  C24  1  0.476054  0.896179  0.642366  1
  C  C25  1  0.981522  0.981780  0.832433  1
  O  O26  1  0.376337  0.898838  0.585055  1
  O  O27  1  0.402261  0.761659  0.257562  1
  O  O28  1  0.994687  0.102586  0.841374  1
  O  O29  1  0.640940  0.418821  0.226709  1
  O  O30  1  0.359060  0.581179  0.773291  1
  O  O31  1  0.410922  0.851841  0.972213  1
  O  O32  1  0.623663  0.101162  0.414945  1
  O  O33  1  0.696494  0.448689  0.941209  1
  O  O34  1  0.597739  0.238341  0.742438  1
  O  O35  1  0.589078  0.148159  0.027787  1
  O  O36  1  0.788004  0.690509  0.343973  1
  O  O37  1  0.211996  0.309491  0.656027  1
  O  O38  1  0.303506  0.551311  0.058791  1
  O  O39  1  0.005313  0.897414  0.158626  1
  O  O40  1  0.346078  0.500618  0.448685  1
  O  O41  1  0.187524  0.295915  0.941309  1
  O  O42  1  0.812476  0.704085  0.058691  1
  O  O43  1  0.653922  0.499382  0.551315  1
