# generated using pymatgen
data_Rb16Er7Ti9(PO4)24
_symmetry_space_group_name_H-M   'P 1'
_cell_length_a   10.33276084
_cell_length_b   10.32404790
_cell_length_c   20.63945056
_cell_angle_alpha   89.94470155
_cell_angle_beta   90.04218992
_cell_angle_gamma   90.07870054
_symmetry_Int_Tables_number   1
_chemical_formula_structural   Rb16Er7Ti9(PO4)24
_chemical_formula_sum   'Rb16 Er7 Ti9 P24 O96'
_cell_volume   2201.72863443
_cell_formula_units_Z   1
loop_
 _symmetry_equiv_pos_site_id
 _symmetry_equiv_pos_as_xyz
  1  'x, y, z'
loop_
 _atom_site_type_symbol
 _atom_site_label
 _atom_site_symmetry_multiplicity
 _atom_site_fract_x
 _atom_site_fract_y
 _atom_site_fract_z
 _atom_site_occupancy
  Rb  Rb0  1  0.043679  0.458084  0.269867  1
  Rb  Rb1  1  0.041733  0.456509  0.771813  1
  Rb  Rb2  1  0.179330  0.179815  0.090356  1
  Rb  Rb3  1  0.182102  0.181610  0.588352  1
  Rb  Rb4  1  0.320402  0.820667  0.342047  1
  Rb  Rb5  1  0.321479  0.819005  0.839747  1
  Rb  Rb6  1  0.458364  0.541863  0.021305  1
  Rb  Rb7  1  0.460726  0.545905  0.521741  1
  Rb  Rb8  1  0.542365  0.043260  0.228151  1
  Rb  Rb9  1  0.543597  0.042079  0.729645  1
  Rb  Rb10  1  0.679238  0.320722  0.910482  1
  Rb  Rb11  1  0.680937  0.319169  0.410358  1
  Rb  Rb12  1  0.821359  0.680839  0.160585  1
  Rb  Rb13  1  0.819989  0.679010  0.657722  1
  Rb  Rb14  1  0.957782  0.954257  0.478070  1
  Rb  Rb15  1  0.958059  0.957861  0.979022  1
  Er  Er16  1  0.105514  0.599970  0.447949  1
  Er  Er17  1  0.167805  0.835019  0.168808  1
  Er  Er18  1  0.333199  0.164119  0.915853  1
  Er  Er19  1  0.603894  0.903421  0.552623  1
  Er  Er20  1  0.667216  0.666388  0.832189  1
  Er  Er21  1  0.836854  0.331600  0.581296  1
  Er  Er22  1  0.833455  0.336227  0.084150  1
  Ti  Ti23  1  0.107073  0.605749  0.946503  1
  Ti  Ti24  1  0.168087  0.836031  0.666742  1
  Ti  Ti25  1  0.334551  0.165320  0.418482  1
  Ti  Ti26  1  0.396157  0.393644  0.196061  1
  Ti  Ti27  1  0.391729  0.393817  0.698479  1
  Ti  Ti28  1  0.607013  0.894213  0.053188  1
  Ti  Ti29  1  0.667445  0.663769  0.332940  1
  Ti  Ti30  1  0.889246  0.105057  0.301323  1
  Ti  Ti31  1  0.895491  0.106087  0.804420  1
  P  P32  1  0.020485  0.279487  0.431232  1
  P  P33  1  0.013658  0.295830  0.934677  1
  P  P34  1  0.133201  0.514205  0.102379  1
  P  P35  1  0.134624  0.521959  0.609719  1
  P  P36  1  0.208891  0.134720  0.262369  1
  P  P37  1  0.204694  0.122862  0.754659  1
  P  P38  1  0.295174  0.867600  0.007584  1
  P  P39  1  0.287886  0.879447  0.509284  1
  P  P40  1  0.382651  0.476901  0.351221  1
  P  P41  1  0.368919  0.485649  0.853707  1
  P  P42  1  0.490566  0.703005  0.188384  1
  P  P43  1  0.472393  0.705596  0.686853  1
  P  P44  1  0.513582  0.204135  0.065637  1
  P  P45  1  0.505206  0.215492  0.563747  1
  P  P46  1  0.627360  0.983228  0.391510  1
  P  P47  1  0.632936  0.986539  0.897981  1
  P  P48  1  0.705356  0.377456  0.245182  1
  P  P49  1  0.705169  0.366271  0.741970  1
  P  P50  1  0.785662  0.627901  0.488013  1
  P  P51  1  0.795545  0.632660  0.992838  1
  P  P52  1  0.869261  0.014610  0.146067  1
  P  P53  1  0.884971  0.013699  0.651174  1
  P  P54  1  0.970987  0.794060  0.312918  1
  P  P55  1  0.991062  0.796862  0.811716  1
  O  O56  1  0.017585  0.425103  0.116257  1
  O  O57  1  0.007052  0.446718  0.619854  1
  O  O58  1  0.010450  0.420795  0.408778  1
  O  O59  1  0.015341  0.443976  0.917470  1
  O  O60  1  0.036958  0.722787  0.368462  1
  O  O61  1  0.051402  0.717278  0.868868  1
  O  O62  1  0.061428  0.166821  0.261064  1
  O  O63  1  0.059272  0.163588  0.757077  1
  O  O64  1  0.046515  0.767498  0.250471  1
  O  O65  1  0.081102  0.780088  0.751515  1
  O  O66  1  0.105287  0.650628  0.127010  1
  O  O67  1  0.114920  0.666372  0.630311  1
  O  O68  1  0.165542  0.240636  0.440898  1
  O  O69  1  0.149592  0.245762  0.949386  1
  O  O70  1  0.165610  0.515131  0.028149  1
  O  O71  1  0.181714  0.512031  0.539142  1
  O  O72  1  0.197665  0.782191  0.476122  1
  O  O73  1  0.218736  0.749649  0.977776  1
  O  O74  1  0.236505  0.010969  0.223683  1
  O  O75  1  0.223405  0.001850  0.710265  1
  O  O76  1  0.251724  0.454821  0.140549  1
  O  O77  1  0.237603  0.457168  0.654878  1
  O  O78  1  0.246153  0.898608  0.075770  1
  O  O79  1  0.242481  0.898811  0.581311  1
  O  O80  1  0.259519  0.115004  0.333019  1
  O  O81  1  0.256107  0.091856  0.822114  1
  O  O82  1  0.274480  0.545530  0.388095  1
  O  O83  1  0.250626  0.544305  0.891810  1
  O  O84  1  0.275005  0.011228  0.470507  1
  O  O85  1  0.269298  0.982831  0.962470  1
  O  O86  1  0.284273  0.247374  0.229077  1
  O  O87  1  0.285874  0.234929  0.723719  1
  O  O88  1  0.344575  0.477321  0.277597  1
  O  O89  1  0.332611  0.481512  0.780010  1
  O  O90  1  0.355672  0.754292  0.204082  1
  O  O91  1  0.330270  0.756443  0.695487  1
  O  O92  1  0.402326  0.336911  0.377687  1
  O  O93  1  0.398827  0.349144  0.877704  1
  O  O94  1  0.423628  0.231007  0.008025  1
  O  O95  1  0.422437  0.229927  0.500004  1
  O  O96  1  0.443513  0.833230  0.009648  1
  O  O97  1  0.427363  0.831793  0.504537  1
  O  O98  1  0.455801  0.279905  0.125458  1
  O  O99  1  0.444770  0.308045  0.616036  1
  O  O100  1  0.486457  0.556631  0.168228  1
  O  O101  1  0.473890  0.556343  0.671764  1
  O  O102  1  0.484839  0.574713  0.866974  1
  O  O103  1  0.508469  0.559356  0.360576  1
  O  O104  1  0.498940  0.061900  0.384857  1
  O  O105  1  0.517752  0.076011  0.883989  1
  O  O106  1  0.515112  0.056069  0.082788  1
  O  O107  1  0.496990  0.076116  0.589663  1
  O  O108  1  0.551654  0.782031  0.131498  1
  O  O109  1  0.537580  0.775409  0.630709  1
  O  O110  1  0.559998  0.336102  0.243482  1
  O  O111  1  0.556797  0.331918  0.740611  1
  O  O112  1  0.578967  0.718900  0.249233  1
  O  O113  1  0.547755  0.733380  0.749378  1
  O  O114  1  0.603774  0.850333  0.873625  1
  O  O115  1  0.606111  0.840492  0.368626  1
  O  O116  1  0.649225  0.254409  0.051076  1
  O  O117  1  0.645345  0.255567  0.548997  1
  O  O118  1  0.678604  0.992238  0.460864  1
  O  O119  1  0.665463  0.985516  0.972272  1
  O  O120  1  0.718903  0.750589  0.022604  1
  O  O121  1  0.699503  0.729968  0.519553  1
  O  O122  1  0.724980  0.498883  0.289371  1
  O  O123  1  0.730952  0.483599  0.786060  1
  O  O124  1  0.729302  0.048953  0.345500  1
  O  O125  1  0.752169  0.044847  0.860196  1
  O  O126  1  0.745798  0.601837  0.924859  1
  O  O127  1  0.743198  0.612661  0.414500  1
  O  O128  1  0.755990  0.408375  0.177669  1
  O  O129  1  0.753464  0.395388  0.673434  1
  O  O130  1  0.751169  0.955479  0.108242  1
  O  O131  1  0.773369  0.950254  0.613434  1
  O  O132  1  0.769350  0.517573  0.038008  1
  O  O133  1  0.764029  0.496760  0.522375  1
  O  O134  1  0.787148  0.265742  0.275763  1
  O  O135  1  0.781231  0.249102  0.772172  1
  O  O136  1  0.833011  0.018244  0.219833  1
  O  O137  1  0.845191  0.016212  0.724553  1
  O  O138  1  0.828176  0.744313  0.303684  1
  O  O139  1  0.856235  0.745070  0.795754  1
  O  O140  1  0.914307  0.149388  0.625095  1
  O  O141  1  0.899321  0.151090  0.122442  1
  O  O142  1  0.947303  0.256050  0.495272  1
  O  O143  1  0.923745  0.269088  0.992286  1
  O  O144  1  0.927707  0.670045  0.493600  1
  O  O145  1  0.943732  0.667068  0.990646  1
  O  O146  1  0.954112  0.190693  0.379176  1
  O  O147  1  0.956062  0.219934  0.874843  1
  O  O148  1  0.970186  0.942776  0.328935  1
  O  O149  1  0.987048  0.942837  0.832444  1
  O  O150  1  0.985961  0.926511  0.133242  1
  O  O151  1  0.006501  0.924112  0.641999  1
