# generated using pymatgen
data_Ca2BeSi2O7
_symmetry_space_group_name_H-M   'P 1'
_cell_length_a   5.04397925
_cell_length_b   7.48500862
_cell_length_c   7.48500862
_cell_angle_alpha   90.00000000
_cell_angle_beta   90.00000000
_cell_angle_gamma   90.00000000
_symmetry_Int_Tables_number   1
_chemical_formula_structural   Ca2BeSi2O7
_chemical_formula_sum   'Ca4 Be2 Si4 O14'
_cell_volume   282.59072326
_cell_formula_units_Z   2
loop_
 _symmetry_equiv_pos_site_id
 _symmetry_equiv_pos_as_xyz
  1  'x, y, z'
loop_
 _atom_site_type_symbol
 _atom_site_label
 _atom_site_symmetry_multiplicity
 _atom_site_fract_x
 _atom_site_fract_y
 _atom_site_fract_z
 _atom_site_occupancy
  Be  Be0  1  0.000000  0.000000  0.000000  1
  Be  Be1  1  0.000000  0.500000  0.500000  1
  O  O2  1  0.819804  0.164471  0.913226  1
  O  O3  1  0.819804  0.835529  0.086774  1
  O  O4  1  0.180196  0.913226  0.835529  1
  O  O5  1  0.180196  0.086774  0.164471  1
  O  O6  1  0.180196  0.664471  0.586774  1
  O  O7  1  0.819804  0.586774  0.335529  1
  O  O8  1  0.819804  0.413226  0.664471  1
  O  O9  1  0.180196  0.335529  0.413226  1
  O  O10  1  0.833323  0.500000  0.000000  1
  O  O11  1  0.166677  0.000000  0.500000  1
  O  O12  1  0.281941  0.359854  0.859854  1
  O  O13  1  0.718059  0.859854  0.640146  1
  O  O14  1  0.718059  0.140146  0.359854  1
  O  O15  1  0.281941  0.640146  0.140146  1
  Si  Si16  1  0.961393  0.647319  0.147319  1
  Si  Si17  1  0.038607  0.147319  0.352681  1
  Si  Si18  1  0.038607  0.852681  0.647319  1
  Si  Si19  1  0.961393  0.352681  0.852681  1
  Ca  Ca20  1  0.514552  0.835567  0.335567  1
  Ca  Ca21  1  0.485448  0.335567  0.164433  1
  Ca  Ca22  1  0.485448  0.664433  0.835567  1
  Ca  Ca23  1  0.514552  0.164433  0.664433  1
