# generated using pymatgen
data_LiV(SiO3)2
_symmetry_space_group_name_H-M   'P 1'
_cell_length_a   5.36719042
_cell_length_b   8.75797878
_cell_length_c   9.41868206
_cell_angle_alpha   90.00000000
_cell_angle_beta   102.87694550
_cell_angle_gamma   90.00000000
_symmetry_Int_Tables_number   1
_chemical_formula_structural   LiV(SiO3)2
_chemical_formula_sum   'Li4 V4 Si8 O24'
_cell_volume   431.59782442
_cell_formula_units_Z   4
loop_
 _symmetry_equiv_pos_site_id
 _symmetry_equiv_pos_as_xyz
  1  'x, y, z'
loop_
 _atom_site_type_symbol
 _atom_site_label
 _atom_site_symmetry_multiplicity
 _atom_site_fract_x
 _atom_site_fract_y
 _atom_site_fract_z
 _atom_site_occupancy
  Li  Li0  1  0.512593  0.489783  0.247942  1
  Li  Li1  1  0.987407  0.989783  0.752058  1
  Li  Li2  1  0.012593  0.010217  0.247942  1
  Li  Li3  1  0.487407  0.510217  0.752058  1
  V  V4  1  0.984634  0.346414  0.749530  1
  V  V5  1  0.015366  0.653586  0.250470  1
  V  V6  1  0.484634  0.153586  0.749530  1
  V  V7  1  0.515366  0.846414  0.250470  1
  Si  Si8  1  0.791491  0.661092  0.548308  1
  Si  Si9  1  0.708509  0.161092  0.451692  1
  Si  Si10  1  0.232621  0.661196  0.951842  1
  Si  Si11  1  0.291491  0.838908  0.548308  1
  Si  Si12  1  0.208509  0.338908  0.451692  1
  Si  Si13  1  0.732621  0.838804  0.951842  1
  Si  Si14  1  0.267379  0.161196  0.048158  1
  Si  Si15  1  0.767379  0.338804  0.048158  1
  O  O16  1  0.304420  0.993518  0.120009  1
  O  O17  1  0.197870  0.166364  0.868337  1
  O  O18  1  0.695580  0.006482  0.879991  1
  O  O19  1  0.224418  0.835067  0.368020  1
  O  O20  1  0.023315  0.232333  0.107188  1
  O  O21  1  0.523315  0.267666  0.107188  1
  O  O22  1  0.730813  0.997763  0.375104  1
  O  O23  1  0.914891  0.273568  0.396450  1
  O  O24  1  0.230813  0.502237  0.375104  1
  O  O25  1  0.775582  0.164933  0.631980  1
  O  O26  1  0.769187  0.497763  0.624896  1
  O  O27  1  0.085109  0.726432  0.603550  1
  O  O28  1  0.976685  0.767667  0.892812  1
  O  O29  1  0.195580  0.493518  0.879991  1
  O  O30  1  0.697870  0.333636  0.868337  1
  O  O31  1  0.302130  0.666364  0.131663  1
  O  O32  1  0.476685  0.732333  0.892812  1
  O  O33  1  0.802130  0.833636  0.131663  1
  O  O34  1  0.585109  0.773568  0.603550  1
  O  O35  1  0.724418  0.664933  0.368020  1
  O  O36  1  0.275582  0.335067  0.631980  1
  O  O37  1  0.414891  0.226432  0.396450  1
  O  O38  1  0.269187  0.002237  0.624896  1
  O  O39  1  0.804420  0.506482  0.120009  1
