# generated using pymatgen
data_H5IO6
_symmetry_space_group_name_H-M   'P 1'
_cell_length_a   5.39558757
_cell_length_b   18.67853309
_cell_length_c   4.97986806
_cell_angle_alpha   90.00000000
_cell_angle_beta   109.59340057
_cell_angle_gamma   90.00000000
_symmetry_Int_Tables_number   1
_chemical_formula_structural   H5IO6
_chemical_formula_sum   'H20 I4 O24'
_cell_volume   472.81859396
_cell_formula_units_Z   4
loop_
 _symmetry_equiv_pos_site_id
 _symmetry_equiv_pos_as_xyz
  1  'x, y, z'
loop_
 _atom_site_type_symbol
 _atom_site_label
 _atom_site_symmetry_multiplicity
 _atom_site_fract_x
 _atom_site_fract_y
 _atom_site_fract_z
 _atom_site_occupancy
  H  H0  1  0.158863  0.501175  0.825506  1
  H  H1  1  0.658863  0.998825  0.325506  1
  H  H2  1  0.841137  0.498825  0.174494  1
  H  H3  1  0.341137  0.001175  0.674494  1
  H  H4  1  0.336963  0.558709  0.503675  1
  H  H5  1  0.836963  0.941291  0.003675  1
  H  H6  1  0.663037  0.441291  0.496325  1
  H  H7  1  0.163037  0.058709  0.996325  1
  H  H8  1  0.085339  0.692825  0.432673  1
  H  H9  1  0.585339  0.807175  0.932673  1
  H  H10  1  0.914661  0.307175  0.567327  1
  H  H11  1  0.414661  0.192825  0.067327  1
  H  H12  1  0.620173  0.631619  0.037221  1
  H  H13  1  0.120173  0.868381  0.537221  1
  H  H14  1  0.379827  0.368381  0.962779  1
  H  H15  1  0.879827  0.131619  0.462779  1
  H  H16  1  0.878220  0.719410  0.776837  1
  H  H17  1  0.378220  0.780590  0.276837  1
  H  H18  1  0.121780  0.280590  0.223163  1
  H  H19  1  0.621780  0.219410  0.723163  1
  I  I20  1  0.167944  0.621363  0.043710  1
  I  I21  1  0.667944  0.878637  0.543710  1
  I  I22  1  0.832056  0.378637  0.956290  1
  I  I23  1  0.332056  0.121363  0.456290  1
  O  O24  1  0.190490  0.551520  0.766030  1
  O  O25  1  0.690490  0.948480  0.266030  1
  O  O26  1  0.809510  0.448480  0.233970  1
  O  O27  1  0.309510  0.051520  0.733970  1
  O  O28  1  0.872956  0.582168  0.088049  1
  O  O29  1  0.372956  0.917832  0.588049  1
  O  O30  1  0.127044  0.417832  0.911951  1
  O  O31  1  0.627044  0.082168  0.411951  1
  O  O32  1  0.407398  0.565445  0.343155  1
  O  O33  1  0.907398  0.934555  0.843155  1
  O  O34  1  0.592602  0.434555  0.656845  1
  O  O35  1  0.092602  0.065445  0.156845  1
  O  O36  1  0.167618  0.703633  0.284042  1
  O  O37  1  0.667618  0.796367  0.784042  1
  O  O38  1  0.832382  0.296367  0.715958  1
  O  O39  1  0.332382  0.203633  0.215958  1
  O  O40  1  0.465307  0.666559  0.994887  1
  O  O41  1  0.965307  0.833441  0.494887  1
  O  O42  1  0.534693  0.333441  0.005113  1
  O  O43  1  0.034693  0.166559  0.505113  1
  O  O44  1  0.960612  0.677478  0.715277  1
  O  O45  1  0.460612  0.822522  0.215277  1
  O  O46  1  0.039388  0.322522  0.284723  1
  O  O47  1  0.539388  0.177478  0.784723  1
