# generated using pymatgen
data_Co2SnC8(ClO4)2
_symmetry_space_group_name_H-M   'P 1'
_cell_length_a   11.53522499
_cell_length_b   11.80953927
_cell_length_c   12.81134234
_cell_angle_alpha   108.32880277
_cell_angle_beta   90.00000000
_cell_angle_gamma   90.00000000
_symmetry_Int_Tables_number   1
_chemical_formula_structural   Co2SnC8(ClO4)2
_chemical_formula_sum   'Co8 Sn4 C32 Cl8 O32'
_cell_volume   1656.69392114
_cell_formula_units_Z   4
loop_
 _symmetry_equiv_pos_site_id
 _symmetry_equiv_pos_as_xyz
  1  'x, y, z'
loop_
 _atom_site_type_symbol
 _atom_site_label
 _atom_site_symmetry_multiplicity
 _atom_site_fract_x
 _atom_site_fract_y
 _atom_site_fract_z
 _atom_site_occupancy
  Co  Co0  1  0.187185  0.427700  0.326431  1
  Co  Co1  1  0.672920  0.988086  0.290708  1
  Co  Co2  1  0.687185  0.572300  0.173569  1
  Co  Co3  1  0.327080  0.011914  0.709292  1
  Co  Co4  1  0.312815  0.427700  0.826431  1
  Co  Co5  1  0.172920  0.011914  0.209292  1
  Co  Co6  1  0.812815  0.572300  0.673569  1
  Co  Co7  1  0.827080  0.988086  0.790708  1
  Sn  Sn8  1  0.668624  0.778927  0.146590  1
  Sn  Sn9  1  0.331376  0.221073  0.853410  1
  Sn  Sn10  1  0.168624  0.221073  0.353410  1
  Sn  Sn11  1  0.831376  0.778927  0.646590  1
  C  C12  1  0.303106  0.569607  0.805868  1
  C  C13  1  0.826526  0.133850  0.888195  1
  C  C14  1  0.673474  0.133850  0.388195  1
  C  C15  1  0.061442  0.382533  0.241640  1
  C  C16  1  0.561442  0.617467  0.258360  1
  C  C17  1  0.196894  0.569607  0.305868  1
  C  C18  1  0.959231  0.942794  0.838971  1
  C  C19  1  0.696894  0.430393  0.194132  1
  C  C20  1  0.689116  0.942846  0.828466  1
  C  C21  1  0.669611  0.619580  0.722472  1
  C  C22  1  0.310884  0.057154  0.171534  1
  C  C23  1  0.938558  0.617467  0.758360  1
  C  C24  1  0.810884  0.942846  0.328466  1
  C  C25  1  0.330389  0.380420  0.277528  1
  C  C26  1  0.328831  0.962428  0.828527  1
  C  C27  1  0.169852  0.481756  0.473082  1
  C  C28  1  0.171169  0.962428  0.328527  1
  C  C29  1  0.040769  0.057206  0.161029  1
  C  C30  1  0.803106  0.430393  0.694132  1
  C  C31  1  0.669852  0.518244  0.026918  1
  C  C32  1  0.459231  0.057206  0.661029  1
  C  C33  1  0.189116  0.057154  0.671534  1
  C  C34  1  0.830389  0.619580  0.222472  1
  C  C35  1  0.326526  0.866151  0.611805  1
  C  C36  1  0.169611  0.380420  0.777528  1
  C  C37  1  0.330148  0.481756  0.973082  1
  C  C38  1  0.540769  0.942794  0.338971  1
  C  C39  1  0.830148  0.518244  0.526918  1
  C  C40  1  0.828831  0.037572  0.671473  1
  C  C41  1  0.671169  0.037572  0.171473  1
  C  C42  1  0.173474  0.866151  0.111805  1
  C  C43  1  0.438558  0.382533  0.741640  1
  Cl  Cl44  1  0.684428  0.780633  0.514471  1
  Cl  Cl45  1  0.995809  0.228742  0.457693  1
  Cl  Cl46  1  0.004191  0.771258  0.542307  1
  Cl  Cl47  1  0.184428  0.219367  0.985529  1
  Cl  Cl48  1  0.504191  0.228742  0.957693  1
  Cl  Cl49  1  0.495809  0.771258  0.042307  1
  Cl  Cl50  1  0.815572  0.780633  0.014471  1
  Cl  Cl51  1  0.315572  0.219367  0.485529  1
  O  O52  1  0.075375  0.356125  0.747821  1
  O  O53  1  0.545509  0.081122  0.626662  1
  O  O54  1  0.098891  0.082346  0.646323  1
  O  O55  1  0.479432  0.640555  0.313161  1
  O  O56  1  0.575375  0.643875  0.752179  1
  O  O57  1  0.924625  0.643875  0.252179  1
  O  O58  1  0.160212  0.520663  0.567616  1
  O  O59  1  0.401109  0.082346  0.146323  1
  O  O60  1  0.827695  0.073882  0.597614  1
  O  O61  1  0.660212  0.479337  0.932384  1
  O  O62  1  0.327695  0.926118  0.902386  1
  O  O63  1  0.172715  0.770889  0.049857  1
  O  O64  1  0.672715  0.229111  0.450143  1
  O  O65  1  0.172305  0.926118  0.402386  1
  O  O66  1  0.827285  0.229111  0.950143  1
  O  O67  1  0.339788  0.520663  0.067616  1
  O  O68  1  0.954491  0.081122  0.126662  1
  O  O69  1  0.296981  0.660979  0.791112  1
  O  O70  1  0.454491  0.918878  0.373338  1
  O  O71  1  0.598891  0.917654  0.853677  1
  O  O72  1  0.327285  0.770889  0.549857  1
  O  O73  1  0.901109  0.917654  0.353677  1
  O  O74  1  0.839788  0.479337  0.432384  1
  O  O75  1  0.020568  0.640555  0.813161  1
  O  O76  1  0.203019  0.660979  0.291112  1
  O  O77  1  0.796981  0.339021  0.708888  1
  O  O78  1  0.703019  0.339021  0.208888  1
  O  O79  1  0.979432  0.359445  0.186839  1
  O  O80  1  0.424625  0.356125  0.247821  1
  O  O81  1  0.672305  0.073882  0.097614  1
  O  O82  1  0.045509  0.918878  0.873338  1
  O  O83  1  0.520568  0.359445  0.686839  1
