# generated using pymatgen
data_NaCa9Co(PO4)7
_symmetry_space_group_name_H-M   'P 1'
_cell_length_a   13.83801674
_cell_length_b   13.83801743
_cell_length_c   13.83801766
_cell_angle_alpha   44.38285384
_cell_angle_beta   44.38285091
_cell_angle_gamma   44.38285144
_symmetry_Int_Tables_number   1
_chemical_formula_structural   NaCa9Co(PO4)7
_chemical_formula_sum   'Na2 Ca18 Co2 P14 O56'
_cell_volume   1178.41159494
_cell_formula_units_Z   2
loop_
 _symmetry_equiv_pos_site_id
 _symmetry_equiv_pos_as_xyz
  1  'x, y, z'
loop_
 _atom_site_type_symbol
 _atom_site_label
 _atom_site_symmetry_multiplicity
 _atom_site_fract_x
 _atom_site_fract_y
 _atom_site_fract_z
 _atom_site_occupancy
  Na  Na0  1  0.688642  0.688642  0.688642  1
  Na  Na1  1  0.188642  0.188642  0.188642  1
  Ca  Ca2  1  0.576303  0.162753  0.564606  1
  Ca  Ca3  1  0.076303  0.064606  0.662753  1
  Ca  Ca4  1  0.848580  0.440969  0.409344  1
  Ca  Ca5  1  0.662753  0.076303  0.064606  1
  Ca  Ca6  1  0.348580  0.909344  0.940969  1
  Ca  Ca7  1  0.971749  0.949241  0.559391  1
  Ca  Ca8  1  0.564606  0.576303  0.162753  1
  Ca  Ca9  1  0.449241  0.471749  0.059391  1
  Ca  Ca10  1  0.064606  0.662753  0.076303  1
  Ca  Ca11  1  0.471749  0.059391  0.449241  1
  Ca  Ca12  1  0.940969  0.348580  0.909344  1
  Ca  Ca13  1  0.059391  0.449241  0.471749  1
  Ca  Ca14  1  0.409344  0.848580  0.440969  1
  Ca  Ca15  1  0.162753  0.564606  0.576303  1
  Ca  Ca16  1  0.949241  0.559391  0.971749  1
  Ca  Ca17  1  0.440969  0.409344  0.848580  1
  Ca  Ca18  1  0.909344  0.940969  0.348580  1
  Ca  Ca19  1  0.559391  0.971749  0.949241  1
  Co  Co20  1  0.002714  0.002714  0.002714  1
  Co  Co21  1  0.502714  0.502714  0.502714  1
  P  P22  1  0.684431  0.725934  0.188371  1
  P  P23  1  0.725934  0.188371  0.684431  1
  P  P24  1  0.311116  0.274167  0.825188  1
  P  P25  1  0.825188  0.311116  0.274167  1
  P  P26  1  0.768469  0.768469  0.768469  1
  P  P27  1  0.274167  0.825188  0.311116  1
  P  P28  1  0.184431  0.688371  0.225934  1
  P  P29  1  0.225934  0.184431  0.688371  1
  P  P30  1  0.268469  0.268469  0.268469  1
  P  P31  1  0.188371  0.684431  0.725934  1
  P  P32  1  0.688371  0.225934  0.184431  1
  P  P33  1  0.325188  0.774167  0.811116  1
  P  P34  1  0.811116  0.325188  0.774167  1
  P  P35  1  0.774167  0.811116  0.325188  1
  O  O36  1  0.114331  0.673693  0.689497  1
  O  O37  1  0.147253  0.589162  0.899055  1
  O  O38  1  0.637063  0.380883  0.849647  1
  O  O39  1  0.117230  0.865655  0.138230  1
  O  O40  1  0.891869  0.337872  0.612133  1
  O  O41  1  0.612133  0.891869  0.337872  1
  O  O42  1  0.399055  0.089162  0.647253  1
  O  O43  1  0.648850  0.379640  0.373067  1
  O  O44  1  0.589162  0.899055  0.147253  1
  O  O45  1  0.617230  0.638230  0.365655  1
  O  O46  1  0.647253  0.399055  0.089162  1
  O  O47  1  0.614331  0.189497  0.173693  1
  O  O48  1  0.112133  0.837872  0.391869  1
  O  O49  1  0.852446  0.417520  0.756286  1
  O  O50  1  0.337872  0.612133  0.891869  1
  O  O51  1  0.638230  0.365655  0.617230  1
  O  O52  1  0.849647  0.637063  0.380883  1
  O  O53  1  0.111275  0.392619  0.260265  1
  O  O54  1  0.137063  0.349647  0.880883  1
  O  O55  1  0.173693  0.614331  0.189497  1
  O  O56  1  0.417520  0.756286  0.852446  1
  O  O57  1  0.673693  0.689497  0.114331  1
  O  O58  1  0.354216  0.630988  0.172659  1
  O  O59  1  0.672659  0.130988  0.854216  1
  O  O60  1  0.373067  0.648850  0.379640  1
  O  O61  1  0.899055  0.147253  0.589162  1
  O  O62  1  0.879640  0.148850  0.873067  1
  O  O63  1  0.892619  0.611275  0.760265  1
  O  O64  1  0.880883  0.137063  0.349647  1
  O  O65  1  0.611275  0.760265  0.892619  1
  O  O66  1  0.865655  0.138230  0.117230  1
  O  O67  1  0.256286  0.917520  0.352446  1
  O  O68  1  0.089162  0.647253  0.399055  1
  O  O69  1  0.630988  0.172659  0.354216  1
  O  O70  1  0.130988  0.854216  0.672659  1
  O  O71  1  0.809929  0.809929  0.809929  1
  O  O72  1  0.365655  0.617230  0.638230  1
  O  O73  1  0.689497  0.114331  0.673693  1
  O  O74  1  0.873067  0.879640  0.148850  1
  O  O75  1  0.138230  0.117230  0.865655  1
  O  O76  1  0.392619  0.260265  0.111275  1
  O  O77  1  0.760265  0.892619  0.611275  1
  O  O78  1  0.391869  0.112133  0.837872  1
  O  O79  1  0.349647  0.880883  0.137063  1
  O  O80  1  0.854216  0.672659  0.130988  1
  O  O81  1  0.172659  0.354216  0.630988  1
  O  O82  1  0.148850  0.873067  0.879640  1
  O  O83  1  0.189497  0.173693  0.614331  1
  O  O84  1  0.917520  0.352446  0.256286  1
  O  O85  1  0.260265  0.111275  0.392619  1
  O  O86  1  0.756286  0.852446  0.417520  1
  O  O87  1  0.380883  0.849647  0.637063  1
  O  O88  1  0.352446  0.256286  0.917520  1
  O  O89  1  0.837872  0.391869  0.112133  1
  O  O90  1  0.309929  0.309929  0.309929  1
  O  O91  1  0.379640  0.373067  0.648850  1
