# generated using pymatgen
data_CsSO3F
_symmetry_space_group_name_H-M   'P 1'
_cell_length_a   8.21275635
_cell_length_b   7.90822270
_cell_length_c   8.28359985
_cell_angle_alpha   90.00000000
_cell_angle_beta   90.00000000
_cell_angle_gamma   114.15851501
_symmetry_Int_Tables_number   1
_chemical_formula_structural   CsSO3F
_chemical_formula_sum   'Cs4 S4 O12 F4'
_cell_volume   490.88544782
_cell_formula_units_Z   4
loop_
 _symmetry_equiv_pos_site_id
 _symmetry_equiv_pos_as_xyz
  1  'x, y, z'
loop_
 _atom_site_type_symbol
 _atom_site_label
 _atom_site_symmetry_multiplicity
 _atom_site_fract_x
 _atom_site_fract_y
 _atom_site_fract_z
 _atom_site_occupancy
  Cs  Cs0  1  0.281731  0.276372  0.379095  1
  Cs  Cs1  1  0.218269  0.723628  0.879095  1
  Cs  Cs2  1  0.781731  0.276372  0.120905  1
  Cs  Cs3  1  0.718269  0.723628  0.620905  1
  S  S4  1  0.213491  0.742160  0.383137  1
  S  S5  1  0.786509  0.257840  0.616863  1
  S  S6  1  0.713491  0.742160  0.116863  1
  S  S7  1  0.286509  0.257840  0.883137  1
  O  O8  1  0.900715  0.173752  0.553427  1
  O  O9  1  0.599285  0.826248  0.053427  1
  O  O10  1  0.861049  0.393871  0.744320  1
  O  O11  1  0.138951  0.606129  0.255680  1
  O  O12  1  0.682289  0.306009  0.497388  1
  O  O13  1  0.317711  0.693991  0.502612  1
  O  O14  1  0.817711  0.693991  0.997388  1
  O  O15  1  0.099285  0.826248  0.446573  1
  O  O16  1  0.400715  0.173752  0.946573  1
  O  O17  1  0.638951  0.606129  0.244320  1
  O  O18  1  0.361049  0.393871  0.755680  1
  O  O19  1  0.182289  0.306009  0.002612  1
  F  F20  1  0.865576  0.918538  0.214294  1
  F  F21  1  0.634424  0.081462  0.714294  1
  F  F22  1  0.365576  0.918538  0.285706  1
  F  F23  1  0.134424  0.081462  0.785706  1
