# generated using pymatgen
data_Ca11N8
_symmetry_space_group_name_H-M   'P 1'
_cell_length_a   3.65894494
_cell_length_b   13.94899210
_cell_length_c   13.94905202
_cell_angle_alpha   90.00366070
_cell_angle_beta   89.99997299
_cell_angle_gamma   90.00006962
_symmetry_Int_Tables_number   1
_chemical_formula_structural   Ca11N8
_chemical_formula_sum   'Ca22 N16'
_cell_volume   711.94000186
_cell_formula_units_Z   2
loop_
 _symmetry_equiv_pos_site_id
 _symmetry_equiv_pos_as_xyz
  1  'x, y, z'
loop_
 _atom_site_type_symbol
 _atom_site_label
 _atom_site_symmetry_multiplicity
 _atom_site_fract_x
 _atom_site_fract_y
 _atom_site_fract_z
 _atom_site_occupancy
  Ca  Ca0  1  0.000002  0.122378  0.619294  1
  Ca  Ca1  1  0.000001  0.171822  0.171647  1
  Ca  Ca2  1  0.999996  0.469634  0.288815  1
  Ca  Ca3  1  0.000002  0.530171  0.711226  1
  Ca  Ca4  1  0.500003  0.328225  0.671743  1
  Ca  Ca5  1  0.500001  0.377681  0.119186  1
  Ca  Ca6  1  0.499998  0.622214  0.880723  1
  Ca  Ca7  1  0.999999  0.877815  0.380866  1
  Ca  Ca8  1  0.499998  0.211243  0.969650  1
  Ca  Ca9  1  0.500003  0.788786  0.030152  1
  Ca  Ca10  1  0.000000  0.828419  0.828242  1
  Ca  Ca11  1  0.000002  0.288766  0.469753  1
  Ca  Ca12  1  0.499999  0.969880  0.211225  1
  Ca  Ca13  1  0.500002  0.880861  0.622275  1
  Ca  Ca14  1  0.499999  0.119323  0.377740  1
  Ca  Ca15  1  -0.000001  0.000038  0.000008  1
  Ca  Ca16  1  0.000000  0.619098  0.122203  1
  Ca  Ca17  1  0.999996  0.711175  0.530293  1
  Ca  Ca18  1  0.999998  0.380669  0.877644  1
  Ca  Ca19  1  0.499999  0.030382  0.788767  1
  Ca  Ca20  1  0.500003  0.499884  0.500104  1
  Ca  Ca21  1  0.499999  0.671571  0.328398  1
  N  N22  1  0.500001  0.913304  0.913197  1
  N  N23  1  0.999997  0.703369  0.703429  1
  N  N24  1  0.500001  0.531658  0.192398  1
  N  N25  1  0.499999  0.807607  0.468320  1
  N  N26  1  0.500003  0.203444  0.796565  1
  N  N27  1  0.000001  0.586635  0.413350  1
  N  N28  1  0.000000  0.307618  0.031643  1
  N  N29  1  0.500002  0.796618  0.203388  1
  N  N30  1  0.500001  0.086831  0.086723  1
  N  N31  1  0.999998  0.413185  0.586803  1
  N  N32  1  -0.000001  0.031766  0.307652  1
  N  N33  1  0.000003  0.968363  0.692373  1
  N  N34  1  0.999994  0.296575  0.296634  1
  N  N35  1  0.000000  0.692340  0.968241  1
  N  N36  1  0.499999  0.468246  0.807596  1
  N  N37  1  0.500000  0.192407  0.531732  1
