# generated using pymatgen
data_Sr16Fe16O41
_symmetry_space_group_name_H-M   'P 1'
_cell_length_a   5.63752966
_cell_length_b   5.61993668
_cell_length_c   44.86440657
_cell_angle_alpha   60.25476158
_cell_angle_beta   59.81135844
_cell_angle_gamma   59.89864567
_symmetry_Int_Tables_number   1
_chemical_formula_structural   Sr16Fe16O41
_chemical_formula_sum   'Sr16 Fe16 O41'
_cell_volume   1004.79365785
_cell_formula_units_Z   1
loop_
 _symmetry_equiv_pos_site_id
 _symmetry_equiv_pos_as_xyz
  1  'x, y, z'
loop_
 _atom_site_type_symbol
 _atom_site_label
 _atom_site_symmetry_multiplicity
 _atom_site_fract_x
 _atom_site_fract_y
 _atom_site_fract_z
 _atom_site_occupancy
  Sr  Sr0  1  0.260065  0.257838  0.027845  1
  Sr  Sr1  1  0.250000  0.250000  0.156250  1
  Sr  Sr2  1  0.749586  0.752983  0.093066  1
  Sr  Sr3  1  0.239935  0.242162  0.284655  1
  Sr  Sr4  1  0.750414  0.747017  0.219434  1
  Sr  Sr5  1  0.253129  0.256951  0.403178  1
  Sr  Sr6  1  0.735414  0.743140  0.346825  1
  Sr  Sr7  1  0.253532  0.253492  0.530424  1
  Sr  Sr8  1  0.759367  0.757776  0.465297  1
  Sr  Sr9  1  0.250000  0.250000  0.656250  1
  Sr  Sr10  1  0.246468  0.246508  0.782076  1
  Sr  Sr11  1  0.751578  0.751812  0.593111  1
  Sr  Sr12  1  0.748422  0.748188  0.719389  1
  Sr  Sr13  1  0.246871  0.243049  0.909322  1
  Sr  Sr14  1  0.740633  0.742224  0.847203  1
  Sr  Sr15  1  0.764586  0.756860  0.965675  1
  Fe  Fe16  1  0.973788  0.022276  0.997070  1
  Fe  Fe17  1  0.980531  0.021113  0.122094  1
  Fe  Fe18  1  0.519991  0.482215  0.064489  1
  Fe  Fe19  1  0.519469  0.478887  0.190406  1
  Fe  Fe20  1  0.980009  0.017785  0.248011  1
  Fe  Fe21  1  0.526212  0.477724  0.315430  1
  Fe  Fe22  1  0.005297  0.999939  0.375014  1
  Fe  Fe23  1  0.527167  0.522091  0.434609  1
  Fe  Fe24  1  0.981702  0.981823  0.501945  1
  Fe  Fe25  1  0.520871  0.520598  0.559492  1
  Fe  Fe26  1  0.980359  0.980539  0.627339  1
  Fe  Fe27  1  0.519641  0.519461  0.685161  1
  Fe  Fe28  1  0.979129  0.979402  0.753008  1
  Fe  Fe29  1  0.972833  0.977909  0.877891  1
  Fe  Fe30  1  0.518298  0.518177  0.810555  1
  Fe  Fe31  1  0.494703  0.500061  0.937486  1
  O  O32  1  0.251520  0.247769  0.094008  1
  O  O33  1  0.748252  0.252978  0.030815  1
  O  O34  1  0.248646  0.744339  0.094772  1
  O  O35  1  0.747034  0.250310  0.093875  1
  O  O36  1  0.248480  0.252231  0.218492  1
  O  O37  1  0.734072  0.758426  0.032012  1
  O  O38  1  0.750000  0.250000  0.156250  1
  O  O39  1  0.251354  0.755661  0.217728  1
  O  O40  1  0.752966  0.249690  0.218625  1
  O  O41  1  0.750000  0.750000  0.156250  1
  O  O42  1  0.236418  0.273314  0.342378  1
  O  O43  1  0.751748  0.247022  0.281685  1
  O  O44  1  0.238758  0.777943  0.337437  1
  O  O45  1  0.740647  0.258716  0.346527  1
  O  O46  1  0.765928  0.741574  0.280488  1
  O  O47  1  0.247988  0.726376  0.407812  1
  O  O48  1  0.715283  0.221601  0.412742  1
  O  O49  1  0.252115  0.752244  0.468448  1
  O  O50  1  0.750961  0.258393  0.469628  1
  O  O51  1  0.770918  0.740629  0.403641  1
  O  O52  1  0.248046  0.748391  0.531511  1
  O  O53  1  0.749291  0.243463  0.532344  1
  O  O54  1  0.249880  0.749006  0.593733  1
  O  O55  1  0.748797  0.250369  0.593916  1
  O  O56  1  0.751543  0.749998  0.531526  1
  O  O57  1  0.250000  0.750000  0.656250  1
  O  O58  1  0.750000  0.250000  0.656250  1
  O  O59  1  0.250120  0.750994  0.718767  1
  O  O60  1  0.251954  0.751609  0.780989  1
  O  O61  1  0.750000  0.750000  0.656250  1
  O  O62  1  0.751203  0.249631  0.718584  1
  O  O63  1  0.750709  0.256537  0.780156  1
  O  O64  1  0.247885  0.747756  0.844052  1
  O  O65  1  0.748457  0.750002  0.780974  1
  O  O66  1  0.252012  0.773624  0.904688  1
  O  O67  1  0.263582  0.226686  0.970122  1
  O  O68  1  0.749039  0.241607  0.842872  1
  O  O69  1  0.784717  0.278399  0.899758  1
  O  O70  1  0.261242  0.722057  0.975063  1
  O  O71  1  0.729082  0.759371  0.908859  1
  O  O72  1  0.759353  0.241284  0.965973  1
