# generated using pymatgen
data_K5CeFe2(NO2)12
_symmetry_space_group_name_H-M   'P 1'
_cell_length_a   10.50445578
_cell_length_b   10.50445578
_cell_length_c   10.50445578
_cell_angle_alpha   90.00000000
_cell_angle_beta   90.00000000
_cell_angle_gamma   90.00000000
_symmetry_Int_Tables_number   1
_chemical_formula_structural   K5CeFe2(NO2)12
_chemical_formula_sum   'K10 Ce2 Fe4 N24 O48'
_cell_volume   1159.09937472
_cell_formula_units_Z   2
loop_
 _symmetry_equiv_pos_site_id
 _symmetry_equiv_pos_as_xyz
  1  'x, y, z'
loop_
 _atom_site_type_symbol
 _atom_site_label
 _atom_site_symmetry_multiplicity
 _atom_site_fract_x
 _atom_site_fract_y
 _atom_site_fract_z
 _atom_site_occupancy
  K  K0  1  0.500000  0.500000  0.000000  1
  K  K1  1  0.500000  0.000000  0.500000  1
  K  K2  1  0.250000  0.750000  0.750000  1
  K  K3  1  0.750000  0.250000  0.250000  1
  K  K4  1  0.750000  0.250000  0.750000  1
  K  K5  1  0.000000  0.000000  0.000000  1
  K  K6  1  0.750000  0.750000  0.250000  1
  K  K7  1  0.250000  0.750000  0.250000  1
  K  K8  1  0.000000  0.500000  0.500000  1
  K  K9  1  0.250000  0.250000  0.750000  1
  Ce  Ce10  1  0.250000  0.250000  0.250000  1
  Ce  Ce11  1  0.750000  0.750000  0.750000  1
  Fe  Fe12  1  0.000000  0.000000  0.500000  1
  Fe  Fe13  1  0.500000  0.000000  0.000000  1
  Fe  Fe14  1  0.000000  0.500000  0.000000  1
  Fe  Fe15  1  0.500000  0.500000  0.500000  1
  N  N16  1  0.502642  0.505279  0.687905  1
  N  N17  1  0.812095  0.997358  0.505279  1
  N  N18  1  0.687905  0.997358  0.994721  1
  N  N19  1  0.505279  0.812095  0.997358  1
  N  N20  1  0.997358  0.994721  0.687905  1
  N  N21  1  0.005279  0.312095  0.002642  1
  N  N22  1  0.312095  0.002642  0.005279  1
  N  N23  1  0.812095  0.502642  0.994721  1
  N  N24  1  0.505279  0.687905  0.502642  1
  N  N25  1  0.002642  0.494721  0.187905  1
  N  N26  1  0.994721  0.812095  0.502642  1
  N  N27  1  0.497358  0.494721  0.312095  1
  N  N28  1  0.502642  0.994721  0.812095  1
  N  N29  1  0.005279  0.187905  0.497358  1
  N  N30  1  0.687905  0.502642  0.505279  1
  N  N31  1  0.494721  0.187905  0.002642  1
  N  N32  1  0.494721  0.312095  0.497358  1
  N  N33  1  0.187905  0.002642  0.494721  1
  N  N34  1  0.994721  0.687905  0.997358  1
  N  N35  1  0.997358  0.505279  0.812095  1
  N  N36  1  0.497358  0.005279  0.187905  1
  N  N37  1  0.002642  0.005279  0.312095  1
  N  N38  1  0.187905  0.497358  0.005279  1
  N  N39  1  0.312095  0.497358  0.494721  1
  O  O40  1  0.505766  0.250731  0.902337  1
  O  O41  1  0.005766  0.750731  0.097663  1
  O  O42  1  0.402337  0.005766  0.749269  1
  O  O43  1  0.249269  0.597663  0.505766  1
  O  O44  1  0.902337  0.505766  0.250731  1
  O  O45  1  0.249805  0.105917  0.477149  1
  O  O46  1  0.394083  0.477149  0.250195  1
  O  O47  1  0.977149  0.750195  0.605917  1
  O  O48  1  0.597663  0.994234  0.250731  1
  O  O49  1  0.022851  0.249805  0.394083  1
  O  O50  1  0.097663  0.005766  0.750731  1
  O  O51  1  0.394083  0.022851  0.249805  1
  O  O52  1  0.749269  0.402337  0.005766  1
  O  O53  1  0.894083  0.977149  0.749805  1
  O  O54  1  0.022851  0.250195  0.105917  1
  O  O55  1  0.902337  0.994234  0.249269  1
  O  O56  1  0.894083  0.522851  0.750195  1
  O  O57  1  0.250731  0.902337  0.505766  1
  O  O58  1  0.097663  0.494234  0.749269  1
  O  O59  1  0.105917  0.022851  0.250195  1
  O  O60  1  0.522851  0.750195  0.894083  1
  O  O61  1  0.250731  0.597663  0.994234  1
  O  O62  1  0.249805  0.394083  0.022851  1
  O  O63  1  0.749269  0.097663  0.494234  1
  O  O64  1  0.005766  0.749269  0.402337  1
  O  O65  1  0.250195  0.394083  0.477149  1
  O  O66  1  0.402337  0.494234  0.750731  1
  O  O67  1  0.994234  0.250731  0.597663  1
  O  O68  1  0.597663  0.505766  0.249269  1
  O  O69  1  0.522851  0.749805  0.605917  1
  O  O70  1  0.750195  0.605917  0.977149  1
  O  O71  1  0.605917  0.977149  0.750195  1
  O  O72  1  0.249269  0.902337  0.994234  1
  O  O73  1  0.749805  0.894083  0.977149  1
  O  O74  1  0.750731  0.097663  0.005766  1
  O  O75  1  0.505766  0.249269  0.597663  1
  O  O76  1  0.750195  0.894083  0.522851  1
  O  O77  1  0.750731  0.402337  0.494234  1
  O  O78  1  0.994234  0.249269  0.902337  1
  O  O79  1  0.494234  0.749269  0.097663  1
  O  O80  1  0.105917  0.477149  0.249805  1
  O  O81  1  0.250195  0.105917  0.022851  1
  O  O82  1  0.477149  0.250195  0.394083  1
  O  O83  1  0.605917  0.522851  0.749805  1
  O  O84  1  0.494234  0.750731  0.402337  1
  O  O85  1  0.977149  0.749805  0.894083  1
  O  O86  1  0.749805  0.605917  0.522851  1
  O  O87  1  0.477149  0.249805  0.105917  1
