# generated using pymatgen
data_Re3S4Cl
_symmetry_space_group_name_H-M   'P 1'
_cell_length_a   6.46721785
_cell_length_b   10.12110891
_cell_length_c   11.53301676
_cell_angle_alpha   90.00000000
_cell_angle_beta   90.00000000
_cell_angle_gamma   100.45642680
_symmetry_Int_Tables_number   1
_chemical_formula_structural   Re3S4Cl
_chemical_formula_sum   'Re12 S16 Cl4'
_cell_volume   742.36197470
_cell_formula_units_Z   4
loop_
 _symmetry_equiv_pos_site_id
 _symmetry_equiv_pos_as_xyz
  1  'x, y, z'
loop_
 _atom_site_type_symbol
 _atom_site_label
 _atom_site_symmetry_multiplicity
 _atom_site_fract_x
 _atom_site_fract_y
 _atom_site_fract_z
 _atom_site_occupancy
  Re  Re0  1  0.753724  0.065298  0.021945  1
  Re  Re1  1  0.246276  0.934702  0.978055  1
  Re  Re2  1  0.407465  0.438501  0.646867  1
  Re  Re3  1  0.124606  0.162929  0.933843  1
  Re  Re4  1  0.375394  0.337071  0.433843  1
  Re  Re5  1  0.907465  0.938501  0.853133  1
  Re  Re6  1  0.592535  0.561499  0.353133  1
  Re  Re7  1  0.624606  0.662929  0.566157  1
  Re  Re8  1  0.875394  0.837071  0.066157  1
  Re  Re9  1  0.092535  0.061499  0.146867  1
  Re  Re10  1  0.253724  0.565298  0.478055  1
  Re  Re11  1  0.746276  0.434702  0.521945  1
  S  S12  1  0.195834  0.845238  0.172006  1
  S  S13  1  0.529768  0.233787  0.592911  1
  S  S14  1  0.925656  0.660574  0.441152  1
  S  S15  1  0.029768  0.733787  0.907089  1
  S  S16  1  0.304166  0.654762  0.672006  1
  S  S17  1  0.970232  0.266213  0.092911  1
  S  S18  1  0.246039  0.470327  0.286078  1
  S  S19  1  0.695834  0.345238  0.327994  1
  S  S20  1  0.746039  0.970327  0.213922  1
  S  S21  1  0.753961  0.529673  0.713922  1
  S  S22  1  0.470232  0.766213  0.407089  1
  S  S23  1  0.425656  0.160574  0.058848  1
  S  S24  1  0.804166  0.154762  0.827994  1
  S  S25  1  0.574344  0.839426  0.941152  1
  S  S26  1  0.074344  0.339426  0.558848  1
  S  S27  1  0.253961  0.029673  0.786078  1
  Cl  Cl28  1  0.709194  0.613696  0.146770  1
  Cl  Cl29  1  0.290806  0.386304  0.853230  1
  Cl  Cl30  1  0.790806  0.886304  0.646770  1
  Cl  Cl31  1  0.209194  0.113696  0.353230  1
