# generated using pymatgen
data_Te4As2S5(OF6)2
_symmetry_space_group_name_H-M   'P 1'
_cell_length_a   10.92354330
_cell_length_b   13.25940061
_cell_length_c   15.62912506
_cell_angle_alpha   90.00000000
_cell_angle_beta   90.00000000
_cell_angle_gamma   107.93801404
_symmetry_Int_Tables_number   1
_chemical_formula_structural   Te4As2S5(OF6)2
_chemical_formula_sum   'Te16 As8 S20 O8 F48'
_cell_volume   2153.67813994
_cell_formula_units_Z   4
loop_
 _symmetry_equiv_pos_site_id
 _symmetry_equiv_pos_as_xyz
  1  'x, y, z'
loop_
 _atom_site_type_symbol
 _atom_site_label
 _atom_site_symmetry_multiplicity
 _atom_site_fract_x
 _atom_site_fract_y
 _atom_site_fract_z
 _atom_site_occupancy
  Te  Te0  1  0.243769  0.256917  0.407559  1
  Te  Te1  1  0.756231  0.243083  0.907559  1
  Te  Te2  1  0.921285  0.142236  0.030368  1
  Te  Te3  1  0.756231  0.743083  0.592441  1
  Te  Te4  1  0.921285  0.642236  0.469632  1
  Te  Te5  1  0.243769  0.756917  0.092441  1
  Te  Te6  1  0.407679  0.363848  0.624913  1
  Te  Te7  1  0.163147  0.117553  0.626599  1
  Te  Te8  1  0.407679  0.863848  0.875087  1
  Te  Te9  1  0.836853  0.882447  0.373401  1
  Te  Te10  1  0.078715  0.857764  0.969632  1
  Te  Te11  1  0.592321  0.636152  0.375087  1
  Te  Te12  1  0.163147  0.617553  0.873401  1
  Te  Te13  1  0.592321  0.136152  0.124913  1
  Te  Te14  1  0.078715  0.357764  0.530368  1
  Te  Te15  1  0.836853  0.382447  0.126599  1
  As  As16  1  0.747847  0.192811  0.387270  1
  As  As17  1  0.815139  0.946767  0.801622  1
  As  As18  1  0.815139  0.446767  0.698378  1
  As  As19  1  0.252153  0.307189  0.887270  1
  As  As20  1  0.184861  0.553233  0.301622  1
  As  As21  1  0.252153  0.807189  0.612730  1
  As  As22  1  0.184861  0.053233  0.198378  1
  As  As23  1  0.747847  0.692811  0.112730  1
  S  S24  1  0.738149  0.033978  0.109752  1
  S  S25  1  0.176242  0.585574  0.023762  1
  S  S26  1  0.445556  0.350006  0.474075  1
  S  S27  1  0.261851  0.966022  0.890248  1
  S  S28  1  0.823758  0.414426  0.976238  1
  S  S29  1  0.554444  0.149994  0.974075  1
  S  S30  1  0.439581  0.400577  0.167752  1
  S  S31  1  0.738149  0.533978  0.390248  1
  S  S32  1  0.554444  0.649994  0.525925  1
  S  S33  1  0.560419  0.099423  0.667752  1
  S  S34  1  0.261851  0.466022  0.609752  1
  S  S35  1  0.176242  0.085574  0.476238  1
  S  S36  1  0.439581  0.900577  0.332248  1
  S  S37  1  0.445556  0.850006  0.025924  1
  S  S38  1  0.996859  0.701864  0.883183  1
  S  S39  1  0.560419  0.599423  0.832248  1
  S  S40  1  0.996859  0.201864  0.616817  1
  S  S41  1  0.003141  0.298136  0.116817  1
  S  S42  1  0.003141  0.798136  0.383183  1
  S  S43  1  0.823758  0.914426  0.523762  1
  O  O44  1  0.459521  0.406439  0.260027  1
  O  O45  1  0.459521  0.906439  0.239973  1
  O  O46  1  0.540479  0.593561  0.739973  1
  O  O47  1  0.515811  0.347448  0.118818  1
  O  O48  1  0.540479  0.093561  0.760027  1
  O  O49  1  0.515811  0.847448  0.381182  1
  O  O50  1  0.484189  0.152552  0.618818  1
  O  O51  1  0.484189  0.652552  0.881182  1
  F  F52  1  0.774404  0.808966  0.050365  1
  F  F53  1  0.917957  0.931150  0.718029  1
  F  F54  1  0.273665  0.423120  0.822886  1
  F  F55  1  0.950513  0.989183  0.872256  1
  F  F56  1  0.582256  0.678162  0.123741  1
  F  F57  1  0.842264  0.581111  0.728795  1
  F  F58  1  0.210459  0.686829  0.333288  1
  F  F59  1  0.917957  0.431150  0.781971  1
  F  F60  1  0.082043  0.068850  0.281971  1
  F  F61  1  0.950513  0.489183  0.627744  1
  F  F62  1  0.282539  0.886842  0.519670  1
  F  F63  1  0.220101  0.228237  0.791954  1
  F  F64  1  0.082043  0.568850  0.218029  1
  F  F65  1  0.417743  0.321838  0.876259  1
  F  F66  1  0.225596  0.191034  0.949635  1
  F  F67  1  0.225596  0.691034  0.550365  1
  F  F68  1  0.779899  0.271763  0.291954  1
  F  F69  1  0.282539  0.386842  0.980330  1
  F  F70  1  0.417743  0.821838  0.623741  1
  F  F71  1  0.916287  0.206833  0.395131  1
  F  F72  1  0.680427  0.404783  0.767968  1
  F  F73  1  0.210459  0.186829  0.166712  1
  F  F74  1  0.273665  0.923120  0.677114  1
  F  F75  1  0.789541  0.313171  0.666712  1
  F  F76  1  0.779899  0.771763  0.208046  1
  F  F77  1  0.582256  0.178162  0.376259  1
  F  F78  1  0.049487  0.510817  0.372256  1
  F  F79  1  0.049487  0.010816  0.127744  1
  F  F80  1  0.842264  0.081111  0.771205  1
  F  F81  1  0.284967  0.035631  0.113470  1
  F  F82  1  0.717461  0.613158  0.019670  1
  F  F83  1  0.715033  0.464369  0.613470  1
  F  F84  1  0.715033  0.964369  0.886530  1
  F  F85  1  0.157736  0.918889  0.228795  1
  F  F86  1  0.083713  0.793167  0.604869  1
  F  F87  1  0.319573  0.595217  0.232032  1
  F  F88  1  0.284967  0.535631  0.386530  1
  F  F89  1  0.774404  0.308966  0.449635  1
  F  F90  1  0.157736  0.418889  0.271205  1
  F  F91  1  0.916287  0.706833  0.104869  1
  F  F92  1  0.726335  0.576880  0.177114  1
  F  F93  1  0.083713  0.293167  0.895131  1
  F  F94  1  0.717461  0.113158  0.480330  1
  F  F95  1  0.789541  0.813171  0.833288  1
  F  F96  1  0.220101  0.728237  0.708046  1
  F  F97  1  0.726335  0.076880  0.322886  1
  F  F98  1  0.680427  0.904783  0.732032  1
  F  F99  1  0.319573  0.095217  0.267968  1
