# generated using pymatgen
data_Dy3Ge4
_symmetry_space_group_name_H-M   'P 1'
_cell_length_a   4.04871343
_cell_length_b   5.72269333
_cell_length_c   14.30488491
_cell_angle_alpha   89.98722959
_cell_angle_beta   90.03319683
_cell_angle_gamma   110.75517584
_symmetry_Int_Tables_number   1
_chemical_formula_structural   Dy3Ge4
_chemical_formula_sum   'Dy6 Ge8'
_cell_volume   309.92838326
_cell_formula_units_Z   2
loop_
 _symmetry_equiv_pos_site_id
 _symmetry_equiv_pos_as_xyz
  1  'x, y, z'
loop_
 _atom_site_type_symbol
 _atom_site_label
 _atom_site_symmetry_multiplicity
 _atom_site_fract_x
 _atom_site_fract_y
 _atom_site_fract_z
 _atom_site_occupancy
  Dy  Dy0  1  0.665232  0.329727  0.096996  1
  Dy  Dy1  1  0.340802  0.679727  0.903015  1
  Dy  Dy2  1  0.660759  0.320080  0.403865  1
  Dy  Dy3  1  0.336488  0.680553  0.597607  1
  Dy  Dy4  1  0.945216  0.890011  0.251736  1
  Dy  Dy5  1  0.056105  0.114347  0.749227  1
  Ge  Ge6  1  0.219237  0.431517  0.250594  1
  Ge  Ge7  1  0.781646  0.571523  0.750154  1
  Ge  Ge8  1  0.372441  0.746835  0.110030  1
  Ge  Ge9  1  0.001585  0.002182  0.001398  1
  Ge  Ge10  1  0.369330  0.737689  0.391869  1
  Ge  Ge11  1  0.631971  0.260257  0.890767  1
  Ge  Ge12  1  0.994813  0.994369  0.498429  1
  Ge  Ge13  1  0.628898  0.263195  0.609117  1
