# generated using pymatgen
data_Rb3Nb2AsSe11
_symmetry_space_group_name_H-M   'P 1'
_cell_length_a   10.24509964
_cell_length_b   10.38301790
_cell_length_c   10.38301779
_cell_angle_alpha   83.64248899
_cell_angle_beta   83.62001234
_cell_angle_gamma   83.62001303
_symmetry_Int_Tables_number   1
_chemical_formula_structural   Rb3Nb2AsSe11
_chemical_formula_sum   'Rb6 Nb4 As2 Se22'
_cell_volume   1085.42997179
_cell_formula_units_Z   2
loop_
 _symmetry_equiv_pos_site_id
 _symmetry_equiv_pos_as_xyz
  1  'x, y, z'
loop_
 _atom_site_type_symbol
 _atom_site_label
 _atom_site_symmetry_multiplicity
 _atom_site_fract_x
 _atom_site_fract_y
 _atom_site_fract_z
 _atom_site_occupancy
  Rb  Rb0  1  0.931121  0.356394  0.511954  1
  Rb  Rb1  1  0.014735  0.147953  0.988851  1
  Rb  Rb2  1  0.685458  0.887422  0.752277  1
  Rb  Rb3  1  0.431121  0.511954  0.356394  1
  Rb  Rb4  1  0.185458  0.752277  0.887422  1
  Rb  Rb5  1  0.514735  0.988851  0.147953  1
  Nb  Nb6  1  0.413653  0.247915  0.794271  1
  Nb  Nb7  1  0.913653  0.794271  0.247915  1
  Nb  Nb8  1  0.099249  0.909545  0.497929  1
  Nb  Nb9  1  0.599249  0.497929  0.909545  1
  As  As10  1  0.860051  0.448806  0.127533  1
  As  As11  1  0.360051  0.127533  0.448806  1
  Se  Se12  1  0.159509  0.664097  0.575210  1
  Se  Se13  1  0.713840  0.896291  0.399393  1
  Se  Se14  1  0.899002  0.021240  0.351868  1
  Se  Se15  1  0.758472  0.599911  0.279827  1
  Se  Se16  1  0.667721  0.233538  0.823586  1
  Se  Se17  1  0.852163  0.533652  0.902686  1
  Se  Se18  1  0.659509  0.575210  0.664097  1
  Se  Se19  1  0.352163  0.902686  0.533652  1
  Se  Se20  1  0.167721  0.823586  0.233538  1
  Se  Se21  1  0.855413  0.870574  0.034710  1
  Se  Se22  1  0.104802  0.609443  0.220086  1
  Se  Se23  1  0.014482  0.021805  0.680901  1
  Se  Se24  1  0.673195  0.322007  0.109890  1
  Se  Se25  1  0.438274  0.524044  0.726751  1
  Se  Se26  1  0.355413  0.034710  0.870574  1
  Se  Se27  1  0.938274  0.726751  0.524044  1
  Se  Se28  1  0.213840  0.399393  0.896291  1
  Se  Se29  1  0.604802  0.220086  0.609443  1
  Se  Se30  1  0.173195  0.109890  0.322007  1
  Se  Se31  1  0.399002  0.351868  0.021240  1
  Se  Se32  1  0.258472  0.279827  0.599911  1
  Se  Se33  1  0.514482  0.680901  0.021805  1
