# generated using pymatgen
data_Pr2Pb17Se20
_symmetry_space_group_name_H-M   'P 1'
_cell_length_a   4.40820968
_cell_length_b   43.96682436
_cell_length_c   11.62097438
_cell_angle_alpha   40.92878157
_cell_angle_beta   55.31960213
_cell_angle_gamma   59.91323835
_symmetry_Int_Tables_number   1
_chemical_formula_structural   Pr2Pb17Se20
_chemical_formula_sum   'Pr2 Pb17 Se20'
_cell_volume   1202.68422880
_cell_formula_units_Z   1
loop_
 _symmetry_equiv_pos_site_id
 _symmetry_equiv_pos_as_xyz
  1  'x, y, z'
loop_
 _atom_site_type_symbol
 _atom_site_label
 _atom_site_symmetry_multiplicity
 _atom_site_fract_x
 _atom_site_fract_y
 _atom_site_fract_z
 _atom_site_occupancy
  Pr  Pr0  1  0.983320  0.003238  0.000326  1
  Pr  Pr1  1  0.016680  0.196762  0.999674  1
  Pb  Pb2  1  0.007000  0.049436  0.497214  1
  Pb  Pb3  1  0.989074  0.301033  0.003842  1
  Pb  Pb4  1  0.993000  0.150564  0.502786  1
  Pb  Pb5  1  0.000712  0.397885  0.006574  1
  Pb  Pb6  1  0.995164  0.244651  0.521053  1
  Pb  Pb7  1  0.001851  0.501762  0.992894  1
  Pb  Pb8  1  0.003765  0.352128  0.490397  1
  Pb  Pb9  1  0.000000  0.600000  0.000000  1
  Pb  Pb10  1  0.995504  0.450638  0.500871  1
  Pb  Pb11  1  0.999708  0.548524  0.505115  1
  Pb  Pb12  1  0.998149  0.698238  0.007106  1
  Pb  Pb13  1  0.999288  0.802115  0.993426  1
  Pb  Pb14  1  0.000292  0.651476  0.494885  1
  Pb  Pb15  1  0.004496  0.749362  0.499129  1
  Pb  Pb16  1  0.010926  0.898967  0.996158  1
  Pb  Pb17  1  0.996235  0.847872  0.509603  1
  Pb  Pb18  1  0.004836  0.955349  0.478947  1
  Se  Se19  1  0.512056  0.020682  0.256354  1
  Se  Se20  1  0.485074  0.129652  0.244443  1
  Se  Se21  1  0.519106  0.222935  0.244146  1
  Se  Se22  1  0.514926  0.070348  0.755557  1
  Se  Se23  1  0.487944  0.179318  0.743646  1
  Se  Se24  1  0.502646  0.328468  0.236676  1
  Se  Se25  1  0.498679  0.423329  0.256450  1
  Se  Se26  1  0.500254  0.269903  0.766822  1
  Se  Se27  1  0.501533  0.524816  0.249590  1
  Se  Se28  1  0.505313  0.374288  0.748831  1
  Se  Se29  1  0.500729  0.477307  0.741825  1
  Se  Se30  1  0.501033  0.626550  0.244144  1
  Se  Se31  1  0.498967  0.573450  0.755856  1
  Se  Se32  1  0.499271  0.722693  0.258175  1
  Se  Se33  1  0.498467  0.675184  0.750410  1
  Se  Se34  1  0.494687  0.825712  0.251169  1
  Se  Se35  1  0.501321  0.776671  0.743550  1
  Se  Se36  1  0.499746  0.930097  0.233178  1
  Se  Se37  1  0.497354  0.871532  0.763324  1
  Se  Se38  1  0.480894  0.977065  0.755854  1
