# generated using pymatgen
data_Sr2TbIrO6
_symmetry_space_group_name_H-M   'P 1'
_cell_length_a   5.89088550
_cell_length_b   5.83309550
_cell_length_c   8.28106320
_cell_angle_alpha   90.43711990
_cell_angle_beta   90.00000000
_cell_angle_gamma   90.00000000
_symmetry_Int_Tables_number   1
_chemical_formula_structural   Sr2TbIrO6
_chemical_formula_sum   'Sr4 Tb2 Ir2 O12'
_cell_volume   284.54642163
_cell_formula_units_Z   2
loop_
 _symmetry_equiv_pos_site_id
 _symmetry_equiv_pos_as_xyz
  1  'x, y, z'
loop_
 _atom_site_type_symbol
 _atom_site_label
 _atom_site_symmetry_multiplicity
 _atom_site_fract_x
 _atom_site_fract_y
 _atom_site_fract_z
 _atom_site_occupancy
  O  O0  1  0.800273  0.270474  0.038232  1
  O  O1  1  0.300273  0.229526  0.461768  1
  O  O2  1  0.199727  0.729526  0.961768  1
  O  O3  1  0.699727  0.770474  0.538232  1
  O  O4  1  0.271446  0.196432  0.040274  1
  O  O5  1  0.771446  0.303568  0.459726  1
  O  O6  1  0.728554  0.803568  0.959726  1
  O  O7  1  0.228554  0.696432  0.540274  1
  O  O8  1  0.481454  0.573701  0.265794  1
  O  O9  1  0.981454  0.926299  0.234206  1
  O  O10  1  0.518546  0.426299  0.734206  1
  O  O11  1  0.018546  0.073701  0.765794  1
  Sr  Sr12  1  0.536441  0.008582  0.249163  1
  Sr  Sr13  1  0.036441  0.491418  0.250837  1
  Sr  Sr14  1  0.963559  0.508582  0.749163  1
  Sr  Sr15  1  0.463559  0.991418  0.750837  1
  Tb  Tb16  1  0.500000  0.500000  0.000000  1
  Tb  Tb17  1  0.000000  0.000000  0.500000  1
  Ir  Ir18  1  0.000000  0.000000  0.000000  1
  Ir  Ir19  1  0.500000  0.500000  0.500000  1
