# generated using pymatgen
data_Na2CdH4(SeO5)2
_symmetry_space_group_name_H-M   'P 1'
_cell_length_a   6.09664795
_cell_length_b   13.59348012
_cell_length_c   5.92411816
_cell_angle_alpha   90.00000000
_cell_angle_beta   106.53848482
_cell_angle_gamma   90.00000000
_symmetry_Int_Tables_number   1
_chemical_formula_structural   Na2CdH4(SeO5)2
_chemical_formula_sum   'Na4 Cd2 H8 Se4 O20'
_cell_volume   470.64769450
_cell_formula_units_Z   2
loop_
 _symmetry_equiv_pos_site_id
 _symmetry_equiv_pos_as_xyz
  1  'x, y, z'
loop_
 _atom_site_type_symbol
 _atom_site_label
 _atom_site_symmetry_multiplicity
 _atom_site_fract_x
 _atom_site_fract_y
 _atom_site_fract_z
 _atom_site_occupancy
  Na  Na0  1  0.577227  0.378370  0.748054  1
  Na  Na1  1  0.422773  0.878370  0.751946  1
  Na  Na2  1  0.422773  0.621630  0.251946  1
  Na  Na3  1  0.577227  0.121630  0.248054  1
  Cd  Cd4  1  0.000000  0.500000  0.500000  1
  Cd  Cd5  1  0.000000  0.000000  0.000000  1
  H  H6  1  0.900819  0.293001  0.503352  1
  H  H7  1  0.099181  0.793001  0.996648  1
  H  H8  1  0.099181  0.706999  0.496648  1
  H  H9  1  0.900819  0.206999  0.003352  1
  H  H10  1  0.685248  0.342932  0.323791  1
  H  H11  1  0.314752  0.842932  0.176209  1
  H  H12  1  0.314752  0.657068  0.676209  1
  H  H13  1  0.685248  0.157068  0.823791  1
  Se  Se14  1  0.236071  0.380450  0.074486  1
  Se  Se15  1  0.763929  0.880450  0.425514  1
  Se  Se16  1  0.763929  0.619550  0.925514  1
  Se  Se17  1  0.236071  0.119550  0.574486  1
  O  O18  1  0.980762  0.326571  0.012115  1
  O  O19  1  0.019238  0.826571  0.487885  1
  O  O20  1  0.019238  0.673429  0.987885  1
  O  O21  1  0.980762  0.173429  0.512115  1
  O  O22  1  0.287936  0.444488  0.328993  1
  O  O23  1  0.712064  0.944488  0.171007  1
  O  O24  1  0.712064  0.555512  0.671007  1
  O  O25  1  0.287936  0.055512  0.828993  1
  O  O26  1  0.252079  0.459749  0.859701  1
  O  O27  1  0.747921  0.959749  0.640299  1
  O  O28  1  0.747921  0.540251  0.140299  1
  O  O29  1  0.252079  0.040251  0.359701  1
  O  O30  1  0.451157  0.301050  0.096085  1
  O  O31  1  0.548843  0.801050  0.403915  1
  O  O32  1  0.548843  0.698950  0.903915  1
  O  O33  1  0.451157  0.198950  0.596085  1
  O  O34  1  0.803683  0.353513  0.477800  1
  O  O35  1  0.196317  0.853513  0.022200  1
  O  O36  1  0.196317  0.646487  0.522200  1
  O  O37  1  0.803683  0.146487  0.977800  1
