# generated using pymatgen
data_CsCrClO3
_symmetry_space_group_name_H-M   'P 1'
_cell_length_a   6.19746729
_cell_length_b   9.01225595
_cell_length_c   10.22199873
_cell_angle_alpha   90.00000000
_cell_angle_beta   90.00000000
_cell_angle_gamma   90.00000000
_symmetry_Int_Tables_number   1
_chemical_formula_structural   CsCrClO3
_chemical_formula_sum   'Cs4 Cr4 Cl4 O12'
_cell_volume   570.93094550
_cell_formula_units_Z   4
loop_
 _symmetry_equiv_pos_site_id
 _symmetry_equiv_pos_as_xyz
  1  'x, y, z'
loop_
 _atom_site_type_symbol
 _atom_site_label
 _atom_site_symmetry_multiplicity
 _atom_site_fract_x
 _atom_site_fract_y
 _atom_site_fract_z
 _atom_site_occupancy
  Cs  Cs0  1  0.750000  0.882217  0.792527  1
  Cs  Cs1  1  0.250000  0.382217  0.707473  1
  Cs  Cs2  1  0.750000  0.617783  0.292527  1
  Cs  Cs3  1  0.250000  0.117783  0.207473  1
  Cr  Cr4  1  0.250000  0.762875  0.516907  1
  Cr  Cr5  1  0.750000  0.237125  0.483093  1
  Cr  Cr6  1  0.250000  0.737125  0.016907  1
  Cr  Cr7  1  0.750000  0.262875  0.983093  1
  Cl  Cl8  1  0.250000  0.517073  0.109493  1
  Cl  Cl9  1  0.250000  0.982927  0.609493  1
  Cl  Cl10  1  0.750000  0.017073  0.390507  1
  Cl  Cl11  1  0.750000  0.482927  0.890507  1
  O  O12  1  0.750000  0.215206  0.640859  1
  O  O13  1  0.750000  0.284794  0.140859  1
  O  O14  1  0.465617  0.826387  0.062262  1
  O  O15  1  0.250000  0.715206  0.859141  1
  O  O16  1  0.965617  0.326387  0.437738  1
  O  O17  1  0.250000  0.784794  0.359141  1
  O  O18  1  0.534383  0.173613  0.937738  1
  O  O19  1  0.034383  0.673613  0.562262  1
  O  O20  1  0.465617  0.673613  0.562262  1
  O  O21  1  0.965617  0.173613  0.937738  1
  O  O22  1  0.534383  0.326387  0.437738  1
  O  O23  1  0.034383  0.826387  0.062262  1
