# generated using pymatgen
data_Yb5Cu11Sn8
_symmetry_space_group_name_H-M   'P 1'
_cell_length_a   4.42950395
_cell_length_b   9.28474060
_cell_length_c   22.80765172
_cell_angle_alpha   90.00000000
_cell_angle_beta   90.00000000
_cell_angle_gamma   90.00000000
_symmetry_Int_Tables_number   1
_chemical_formula_structural   Yb5Cu11Sn8
_chemical_formula_sum   'Yb10 Cu22 Sn16'
_cell_volume   938.00562042
_cell_formula_units_Z   2
loop_
 _symmetry_equiv_pos_site_id
 _symmetry_equiv_pos_as_xyz
  1  'x, y, z'
loop_
 _atom_site_type_symbol
 _atom_site_label
 _atom_site_symmetry_multiplicity
 _atom_site_fract_x
 _atom_site_fract_y
 _atom_site_fract_z
 _atom_site_occupancy
  Yb  Yb0  1  0.750000  0.236336  0.750000  1
  Yb  Yb1  1  0.250000  0.741183  0.038789  1
  Yb  Yb2  1  0.750000  0.258817  0.961211  1
  Yb  Yb3  1  0.750000  0.292251  0.155469  1
  Yb  Yb4  1  0.250000  0.707749  0.844531  1
  Yb  Yb5  1  0.250000  0.741183  0.461211  1
  Yb  Yb6  1  0.250000  0.707749  0.655469  1
  Yb  Yb7  1  0.750000  0.292251  0.344531  1
  Yb  Yb8  1  0.250000  0.763664  0.250000  1
  Yb  Yb9  1  0.750000  0.258817  0.538789  1
  Cu  Cu10  1  0.750000  0.464858  0.643791  1
  Cu  Cu11  1  0.750000  0.512783  0.057677  1
  Cu  Cu12  1  0.250000  0.535142  0.143791  1
  Cu  Cu13  1  0.750000  0.545884  0.250000  1
  Cu  Cu14  1  0.250000  0.025302  0.695845  1
  Cu  Cu15  1  0.750000  0.974698  0.304155  1
  Cu  Cu16  1  0.750000  0.918576  0.968908  1
  Cu  Cu17  1  0.750000  0.974208  0.860271  1
  Cu  Cu18  1  0.250000  0.025792  0.139729  1
  Cu  Cu19  1  0.250000  0.487217  0.557677  1
  Cu  Cu20  1  0.250000  0.487217  0.942323  1
  Cu  Cu21  1  0.250000  0.081424  0.468908  1
  Cu  Cu22  1  0.250000  0.081424  0.031092  1
  Cu  Cu23  1  0.750000  0.974698  0.195845  1
  Cu  Cu24  1  0.250000  0.454116  0.750000  1
  Cu  Cu25  1  0.750000  0.464858  0.856209  1
  Cu  Cu26  1  0.750000  0.974208  0.639729  1
  Cu  Cu27  1  0.750000  0.512783  0.442323  1
  Cu  Cu28  1  0.750000  0.918576  0.531092  1
  Cu  Cu29  1  0.250000  0.535142  0.356209  1
  Cu  Cu30  1  0.250000  0.025302  0.804155  1
  Cu  Cu31  1  0.250000  0.025792  0.360271  1
  Sn  Sn32  1  0.750000  0.637849  0.948393  1
  Sn  Sn33  1  0.250000  0.362151  0.051607  1
  Sn  Sn34  1  0.750000  0.697953  0.352208  1
  Sn  Sn35  1  0.750000  0.983949  0.419666  1
  Sn  Sn36  1  0.750000  0.902612  0.750000  1
  Sn  Sn37  1  0.250000  0.362151  0.448393  1
  Sn  Sn38  1  0.250000  0.016051  0.580334  1
  Sn  Sn39  1  0.250000  0.302047  0.852208  1
  Sn  Sn40  1  0.250000  0.016051  0.919666  1
  Sn  Sn41  1  0.250000  0.407217  0.250000  1
  Sn  Sn42  1  0.250000  0.302047  0.647792  1
  Sn  Sn43  1  0.250000  0.097388  0.250000  1
  Sn  Sn44  1  0.750000  0.697953  0.147792  1
  Sn  Sn45  1  0.750000  0.983949  0.080334  1
  Sn  Sn46  1  0.750000  0.592783  0.750000  1
  Sn  Sn47  1  0.750000  0.637849  0.551607  1
