# generated using pymatgen
data_H2WO5
_symmetry_space_group_name_H-M   'P 1'
_cell_length_a   12.20565594
_cell_length_b   3.94785219
_cell_length_c   12.53955695
_cell_angle_alpha   90.00000000
_cell_angle_beta   144.45345927
_cell_angle_gamma   90.00000000
_symmetry_Int_Tables_number   1
_chemical_formula_structural   H2WO5
_chemical_formula_sum   'H8 W4 O20'
_cell_volume   351.27915633
_cell_formula_units_Z   4
loop_
 _symmetry_equiv_pos_site_id
 _symmetry_equiv_pos_as_xyz
  1  'x, y, z'
loop_
 _atom_site_type_symbol
 _atom_site_label
 _atom_site_symmetry_multiplicity
 _atom_site_fract_x
 _atom_site_fract_y
 _atom_site_fract_z
 _atom_site_occupancy
  H  H0  1  0.328676  0.568621  0.184207  1
  H  H1  1  0.172582  0.302952  0.094657  1
  H  H2  1  0.671324  0.068621  0.315793  1
  H  H3  1  0.827418  0.802952  0.405343  1
  H  H4  1  0.671324  0.431379  0.815793  1
  H  H5  1  0.827418  0.697048  0.905343  1
  H  H6  1  0.172582  0.197048  0.594657  1
  H  H7  1  0.328676  0.931379  0.684207  1
  W  W8  1  0.184456  0.426491  0.865994  1
  W  W9  1  0.815544  0.926491  0.634006  1
  W  W10  1  0.815544  0.573509  0.134006  1
  W  W11  1  0.184456  0.073509  0.365994  1
  O  O12  1  0.157004  0.424395  0.705650  1
  O  O13  1  0.842996  0.924395  0.794350  1
  O  O14  1  0.842996  0.575605  0.294350  1
  O  O15  1  0.157004  0.075605  0.205650  1
  O  O16  1  0.102480  0.928928  0.822084  1
  O  O17  1  0.897520  0.428928  0.677916  1
  O  O18  1  0.897520  0.071072  0.177916  1
  O  O19  1  0.102480  0.571072  0.322084  1
  O  O20  1  0.207907  0.467007  0.065922  1
  O  O21  1  0.792093  0.967007  0.434078  1
  O  O22  1  0.792093  0.532993  0.934078  1
  O  O23  1  0.207907  0.032993  0.565922  1
  O  O24  1  0.443038  0.247115  0.081467  1
  O  O25  1  0.556962  0.747115  0.418533  1
  O  O26  1  0.556962  0.752885  0.918533  1
  O  O27  1  0.443038  0.252885  0.581467  1
  O  O28  1  0.436547  0.619297  0.079064  1
  O  O29  1  0.563453  0.119297  0.420936  1
  O  O30  1  0.563453  0.380703  0.920936  1
  O  O31  1  0.436547  0.880703  0.579064  1
