# generated using pymatgen
data_NdCu9Sn4
_symmetry_space_group_name_H-M   'P 1'
_cell_length_a   8.63560962
_cell_length_b   8.63560967
_cell_length_c   8.71500299
_cell_angle_alpha   119.69909834
_cell_angle_beta   119.69909849
_cell_angle_gamma   90.00000297
_symmetry_Int_Tables_number   1
_chemical_formula_structural   NdCu9Sn4
_chemical_formula_sum   'Nd2 Cu18 Sn8'
_cell_volume   463.70486143
_cell_formula_units_Z   2
loop_
 _symmetry_equiv_pos_site_id
 _symmetry_equiv_pos_as_xyz
  1  'x, y, z'
loop_
 _atom_site_type_symbol
 _atom_site_label
 _atom_site_symmetry_multiplicity
 _atom_site_fract_x
 _atom_site_fract_y
 _atom_site_fract_z
 _atom_site_occupancy
  Nd  Nd0  1  0.750000  0.750000  0.500000  1
  Nd  Nd1  1  0.250000  0.250000  0.500000  1
  Cu  Cu2  1  0.055621  0.199115  0.000000  1
  Cu  Cu3  1  0.064684  0.782784  0.347468  1
  Cu  Cu4  1  0.217216  0.717216  0.652532  1
  Cu  Cu5  1  0.564684  0.064684  0.347468  1
  Cu  Cu6  1  0.699115  0.555621  0.000000  1
  Cu  Cu7  1  0.444379  0.699115  1.000000  1
  Cu  Cu8  1  0.944379  0.800885  1.000000  1
  Cu  Cu9  1  0.935316  0.217216  0.652532  1
  Cu  Cu10  1  0.800885  0.055621  0.000000  1
  Cu  Cu11  1  0.435316  0.935316  0.652532  1
  Cu  Cu12  1  0.782784  0.282784  0.347468  1
  Cu  Cu13  1  0.199115  0.944379  0.000000  1
  Cu  Cu14  1  0.555621  0.300885  0.000000  1
  Cu  Cu15  1  0.717216  0.435316  0.652532  1
  Cu  Cu16  1  0.300885  0.444379  0.000000  1
  Cu  Cu17  1  0.000000  0.500000  0.000000  1
  Cu  Cu18  1  0.500000  0.000000  0.000000  1
  Cu  Cu19  1  0.282784  0.564684  0.347468  1
  Sn  Sn20  1  0.442243  0.312353  0.254596  1
  Sn  Sn21  1  0.312353  0.812353  0.254596  1
  Sn  Sn22  1  0.557757  0.687647  0.745404  1
  Sn  Sn23  1  0.812353  0.942243  0.254596  1
  Sn  Sn24  1  0.187647  0.057757  0.745404  1
  Sn  Sn25  1  0.057757  0.557757  0.745404  1
  Sn  Sn26  1  0.687647  0.187647  0.745404  1
  Sn  Sn27  1  0.942243  0.442243  0.254596  1
