# generated using pymatgen
data_La2Ge5Ir3
_symmetry_space_group_name_H-M   'P 1'
_cell_length_a   6.16345998
_cell_length_b   8.55106759
_cell_length_c   8.55106688
_cell_angle_alpha   74.29133194
_cell_angle_beta   68.87577654
_cell_angle_gamma   68.87577446
_symmetry_Int_Tables_number   1
_chemical_formula_structural   La2Ge5Ir3
_chemical_formula_sum   'La4 Ge10 Ir6'
_cell_volume   386.96920712
_cell_formula_units_Z   2
loop_
 _symmetry_equiv_pos_site_id
 _symmetry_equiv_pos_as_xyz
  1  'x, y, z'
loop_
 _atom_site_type_symbol
 _atom_site_label
 _atom_site_symmetry_multiplicity
 _atom_site_fract_x
 _atom_site_fract_y
 _atom_site_fract_z
 _atom_site_occupancy
  La  La0  1  0.868227  0.362872  0.900673  1
  La  La1  1  0.368227  0.900673  0.362872  1
  La  La2  1  0.131773  0.637128  0.099327  1
  La  La3  1  0.631773  0.099327  0.637128  1
  Ge  Ge4  1  0.522918  0.727082  0.727082  1
  Ge  Ge5  1  0.022918  0.727082  0.727082  1
  Ge  Ge6  1  0.750000  0.000000  0.000000  1
  Ge  Ge7  1  0.398489  0.444261  0.758762  1
  Ge  Ge8  1  0.601511  0.555740  0.241238  1
  Ge  Ge9  1  0.977082  0.272918  0.272918  1
  Ge  Ge10  1  0.898489  0.758762  0.444261  1
  Ge  Ge11  1  0.477082  0.272918  0.272918  1
  Ge  Ge12  1  0.101511  0.241238  0.555740  1
  Ge  Ge13  1  0.250000  0.000000  0.000000  1
  Ir  Ir14  1  0.640258  0.749558  0.969926  1
  Ir  Ir15  1  0.859742  0.030074  0.250442  1
  Ir  Ir16  1  0.359742  0.250442  0.030074  1
  Ir  Ir17  1  0.140258  0.969926  0.749558  1
  Ir  Ir18  1  0.250000  0.500000  0.500000  1
  Ir  Ir19  1  0.750000  0.500000  0.500000  1
