# generated using pymatgen
data_SiO2
_symmetry_space_group_name_H-M   'P 1'
_cell_length_a   8.67909288
_cell_length_b   8.67909288
_cell_length_c   13.95487198
_cell_angle_alpha   90.00000000
_cell_angle_beta   90.00000000
_cell_angle_gamma   90.00000000
_symmetry_Int_Tables_number   1
_chemical_formula_structural   SiO2
_chemical_formula_sum   'Si20 O40'
_cell_volume   1051.17380236
_cell_formula_units_Z   20
loop_
 _symmetry_equiv_pos_site_id
 _symmetry_equiv_pos_as_xyz
  1  'x, y, z'
loop_
 _atom_site_type_symbol
 _atom_site_label
 _atom_site_symmetry_multiplicity
 _atom_site_fract_x
 _atom_site_fract_y
 _atom_site_fract_z
 _atom_site_occupancy
  Si  Si0  1  0.253505  0.430728  0.111001  1
  Si  Si1  1  0.569272  0.253505  0.111001  1
  Si  Si2  1  0.430728  0.746495  0.111001  1
  Si  Si3  1  0.253505  0.569272  0.388999  1
  Si  Si4  1  0.746495  0.430728  0.388999  1
  Si  Si5  1  0.746495  0.569272  0.111001  1
  Si  Si6  1  0.430728  0.253505  0.388999  1
  Si  Si7  1  0.569272  0.746495  0.388999  1
  Si  Si8  1  0.746495  0.569272  0.888999  1
  Si  Si9  1  0.430728  0.746495  0.888999  1
  Si  Si10  1  0.569272  0.253505  0.888999  1
  Si  Si11  1  0.746495  0.430728  0.611001  1
  Si  Si12  1  0.253505  0.569272  0.611001  1
  Si  Si13  1  0.253505  0.430728  0.888999  1
  Si  Si14  1  0.569272  0.746495  0.611001  1
  Si  Si15  1  0.430728  0.253505  0.611001  1
  Si  Si16  1  0.000000  0.500000  0.250000  1
  Si  Si17  1  0.500000  0.000000  0.250000  1
  Si  Si18  1  0.000000  0.500000  0.750000  1
  Si  Si19  1  0.500000  0.000000  0.750000  1
  O  O20  1  0.109090  0.607740  0.318238  1
  O  O21  1  0.392260  0.109090  0.318238  1
  O  O22  1  0.607740  0.890910  0.318238  1
  O  O23  1  0.109090  0.392260  0.181762  1
  O  O24  1  0.890910  0.607740  0.181762  1
  O  O25  1  0.890910  0.392260  0.318238  1
  O  O26  1  0.607740  0.109090  0.181762  1
  O  O27  1  0.392260  0.890910  0.181762  1
  O  O28  1  0.890910  0.392260  0.681762  1
  O  O29  1  0.607740  0.890910  0.681762  1
  O  O30  1  0.392260  0.109090  0.681762  1
  O  O31  1  0.890910  0.607740  0.818238  1
  O  O32  1  0.109090  0.392260  0.818238  1
  O  O33  1  0.109090  0.607740  0.681762  1
  O  O34  1  0.392260  0.890910  0.818238  1
  O  O35  1  0.607740  0.109090  0.818238  1
  O  O36  1  0.198136  0.415010  0.000000  1
  O  O37  1  0.584990  0.198136  0.000000  1
  O  O38  1  0.415010  0.801864  0.000000  1
  O  O39  1  0.198136  0.584990  0.500000  1
  O  O40  1  0.801864  0.415010  0.500000  1
  O  O41  1  0.801864  0.584990  0.000000  1
  O  O42  1  0.415010  0.198136  0.500000  1
  O  O43  1  0.584990  0.801864  0.500000  1
  O  O44  1  0.393494  0.310995  0.132130  1
  O  O45  1  0.689005  0.393494  0.132130  1
  O  O46  1  0.310995  0.606506  0.132130  1
  O  O47  1  0.393494  0.689005  0.367870  1
  O  O48  1  0.606506  0.310995  0.367870  1
  O  O49  1  0.606506  0.689005  0.132130  1
  O  O50  1  0.310995  0.393494  0.367870  1
  O  O51  1  0.689005  0.606506  0.367870  1
  O  O52  1  0.606506  0.689005  0.867870  1
  O  O53  1  0.310995  0.606506  0.867870  1
  O  O54  1  0.689005  0.393494  0.867870  1
  O  O55  1  0.606506  0.310995  0.632130  1
  O  O56  1  0.393494  0.689005  0.632130  1
  O  O57  1  0.393494  0.310995  0.867870  1
  O  O58  1  0.689005  0.606506  0.632130  1
  O  O59  1  0.310995  0.393494  0.632130  1
