# generated using pymatgen
data_Ca(H8O5)2
_symmetry_space_group_name_H-M   'P 1'
_cell_length_a   6.51238633
_cell_length_b   6.24087684
_cell_length_c   10.90089613
_cell_angle_alpha   90.92405716
_cell_angle_beta   91.77410974
_cell_angle_gamma   86.44183558
_symmetry_Int_Tables_number   1
_chemical_formula_structural   Ca(H8O5)2
_chemical_formula_sum   'Ca2 H32 O20'
_cell_volume   441.93430104
_cell_formula_units_Z   2
loop_
 _symmetry_equiv_pos_site_id
 _symmetry_equiv_pos_as_xyz
  1  'x, y, z'
loop_
 _atom_site_type_symbol
 _atom_site_label
 _atom_site_symmetry_multiplicity
 _atom_site_fract_x
 _atom_site_fract_y
 _atom_site_fract_z
 _atom_site_occupancy
  Ca  Ca0  1  0.978584  0.980461  0.239308  1
  Ca  Ca1  1  0.000148  0.031529  0.766047  1
  H  H2  1  0.228777  0.283864  0.346401  1
  H  H3  1  0.022807  0.423430  0.374011  1
  H  H4  1  0.752114  0.612971  0.338331  1
  H  H5  1  0.867121  0.679935  0.464131  1
  H  H6  1  0.537088  0.023078  0.364895  1
  H  H7  1  0.692889  0.146300  0.450421  1
  H  H8  1  0.365683  0.729511  0.343429  1
  H  H9  1  0.290362  0.861165  0.461864  1
  H  H10  1  0.718046  0.383868  0.860770  1
  H  H11  1  0.872090  0.312421  0.976288  1
  H  H12  1  0.280332  0.644393  0.840718  1
  H  H13  1  0.124238  0.708002  0.947742  1
  H  H14  1  0.383697  0.295108  0.855746  1
  H  H15  1  0.453790  0.050886  0.874287  1
  H  H16  1  0.625585  0.732722  0.849281  1
  H  H17  1  0.694886  0.894243  0.956508  1
  H  H18  1  0.718195  0.618800  0.643509  1
  H  H19  1  0.959734  0.578982  0.647812  1
  H  H20  1  0.289133  0.373564  0.651350  1
  H  H21  1  0.139939  0.282581  0.546513  1
  H  H22  1  0.378748  0.712992  0.643423  1
  H  H23  1  0.353194  0.975251  0.656172  1
  H  H24  1  0.642377  0.035538  0.626816  1
  H  H25  1  0.632386  0.295818  0.639267  1
  H  H26  1  0.041527  0.547514  0.115714  1
  H  H27  1  0.271100  0.634651  0.121788  1
  H  H28  1  0.145159  0.265634  0.146099  1
  H  H29  1  0.778913  0.407509  0.133858  1
  H  H30  1  0.576008  0.026482  0.137485  1
  H  H31  1  0.604127  0.763830  0.134068  1
  H  H32  1  0.304570  0.159527  0.059559  1
  H  H33  1  0.551737  0.367011  0.285284  1
  O  O34  1  0.095981  0.277403  0.385690  1
  O  O35  1  0.886505  0.661218  0.373111  1
  O  O36  1  0.653402  0.119979  0.362504  1
  O  O37  1  0.308007  0.872571  0.371335  1
  O  O38  1  0.850032  0.301534  0.883505  1
  O  O39  1  0.145969  0.727341  0.859392  1
  O  O40  1  0.329396  0.152416  0.877421  1
  O  O41  1  0.678105  0.880432  0.865412  1
  O  O42  1  0.849966  0.684102  0.618602  1
  O  O43  1  0.156409  0.300509  0.636824  1
  O  O44  1  0.291126  0.851107  0.617870  1
  O  O45  1  0.722767  0.159823  0.613382  1
  O  O46  1  0.119131  0.683328  0.112320  1
  O  O47  1  0.909806  0.321614  0.123103  1
  O  O48  1  0.677997  0.911135  0.119106  1
  O  O49  1  0.271392  0.162758  0.147681  1
  O  O50  1  0.525011  0.525682  0.279911  1
  O  O51  1  0.499182  0.513814  0.810384  1
  O  O52  1  0.505805  0.504553  0.673264  1
  O  O53  1  0.516298  0.565064  0.146122  1
