# generated using pymatgen
data_Yb(GdS2)2
_symmetry_space_group_name_H-M   'P 1'
_cell_length_a   7.26570122
_cell_length_b   7.26570111
_cell_length_c   7.26570143
_cell_angle_alpha   109.58722411
_cell_angle_beta   109.23945611
_cell_angle_gamma   109.58722843
_symmetry_Int_Tables_number   1
_chemical_formula_structural   Yb(GdS2)2
_chemical_formula_sum   'Yb2 Gd4 S8'
_cell_volume   295.26053376
_cell_formula_units_Z   2
loop_
 _symmetry_equiv_pos_site_id
 _symmetry_equiv_pos_as_xyz
  1  'x, y, z'
loop_
 _atom_site_type_symbol
 _atom_site_label
 _atom_site_symmetry_multiplicity
 _atom_site_fract_x
 _atom_site_fract_y
 _atom_site_fract_z
 _atom_site_occupancy
  Yb  Yb0  1  0.125000  0.750000  0.875000  1
  Yb  Yb1  1  0.375000  0.250000  0.625000  1
  Gd  Gd2  1  0.250000  0.628644  0.378644  1
  Gd  Gd3  1  0.621356  0.371356  0.250000  1
  Gd  Gd4  1  0.750000  0.871356  0.121356  1
  Gd  Gd5  1  0.878644  0.128644  0.750000  1
  S  S6  1  0.997485  0.854829  0.497023  1
  S  S7  1  0.997023  0.354829  0.497485  1
  S  S8  1  0.502515  -0.000462  0.857344  1
  S  S9  1  0.142656  0.145171  0.142194  1
  S  S10  1  0.357344  0.499538  0.002515  1
  S  S11  1  0.642194  0.645171  0.642656  1
  S  S12  1  0.502977  0.000462  0.357806  1
  S  S13  1  0.857806  0.500462  0.002977  1
