# generated using pymatgen
data_Ce20Ti11(S22O3)2
_symmetry_space_group_name_H-M   'P 1'
_cell_length_a   10.31113432
_cell_length_b   14.15526049
_cell_length_c   22.44107206
_cell_angle_alpha   90.00000000
_cell_angle_beta   90.00000000
_cell_angle_gamma   90.00000000
_symmetry_Int_Tables_number   1
_chemical_formula_structural   Ce20Ti11(S22O3)2
_chemical_formula_sum   'Ce40 Ti22 S88 O12'
_cell_volume   3275.42689246
_cell_formula_units_Z   2
loop_
 _symmetry_equiv_pos_site_id
 _symmetry_equiv_pos_as_xyz
  1  'x, y, z'
loop_
 _atom_site_type_symbol
 _atom_site_label
 _atom_site_symmetry_multiplicity
 _atom_site_fract_x
 _atom_site_fract_y
 _atom_site_fract_z
 _atom_site_occupancy
  Ce  Ce0  1  0.668948  0.945688  0.469262  1
  Ce  Ce1  1  0.381420  0.750000  0.531890  1
  Ce  Ce2  1  0.951113  0.040192  0.160741  1
  Ce  Ce3  1  0.933640  0.750000  0.968749  1
  Ce  Ce4  1  0.636306  0.536814  0.835123  1
  Ce  Ce5  1  0.066360  0.250000  0.468749  1
  Ce  Ce6  1  0.363694  0.036814  0.164877  1
  Ce  Ce7  1  0.632274  0.250000  0.660423  1
  Ce  Ce8  1  0.636306  0.963186  0.664877  1
  Ce  Ce9  1  0.955571  0.750000  0.341067  1
  Ce  Ce10  1  0.618580  0.250000  0.468110  1
  Ce  Ce11  1  0.951113  0.459808  0.339259  1
  Ce  Ce12  1  0.636306  0.963186  0.835123  1
  Ce  Ce13  1  0.632274  0.250000  0.839577  1
  Ce  Ce14  1  0.618580  0.250000  0.031890  1
  Ce  Ce15  1  0.636306  0.536814  0.664877  1
  Ce  Ce16  1  0.363694  0.463186  0.335123  1
  Ce  Ce17  1  0.933640  0.750000  0.531251  1
  Ce  Ce18  1  0.381420  0.750000  0.968110  1
  Ce  Ce19  1  0.367726  0.750000  0.160423  1
  Ce  Ce20  1  0.668948  0.945688  0.030738  1
  Ce  Ce21  1  0.066360  0.250000  0.031251  1
  Ce  Ce22  1  0.331052  0.054312  0.530738  1
  Ce  Ce23  1  0.048887  0.540192  0.839259  1
  Ce  Ce24  1  0.668948  0.554312  0.469262  1
  Ce  Ce25  1  0.331052  0.445688  0.969262  1
  Ce  Ce26  1  0.044429  0.250000  0.841067  1
  Ce  Ce27  1  0.951113  0.040192  0.339259  1
  Ce  Ce28  1  0.367726  0.750000  0.339577  1
  Ce  Ce29  1  0.048887  0.959808  0.660741  1
  Ce  Ce30  1  0.048887  0.959808  0.839259  1
  Ce  Ce31  1  0.951113  0.459808  0.160741  1
  Ce  Ce32  1  0.363694  0.463186  0.164877  1
  Ce  Ce33  1  0.955571  0.750000  0.158933  1
  Ce  Ce34  1  0.044429  0.250000  0.658933  1
  Ce  Ce35  1  0.331052  0.445688  0.530738  1
  Ce  Ce36  1  0.363694  0.036814  0.335123  1
  Ce  Ce37  1  0.048887  0.540192  0.660741  1
  Ce  Ce38  1  0.668948  0.554312  0.030738  1
  Ce  Ce39  1  0.331052  0.054312  0.969262  1
  Ti  Ti40  1  0.333677  0.133974  0.750000  1
  Ti  Ti41  1  0.845351  0.116371  0.562237  1
  Ti  Ti42  1  0.337638  0.901746  0.750000  1
  Ti  Ti43  1  0.154649  0.883629  0.437763  1
  Ti  Ti44  1  0.154649  0.616371  0.437763  1
  Ti  Ti45  1  0.860586  0.250000  0.250000  1
  Ti  Ti46  1  0.845351  0.116371  0.937763  1
  Ti  Ti47  1  0.662362  0.401746  0.250000  1
  Ti  Ti48  1  0.662362  0.098254  0.250000  1
  Ti  Ti49  1  0.139414  0.750000  0.750000  1
  Ti  Ti50  1  0.541436  0.750000  0.750000  1
  Ti  Ti51  1  0.337638  0.598254  0.750000  1
  Ti  Ti52  1  0.458564  0.250000  0.250000  1
  Ti  Ti53  1  0.845351  0.383629  0.937763  1
  Ti  Ti54  1  0.333677  0.366026  0.750000  1
  Ti  Ti55  1  0.839097  0.750000  0.750000  1
  Ti  Ti56  1  0.154649  0.616371  0.062237  1
  Ti  Ti57  1  0.160903  0.250000  0.250000  1
  Ti  Ti58  1  0.666323  0.633974  0.250000  1
  Ti  Ti59  1  0.845351  0.383629  0.562237  1
  Ti  Ti60  1  0.666323  0.866026  0.250000  1
  Ti  Ti61  1  0.154649  0.883629  0.062237  1
  S  S62  1  0.571076  0.115628  0.750000  1
  S  S63  1  0.320878  0.250000  0.333315  1
  S  S64  1  0.502534  0.909882  0.934196  1
  S  S65  1  0.916176  0.613623  0.428839  1
  S  S66  1  0.396772  0.879481  0.430646  1
  S  S67  1  0.163550  0.436241  0.424593  1
  S  S68  1  0.497466  0.409882  0.065804  1
  S  S69  1  0.916176  0.613623  0.071161  1
  S  S70  1  0.160819  0.618299  0.171165  1
  S  S71  1  0.836411  0.380913  0.047709  1
  S  S72  1  0.160819  0.881701  0.328835  1
  S  S73  1  0.916176  0.886377  0.428839  1
  S  S74  1  0.661911  0.250000  0.318802  1
  S  S75  1  0.155754  0.422761  0.250000  1
  S  S76  1  0.396772  0.620519  0.069354  1
  S  S77  1  0.899362  0.884682  0.250000  1
  S  S78  1  0.836450  0.936241  0.924593  1
  S  S79  1  0.836411  0.380913  0.452291  1
  S  S80  1  0.396772  0.620519  0.430646  1
  S  S81  1  0.160819  0.618299  0.328835  1
  S  S82  1  0.502534  0.590118  0.934196  1
  S  S83  1  0.333413  0.490547  0.668561  1
  S  S84  1  0.327679  0.250000  0.509650  1
  S  S85  1  0.163588  0.880913  0.952291  1
  S  S86  1  0.839181  0.118299  0.828835  1
  S  S87  1  0.666587  0.990547  0.168561  1
  S  S88  1  0.836411  0.119087  0.047709  1
  S  S89  1  0.497466  0.090118  0.065804  1
  S  S90  1  0.672321  0.750000  0.490350  1
  S  S91  1  0.100638  0.384682  0.750000  1
  S  S92  1  0.666587  0.509453  0.331439  1
  S  S93  1  0.003384  0.250000  0.335510  1
  S  S94  1  0.333413  0.490547  0.831439  1
  S  S95  1  0.502534  0.590118  0.565804  1
  S  S96  1  0.083824  0.386377  0.571161  1
  S  S97  1  0.836450  0.936241  0.575407  1
  S  S98  1  0.163550  0.063759  0.424593  1
  S  S99  1  0.571076  0.384372  0.750000  1
  S  S100  1  0.163550  0.436241  0.075407  1
  S  S101  1  0.100638  0.115318  0.750000  1
  S  S102  1  0.899362  0.615318  0.250000  1
  S  S103  1  0.502534  0.909882  0.565804  1
  S  S104  1  0.603228  0.379481  0.930646  1
  S  S105  1  0.337799  0.250000  0.670371  1
  S  S106  1  0.160819  0.881701  0.171165  1
  S  S107  1  0.839181  0.381701  0.828835  1
  S  S108  1  0.333413  0.009453  0.831439  1
  S  S109  1  0.836411  0.119087  0.452291  1
  S  S110  1  0.163588  0.880913  0.547709  1
  S  S111  1  0.497466  0.090118  0.434196  1
  S  S112  1  0.836450  0.563759  0.924593  1
  S  S113  1  0.603228  0.120519  0.930646  1
  S  S114  1  0.679122  0.750000  0.833315  1
  S  S115  1  0.396772  0.879481  0.069354  1
  S  S116  1  0.338089  0.750000  0.681198  1
  S  S117  1  0.083824  0.386377  0.928839  1
  S  S118  1  0.163588  0.619087  0.547709  1
  S  S119  1  0.155754  0.077239  0.250000  1
  S  S120  1  0.839181  0.118299  0.671165  1
  S  S121  1  0.662201  0.750000  0.170371  1
  S  S122  1  0.844246  0.577239  0.750000  1
  S  S123  1  0.083824  0.113623  0.928839  1
  S  S124  1  0.916176  0.886377  0.071161  1
  S  S125  1  0.661911  0.250000  0.181198  1
  S  S126  1  0.996616  0.750000  0.835510  1
  S  S127  1  0.003384  0.250000  0.164490  1
  S  S128  1  0.666587  0.990547  0.331439  1
  S  S129  1  0.428924  0.615628  0.250000  1
  S  S130  1  0.333413  0.009453  0.668561  1
  S  S131  1  0.320878  0.250000  0.166685  1
  S  S132  1  0.996616  0.750000  0.664490  1
  S  S133  1  0.083824  0.113623  0.571161  1
  S  S134  1  0.672321  0.750000  0.009650  1
  S  S135  1  0.327679  0.250000  0.990350  1
  S  S136  1  0.163588  0.619087  0.952291  1
  S  S137  1  0.338089  0.750000  0.818802  1
  S  S138  1  0.679122  0.750000  0.666685  1
  S  S139  1  0.428924  0.884372  0.250000  1
  S  S140  1  0.603228  0.120519  0.569354  1
  S  S141  1  0.666587  0.509453  0.168561  1
  S  S142  1  0.836450  0.563759  0.575407  1
  S  S143  1  0.662201  0.750000  0.329629  1
  S  S144  1  0.497466  0.409882  0.434196  1
  S  S145  1  0.603228  0.379481  0.569354  1
  S  S146  1  0.839181  0.381701  0.671165  1
  S  S147  1  0.844246  0.922761  0.750000  1
  S  S148  1  0.337799  0.250000  0.829629  1
  S  S149  1  0.163550  0.063759  0.075407  1
  O  O150  1  0.142389  0.750000  0.438085  1
  O  O151  1  0.854107  0.109335  0.250000  1
  O  O152  1  0.530296  0.608480  0.750000  1
  O  O153  1  0.469704  0.108480  0.250000  1
  O  O154  1  0.857611  0.250000  0.938085  1
  O  O155  1  0.530296  0.891520  0.750000  1
  O  O156  1  0.142389  0.750000  0.061915  1
  O  O157  1  0.145893  0.890665  0.750000  1
  O  O158  1  0.854107  0.390665  0.250000  1
  O  O159  1  0.857611  0.250000  0.561915  1
  O  O160  1  0.145893  0.609335  0.750000  1
  O  O161  1  0.469704  0.391520  0.250000  1
