# generated using pymatgen
data_Gd2Br3
_symmetry_space_group_name_H-M   'P 1'
_cell_length_a   4.01589892
_cell_length_b   8.53167367
_cell_length_c   10.17507890
_cell_angle_alpha   70.44382532
_cell_angle_beta   78.61581450
_cell_angle_gamma   76.38737306
_symmetry_Int_Tables_number   1
_chemical_formula_structural   Gd2Br3
_chemical_formula_sum   'Gd4 Br6'
_cell_volume   316.59442024
_cell_formula_units_Z   2
loop_
 _symmetry_equiv_pos_site_id
 _symmetry_equiv_pos_as_xyz
  1  'x, y, z'
loop_
 _atom_site_type_symbol
 _atom_site_label
 _atom_site_symmetry_multiplicity
 _atom_site_fract_x
 _atom_site_fract_y
 _atom_site_fract_z
 _atom_site_occupancy
  Gd  Gd0  1  0.865985  0.981144  0.286863  1
  Gd  Gd1  1  0.582874  0.786476  0.047955  1
  Gd  Gd2  1  0.416547  0.214744  0.952102  1
  Gd  Gd3  1  0.134049  0.018962  0.712931  1
  Br  Br4  1  0.047697  0.635199  0.269315  1
  Br  Br5  1  0.952379  0.364450  0.730853  1
  Br  Br6  1  0.229189  0.660753  0.880925  1
  Br  Br7  1  0.771071  0.338644  0.119127  1
  Br  Br8  1  0.659570  0.193062  0.487805  1
  Br  Br9  1  0.340639  0.806566  0.512124  1
