# generated using pymatgen
data_V3P4PbO17
_symmetry_space_group_name_H-M   'P 1'
_cell_length_a   7.64880370
_cell_length_b   10.25324471
_cell_length_c   16.60114700
_cell_angle_alpha   90.00000000
_cell_angle_beta   90.00000000
_cell_angle_gamma   90.00000000
_symmetry_Int_Tables_number   1
_chemical_formula_structural   V3P4PbO17
_chemical_formula_sum   'V12 P16 Pb4 O68'
_cell_volume   1301.94588438
_cell_formula_units_Z   4
loop_
 _symmetry_equiv_pos_site_id
 _symmetry_equiv_pos_as_xyz
  1  'x, y, z'
loop_
 _atom_site_type_symbol
 _atom_site_label
 _atom_site_symmetry_multiplicity
 _atom_site_fract_x
 _atom_site_fract_y
 _atom_site_fract_z
 _atom_site_occupancy
  V  V0  1  0.218653  0.325612  0.152056  1
  V  V1  1  0.212107  0.250907  0.503828  1
  V  V2  1  0.219724  0.176668  0.849705  1
  V  V3  1  0.712107  0.249093  0.496172  1
  V  V4  1  0.781347  0.825612  0.347944  1
  V  V5  1  0.280276  0.823332  0.349705  1
  V  V6  1  0.281347  0.674388  0.652056  1
  V  V7  1  0.719724  0.323332  0.150295  1
  V  V8  1  0.780276  0.676668  0.650295  1
  V  V9  1  0.787893  0.750907  0.996172  1
  V  V10  1  0.287893  0.749093  0.003828  1
  V  V11  1  0.718653  0.174388  0.847944  1
  P  P12  1  0.696201  0.363905  0.689215  1
  P  P13  1  0.194127  0.638182  0.187877  1
  P  P14  1  0.805873  0.138182  0.312123  1
  P  P15  1  0.292928  0.936102  0.538027  1
  P  P16  1  0.203333  0.561136  0.461447  1
  P  P17  1  0.803799  0.636095  0.189215  1
  P  P18  1  0.196201  0.136095  0.310785  1
  P  P19  1  0.703333  0.938864  0.538553  1
  P  P20  1  0.303799  0.863905  0.810785  1
  P  P21  1  0.694127  0.861818  0.812123  1
  P  P22  1  0.305873  0.361818  0.687877  1
  P  P23  1  0.707072  0.436101  0.961973  1
  P  P24  1  0.792928  0.563898  0.461973  1
  P  P25  1  0.207072  0.063898  0.038027  1
  P  P26  1  0.796667  0.061136  0.038553  1
  P  P27  1  0.296667  0.438864  0.961447  1
  Pb  Pb28  1  0.490612  0.437815  0.321609  1
  Pb  Pb29  1  0.990612  0.062185  0.678391  1
  Pb  Pb30  1  0.009388  0.562185  0.821609  1
  Pb  Pb31  1  0.509388  0.937815  0.178391  1
  O  O32  1  0.213810  0.251529  0.734072  1
  O  O33  1  0.718612  0.110348  0.960971  1
  O  O34  1  0.218501  0.749709  0.764240  1
  O  O35  1  0.759027  0.355615  0.887763  1
  O  O36  1  0.498515  0.730997  0.028688  1
  O  O37  1  0.757960  0.862807  0.614416  1
  O  O38  1  0.752180  0.918088  0.058849  1
  O  O39  1  0.742895  0.422962  0.440254  1
  O  O40  1  0.281199  0.112460  0.958933  1
  O  O41  1  0.001485  0.269003  0.528688  1
  O  O42  1  0.501485  0.230997  0.471312  1
  O  O43  1  0.242895  0.077038  0.559746  1
  O  O44  1  0.498574  0.927077  0.528496  1
  O  O45  1  0.192019  0.159212  0.400318  1
  O  O46  1  0.747820  0.081912  0.558849  1
  O  O47  1  0.720235  0.504018  0.210563  1
  O  O48  1  0.500689  0.331067  0.143995  1
  O  O49  1  0.786190  0.751529  0.765928  1
  O  O50  1  0.999883  0.626784  0.223300  1
  O  O51  1  0.319453  0.334947  0.598752  1
  O  O52  1  0.781499  0.249709  0.735760  1
  O  O53  1  0.740973  0.644385  0.387763  1
  O  O54  1  0.247820  0.418088  0.441151  1
  O  O55  1  0.718501  0.750291  0.235760  1
  O  O56  1  0.819453  0.165053  0.401248  1
  O  O57  1  0.777638  0.996035  0.793781  1
  O  O58  1  0.998574  0.572923  0.471504  1
  O  O59  1  0.499635  0.668736  0.664555  1
  O  O60  1  0.692019  0.340788  0.599682  1
  O  O61  1  0.757105  0.577038  0.940254  1
  O  O62  1  0.281499  0.250291  0.264240  1
  O  O63  1  0.998515  0.769003  0.971312  1
  O  O64  1  0.257105  0.922962  0.059746  1
  O  O65  1  0.259027  0.144385  0.112237  1
  O  O66  1  0.000689  0.168933  0.856005  1
  O  O67  1  0.307981  0.840788  0.900318  1
  O  O68  1  0.779765  0.495982  0.710563  1
  O  O69  1  0.242040  0.362807  0.885584  1
  O  O70  1  0.277638  0.503965  0.206219  1
  O  O71  1  0.781388  0.889652  0.460971  1
  O  O72  1  0.220235  0.995982  0.789437  1
  O  O73  1  0.286190  0.748471  0.234072  1
  O  O74  1  0.252180  0.581912  0.941151  1
  O  O75  1  0.999311  0.668933  0.643995  1
  O  O76  1  0.680547  0.834947  0.901248  1
  O  O77  1  0.499311  0.831067  0.356005  1
  O  O78  1  0.001426  0.072923  0.028496  1
  O  O79  1  0.000365  0.331264  0.164555  1
  O  O80  1  0.218801  0.887540  0.458933  1
  O  O81  1  0.180547  0.665053  0.098752  1
  O  O82  1  0.713810  0.248471  0.265928  1
  O  O83  1  0.807981  0.659212  0.099682  1
  O  O84  1  0.742040  0.137193  0.114416  1
  O  O85  1  0.279765  0.004018  0.289437  1
  O  O86  1  0.999635  0.831264  0.335445  1
  O  O87  1  0.257960  0.637193  0.385584  1
  O  O88  1  0.722362  0.003965  0.293781  1
  O  O89  1  0.781199  0.387540  0.041067  1
  O  O90  1  0.500365  0.168736  0.835445  1
  O  O91  1  0.718801  0.612460  0.541067  1
  O  O92  1  0.501426  0.427077  0.971504  1
  O  O93  1  0.499883  0.873216  0.776700  1
  O  O94  1  0.000117  0.126784  0.276700  1
  O  O95  1  0.222362  0.496035  0.706219  1
  O  O96  1  0.218612  0.389652  0.039029  1
  O  O97  1  0.240973  0.855615  0.612237  1
  O  O98  1  0.281388  0.610348  0.539029  1
  O  O99  1  0.500117  0.373216  0.723300  1
