# generated using pymatgen
data_SiO2
_symmetry_space_group_name_H-M   'P 1'
_cell_length_a   4.23803876
_cell_length_b   9.71563899
_cell_length_c   9.71563899
_cell_angle_alpha   90.00000000
_cell_angle_beta   90.00000000
_cell_angle_gamma   90.00000000
_symmetry_Int_Tables_number   1
_chemical_formula_structural   SiO2
_chemical_formula_sum   'Si8 O16'
_cell_volume   400.04390919
_cell_formula_units_Z   8
loop_
 _symmetry_equiv_pos_site_id
 _symmetry_equiv_pos_as_xyz
  1  'x, y, z'
loop_
 _atom_site_type_symbol
 _atom_site_label
 _atom_site_symmetry_multiplicity
 _atom_site_fract_x
 _atom_site_fract_y
 _atom_site_fract_z
 _atom_site_occupancy
  Si  Si0  1  0.169548  0.898801  0.101199  1
  Si  Si1  1  0.830452  0.101199  0.898801  1
  Si  Si2  1  0.830452  0.898801  0.398801  1
  Si  Si3  1  0.830452  0.601199  0.101199  1
  Si  Si4  1  0.169548  0.601199  0.398801  1
  Si  Si5  1  0.830452  0.398801  0.601199  1
  Si  Si6  1  0.169548  0.398801  0.898801  1
  Si  Si7  1  0.169548  0.101199  0.601199  1
  O  O8  1  0.000000  0.061361  0.750000  1
  O  O9  1  0.000000  0.500000  0.500000  1
  O  O10  1  0.000000  0.250000  0.938639  1
  O  O11  1  0.000000  0.750000  0.061361  1
  O  O12  1  0.500000  0.000000  0.000000  1
  O  O13  1  0.000000  0.750000  0.438639  1
  O  O14  1  0.500000  0.000000  0.500000  1
  O  O15  1  0.000000  0.438639  0.750000  1
  O  O16  1  0.500000  0.500000  0.500000  1
  O  O17  1  0.000000  0.561361  0.250000  1
  O  O18  1  0.500000  0.500000  0.000000  1
  O  O19  1  0.000000  0.250000  0.561361  1
  O  O20  1  0.000000  0.000000  0.500000  1
  O  O21  1  0.000000  0.938639  0.250000  1
  O  O22  1  0.000000  0.000000  0.000000  1
  O  O23  1  0.000000  0.500000  0.000000  1
