# generated using pymatgen
data_SnHC2O3
_symmetry_space_group_name_H-M   'P 1'
_cell_length_a   7.63613150
_cell_length_b   7.63613150
_cell_length_c   8.46291471
_cell_angle_alpha   63.02050539
_cell_angle_beta   116.97949461
_cell_angle_gamma   117.16570505
_symmetry_Int_Tables_number   1
_chemical_formula_structural   SnHC2O3
_chemical_formula_sum   'Sn4 H4 C8 O12'
_cell_volume   371.86379812
_cell_formula_units_Z   4
loop_
 _symmetry_equiv_pos_site_id
 _symmetry_equiv_pos_as_xyz
  1  'x, y, z'
loop_
 _atom_site_type_symbol
 _atom_site_label
 _atom_site_symmetry_multiplicity
 _atom_site_fract_x
 _atom_site_fract_y
 _atom_site_fract_z
 _atom_site_occupancy
  Sn  Sn0  1  0.803847  0.196153  0.154799  1
  Sn  Sn1  1  0.196153  0.803847  0.845201  1
  Sn  Sn2  1  0.709951  0.709951  0.000000  1
  Sn  Sn3  1  0.290049  0.290049  0.000000  1
  H  H4  1  0.989035  0.218567  0.539549  1
  H  H5  1  0.781433  0.010965  0.539549  1
  H  H6  1  0.010965  0.781433  0.460451  1
  H  H7  1  0.218567  0.989035  0.460451  1
  C  C8  1  0.224271  0.591694  0.321850  1
  C  C9  1  0.408306  0.775729  0.321850  1
  C  C10  1  0.775729  0.408306  0.678150  1
  C  C11  1  0.591694  0.224271  0.678150  1
  C  C12  1  0.289896  0.524931  0.527321  1
  C  C13  1  0.475069  0.710104  0.527321  1
  C  C14  1  0.710104  0.475069  0.472679  1
  C  C15  1  0.524931  0.289896  0.472679  1
  O  O16  1  0.074011  0.526558  0.192312  1
  O  O17  1  0.473442  0.925989  0.192312  1
  O  O18  1  0.925989  0.473442  0.807688  1
  O  O19  1  0.526558  0.074011  0.807688  1
  O  O20  1  0.215315  0.369328  0.648861  1
  O  O21  1  0.630672  0.784685  0.648861  1
  O  O22  1  0.784685  0.630672  0.351139  1
  O  O23  1  0.369328  0.215315  0.351139  1
  O  O24  1  0.849351  0.150649  0.461518  1
  O  O25  1  0.150649  0.849351  0.538482  1
  O  O26  1  0.616503  0.383497  0.047266  1
  O  O27  1  0.383497  0.616503  0.952734  1
