# generated using pymatgen
data_Zr6Al2NiH10
_symmetry_space_group_name_H-M   'P 1'
_cell_length_a   8.08079996
_cell_length_b   8.08080007
_cell_length_c   7.22311267
_cell_angle_alpha   90.00000000
_cell_angle_beta   90.00000000
_cell_angle_gamma   120.00449396
_symmetry_Int_Tables_number   1
_chemical_formula_structural   Zr6Al2NiH10
_chemical_formula_sum   'Zr12 Al4 Ni2 H20'
_cell_volume   408.45486203
_cell_formula_units_Z   2
loop_
 _symmetry_equiv_pos_site_id
 _symmetry_equiv_pos_as_xyz
  1  'x, y, z'
loop_
 _atom_site_type_symbol
 _atom_site_label
 _atom_site_symmetry_multiplicity
 _atom_site_fract_x
 _atom_site_fract_y
 _atom_site_fract_z
 _atom_site_occupancy
  Zr  Zr0  1  0.578221  0.624804  0.750000  1
  Zr  Zr1  1  0.375168  0.953395  0.750000  1
  Zr  Zr2  1  0.046610  0.421810  0.750000  1
  Zr  Zr3  1  0.624804  0.578221  0.250000  1
  Zr  Zr4  1  0.953395  0.375168  0.250000  1
  Zr  Zr5  1  0.421810  0.046610  0.250000  1
  Zr  Zr6  1  0.262468  0.262468  0.000000  1
  Zr  Zr7  1  0.737568  0.000035  0.999960  1
  Zr  Zr8  1  0.000035  0.737568  0.000040  1
  Zr  Zr9  1  0.262468  0.262468  0.500000  1
  Zr  Zr10  1  0.737568  0.000035  0.500040  1
  Zr  Zr11  1  0.000035  0.737568  0.499960  1
  Al  Al12  1  0.666650  0.333326  0.948726  1
  Al  Al13  1  0.666650  0.333326  0.551274  1
  Al  Al14  1  0.333326  0.666650  0.448726  1
  Al  Al15  1  0.333326  0.666650  0.051274  1
  Ni  Ni16  1  0.000060  0.000014  0.750000  1
  Ni  Ni17  1  0.000014  0.000060  0.250000  1
  H  H18  1  0.878560  0.117738  0.750000  1
  H  H19  1  0.882274  0.760828  0.750000  1
  H  H20  1  0.239150  0.121424  0.750000  1
  H  H21  1  0.117738  0.878560  0.250000  1
  H  H22  1  0.760828  0.882274  0.250000  1
  H  H23  1  0.121424  0.239150  0.250000  1
  H  H24  1  0.595129  0.885742  0.750000  1
  H  H25  1  0.114293  0.709434  0.750000  1
  H  H26  1  0.290631  0.404874  0.750000  1
  H  H27  1  0.885742  0.595129  0.250000  1
  H  H28  1  0.709434  0.114293  0.250000  1
  H  H29  1  0.404874  0.290631  0.250000  1
  H  H30  1  0.720429  0.720429  0.000000  1
  H  H31  1  0.279557  0.999987  0.999999  1
  H  H32  1  0.999987  0.279557  0.000001  1
  H  H33  1  0.720429  0.720429  0.500000  1
  H  H34  1  0.279557  0.999987  0.500001  1
  H  H35  1  0.999987  0.279557  0.499999  1
  H  H36  1  -0.000001  -0.000001  0.000000  1
  H  H37  1  -0.000001  -0.000001  0.500000  1
