# generated using pymatgen
data_TlAs3PbS6
_symmetry_space_group_name_H-M   'P 1'
_cell_length_a   6.02121341
_cell_length_b   8.40439961
_cell_length_c   24.36509788
_cell_angle_alpha   87.46313415
_cell_angle_beta   82.90226782
_cell_angle_gamma   69.00920621
_symmetry_Int_Tables_number   1
_chemical_formula_structural   TlAs3PbS6
_chemical_formula_sum   'Tl4 As12 Pb4 S24'
_cell_volume   1142.34294105
_cell_formula_units_Z   4
loop_
 _symmetry_equiv_pos_site_id
 _symmetry_equiv_pos_as_xyz
  1  'x, y, z'
loop_
 _atom_site_type_symbol
 _atom_site_label
 _atom_site_symmetry_multiplicity
 _atom_site_fract_x
 _atom_site_fract_y
 _atom_site_fract_z
 _atom_site_occupancy
  Tl  Tl0  1  0.482027  0.591790  0.061780  1
  Tl  Tl1  1  0.135597  0.408210  0.938220  1
  Tl  Tl2  1  0.793806  0.091790  0.438220  1
  Tl  Tl3  1  0.323817  0.908210  0.561780  1
  As  As4  1  0.153077  0.522871  0.432206  1
  As  As5  1  0.851320  0.605942  0.166031  1
  As  As6  1  0.623284  0.805750  0.847652  1
  As  As7  1  0.835283  0.022871  0.067794  1
  As  As8  1  0.267351  0.105942  0.333969  1
  As  As9  1  0.925948  0.977129  0.932206  1
  As  As10  1  0.276686  0.194250  0.152348  1
  As  As11  1  0.623293  0.394058  0.833969  1
  As  As12  1  0.108155  0.477129  0.567794  1
  As  As13  1  0.679034  0.694250  0.347652  1
  As  As14  1  0.707262  0.894058  0.666031  1
  As  As15  1  0.720936  0.305750  0.652348  1
  Pb  Pb16  1  0.847622  0.048620  0.244547  1
  Pb  Pb17  1  0.146241  0.451380  0.744547  1
  Pb  Pb18  1  0.342168  0.548620  0.255453  1
  Pb  Pb19  1  0.140788  0.951380  0.755453  1
  S  S20  1  0.583109  0.586556  0.905400  1
  S  S21  1  0.079064  0.769700  0.163598  1
  S  S22  1  0.993302  0.782651  0.338218  1
  S  S23  1  0.738509  0.086556  0.594600  1
  S  S24  1  0.098765  0.730300  0.663598  1
  S  S25  1  0.785816  0.210984  0.991208  1
  S  S26  1  0.075065  0.413444  0.094600  1
  S  S27  1  0.012363  0.230300  0.836402  1
  S  S28  1  0.469373  0.996117  0.081114  1
  S  S29  1  0.649960  0.058739  0.741818  1
  S  S30  1  0.546604  0.003883  0.918886  1
  S  S31  1  0.958699  0.441261  0.241818  1
  S  S32  1  0.800487  0.496117  0.418886  1
  S  S33  1  0.027024  0.710984  0.508792  1
  S  S34  1  0.715490  0.503883  0.581114  1
  S  S35  1  0.450517  0.941261  0.258182  1
  S  S36  1  0.988008  0.789016  0.008792  1
  S  S37  1  0.419665  0.913444  0.405400  1
  S  S38  1  0.641778  0.558739  0.758182  1
  S  S39  1  0.025953  0.717349  0.838218  1
  S  S40  1  0.246800  0.289016  0.491208  1
  S  S41  1  0.492663  0.269700  0.336402  1
  S  S42  1  0.114172  0.217349  0.661782  1
  S  S43  1  0.581520  0.282651  0.161782  1
