# generated using pymatgen
data_TaTlO3
_symmetry_space_group_name_H-M   'P 1'
_cell_length_a   7.60943377
_cell_length_b   7.60943390
_cell_length_c   15.16900121
_cell_angle_alpha   60.10220653
_cell_angle_beta   60.10220594
_cell_angle_gamma   60.10841336
_symmetry_Int_Tables_number   1
_chemical_formula_structural   TaTlO3
_chemical_formula_sum   'Ta8 Tl8 O24'
_cell_volume   622.54613187
_cell_formula_units_Z   8
loop_
 _symmetry_equiv_pos_site_id
 _symmetry_equiv_pos_as_xyz
  1  'x, y, z'
loop_
 _atom_site_type_symbol
 _atom_site_label
 _atom_site_symmetry_multiplicity
 _atom_site_fract_x
 _atom_site_fract_y
 _atom_site_fract_z
 _atom_site_occupancy
  Ta  Ta0  1  0.000000  0.000000  0.000000  1
  Ta  Ta1  1  0.500000  0.000000  0.000000  1
  Ta  Ta2  1  0.500000  0.000000  0.500000  1
  Ta  Ta3  1  0.000000  0.500000  0.000000  1
  Ta  Ta4  1  0.998705  0.001295  0.250000  1
  Ta  Ta5  1  0.000000  0.000000  0.500000  1
  Ta  Ta6  1  0.001295  0.998705  0.750000  1
  Ta  Ta7  1  0.000000  0.500000  0.500000  1
  Tl  Tl8  1  0.074911  0.470566  0.238779  1
  Tl  Tl9  1  0.500000  0.500000  0.000000  1
  Tl  Tl10  1  0.505787  0.494213  0.250000  1
  Tl  Tl11  1  0.470566  0.074911  0.738779  1
  Tl  Tl12  1  0.500000  0.500000  0.500000  1
  Tl  Tl13  1  0.529434  0.925089  0.261221  1
  Tl  Tl14  1  0.494213  0.505787  0.750000  1
  Tl  Tl15  1  0.925089  0.529434  0.761221  1
  O  O16  1  0.063061  0.058757  0.344543  1
  O  O17  1  0.058211  0.691480  0.029527  1
  O  O18  1  0.688710  0.059767  0.031804  1
  O  O19  1  0.058470  0.692005  0.345459  1
  O  O20  1  0.309985  0.309416  0.470144  1
  O  O21  1  0.058757  0.063061  0.844543  1
  O  O22  1  0.059767  0.688710  0.531804  1
  O  O23  1  0.307995  0.941530  0.154541  1
  O  O24  1  0.688273  0.059553  0.344180  1
  O  O25  1  0.690584  0.690015  0.029856  1
  O  O26  1  0.691480  0.058211  0.529527  1
  O  O27  1  0.940447  0.311727  0.155820  1
  O  O28  1  0.308520  0.941789  0.470473  1
  O  O29  1  0.059553  0.688273  0.844180  1
  O  O30  1  0.309416  0.309985  0.970144  1
  O  O31  1  0.311727  0.940447  0.655820  1
  O  O32  1  0.692005  0.058470  0.845459  1
  O  O33  1  0.940233  0.311290  0.468196  1
  O  O34  1  0.690015  0.690584  0.529856  1
  O  O35  1  0.941243  0.936940  0.155457  1
  O  O36  1  0.941530  0.307995  0.654541  1
  O  O37  1  0.311290  0.940233  0.968196  1
  O  O38  1  0.941789  0.308520  0.970473  1
  O  O39  1  0.936940  0.941243  0.655457  1
