# generated using pymatgen
data_H9BrO4
_symmetry_space_group_name_H-M   'P 1'
_cell_length_a   7.20459638
_cell_length_b   11.39360976
_cell_length_c   7.75711882
_cell_angle_alpha   90.00000000
_cell_angle_beta   111.76356379
_cell_angle_gamma   90.00000000
_symmetry_Int_Tables_number   1
_chemical_formula_structural   H9BrO4
_chemical_formula_sum   'H36 Br4 O16'
_cell_volume   591.36699309
_cell_formula_units_Z   4
loop_
 _symmetry_equiv_pos_site_id
 _symmetry_equiv_pos_as_xyz
  1  'x, y, z'
loop_
 _atom_site_type_symbol
 _atom_site_label
 _atom_site_symmetry_multiplicity
 _atom_site_fract_x
 _atom_site_fract_y
 _atom_site_fract_z
 _atom_site_occupancy
  H  H0  1  0.354239  0.329612  0.000361  1
  H  H1  1  0.202163  0.250884  0.805391  1
  H  H2  1  0.136420  0.267817  0.996062  1
  H  H3  1  0.645761  0.829612  0.999639  1
  H  H4  1  0.797837  0.750884  0.194609  1
  H  H5  1  0.863580  0.767817  0.003938  1
  H  H6  1  0.978087  0.192460  0.139804  1
  H  H7  1  0.965573  0.336596  0.125160  1
  H  H8  1  0.021913  0.692460  0.860196  1
  H  H9  1  0.034427  0.836596  0.874840  1
  H  H10  1  0.713733  0.260221  0.864545  1
  H  H11  1  0.564286  0.158079  0.779152  1
  H  H12  1  0.435714  0.658079  0.220848  1
  H  H13  1  0.286267  0.760221  0.135455  1
  H  H14  1  0.656721  0.243353  0.575291  1
  H  H15  1  0.661107  0.306161  0.388257  1
  H  H16  1  0.343279  0.743353  0.424709  1
  H  H17  1  0.338893  0.806161  0.611743  1
  H  H18  1  0.131897  0.150040  0.556026  1
  H  H19  1  0.949619  0.229830  0.556584  1
  H  H20  1  0.868103  0.650040  0.443974  1
  H  H21  1  0.050381  0.729830  0.443416  1
  H  H22  1  0.186527  0.430508  0.359862  1
  H  H23  1  0.209333  0.334004  0.519174  1
  H  H24  1  0.387516  0.469600  0.593012  1
  H  H25  1  0.612484  0.969600  0.406988  1
  H  H26  1  0.790667  0.834004  0.480826  1
  H  H27  1  0.813473  0.930508  0.640138  1
  H  H28  1  0.614612  0.541593  0.697358  1
  H  H29  1  0.405547  0.621298  0.633920  1
  H  H30  1  0.385388  0.041593  0.302642  1
  H  H31  1  0.594453  0.121298  0.366080  1
  H  H32  1  0.001341  0.505668  0.039436  1
  H  H33  1  0.866443  0.501097  0.163023  1
  H  H34  1  0.998659  0.005668  0.960564  1
  H  H35  1  0.133557  0.001097  0.836977  1
  Br  Br36  1  0.922704  0.520385  0.720021  1
  Br  Br37  1  0.077296  0.020385  0.279979  1
  Br  Br38  1  0.564504  0.462481  0.178652  1
  Br  Br39  1  0.435496  0.962481  0.821348  1
  O  O40  1  0.256141  0.263137  0.950026  1
  O  O41  1  0.743859  0.763137  0.049974  1
  O  O42  1  0.960535  0.262058  0.056049  1
  O  O43  1  0.039465  0.762058  0.943951  1
  O  O44  1  0.594726  0.239611  0.754653  1
  O  O45  1  0.405274  0.739611  0.245347  1
  O  O46  1  0.703962  0.234497  0.467027  1
  O  O47  1  0.296038  0.734497  0.532973  1
  O  O48  1  0.101110  0.224482  0.604854  1
  O  O49  1  0.898890  0.724482  0.395146  1
  O  O50  1  0.283626  0.390906  0.470576  1
  O  O51  1  0.716374  0.890906  0.529424  1
  O  O52  1  0.471276  0.542390  0.688039  1
  O  O53  1  0.528724  0.042390  0.311961  1
  O  O54  1  0.003583  0.486357  0.165155  1
  O  O55  1  0.996417  0.986357  0.834845  1
