# generated using pymatgen
data_Nd10Si10N17ClO9
_symmetry_space_group_name_H-M   'P 1'
_cell_length_a   10.56706305
_cell_length_b   11.25625728
_cell_length_c   11.63613204
_cell_angle_alpha   89.96293659
_cell_angle_beta   90.03301098
_cell_angle_gamma   90.06458877
_symmetry_Int_Tables_number   1
_chemical_formula_structural   Nd10Si10N17ClO9
_chemical_formula_sum   'Nd20 Si20 N34 Cl2 O18'
_cell_volume   1384.06508155
_cell_formula_units_Z   2
loop_
 _symmetry_equiv_pos_site_id
 _symmetry_equiv_pos_as_xyz
  1  'x, y, z'
loop_
 _atom_site_type_symbol
 _atom_site_label
 _atom_site_symmetry_multiplicity
 _atom_site_fract_x
 _atom_site_fract_y
 _atom_site_fract_z
 _atom_site_occupancy
  Nd  Nd0  1  0.991852  0.998924  0.169508  1
  Nd  Nd1  1  0.992158  0.998999  0.830478  1
  Nd  Nd2  1  0.109282  0.629777  -0.000019  1
  Nd  Nd3  1  0.135132  0.883885  0.500329  1
  Nd  Nd4  1  0.139440  0.396456  0.245834  1
  Nd  Nd5  1  0.137754  0.397124  0.754073  1
  Nd  Nd6  1  0.359663  0.902119  0.243447  1
  Nd  Nd7  1  0.362590  0.897861  0.755760  1
  Nd  Nd8  1  0.365061  0.381578  0.498607  1
  Nd  Nd9  1  0.378177  0.128070  0.004136  1
  Nd  Nd10  1  0.499893  0.500016  0.172995  1
  Nd  Nd11  1  0.501810  0.502382  0.826972  1
  Nd  Nd12  1  0.638381  0.871294  0.996051  1
  Nd  Nd13  1  0.624012  0.619580  0.501606  1
  Nd  Nd14  1  0.643760  0.105149  0.232966  1
  Nd  Nd15  1  0.645563  0.101337  0.767466  1
  Nd  Nd16  1  0.857787  0.600572  0.227596  1
  Nd  Nd17  1  0.856470  0.601432  0.771933  1
  Nd  Nd18  1  0.877350  0.120506  0.499997  1
  Nd  Nd19  1  0.877066  0.372460  -0.000021  1
  Si  Si20  1  0.115618  0.744446  0.246560  1
  Si  Si21  1  0.115743  0.744389  0.753753  1
  Si  Si22  1  0.151170  0.142493  0.636784  1
  Si  Si23  1  0.151297  0.142516  0.363722  1
  Si  Si24  1  0.215136  0.888256  0.000047  1
  Si  Si25  1  0.285731  0.389703  0.999888  1
  Si  Si26  1  0.348359  0.643444  0.635245  1
  Si  Si27  1  0.347774  0.644746  0.364560  1
  Si  Si28  1  0.386110  0.237910  0.244399  1
  Si  Si29  1  0.384986  0.243496  0.754993  1
  Si  Si30  1  0.615198  0.756355  0.245799  1
  Si  Si31  1  0.614408  0.762156  0.754893  1
  Si  Si32  1  0.651687  0.354761  0.634967  1
  Si  Si33  1  0.651113  0.355968  0.365235  1
  Si  Si34  1  0.717497  0.610878  0.000066  1
  Si  Si35  1  0.787550  0.107862  0.999939  1
  Si  Si36  1  0.848609  0.854068  0.365412  1
  Si  Si37  1  0.848466  0.854116  0.634264  1
  Si  Si38  1  0.885237  0.262684  0.245043  1
  Si  Si39  1  0.885135  0.262637  0.754792  1
  N  N40  1  0.022663  0.189863  0.284372  1
  N  N41  1  0.023194  0.190533  0.715937  1
  N  N42  1  0.103044  0.109398  0.500386  1
  N  N43  1  0.169323  0.815789  0.121905  1
  N  N44  1  0.169526  0.814858  0.878754  1
  N  N45  1  0.227983  0.746213  0.647626  1
  N  N46  1  0.226593  0.746632  0.353506  1
  N  N47  1  0.272686  0.245241  0.648321  1
  N  N48  1  0.271922  0.245742  0.351688  1
  N  N49  1  0.329633  0.318221  0.122589  1
  N  N50  1  0.330269  0.315642  0.878419  1
  N  N51  1  0.396954  0.608793  0.499629  1
  N  N52  1  0.420826  0.098418  0.198407  1
  N  N53  1  0.474798  0.694128  0.284095  1
  N  N54  1  0.476276  0.691487  0.714378  1
  N  N55  1  0.524664  0.308871  0.282605  1
  N  N56  1  0.525836  0.306039  0.718485  1
  N  N57  1  0.581834  0.901896  0.801150  1
  N  N58  1  0.598691  0.389374  0.500341  1
  N  N59  1  0.663931  0.681841  0.121967  1
  N  N60  1  0.664681  0.679432  0.877019  1
  N  N61  1  0.728840  0.750124  0.647307  1
  N  N62  1  0.727835  0.750918  0.352704  1
  N  N63  1  0.770924  0.250223  0.646253  1
  N  N64  1  0.769688  0.250528  0.352713  1
  N  N65  1  0.828246  0.183676  0.123048  1
  N  N66  1  0.828853  0.182703  0.876395  1
  N  N67  1  0.845334  0.965403  0.000255  1
  N  N68  1  0.880004  0.594464  0.001064  1
  N  N69  1  0.901577  0.888310  0.499653  1
  N  N70  1  0.920676  0.402431  0.201321  1
  N  N71  1  0.919893  0.402510  0.798683  1
  N  N72  1  0.974000  0.805523  0.282192  1
  N  N73  1  0.974679  0.805973  0.717422  1
  Cl  Cl74  1  0.078319  0.451380  0.500271  1
  Cl  Cl75  1  0.424653  0.950597  0.500137  1
  O  O76  1  0.086641  0.605269  0.202989  1
  O  O77  1  0.086104  0.605174  0.796996  1
  O  O78  1  0.128451  0.413293  0.998635  1
  O  O79  1  0.155734  0.026958  0.999645  1
  O  O80  1  0.181067  0.007138  0.690693  1
  O  O81  1  0.178737  0.005627  0.311646  1
  O  O82  1  0.320412  0.509662  0.308463  1
  O  O83  1  0.320433  0.508128  0.690958  1
  O  O84  1  0.348356  0.527016  0.998972  1
  O  O85  1  0.372237  0.910898  0.000515  1
  O  O86  1  0.416950  0.104867  0.798422  1
  O  O87  1  0.585151  0.895175  0.201951  1
  O  O88  1  0.624059  0.095800  0.999402  1
  O  O89  1  0.650546  0.473306  0.000945  1
  O  O90  1  0.681064  0.493454  0.313446  1
  O  O91  1  0.680779  0.492001  0.687297  1
  O  O92  1  0.815867  0.990276  0.313006  1
  O  O93  1  0.818539  0.991781  0.684951  1
