# generated using pymatgen
data_Si(Bi3O5)5
_symmetry_space_group_name_H-M   'P 1'
_cell_length_a   44.37740556
_cell_length_b   16.99470406
_cell_length_c   16.99470400
_cell_angle_alpha   50.47335279
_cell_angle_beta   29.49293874
_cell_angle_gamma   29.49293758
_symmetry_Int_Tables_number   1
_chemical_formula_structural   Si(Bi3O5)5
_chemical_formula_sum   'Si4 Bi60 O100'
_cell_volume   2690.34611157
_cell_formula_units_Z   4
loop_
 _symmetry_equiv_pos_site_id
 _symmetry_equiv_pos_as_xyz
  1  'x, y, z'
loop_
 _atom_site_type_symbol
 _atom_site_label
 _atom_site_symmetry_multiplicity
 _atom_site_fract_x
 _atom_site_fract_y
 _atom_site_fract_z
 _atom_site_occupancy
  Si  Si0  1  0.200331  0.000000  0.000000  1
  Si  Si1  1  0.399848  1.000000  1.000000  1
  Si  Si2  1  0.599989  1.000000  1.000000  1
  Si  Si3  1  0.799722  1.000000  1.000000  1
  Bi  Bi4  1  0.088473  0.336504  0.191907  1
  Bi  Bi5  1  0.029729  0.687376  0.171317  1
  Bi  Bi6  1  0.184467  0.138275  0.303550  1
  Bi  Bi7  1  0.106097  0.498426  0.333258  1
  Bi  Bi8  1  0.078926  0.821665  0.134018  1
  Bi  Bi9  1  0.188443  0.194829  0.500528  1
  Bi  Bi10  1  0.004003  0.836496  0.499465  1
  Bi  Bi11  1  0.287242  0.334775  0.193491  1
  Bi  Bi12  1  0.127332  0.159874  0.856717  1
  Bi  Bi13  1  0.083893  0.509270  0.702142  1
  Bi  Bi14  1  0.242693  0.665539  0.158042  1
  Bi  Bi15  1  0.021508  0.862125  0.666981  1
  Bi  Bi16  1  0.383376  0.142196  0.302423  1
  Bi  Bi17  1  0.183579  0.306848  0.806881  1
  Bi  Bi18  1  0.308656  0.490800  0.331320  1
  Bi  Bi19  1  0.280379  0.808093  0.144597  1
  Bi  Bi20  1  0.094068  0.694936  0.828191  1
  Bi  Bi21  1  0.394664  0.187755  0.491366  1
  Bi  Bi22  1  0.201046  0.828683  0.516059  1
  Bi  Bi23  1  0.490363  0.331675  0.187930  1
  Bi  Bi24  1  0.322741  0.165275  0.861725  1
  Bi  Bi25  1  0.281442  0.516090  0.694384  1
  Bi  Bi26  1  0.439354  0.666742  0.165168  1
  Bi  Bi27  1  0.212944  0.865982  0.687647  1
  Bi  Bi28  1  0.581759  0.144308  0.304569  1
  Bi  Bi29  1  0.383272  0.305699  0.805171  1
  Bi  Bi30  1  0.503468  0.500535  0.337032  1
  Bi  Bi31  1  0.480733  0.806509  0.141285  1
  Bi  Bi32  1  0.287206  0.696843  0.840126  1
  Bi  Bi33  1  0.593162  0.192873  0.490730  1
  Bi  Bi34  1  0.400735  0.841958  0.507497  1
  Bi  Bi35  1  0.688489  0.333019  0.195145  1
  Bi  Bi36  1  0.525572  0.160227  0.857804  1
  Bi  Bi37  1  0.490427  0.500033  0.693152  1
  Bi  Bi38  1  0.639976  0.668680  0.159480  1
  Bi  Bi39  1  0.424976  0.855403  0.663496  1
  Bi  Bi40  1  0.789004  0.133255  0.305064  1
  Bi  Bi41  1  0.582419  0.303611  0.812245  1
  Bi  Bi42  1  0.717106  0.483941  0.312624  1
  Bi  Bi43  1  0.678293  0.812070  0.143745  1
  Bi  Bi44  1  0.488016  0.696450  0.834725  1
  Bi  Bi45  1  0.797532  0.178294  0.483910  1
  Bi  Bi46  1  0.604523  0.834832  0.501574  1
  Bi  Bi47  1  0.900591  0.312353  0.178335  1
  Bi  Bi48  1  0.726067  0.160260  0.855692  1
  Bi  Bi49  1  0.688971  0.499472  0.694301  1
  Bi  Bi50  1  0.840500  0.662968  0.163504  1
  Bi  Bi51  1  0.622018  0.858715  0.665225  1
  Bi  Bi52  1  0.984049  0.143283  0.303157  1
  Bi  Bi53  1  0.786035  0.297858  0.807127  1
  Bi  Bi54  1  0.908232  0.492503  0.334461  1
  Bi  Bi55  1  0.883633  0.804855  0.137875  1
  Bi  Bi56  1  0.685798  0.697577  0.839773  1
  Bi  Bi57  1  0.990461  0.193119  0.499967  1
  Bi  Bi58  1  0.799456  0.840520  0.509200  1
  Bi  Bi59  1  0.922259  0.171809  0.866745  1
  Bi  Bi60  1  0.886030  0.508634  0.696389  1
  Bi  Bi61  1  0.822038  0.856255  0.668325  1
  Bi  Bi62  1  0.975826  0.305616  0.821706  1
  Bi  Bi63  1  0.886328  0.695431  0.839740  1
  O  O64  1  0.054431  0.000000  0.000000  1
  O  O65  1  0.123067  1.000000  1.000000  1
  O  O66  1  0.125688  0.998536  0.187159  1
  O  O67  1  0.124224  0.188623  0.001464  1
  O  O68  1  0.237816  0.000000  0.000000  1
  O  O69  1  0.084926  0.238465  0.358025  1
  O  O70  1  0.014934  0.261775  0.639836  1
  O  O71  1  0.150297  0.382402  0.122429  1
  O  O72  1  0.320728  1.000000  1.000000  1
  O  O73  1  0.149006  0.000121  0.627445  1
  O  O74  1  0.149127  0.627325  0.999879  1
  O  O75  1  0.054431  0.361445  0.621472  1
  O  O76  1  0.325213  0.999020  0.187525  1
  O  O77  1  0.324232  0.188505  0.000980  1
  O  O78  1  0.128928  0.619838  0.238558  1
  O  O79  1  0.123512  0.121841  0.761415  1
  O  O80  1  0.162236  0.395747  0.396490  1
  O  O81  1  0.437437  0.000000  0.000000  1
  O  O82  1  0.074178  0.383652  0.741436  1
  O  O83  1  0.073383  0.880983  0.256816  1
  O  O84  1  0.147359  0.619374  0.381520  1
  O  O85  1  0.286154  0.236551  0.356373  1
  O  O86  1  0.214841  0.260330  0.642839  1
  O  O87  1  0.352423  0.380422  0.120921  1
  O  O88  1  0.520945  1.000000  1.000000  1
  O  O89  1  0.166947  0.763873  0.379536  1
  O  O90  1  0.045924  0.638119  0.875893  1
  O  O91  1  0.358723  0.000751  0.603420  1
  O  O92  1  0.359473  0.602669  0.999249  1
  O  O93  1  0.259318  0.357005  0.613650  1
  O  O94  1  0.133516  0.738617  0.616475  1
  O  O95  1  0.525252  0.999224  0.187407  1
  O  O96  1  0.524476  0.188183  0.000776  1
  O  O97  1  0.330688  0.613864  0.237896  1
  O  O98  1  0.323391  0.119560  0.761535  1
  O  O99  1  0.368935  0.385076  0.385133  1
  O  O100  1  0.637645  0.000000  0.000000  1
  O  O101  1  0.276709  0.378061  0.738225  1
  O  O102  1  0.272726  0.877571  0.259972  1
  O  O103  1  0.162467  0.729270  0.728878  1
  O  O104  1  0.349963  0.616447  0.377890  1
  O  O105  1  0.484798  0.237874  0.356881  1
  O  O106  1  0.415876  0.260027  0.638555  1
  O  O107  1  0.553056  0.378666  0.119596  1
  O  O108  1  0.720282  1.000000  1.000000  1
  O  O109  1  0.367485  0.761442  0.381280  1
  O  O110  1  0.245353  0.639574  0.878159  1
  O  O111  1  0.557984  0.000743  0.604253  1
  O  O112  1  0.558726  0.603510  0.999257  1
  O  O113  1  0.457829  0.357785  0.616348  1
  O  O114  1  0.330199  0.743184  0.624167  1
  O  O115  1  0.723285  0.002954  0.189531  1
  O  O116  1  0.726239  0.186577  0.997046  1
  O  O117  1  0.528879  0.618480  0.237854  1
  O  O118  1  0.522705  0.119822  0.763449  1
  O  O119  1  0.561263  0.398074  0.396757  1
  O  O120  1  0.837565  0.000000  0.000000  1
  O  O121  1  0.475171  0.382510  0.739670  1
  O  O122  1  0.473344  0.879079  0.259501  1
  O  O123  1  0.312847  0.812841  0.811377  1
  O  O124  1  0.546483  0.620464  0.384336  1
  O  O125  1  0.684043  0.237774  0.361881  1
  O  O126  1  0.616324  0.256644  0.642995  1
  O  O127  1  0.749991  0.383525  0.122142  1
  O  O128  1  0.925372  1.000000  1.000000  1
  O  O129  1  0.568583  0.762104  0.375969  1
  O  O130  1  0.442951  0.641975  0.880440  1
  O  O131  1  0.754010  0.000057  0.614924  1
  O  O132  1  0.754068  0.614867  0.999943  1
  O  O133  1  0.654770  0.360164  0.621939  1
  O  O134  1  0.532698  0.740028  0.617598  1
  O  O135  1  0.891738  0.999608  0.270730  1
  O  O136  1  0.891345  0.271122  0.000392  1
  O  O137  1  0.727853  0.622110  0.238557  1
  O  O138  1  0.722672  0.119007  0.762126  1
  O  O139  1  0.776452  0.372555  0.372675  1
  O  O140  1  0.675903  0.378528  0.739973  1
  O  O141  1  0.672652  0.880404  0.259070  1
  O  O142  1  0.512738  0.812475  0.811495  1
  O  O143  1  0.748765  0.618720  0.380162  1
  O  O144  1  0.884927  0.238585  0.360426  1
  O  O145  1  0.815614  0.258564  0.642215  1
  O  O146  1  0.954366  0.375833  0.119017  1
  O  O147  1  0.766734  0.762146  0.380626  1
  O  O148  1  0.642527  0.643627  0.880178  1
  O  O149  1  0.959337  0.998682  0.601926  1
  O  O150  1  0.958019  0.603243  0.001318  1
  O  O151  1  0.857680  0.357161  0.617490  1
  O  O152  1  0.732845  0.740499  0.619578  1
  O  O153  1  0.930819  0.615664  0.236127  1
  O  O154  1  0.921817  0.124107  0.762226  1
  O  O155  1  0.962143  0.396580  0.397330  1
  O  O156  1  0.872968  0.386350  0.743356  1
  O  O157  1  0.872133  0.877858  0.261383  1
  O  O158  1  0.712660  0.812593  0.811817  1
  O  O159  1  0.944552  0.624031  0.386136  1
  O  O160  1  0.966410  0.761443  0.383553  1
  O  O161  1  0.841679  0.643119  0.880993  1
  O  O162  1  0.931723  0.740930  0.621334  1
  O  O163  1  0.912816  0.810469  0.813423  1
