# generated using pymatgen
data_Sc(HO)3
_symmetry_space_group_name_H-M   'P 1'
_cell_length_a   6.84210284
_cell_length_b   6.91301886
_cell_length_c   6.84210284
_cell_angle_alpha   109.68131527
_cell_angle_beta   109.26031135
_cell_angle_gamma   109.68131527
_symmetry_Int_Tables_number   1
_chemical_formula_structural   Sc(HO)3
_chemical_formula_sum   'Sc4 H12 O12'
_cell_volume   248.48055643
_cell_formula_units_Z   4
loop_
 _symmetry_equiv_pos_site_id
 _symmetry_equiv_pos_as_xyz
  1  'x, y, z'
loop_
 _atom_site_type_symbol
 _atom_site_label
 _atom_site_symmetry_multiplicity
 _atom_site_fract_x
 _atom_site_fract_y
 _atom_site_fract_z
 _atom_site_occupancy
  Sc  Sc0  1  0.500000  0.000000  0.000000  1
  Sc  Sc1  1  0.000000  0.000000  0.500000  1
  Sc  Sc2  1  0.000000  0.500000  0.000000  1
  Sc  Sc3  1  0.500000  0.500000  0.500000  1
  H  H4  1  0.306127  0.263674  0.957677  1
  H  H5  1  0.693873  0.736326  0.042323  1
  H  H6  1  0.449810  0.626636  0.173984  1
  H  H7  1  0.550190  0.373364  0.826016  1
  H  H8  1  0.826016  0.452652  0.275826  1
  H  H9  1  0.173984  0.547348  0.724174  1
  H  H10  1  0.042323  0.305997  0.348450  1
  H  H11  1  0.957677  0.694003  0.651550  1
  H  H12  1  0.275826  0.823174  0.449810  1
  H  H13  1  0.724174  0.176826  0.550190  1
  H  H14  1  0.348450  0.042452  0.306127  1
  H  H15  1  0.651550  0.957548  0.693873  1
  O  O16  1  0.308897  0.141721  0.828540  1
  O  O17  1  0.691103  0.858279  0.171460  1
  O  O18  1  0.324186  0.498137  0.172122  1
  O  O19  1  0.675814  0.501863  0.827878  1
  O  O20  1  0.827878  0.326015  0.152064  1
  O  O21  1  0.172122  0.673985  0.847936  1
  O  O22  1  0.171460  0.313180  0.480357  1
  O  O23  1  0.828540  0.686820  0.519643  1
  O  O24  1  0.152064  0.826049  0.324186  1
  O  O25  1  0.847936  0.173951  0.675814  1
  O  O26  1  0.480357  0.167177  0.308897  1
  O  O27  1  0.519643  0.832823  0.691103  1
