# generated using pymatgen
data_Sr2ErRuO6
_symmetry_space_group_name_H-M   'P 1'
_cell_length_a   5.79670015
_cell_length_b   5.84773513
_cell_length_c   8.21791355
_cell_angle_alpha   90.00000000
_cell_angle_beta   90.31727761
_cell_angle_gamma   90.00000000
_symmetry_Int_Tables_number   1
_chemical_formula_structural   Sr2ErRuO6
_chemical_formula_sum   'Sr4 Er2 Ru2 O12'
_cell_volume   278.56300514
_cell_formula_units_Z   2
loop_
 _symmetry_equiv_pos_site_id
 _symmetry_equiv_pos_as_xyz
  1  'x, y, z'
loop_
 _atom_site_type_symbol
 _atom_site_label
 _atom_site_symmetry_multiplicity
 _atom_site_fract_x
 _atom_site_fract_y
 _atom_site_fract_z
 _atom_site_occupancy
  O  O0  1  0.428328  0.017889  0.235551  1
  O  O1  1  0.071672  0.517889  0.264449  1
  O  O2  1  0.571672  0.982111  0.764449  1
  O  O3  1  0.928328  0.482111  0.735551  1
  O  O4  1  0.770590  0.201894  0.037065  1
  O  O5  1  0.729410  0.701894  0.462935  1
  O  O6  1  0.229410  0.798106  0.962935  1
  O  O7  1  0.270590  0.298106  0.537065  1
  O  O8  1  0.300592  0.271857  0.961046  1
  O  O9  1  0.199408  0.771857  0.538954  1
  O  O10  1  0.699408  0.728143  0.038954  1
  O  O11  1  0.800592  0.228143  0.461046  1
  Sr  Sr12  1  0.007569  0.034258  0.749459  1
  Sr  Sr13  1  0.492431  0.534258  0.750541  1
  Sr  Sr14  1  0.507569  0.465742  0.249459  1
  Sr  Sr15  1  0.992431  0.965742  0.250541  1
  Ru  Ru16  1  0.500000  0.000000  0.000000  1
  Ru  Ru17  1  0.000000  0.500000  0.500000  1
  Er  Er18  1  0.500000  0.000000  0.500000  1
  Er  Er19  1  0.000000  0.500000  0.000000  1
