# generated using pymatgen
data_Na3Al2P2O8F3
_symmetry_space_group_name_H-M   'P 1'
_cell_length_a   12.55088159
_cell_length_b   8.88180396
_cell_length_c   6.82863256
_cell_angle_alpha   130.03820295
_cell_angle_beta   117.08030327
_cell_angle_gamma   44.95485421
_symmetry_Int_Tables_number   1
_chemical_formula_structural   Na3Al2P2O8F3
_chemical_formula_sum   'Na6 Al4 P4 O16 F6'
_cell_volume   411.77740683
_cell_formula_units_Z   2
loop_
 _symmetry_equiv_pos_site_id
 _symmetry_equiv_pos_as_xyz
  1  'x, y, z'
loop_
 _atom_site_type_symbol
 _atom_site_label
 _atom_site_symmetry_multiplicity
 _atom_site_fract_x
 _atom_site_fract_y
 _atom_site_fract_z
 _atom_site_occupancy
  Na  Na0  1  0.991321  0.284243  0.996130  1
  Na  Na1  1  0.220651  0.288845  0.000674  1
  Na  Na2  1  0.357139  0.503427  0.998770  1
  Na  Na3  1  0.720651  0.269853  0.999326  1
  Na  Na4  1  0.491321  0.733115  0.003870  1
  Na  Na5  1  0.857139  0.782295  0.001230  1
  Al  Al6  1  0.004262  0.171728  0.358787  1
  Al  Al7  1  0.004466  0.811979  0.642187  1
  Al  Al8  1  0.504466  0.179089  0.357813  1
  Al  Al9  1  0.504262  0.819749  0.641213  1
  P  P10  1  0.248391  0.249136  0.496167  1
  P  P11  1  0.249371  0.752359  0.504620  1
  P  P12  1  0.748391  0.254082  0.503833  1
  P  P13  1  0.749371  0.748899  0.495380  1
  O  O14  1  0.147818  0.166165  0.320711  1
  O  O15  1  0.347955  0.139224  0.674048  1
  O  O16  1  0.153202  0.533362  0.678749  1
  O  O17  1  0.348043  0.163462  0.321696  1
  O  O18  1  0.149751  0.839961  0.678720  1
  O  O19  1  0.348980  0.465897  0.324188  1
  O  O20  1  0.154743  0.858251  0.325140  1
  O  O21  1  0.349402  0.839060  0.680952  1
  O  O22  1  0.653202  0.160234  0.321251  1
  O  O23  1  0.848043  0.140451  0.678304  1
  O  O24  1  0.647818  0.538199  0.679289  1
  O  O25  1  0.847955  0.164866  0.325952  1
  O  O26  1  0.654743  0.832264  0.674860  1
  O  O27  1  0.849402  0.462136  0.319048  1
  O  O28  1  0.649751  0.860536  0.321280  1
  O  O29  1  0.848980  0.836143  0.675812  1
  F  F30  1  0.996272  0.004654  0.000316  1
  F  F31  1  0.003892  0.345898  0.712442  1
  F  F32  1  0.005041  0.637109  0.289040  1
  F  F33  1  0.496272  0.002803  0.999684  1
  F  F34  1  0.505041  0.352809  0.710960  1
  F  F35  1  0.503892  0.646318  0.287558  1
