# generated using pymatgen
data_H5ClO6
_symmetry_space_group_name_H-M   'P 1'
_cell_length_a   5.88936645
_cell_length_b   10.66391583
_cell_length_c   7.94640162
_cell_angle_alpha   90.00000000
_cell_angle_beta   90.00000000
_cell_angle_gamma   90.00000000
_symmetry_Int_Tables_number   1
_chemical_formula_structural   H5ClO6
_chemical_formula_sum   'H20 Cl4 O24'
_cell_volume   499.06348791
_cell_formula_units_Z   4
loop_
 _symmetry_equiv_pos_site_id
 _symmetry_equiv_pos_as_xyz
  1  'x, y, z'
loop_
 _atom_site_type_symbol
 _atom_site_label
 _atom_site_symmetry_multiplicity
 _atom_site_fract_x
 _atom_site_fract_y
 _atom_site_fract_z
 _atom_site_occupancy
  H  H0  1  0.521120  0.027491  0.232575  1
  H  H1  1  0.500682  0.000200  0.003534  1
  H  H2  1  0.364663  0.914552  0.166218  1
  H  H3  1  0.021120  0.472509  0.267425  1
  H  H4  1  0.864663  0.585448  0.333782  1
  H  H5  1  0.000682  0.499800  0.496466  1
  H  H6  1  0.499318  0.500200  0.996466  1
  H  H7  1  0.478880  0.527491  0.767425  1
  H  H8  1  0.635337  0.414552  0.833782  1
  H  H9  1  0.999318  0.999800  0.503534  1
  H  H10  1  0.978880  0.972509  0.732575  1
  H  H11  1  0.135337  0.085448  0.666218  1
  H  H12  1  0.632583  0.085853  0.839307  1
  H  H13  1  0.477542  0.971645  0.774961  1
  H  H14  1  0.977542  0.528355  0.725039  1
  H  H15  1  0.132583  0.414147  0.660693  1
  H  H16  1  0.522458  0.471645  0.225039  1
  H  H17  1  0.367417  0.585853  0.160693  1
  H  H18  1  0.867417  0.914147  0.339307  1
  H  H19  1  0.022458  0.028355  0.274961  1
  Cl  Cl20  1  0.561647  0.249613  0.506370  1
  Cl  Cl21  1  0.061647  0.250387  0.993630  1
  Cl  Cl22  1  0.438353  0.749613  0.493630  1
  Cl  Cl23  1  0.938353  0.750387  0.006370  1
  O  O24  1  0.598045  0.249213  0.325640  1
  O  O25  1  0.098045  0.250787  0.174360  1
  O  O26  1  0.401955  0.749213  0.674360  1
  O  O27  1  0.901955  0.750787  0.825640  1
  O  O28  1  0.778295  0.249952  0.597439  1
  O  O29  1  0.278295  0.250048  0.902561  1
  O  O30  1  0.221705  0.749952  0.402561  1
  O  O31  1  0.721705  0.750048  0.097439  1
  O  O32  1  0.432443  0.137408  0.554108  1
  O  O33  1  0.932443  0.362592  0.945892  1
  O  O34  1  0.567557  0.637408  0.445892  1
  O  O35  1  0.067557  0.862592  0.054108  1
  O  O36  1  0.568181  0.861844  0.446662  1
  O  O37  1  0.068181  0.638156  0.053338  1
  O  O38  1  0.431819  0.361844  0.553338  1
  O  O39  1  0.931819  0.138156  0.946662  1
  O  O40  1  0.416711  0.000691  0.143439  1
  O  O41  1  0.916711  0.499309  0.356561  1
  O  O42  1  0.583289  0.500691  0.856561  1
  O  O43  1  0.083289  0.999309  0.643439  1
  O  O44  1  0.581759  -0.000249  0.863465  1
  O  O45  1  0.081759  0.500249  0.636535  1
  O  O46  1  0.418241  0.499751  0.136535  1
  O  O47  1  0.918241  0.000249  0.363465  1
