# generated using pymatgen
data_Rb11Al14Si10(AgO16)3
_symmetry_space_group_name_H-M   'P 1'
_cell_length_a   12.71646788
_cell_length_b   12.44670972
_cell_length_c   12.47034998
_cell_angle_alpha   90.12236251
_cell_angle_beta   89.89503290
_cell_angle_gamma   90.29288453
_symmetry_Int_Tables_number   1
_chemical_formula_structural   Rb11Al14Si10(AgO16)3
_chemical_formula_sum   'Rb11 Al14 Si10 Ag3 O48'
_cell_volume   1973.75079059
_cell_formula_units_Z   1
loop_
 _symmetry_equiv_pos_site_id
 _symmetry_equiv_pos_as_xyz
  1  'x, y, z'
loop_
 _atom_site_type_symbol
 _atom_site_label
 _atom_site_symmetry_multiplicity
 _atom_site_fract_x
 _atom_site_fract_y
 _atom_site_fract_z
 _atom_site_occupancy
  Rb  Rb0  1  0.262109  0.257250  0.246842  1
  Rb  Rb1  1  0.489917  0.503306  0.998489  1
  Rb  Rb2  1  0.511542  0.003959  0.506625  1
  Rb  Rb3  1  0.710869  0.257080  0.734415  1
  Rb  Rb4  1  0.741141  0.248743  0.248010  1
  Rb  Rb5  1  0.708427  0.731748  0.257743  1
  Rb  Rb6  1  0.707914  0.730166  0.731799  1
  Rb  Rb7  1  0.885885  0.134898  0.908117  1
  Rb  Rb8  1  0.877481  0.907341  0.134767  1
  Rb  Rb9  1  0.897538  0.863102  0.866376  1
  Rb  Rb10  1  0.019611  0.519526  0.513224  1
  Al  Al11  1  0.178328  0.370598  0.000149  1
  Al  Al12  1  0.370966  0.996641  0.195929  1
  Al  Al13  1  0.375087  0.190067  0.001692  1
  Al  Al14  1  0.368434  0.002905  0.801443  1
  Al  Al15  1  0.367961  0.808813  0.999347  1
  Al  Al16  1  0.618163  0.996064  0.192985  1
  Al  Al17  1  0.624782  0.187172  0.001561  1
  Al  Al18  1  0.620801  0.999802  0.809281  1
  Al  Al19  1  0.621621  0.810749  0.996891  1
  Al  Al20  1  0.823224  0.998512  0.374826  1
  Al  Al21  1  0.822672  0.999080  0.626941  1
  Al  Al22  1  0.824092  0.375166  0.001858  1
  Al  Al23  1  0.822802  0.625517  0.001739  1
  Al  Al24  1  0.004401  0.810752  0.624444  1
  Si  Si25  1  0.176671  0.004834  0.626241  1
  Si  Si26  1  0.178182  0.624540  0.997959  1
  Si  Si27  1  0.174229  0.003678  0.373025  1
  Si  Si28  1  0.004170  0.187009  0.627095  1
  Si  Si29  1  0.001295  0.188433  0.374189  1
  Si  Si30  1  0.003481  0.375750  0.190466  1
  Si  Si31  1  0.004715  0.370342  0.811948  1
  Si  Si32  1  0.004485  0.627135  0.184921  1
  Si  Si33  1  0.004891  0.619692  0.812285  1
  Si  Si34  1  0.006045  0.811240  0.372789  1
  Ag  Ag35  1  0.504383  0.504643  0.338081  1
  Ag  Ag36  1  0.499044  0.505021  0.662139  1
  Ag  Ag37  1  0.495076  0.640373  0.500125  1
  O  O38  1  0.002940  0.502975  0.235453  1
  O  O39  1  0.004528  0.298516  0.698998  1
  O  O40  1  0.014435  0.708016  0.289190  1
  O  O41  1  0.010554  0.758485  0.491716  1
  O  O42  1  0.007959  0.694130  0.705951  1
  O  O43  1  0.106804  0.116500  0.348891  1
  O  O44  1  0.107834  0.350496  0.122856  1
  O  O45  1  0.102169  0.339573  0.886154  1
  O  O46  1  0.103659  0.895685  0.348713  1
  O  O47  1  0.109858  0.117803  0.647924  1
  O  O48  1  0.104903  0.645544  0.106364  1
  O  O49  1  0.104251  0.644643  0.890861  1
  O  O50  1  0.107113  0.899937  0.652460  1
  O  O51  1  0.209449  0.007025  0.497824  1
  O  O52  1  0.221313  0.503776  0.998665  1
  O  O53  1  0.290207  0.296303  0.015229  1
  O  O54  1  0.285484  0.009542  0.690730  1
  O  O55  1  0.275141  0.706077  0.996725  1
  O  O56  1  0.277077  0.009775  0.299750  1
  O  O57  1  0.357277  0.111974  0.117383  1
  O  O58  1  0.349968  0.111790  0.887862  1
  O  O59  1  0.348546  0.886238  0.114003  1
  O  O60  1  0.347662  0.891603  0.886167  1
  O  O61  1  0.495611  0.998589  0.259796  1
  O  O62  1  0.501869  0.250219  0.003046  1
  O  O63  1  0.495383  0.750234  0.993599  1
  O  O64  1  0.496710  0.998044  0.747082  1
  O  O65  1  0.636477  0.113742  0.119560  1
  O  O66  1  0.646226  0.114571  0.884819  1
  O  O67  1  0.640640  0.881344  0.116233  1
  O  O68  1  0.645812  0.879974  0.876911  1
  O  O69  1  0.718668  0.010916  0.714011  1
  O  O70  1  0.732028  0.274137  0.001775  1
  O  O71  1  0.728822  0.723527  0.997717  1
  O  O72  1  0.726117  0.993443  0.279444  1
  O  O73  1  0.767916  0.499660  0.007234  1
  O  O74  1  0.770662  0.006218  0.500269  1
  O  O75  1  0.898821  0.118085  0.344371  1
  O  O76  1  0.898741  0.349158  0.121797  1
  O  O77  1  0.894031  0.349598  0.876424  1
  O  O78  1  0.897723  0.876821  0.348737  1
  O  O79  1  0.899682  0.119061  0.658921  1
  O  O80  1  0.896586  0.657027  0.122150  1
  O  O81  1  0.897443  0.643652  0.880061  1
  O  O82  1  0.886881  0.876925  0.654794  1
  O  O83  1  0.003123  0.230316  0.500490  1
  O  O84  1  0.006273  0.301455  0.303445  1
  O  O85  1  0.008091  0.494932  0.765390  1
