# generated using pymatgen
data_NbO2
_symmetry_space_group_name_H-M   'P 1'
_cell_length_a   6.74018434
_cell_length_b   11.61476427
_cell_length_c   11.61476466
_cell_angle_alpha   85.17052596
_cell_angle_beta   73.13270895
_cell_angle_gamma   73.13271132
_symmetry_Int_Tables_number   1
_chemical_formula_structural   NbO2
_chemical_formula_sum   'Nb16 O32'
_cell_volume   832.71762637
_cell_formula_units_Z   16
loop_
 _symmetry_equiv_pos_site_id
 _symmetry_equiv_pos_as_xyz
  1  'x, y, z'
loop_
 _atom_site_type_symbol
 _atom_site_label
 _atom_site_symmetry_multiplicity
 _atom_site_fract_x
 _atom_site_fract_y
 _atom_site_fract_z
 _atom_site_occupancy
  Nb  Nb0  1  0.674086  0.399697  0.039279  1
  Nb  Nb1  1  0.340380  0.352867  0.386855  1
  Nb  Nb2  1  0.713364  0.460721  0.399697  1
  Nb  Nb3  1  0.080102  0.147133  0.113145  1
  Nb  Nb4  1  0.325914  0.600303  0.960721  1
  Nb  Nb5  1  0.272765  0.886855  0.647133  1
  Nb  Nb6  1  0.193247  0.386855  0.147133  1
  Nb  Nb7  1  0.886939  0.899697  0.539279  1
  Nb  Nb8  1  0.573782  0.039279  0.100304  1
  Nb  Nb9  1  0.806753  0.613145  0.852867  1
  Nb  Nb10  1  0.659620  0.647133  0.613145  1
  Nb  Nb11  1  0.727235  0.113145  0.352867  1
  Nb  Nb12  1  0.919898  0.852867  0.886855  1
  Nb  Nb13  1  0.113061  0.100304  0.460721  1
  Nb  Nb14  1  0.286636  0.539279  0.600303  1
  Nb  Nb15  1  0.426218  0.960721  0.899697  1
  O  O16  1  0.079432  0.776399  0.460109  1
  O  O17  1  0.866397  0.918893  0.036032  1
  O  O18  1  0.946975  0.325341  0.120978  1
  O  O19  1  0.355832  0.460109  0.723601  1
  O  O20  1  0.097570  0.536032  0.081107  1
  O  O21  1  0.227683  0.879022  0.825341  1
  O  O22  1  0.644168  0.539891  0.276399  1
  O  O23  1  0.393295  0.174659  0.379022  1
  O  O24  1  0.133603  0.081107  0.963968  1
  O  O25  1  0.053025  0.674659  0.879022  1
  O  O26  1  0.714710  0.963968  0.418893  1
  O  O27  1  0.932046  0.620978  0.674659  1
  O  O28  1  0.051299  0.107979  0.292230  1
  O  O29  1  0.659278  0.292230  0.392021  1
  O  O30  1  0.548492  0.607979  0.792230  1
  O  O31  1  0.460459  0.960109  0.223601  1
  O  O32  1  0.539541  0.039891  0.776399  1
  O  O33  1  0.821323  0.581107  0.463968  1
  O  O34  1  0.948701  0.892021  0.707770  1
  O  O35  1  0.606705  0.825341  0.620978  1
  O  O36  1  0.902430  0.463968  0.918893  1
  O  O37  1  0.067954  0.379022  0.325341  1
  O  O38  1  0.656471  0.792230  0.892021  1
  O  O39  1  0.920568  0.223601  0.539891  1
  O  O40  1  0.772317  0.120978  0.174659  1
  O  O41  1  0.340722  0.707770  0.607979  1
  O  O42  1  0.343529  0.207770  0.107979  1
  O  O43  1  0.315941  0.723601  0.039891  1
  O  O44  1  0.285290  0.036032  0.581107  1
  O  O45  1  0.684059  0.276399  0.960109  1
  O  O46  1  0.178677  0.418893  0.536032  1
  O  O47  1  0.451508  0.392021  0.207770  1
