# generated using pymatgen
data_Na3SrTiNb3O12
_symmetry_space_group_name_H-M   'P 1'
_cell_length_a   7.92616207
_cell_length_b   7.92843249
_cell_length_c   8.01393431
_cell_angle_alpha   90.00000000
_cell_angle_beta   90.00000000
_cell_angle_gamma   89.84133914
_symmetry_Int_Tables_number   1
_chemical_formula_structural   Na3SrTiNb3O12
_chemical_formula_sum   'Na6 Sr2 Ti2 Nb6 O24'
_cell_volume   503.61005705
_cell_formula_units_Z   2
loop_
 _symmetry_equiv_pos_site_id
 _symmetry_equiv_pos_as_xyz
  1  'x, y, z'
loop_
 _atom_site_type_symbol
 _atom_site_label
 _atom_site_symmetry_multiplicity
 _atom_site_fract_x
 _atom_site_fract_y
 _atom_site_fract_z
 _atom_site_occupancy
  Na  Na0  1  0.000000  0.000000  0.236336  1
  Na  Na1  1  0.000000  0.500000  0.232155  1
  Na  Na2  1  0.000000  0.500000  0.767525  1
  Na  Na3  1  0.500000  0.000000  0.232475  1
  Na  Na4  1  0.500000  0.000000  0.767845  1
  Na  Na5  1  0.500000  0.500000  0.763664  1
  Sr  Sr6  1  0.000000  0.000000  0.761367  1
  Sr  Sr7  1  0.500000  0.500000  0.238633  1
  Ti  Ti8  1  0.250000  0.750000  0.000000  1
  Ti  Ti9  1  0.750000  0.250000  0.000000  1
  Nb  Nb10  1  0.250000  0.250000  0.000000  1
  Nb  Nb11  1  0.250000  0.250000  0.500000  1
  Nb  Nb12  1  0.250000  0.750000  0.500000  1
  Nb  Nb13  1  0.750000  0.250000  0.500000  1
  Nb  Nb14  1  0.750000  0.750000  0.000000  1
  Nb  Nb15  1  0.750000  0.750000  0.500000  1
  O  O16  1  0.998186  0.274593  0.002222  1
  O  O17  1  0.001814  0.725407  0.002222  1
  O  O18  1  0.000697  0.202637  0.491841  1
  O  O19  1  0.221254  0.998073  0.004582  1
  O  O20  1  0.207454  0.499380  0.499275  1
  O  O21  1  0.239420  0.242499  0.749022  1
  O  O22  1  0.239944  0.757074  0.750454  1
  O  O23  1  0.260580  0.257501  0.250978  1
  O  O24  1  0.260056  0.742926  0.249546  1
  O  O25  1  0.292546  0.000620  0.500725  1
  O  O26  1  0.278746  0.501927  0.995418  1
  O  O27  1  0.501814  0.225407  0.997778  1
  O  O28  1  0.499303  0.297363  0.508159  1
  O  O29  1  0.498186  0.774593  0.997778  1
  O  O30  1  0.500697  0.702637  0.508159  1
  O  O31  1  0.721254  0.498073  0.995418  1
  O  O32  1  0.707454  0.999380  0.500725  1
  O  O33  1  0.739944  0.257074  0.249546  1
  O  O34  1  0.739420  0.742499  0.250978  1
  O  O35  1  0.760056  0.242926  0.750454  1
  O  O36  1  0.760580  0.757501  0.749022  1
  O  O37  1  0.792546  0.500620  0.499275  1
  O  O38  1  0.778746  0.001927  0.004582  1
  O  O39  1  0.999303  0.797363  0.491841  1
