# generated using pymatgen
data_BaLaMnInO6
_symmetry_space_group_name_H-M   'P 1'
_cell_length_a   5.85453899
_cell_length_b   23.11856889
_cell_length_c   10.05914322
_cell_angle_alpha   29.51556173
_cell_angle_beta   54.40681078
_cell_angle_gamma   59.56955153
_symmetry_Int_Tables_number   1
_chemical_formula_structural   BaLaMnInO6
_chemical_formula_sum   'Ba4 La4 Mn4 In4 O24'
_cell_volume   545.43525624
_cell_formula_units_Z   4
loop_
 _symmetry_equiv_pos_site_id
 _symmetry_equiv_pos_as_xyz
  1  'x, y, z'
loop_
 _atom_site_type_symbol
 _atom_site_label
 _atom_site_symmetry_multiplicity
 _atom_site_fract_x
 _atom_site_fract_y
 _atom_site_fract_z
 _atom_site_occupancy
  Ba  Ba0  1  0.251860  0.007470  0.735075  1
  Ba  Ba1  1  0.748140  0.007470  0.235045  1
  Ba  Ba2  1  0.251860  0.242530  0.764955  1
  Ba  Ba3  1  0.748140  0.242530  0.264925  1
  La  La4  1  0.238655  0.484927  0.780149  1
  La  La5  1  0.761345  0.484927  0.280143  1
  La  La6  1  0.238655  0.765073  0.719857  1
  La  La7  1  0.761345  0.765073  0.219851  1
  Mn  Mn8  1  0.500000  0.002751  0.994497  1
  Mn  Mn9  1  0.500000  0.247249  0.005503  1
  Mn  Mn10  1  1.000000  0.002744  0.494511  1
  Mn  Mn11  1  0.000000  0.247256  0.505489  1
  In  In12  1  1.000000  0.500032  0.499936  1
  In  In13  1  0.500000  0.500026  -0.000052  1
  In  In14  1  0.500000  0.749974  0.000052  1
  In  In15  1  0.000000  0.749968  0.500064  1
  O  O16  1  0.281263  0.995007  0.259983  1
  O  O17  1  0.242073  0.124997  0.257943  1
  O  O18  1  0.281263  0.254993  0.240012  1
  O  O19  1  0.242073  0.125003  0.757933  1
  O  O20  1  0.190603  0.371579  0.285793  1
  O  O21  1  0.757927  0.124997  0.242067  1
  O  O22  1  0.718737  0.995007  0.759988  1
  O  O23  1  0.358644  0.495661  0.258680  1
  O  O24  1  0.251495  0.371579  0.785797  1
  O  O25  1  0.176834  0.625011  0.323133  1
  O  O26  1  0.757927  0.125003  0.742057  1
  O  O27  1  0.809397  0.371579  0.227892  1
  O  O28  1  0.718737  0.254993  0.740017  1
  O  O29  1  0.358644  0.754339  0.241324  1
  O  O30  1  0.176834  0.624989  0.823178  1
  O  O31  1  0.251495  0.878421  0.272112  1
  O  O32  1  0.748505  0.371579  0.727888  1
  O  O33  1  0.823166  0.625011  0.176822  1
  O  O34  1  0.641356  0.495661  0.758676  1
  O  O35  1  0.190603  0.878421  0.772108  1
  O  O36  1  0.823166  0.624989  0.676867  1
  O  O37  1  0.748505  0.878421  0.214203  1
  O  O38  1  0.641356  0.754339  0.741320  1
  O  O39  1  0.809397  0.878421  0.714207  1
