# generated using pymatgen
data_Re3C14NO16
_symmetry_space_group_name_H-M   'P 1'
_cell_length_a   9.38765238
_cell_length_b   14.17004835
_cell_length_c   17.73315390
_cell_angle_alpha   90.00000000
_cell_angle_beta   90.00000000
_cell_angle_gamma   95.95822631
_symmetry_Int_Tables_number   1
_chemical_formula_structural   Re3C14NO16
_chemical_formula_sum   'Re12 C56 N4 O64'
_cell_volume   2346.18269472
_cell_formula_units_Z   4
loop_
 _symmetry_equiv_pos_site_id
 _symmetry_equiv_pos_as_xyz
  1  'x, y, z'
loop_
 _atom_site_type_symbol
 _atom_site_label
 _atom_site_symmetry_multiplicity
 _atom_site_fract_x
 _atom_site_fract_y
 _atom_site_fract_z
 _atom_site_occupancy
  Re  Re0  1  0.218126  0.123402  0.117354  1
  Re  Re1  1  0.284400  0.598633  0.089536  1
  Re  Re2  1  0.284400  0.098633  0.410464  1
  Re  Re3  1  0.781874  0.876598  0.882646  1
  Re  Re4  1  0.881721  0.002358  0.217354  1
  Re  Re5  1  0.715600  0.901367  0.589536  1
  Re  Re6  1  0.715600  0.401367  0.910464  1
  Re  Re7  1  0.881721  0.502358  0.282646  1
  Re  Re8  1  0.118279  0.497642  0.717354  1
  Re  Re9  1  0.781874  0.376598  0.617354  1
  Re  Re10  1  0.218126  0.623402  0.382646  1
  Re  Re11  1  0.118279  0.997642  0.782646  1
  C  C12  1  0.027899  0.114976  0.811508  1
  C  C13  1  0.804185  0.123446  0.246792  1
  C  C14  1  0.292507  0.033330  0.840931  1
  C  C15  1  0.985718  0.069850  0.112772  1
  C  C16  1  0.169310  0.252909  0.141811  1
  C  C17  1  0.207960  0.989283  0.477030  1
  C  C18  1  0.972101  0.385024  0.311508  1
  C  C19  1  0.215592  0.661474  0.486593  1
  C  C20  1  0.014282  0.930150  0.887228  1
  C  C21  1  0.648137  0.792213  0.659208  1
  C  C22  1  0.260826  0.491729  0.411957  1
  C  C23  1  0.424306  0.663039  0.374358  1
  C  C24  1  0.832076  0.316016  0.971769  1
  C  C25  1  0.394739  0.013072  0.346787  1
  C  C26  1  0.792040  0.010717  0.522970  1
  C  C27  1  0.027899  0.614976  0.688492  1
  C  C28  1  0.832076  0.816016  0.528231  1
  C  C29  1  0.167924  0.183984  0.471769  1
  C  C30  1  0.739174  0.508271  0.588043  1
  C  C31  1  0.194813  0.558470  0.809296  1
  C  C32  1  0.805187  0.941530  0.309296  1
  C  C33  1  0.194813  0.058470  0.690704  1
  C  C34  1  0.014282  0.430150  0.612772  1
  C  C35  1  0.169310  0.752909  0.358189  1
  C  C36  1  0.707493  0.466670  0.340931  1
  C  C37  1  0.648137  0.292213  0.840792  1
  C  C38  1  0.552794  0.871747  0.523042  1
  C  C39  1  0.207960  0.489283  0.022970  1
  C  C40  1  0.784408  0.838526  0.986593  1
  C  C41  1  0.830690  0.247091  0.641811  1
  C  C42  1  0.292507  0.533330  0.659069  1
  C  C43  1  0.804185  0.623446  0.253208  1
  C  C44  1  0.351863  0.707787  0.159208  1
  C  C45  1  0.195815  0.376554  0.746792  1
  C  C46  1  0.167924  0.683984  0.028231  1
  C  C47  1  0.575694  0.336961  0.625642  1
  C  C48  1  0.260826  0.991729  0.088043  1
  C  C49  1  0.215592  0.161474  0.013407  1
  C  C50  1  0.707493  0.966670  0.159069  1
  C  C51  1  0.792040  0.510717  0.977030  1
  C  C52  1  0.805187  0.441530  0.190704  1
  C  C53  1  0.985718  0.569850  0.387228  1
  C  C54  1  0.972101  0.885024  0.188492  1
  C  C55  1  0.830690  0.747091  0.858189  1
  C  C56  1  0.552794  0.371747  0.976958  1
  C  C57  1  0.447206  0.628253  0.023042  1
  C  C58  1  0.394739  0.513072  0.153213  1
  C  C59  1  0.784408  0.338526  0.513407  1
  C  C60  1  0.739174  0.008271  0.911957  1
  C  C61  1  0.195815  0.876554  0.753208  1
  C  C62  1  0.605261  0.986928  0.653213  1
  C  C63  1  0.575694  0.836961  0.874358  1
  C  C64  1  0.424306  0.163039  0.125642  1
  C  C65  1  0.605261  0.486928  0.846787  1
  C  C66  1  0.447206  0.128253  0.476958  1
  C  C67  1  0.351863  0.207787  0.340792  1
  N  N68  1  0.918052  0.944628  0.728075  1
  N  N69  1  0.081948  0.555372  0.228075  1
  N  N70  1  0.918052  0.444628  0.771925  1
  N  N71  1  0.081948  0.055372  0.271925  1
  O  O72  1  0.082489  0.929550  0.944878  1
  O  O73  1  0.242192  0.308782  0.768920  1
  O  O74  1  0.540624  0.035301  0.689450  1
  O  O75  1  0.454913  0.856129  0.482929  1
  O  O76  1  0.082489  0.429550  0.555122  1
  O  O77  1  0.540624  0.535301  0.810550  1
  O  O78  1  0.762668  0.905947  0.365444  1
  O  O79  1  0.453220  0.812317  0.872082  1
  O  O80  1  0.606385  0.730627  0.698542  1
  O  O81  1  0.237332  0.094053  0.634556  1
  O  O82  1  0.209762  0.688472  0.548827  1
  O  O83  1  0.790238  0.311528  0.451173  1
  O  O84  1  0.161055  0.928155  0.515745  1
  O  O85  1  0.102700  0.731533  0.991943  1
  O  O86  1  0.397336  0.551325  0.624344  1
  O  O87  1  0.602664  0.948675  0.124344  1
  O  O88  1  0.911051  0.442700  0.845251  1
  O  O89  1  0.969815  0.181793  0.824503  1
  O  O90  1  0.602664  0.448675  0.375656  1
  O  O91  1  0.706399  0.581557  0.569501  1
  O  O92  1  0.546780  0.187683  0.127918  1
  O  O93  1  0.969815  0.681793  0.675497  1
  O  O94  1  0.545087  0.143871  0.517071  1
  O  O95  1  0.144962  0.330502  0.154349  1
  O  O96  1  0.237332  0.594053  0.865444  1
  O  O97  1  0.838945  0.571845  0.015745  1
  O  O98  1  0.088949  0.557300  0.154749  1
  O  O99  1  0.030185  0.818207  0.175497  1
  O  O100  1  0.459376  0.464699  0.189450  1
  O  O101  1  0.790238  0.811528  0.048827  1
  O  O102  1  0.799729  0.414790  0.738024  1
  O  O103  1  0.102700  0.231533  0.508057  1
  O  O104  1  0.911051  0.942700  0.654749  1
  O  O105  1  0.897300  0.268467  0.008057  1
  O  O106  1  0.454913  0.356129  0.017071  1
  O  O107  1  0.144962  0.830502  0.345651  1
  O  O108  1  0.393615  0.769373  0.198542  1
  O  O109  1  0.799729  0.914790  0.761976  1
  O  O110  1  0.242192  0.808782  0.731080  1
  O  O111  1  0.545087  0.643871  0.982929  1
  O  O112  1  0.855038  0.669498  0.845651  1
  O  O113  1  0.459376  0.964699  0.310550  1
  O  O114  1  0.209762  0.188472  0.951173  1
  O  O115  1  0.762668  0.405947  0.134556  1
  O  O116  1  0.855038  0.169498  0.654349  1
  O  O117  1  0.838945  0.071845  0.484255  1
  O  O118  1  0.706399  0.081557  0.930499  1
  O  O119  1  0.030185  0.318207  0.324503  1
  O  O120  1  0.088949  0.057300  0.345251  1
  O  O121  1  0.606385  0.230627  0.801458  1
  O  O122  1  0.917511  0.570450  0.444878  1
  O  O123  1  0.161055  0.428155  0.984255  1
  O  O124  1  0.757808  0.691218  0.231080  1
  O  O125  1  0.546780  0.687683  0.372082  1
  O  O126  1  0.757808  0.191218  0.268920  1
  O  O127  1  0.397336  0.051325  0.875656  1
  O  O128  1  0.200271  0.085210  0.238024  1
  O  O129  1  0.897300  0.768467  0.491943  1
  O  O130  1  0.453220  0.312317  0.627918  1
  O  O131  1  0.200271  0.585210  0.261976  1
  O  O132  1  0.917511  0.070450  0.055122  1
  O  O133  1  0.293601  0.418443  0.430499  1
  O  O134  1  0.293601  0.918443  0.069501  1
  O  O135  1  0.393615  0.269373  0.301458  1
