# generated using pymatgen
data_Na3TlH24(ClO2)6
_symmetry_space_group_name_H-M   'P 1'
_cell_length_a   8.64816141
_cell_length_b   8.68197787
_cell_length_c   8.64733266
_cell_angle_alpha   72.66867846
_cell_angle_beta   74.44974797
_cell_angle_gamma   73.85413048
_symmetry_Int_Tables_number   1
_chemical_formula_structural   Na3TlH24(ClO2)6
_chemical_formula_sum   'Na3 Tl1 H24 Cl6 O12'
_cell_volume   583.06896436
_cell_formula_units_Z   1
loop_
 _symmetry_equiv_pos_site_id
 _symmetry_equiv_pos_as_xyz
  1  'x, y, z'
loop_
 _atom_site_type_symbol
 _atom_site_label
 _atom_site_symmetry_multiplicity
 _atom_site_fract_x
 _atom_site_fract_y
 _atom_site_fract_z
 _atom_site_occupancy
  Na  Na0  1  0.334677  0.325308  0.321411  1
  Na  Na1  1  0.500045  0.489794  0.501988  1
  Na  Na2  1  0.672263  0.674496  0.689370  1
  Tl  Tl3  1  0.026216  0.976872  0.987551  1
  H  H4  1  0.127251  0.119458  0.394882  1
  H  H5  1  0.112339  0.388688  0.131330  1
  H  H6  1  0.116637  0.476442  0.122628  1
  H  H7  1  0.126802  0.125590  0.480190  1
  H  H8  1  0.378642  0.132140  0.069549  1
  H  H9  1  0.159149  0.457114  0.617008  1
  H  H10  1  0.136103  0.621592  0.481609  1
  H  H11  1  0.553849  0.109352  0.101981  1
  H  H12  1  0.475447  0.129670  0.627760  1
  H  H13  1  0.453370  0.617704  0.168108  1
  H  H14  1  0.379856  0.843438  0.534589  1
  H  H15  1  0.381741  0.544915  0.833793  1
  H  H16  1  0.622545  0.493741  0.129718  1
  H  H17  1  0.622399  0.132315  0.477253  1
  H  H18  1  0.505813  0.374519  0.872880  1
  H  H19  1  0.528913  0.846364  0.382127  1
  H  H20  1  0.434255  0.894631  0.926704  1
  H  H21  1  0.841274  0.541373  0.386486  1
  H  H22  1  0.846993  0.386784  0.541447  1
  H  H23  1  0.616905  0.909602  0.877332  1
  H  H24  1  0.957977  0.381459  0.873506  1
  H  H25  1  0.949488  0.914777  0.364707  1
  H  H26  1  0.866144  0.633049  0.965310  1
  H  H27  1  0.860384  0.954684  0.635970  1
  Cl  Cl28  1  0.203495  0.203576  0.840899  1
  Cl  Cl29  1  0.257387  0.843478  0.171758  1
  Cl  Cl30  1  0.171101  0.770002  0.806372  1
  Cl  Cl31  1  0.868526  0.158325  0.195999  1
  Cl  Cl32  1  0.807716  0.787417  0.152822  1
  Cl  Cl33  1  0.816884  0.129241  0.787919  1
  O  O34  1  0.204633  0.508779  0.502255  1
  O  O35  1  0.442808  0.179025  0.113873  1
  O  O36  1  0.516354  0.505227  0.207958  1
  O  O37  1  0.511129  0.193319  0.514636  1
  O  O38  1  0.489521  0.480128  0.790740  1
  O  O39  1  0.488198  0.781437  0.491969  1
  O  O40  1  0.529583  0.896298  0.833504  1
  O  O41  1  0.777034  0.488960  0.491169  1
  O  O42  1  0.800416  0.572004  0.937645  1
  O  O43  1  0.821577  0.890686  0.581994  1
  O  O44  1  0.915114  0.493784  0.810204  1
  O  O45  1  0.971047  0.832642  0.468898  1
