# generated using pymatgen
data_Rb3Yb2(PO4)3
_symmetry_space_group_name_H-M   'P 1'
_cell_length_a   15.11992272
_cell_length_b   15.11992287
_cell_length_c   15.11992337
_cell_angle_alpha   109.47122277
_cell_angle_beta   109.47122296
_cell_angle_gamma   109.47122017
_symmetry_Int_Tables_number   1
_chemical_formula_structural   Rb3Yb2(PO4)3
_chemical_formula_sum   'Rb24 Yb16 P24 O96'
_cell_volume   2660.88941051
_cell_formula_units_Z   8
loop_
 _symmetry_equiv_pos_site_id
 _symmetry_equiv_pos_as_xyz
  1  'x, y, z'
loop_
 _atom_site_type_symbol
 _atom_site_label
 _atom_site_symmetry_multiplicity
 _atom_site_fract_x
 _atom_site_fract_y
 _atom_site_fract_z
 _atom_site_occupancy
  Yb  Yb0  1  0.465166  0.250000  0.715166  1
  Yb  Yb1  1  0.250000  0.211150  0.961150  1
  Yb  Yb2  1  0.500000  1.000000  0.009282  1
  Yb  Yb3  1  0.034834  0.750000  0.784834  1
  Yb  Yb4  1  0.250000  0.715166  0.465166  1
  Yb  Yb5  1  0.750000  0.288850  0.538850  1
  Yb  Yb6  1  0.288850  0.538850  0.750000  1
  Yb  Yb7  1  0.490718  0.490718  0.490718  1
  Yb  Yb8  1  0.715166  0.465166  0.250000  1
  Yb  Yb9  1  1.000000  0.009282  0.500000  1
  Yb  Yb10  1  0.961150  0.250000  0.211150  1
  Yb  Yb11  1  0.211150  0.961150  0.250000  1
  Yb  Yb12  1  0.009282  0.500000  1.000000  1
  Yb  Yb13  1  0.750000  0.784834  0.034834  1
  Yb  Yb14  1  0.538850  0.750000  0.288850  1
  Yb  Yb15  1  0.784834  0.034834  0.750000  1
  Rb  Rb16  1  0.750000  0.993723  0.243723  1
  Rb  Rb17  1  0.250000  0.506277  0.256277  1
  Rb  Rb18  1  0.737756  0.750000  0.487756  1
  Rb  Rb19  1  0.749103  0.500000  1.000000  1
  Rb  Rb20  1  0.500392  0.500000  0.000000  1
  Rb  Rb21  1  0.506277  0.256277  0.250000  1
  Rb  Rb22  1  0.487756  0.737756  0.750000  1
  Rb  Rb23  1  0.256277  0.250000  0.506277  1
  Rb  Rb24  1  0.500000  0.000000  0.500392  1
  Rb  Rb25  1  0.500000  1.000000  0.749103  1
  Rb  Rb26  1  0.500000  1.000000  0.260002  1
  Rb  Rb27  1  0.999608  0.999608  0.999608  1
  Rb  Rb28  1  0.750000  0.487756  0.737756  1
  Rb  Rb29  1  0.012244  0.762244  0.250000  1
  Rb  Rb30  1  1.000000  0.749103  0.500000  1
  Rb  Rb31  1  0.250000  0.012244  0.762244  1
  Rb  Rb32  1  1.000000  0.260002  0.500000  1
  Rb  Rb33  1  0.993723  0.243723  0.750000  1
  Rb  Rb34  1  0.239998  0.239998  0.239998  1
  Rb  Rb35  1  0.750897  0.750897  0.750897  1
  Rb  Rb36  1  0.260002  0.500000  1.000000  1
  Rb  Rb37  1  0.000000  0.500392  0.500000  1
  Rb  Rb38  1  0.762244  0.250000  0.012244  1
  Rb  Rb39  1  0.243723  0.750000  0.993723  1
  P  P40  1  0.035214  0.492505  0.761110  1
  P  P41  1  0.492505  0.761110  0.035214  1
  P  P42  1  0.231395  0.274104  0.738890  1
  P  P43  1  0.262473  0.776318  0.733748  1
  P  P44  1  0.042709  0.268605  0.007495  1
  P  P45  1  0.542570  0.528725  0.766252  1
  P  P46  1  0.971275  0.513845  0.237527  1
  P  P47  1  0.738890  0.231395  0.274104  1
  P  P48  1  0.776318  0.733748  0.262473  1
  P  P49  1  0.528725  0.766252  0.542570  1
  P  P50  1  0.733748  0.262473  0.776318  1
  P  P51  1  0.464786  0.225896  0.457291  1
  P  P52  1  0.274104  0.738890  0.231395  1
  P  P53  1  0.766252  0.542570  0.528725  1
  P  P54  1  0.007495  0.042709  0.268605  1
  P  P55  1  0.723682  0.986155  0.957430  1
  P  P56  1  0.237527  0.971275  0.513845  1
  P  P57  1  0.513845  0.237527  0.971275  1
  P  P58  1  0.225896  0.457291  0.464786  1
  P  P59  1  0.986155  0.957430  0.723682  1
  P  P60  1  0.957430  0.723682  0.986155  1
  P  P61  1  0.761110  0.035214  0.492505  1
  P  P62  1  0.457291  0.464786  0.225896  1
  P  P63  1  0.268605  0.007495  0.042709  1
  O  O64  1  0.609821  0.958616  0.943280  1
  O  O65  1  0.046236  0.603918  0.784196  1
  O  O66  1  0.639628  0.116746  0.189689  1
  O  O67  1  0.857217  0.491516  0.220641  1
  O  O68  1  0.389554  0.764335  0.250911  1
  O  O69  1  0.064636  0.810986  0.093361  1
  O  O70  1  0.657392  0.927478  0.399894  1
  O  O71  1  0.541384  0.151205  0.984664  1
  O  O72  1  0.753650  0.282376  0.689014  1
  O  O73  1  0.472416  0.572522  0.229913  1
  O  O74  1  0.270087  0.842608  0.242502  1
  O  O75  1  0.453764  0.237960  0.557682  1
  O  O76  1  0.138643  0.249089  0.013423  1
  O  O77  1  0.958616  0.943280  0.609821  1
  O  O78  1  0.435364  0.528726  0.746350  1
  O  O79  1  0.548885  0.441083  0.795307  1
  O  O80  1  0.249089  0.013423  0.138643  1
  O  O81  1  0.220641  0.857217  0.491516  1
  O  O82  1  0.027584  0.257498  0.100106  1
  O  O83  1  0.022882  0.072943  0.383254  1
  O  O84  1  0.636577  0.279359  0.770876  1
  O  O85  1  0.943280  0.609821  0.958616  1
  O  O86  1  0.896082  0.942318  0.180278  1
  O  O87  1  0.110446  0.361357  0.374781  1
  O  O88  1  0.607802  0.354224  0.058917  1
  O  O89  1  0.528726  0.746350  0.435364  1
  O  O90  1  0.795307  0.548885  0.441083  1
  O  O91  1  0.310311  0.427057  0.449939  1
  O  O92  1  0.100106  0.027584  0.257498  1
  O  O93  1  0.427057  0.449939  0.310311  1
  O  O94  1  0.746350  0.435364  0.528726  1
  O  O95  1  0.971274  0.406639  0.217624  1
  O  O96  1  0.863423  0.634299  0.642783  1
  O  O97  1  0.746422  0.892198  0.951115  1
  O  O98  1  0.486577  0.735665  0.125219  1
  O  O99  1  0.784196  0.046236  0.603918  1
  O  O100  1  0.753578  0.704693  0.145776  1
  O  O101  1  0.250911  0.389554  0.764335  1
  O  O102  1  0.704693  0.145776  0.753578  1
  O  O103  1  0.217624  0.971274  0.406639  1
  O  O104  1  0.927478  0.399894  0.657392  1
  O  O105  1  0.572522  0.229913  0.472416  1
  O  O106  1  0.689014  0.753650  0.282376  1
  O  O107  1  0.058917  0.607802  0.354224  1
  O  O108  1  0.810986  0.093361  0.064636  1
  O  O109  1  0.842608  0.242502  0.270087  1
  O  O110  1  0.229913  0.472416  0.572522  1
  O  O111  1  0.282376  0.689014  0.753650  1
  O  O112  1  0.642783  0.863423  0.634299  1
  O  O113  1  0.354224  0.058917  0.607802  1
  O  O114  1  0.515336  0.666541  0.556720  1
  O  O115  1  0.449939  0.310311  0.427057  1
  O  O116  1  0.050061  0.477118  0.860372  1
  O  O117  1  0.319722  0.262040  0.715804  1
  O  O118  1  0.833459  0.348795  0.890179  1
  O  O119  1  0.603918  0.784196  0.046236  1
  O  O120  1  0.262040  0.715804  0.319722  1
  O  O121  1  0.008484  0.865701  0.729124  1
  O  O122  1  0.729124  0.008484  0.865701  1
  O  O123  1  0.406639  0.217624  0.971274  1
  O  O124  1  0.441083  0.795307  0.548885  1
  O  O125  1  0.491516  0.220641  0.857217  1
  O  O126  1  0.735665  0.125219  0.486577  1
  O  O127  1  0.860372  0.050061  0.477118  1
  O  O128  1  0.951115  0.746422  0.892198  1
  O  O129  1  0.242502  0.270087  0.842608  1
  O  O130  1  0.361357  0.374781  0.110446  1
  O  O131  1  0.764335  0.250911  0.389554  1
  O  O132  1  0.557682  0.453764  0.237960  1
  O  O133  1  0.093361  0.064636  0.810986  1
  O  O134  1  0.892198  0.951115  0.746422  1
  O  O135  1  0.257498  0.100106  0.027584  1
  O  O136  1  0.890179  0.833459  0.348795  1
  O  O137  1  0.116746  0.189689  0.639628  1
  O  O138  1  0.556720  0.515336  0.666541  1
  O  O139  1  0.634299  0.642783  0.863423  1
  O  O140  1  0.145776  0.753578  0.704693  1
  O  O141  1  0.715804  0.319722  0.262040  1
  O  O142  1  0.013423  0.138643  0.249089  1
  O  O143  1  0.348795  0.890179  0.833459  1
  O  O144  1  0.151205  0.984664  0.541384  1
  O  O145  1  0.399894  0.657392  0.927478  1
  O  O146  1  0.942318  0.180278  0.896082  1
  O  O147  1  0.477118  0.860372  0.050061  1
  O  O148  1  0.865701  0.729124  0.008484  1
  O  O149  1  0.189689  0.639628  0.116746  1
  O  O150  1  0.072943  0.383254  0.022882  1
  O  O151  1  0.383254  0.022882  0.072943  1
  O  O152  1  0.374781  0.110446  0.361357  1
  O  O153  1  0.125219  0.486577  0.735665  1
  O  O154  1  0.279359  0.770876  0.636577  1
  O  O155  1  0.770876  0.636577  0.279359  1
  O  O156  1  0.666541  0.556720  0.515336  1
  O  O157  1  0.237960  0.557682  0.453764  1
  O  O158  1  0.984664  0.541384  0.151205  1
  O  O159  1  0.180278  0.896082  0.942318  1
