# generated using pymatgen
data_CeGaNi
_symmetry_space_group_name_H-M   'P 1'
_cell_length_a   4.49800976
_cell_length_b   6.70780381
_cell_length_c   7.40596359
_cell_angle_alpha   89.99997385
_cell_angle_beta   90.00009057
_cell_angle_gamma   89.99997764
_symmetry_Int_Tables_number   1
_chemical_formula_structural   CeGaNi
_chemical_formula_sum   'Ce4 Ga4 Ni4'
_cell_volume   223.45100789
_cell_formula_units_Z   4
loop_
 _symmetry_equiv_pos_site_id
 _symmetry_equiv_pos_as_xyz
  1  'x, y, z'
loop_
 _atom_site_type_symbol
 _atom_site_label
 _atom_site_symmetry_multiplicity
 _atom_site_fract_x
 _atom_site_fract_y
 _atom_site_fract_z
 _atom_site_occupancy
  Ce  Ce0  1  0.750000  0.179368  0.528284  1
  Ce  Ce1  1  0.250001  0.679340  0.971717  1
  Ce  Ce2  1  0.250000  0.820628  0.471718  1
  Ce  Ce3  1  0.749999  0.320606  0.028286  1
  Ga  Ga4  1  0.250000  0.395791  0.316645  1
  Ga  Ga5  1  0.250000  0.104225  0.816661  1
  Ga  Ga6  1  0.750000  0.604202  0.683346  1
  Ga  Ga7  1  0.750000  0.895804  0.183353  1
  Ni  Ni8  1  0.750000  0.923492  0.842814  1
  Ni  Ni9  1  0.750001  0.576525  0.342816  1
  Ni  Ni10  1  0.249999  0.423468  0.657176  1
  Ni  Ni11  1  0.250001  0.076549  0.157184  1
