# generated using pymatgen
data_K2SbF5
_symmetry_space_group_name_H-M   'P 1'
_cell_length_a   6.60302727
_cell_length_b   15.49794932
_cell_length_c   17.44413671
_cell_angle_alpha   90.81247426
_cell_angle_beta   90.00000000
_cell_angle_gamma   90.00000000
_symmetry_Int_Tables_number   1
_chemical_formula_structural   K2SbF5
_chemical_formula_sum   'K24 Sb12 F60'
_cell_volume   1784.93803022
_cell_formula_units_Z   12
loop_
 _symmetry_equiv_pos_site_id
 _symmetry_equiv_pos_as_xyz
  1  'x, y, z'
loop_
 _atom_site_type_symbol
 _atom_site_label
 _atom_site_symmetry_multiplicity
 _atom_site_fract_x
 _atom_site_fract_y
 _atom_site_fract_z
 _atom_site_occupancy
  K  K0  1  0.746252  0.368301  0.752075  1
  K  K1  1  0.262170  0.290809  0.915672  1
  K  K2  1  0.760666  0.598774  0.649104  1
  K  K3  1  0.265750  0.457000  0.577701  1
  K  K4  1  0.240459  0.228547  0.684859  1
  K  K5  1  0.753748  0.868301  0.752075  1
  K  K6  1  0.253748  0.631699  0.247925  1
  K  K7  1  0.259541  0.728547  0.684859  1
  K  K8  1  0.252434  0.561647  0.018339  1
  K  K9  1  0.759541  0.771453  0.315141  1
  K  K10  1  0.239334  0.401226  0.350896  1
  K  K11  1  0.237830  0.790809  0.915672  1
  K  K12  1  0.734250  0.543000  0.422299  1
  K  K13  1  0.765750  0.043000  0.422299  1
  K  K14  1  0.737830  0.709191  0.084328  1
  K  K15  1  0.246252  0.131699  0.247925  1
  K  K16  1  0.739334  0.098774  0.649104  1
  K  K17  1  0.234250  0.957000  0.577701  1
  K  K18  1  0.740459  0.271453  0.315141  1
  K  K19  1  0.762170  0.209191  0.084328  1
  K  K20  1  0.260666  0.901226  0.350896  1
  K  K21  1  0.247566  0.061647  0.018339  1
  K  K22  1  0.747566  0.438353  0.981661  1
  K  K23  1  0.752434  0.938353  0.981661  1
  Sb  Sb24  1  0.241783  0.672744  0.471782  1
  Sb  Sb25  1  0.259971  0.341217  0.136325  1
  Sb  Sb26  1  0.758217  0.327256  0.528218  1
  Sb  Sb27  1  0.740029  0.658783  0.863675  1
  Sb  Sb28  1  0.258217  0.172744  0.471782  1
  Sb  Sb29  1  0.258793  0.001354  0.802224  1
  Sb  Sb30  1  0.241207  0.501354  0.802224  1
  Sb  Sb31  1  0.240029  0.841217  0.136325  1
  Sb  Sb32  1  0.741207  0.998646  0.197776  1
  Sb  Sb33  1  0.741783  0.827256  0.528218  1
  Sb  Sb34  1  0.758793  0.498646  0.197776  1
  Sb  Sb35  1  0.759971  0.158783  0.863675  1
  F  F36  1  0.226515  0.877393  0.772655  1
  F  F37  1  0.473543  0.278619  0.206156  1
  F  F38  1  0.022759  0.010067  0.719262  1
  F  F39  1  0.973543  0.221381  0.793844  1
  F  F40  1  0.477241  0.510067  0.719262  1
  F  F41  1  0.273485  0.377393  0.772655  1
  F  F42  1  0.542121  0.139879  0.951536  1
  F  F43  1  0.480323  0.334688  0.049433  1
  F  F44  1  0.992738  0.551796  0.131142  1
  F  F45  1  0.481646  0.108016  0.535530  1
  F  F46  1  0.522759  0.489933  0.280738  1
  F  F47  1  0.533289  0.827170  0.618836  1
  F  F48  1  0.045711  0.299728  0.220325  1
  F  F49  1  0.562508  0.542061  0.108458  1
  F  F50  1  0.050773  0.127684  0.557508  1
  F  F51  1  0.980323  0.165312  0.950567  1
  F  F52  1  0.787128  0.779723  0.898679  1
  F  F53  1  0.287128  0.720277  0.101321  1
  F  F54  1  0.026457  0.778619  0.206156  1
  F  F55  1  0.518354  0.891984  0.464470  1
  F  F56  1  0.470476  0.692804  0.387898  1
  F  F57  1  0.461579  0.998830  0.709244  1
  F  F58  1  0.977241  0.989933  0.280738  1
  F  F59  1  0.519677  0.665312  0.950567  1
  F  F60  1  0.726515  0.622607  0.227345  1
  F  F61  1  0.033289  0.672830  0.381164  1
  F  F62  1  0.937492  0.042061  0.108458  1
  F  F63  1  0.550773  0.372316  0.442492  1
  F  F64  1  0.209618  0.052809  0.434852  1
  F  F65  1  0.029524  0.192804  0.387898  1
  F  F66  1  0.529524  0.307196  0.612102  1
  F  F67  1  0.457879  0.860121  0.048464  1
  F  F68  1  0.018354  0.608016  0.535530  1
  F  F69  1  0.290382  0.552809  0.434852  1
  F  F70  1  0.466711  0.172830  0.381164  1
  F  F71  1  0.492738  0.948204  0.868858  1
  F  F72  1  0.966711  0.327170  0.618836  1
  F  F73  1  0.062508  0.957939  0.891542  1
  F  F74  1  0.042121  0.360121  0.048464  1
  F  F75  1  0.007262  0.448204  0.868858  1
  F  F76  1  0.545711  0.200272  0.779675  1
  F  F77  1  0.981646  0.391984  0.464470  1
  F  F78  1  0.773485  0.122607  0.227345  1
  F  F79  1  0.790382  0.947191  0.565148  1
  F  F80  1  0.038421  0.498830  0.709244  1
  F  F81  1  0.454289  0.799728  0.220325  1
  F  F82  1  0.507262  0.051796  0.131142  1
  F  F83  1  0.437492  0.457939  0.891542  1
  F  F84  1  0.712872  0.279723  0.898679  1
  F  F85  1  0.970476  0.807196  0.612102  1
  F  F86  1  0.954289  0.700272  0.779675  1
  F  F87  1  0.019677  0.834688  0.049433  1
  F  F88  1  0.526457  0.721381  0.793844  1
  F  F89  1  0.957879  0.639879  0.951536  1
  F  F90  1  0.538421  0.001170  0.290756  1
  F  F91  1  0.709618  0.447191  0.565148  1
  F  F92  1  0.949227  0.872316  0.442492  1
  F  F93  1  0.212872  0.220277  0.101321  1
  F  F94  1  0.449227  0.627684  0.557508  1
  F  F95  1  0.961579  0.501170  0.290756  1
