# generated using pymatgen
data_CrPC5Br3O5
_symmetry_space_group_name_H-M   'P 1'
_cell_length_a   6.79379898
_cell_length_b   6.91411686
_cell_length_c   13.82913771
_cell_angle_alpha   88.01887146
_cell_angle_beta   87.18002858
_cell_angle_gamma   87.78222359
_symmetry_Int_Tables_number   1
_chemical_formula_structural   CrPC5Br3O5
_chemical_formula_sum   'Cr2 P2 C10 Br6 O10'
_cell_volume   647.97776240
_cell_formula_units_Z   2
loop_
 _symmetry_equiv_pos_site_id
 _symmetry_equiv_pos_as_xyz
  1  'x, y, z'
loop_
 _atom_site_type_symbol
 _atom_site_label
 _atom_site_symmetry_multiplicity
 _atom_site_fract_x
 _atom_site_fract_y
 _atom_site_fract_z
 _atom_site_occupancy
  Cr  Cr0  1  0.778890  0.219968  0.327299  1
  Cr  Cr1  1  0.221110  0.780032  0.672701  1
  P  P2  1  0.323099  0.815514  0.828219  1
  P  P3  1  0.676901  0.184486  0.171781  1
  C  C4  1  0.021091  0.080132  0.293903  1
  C  C5  1  0.338454  0.016792  0.627675  1
  C  C6  1  0.894844  0.458503  0.283131  1
  C  C7  1  0.876896  0.250262  0.452327  1
  C  C8  1  0.661546  0.983208  0.372325  1
  C  C9  1  0.535235  0.353132  0.366028  1
  C  C10  1  0.464765  0.646868  0.633972  1
  C  C11  1  0.978909  0.919868  0.706097  1
  C  C12  1  0.105156  0.541497  0.716869  1
  C  C13  1  0.123104  0.749738  0.547673  1
  Br  Br14  1  0.586226  0.634157  0.874217  1
  Br  Br15  1  0.107807  0.737237  0.951270  1
  Br  Br16  1  0.413774  0.365843  0.125783  1
  Br  Br17  1  0.892193  0.262763  0.048730  1
  Br  Br18  1  0.402617  0.109772  0.872177  1
  Br  Br19  1  0.597383  0.890228  0.127823  1
  O  O20  1  0.032677  0.399216  0.743789  1
  O  O21  1  0.613757  0.572424  0.609229  1
  O  O22  1  0.967323  0.600784  0.256211  1
  O  O23  1  0.169943  0.997590  0.277041  1
  O  O24  1  0.058522  0.734939  0.472472  1
  O  O25  1  0.590067  0.841925  0.401685  1
  O  O26  1  0.409933  0.158075  0.598315  1
  O  O27  1  0.941478  0.265061  0.527528  1
  O  O28  1  0.386243  0.427576  0.390771  1
  O  O29  1  0.830057  0.002410  0.722959  1
