# generated using pymatgen
data_K2Pt(NO2)4
_symmetry_space_group_name_H-M   'P 1'
_cell_length_a   7.87002573
_cell_length_b   9.68877442
_cell_length_c   12.99121140
_cell_angle_alpha   90.00000000
_cell_angle_beta   90.00000000
_cell_angle_gamma   96.85361864
_symmetry_Int_Tables_number   1
_chemical_formula_structural   K2Pt(NO2)4
_chemical_formula_sum   'K8 Pt4 N16 O32'
_cell_volume   983.51311078
_cell_formula_units_Z   4
loop_
 _symmetry_equiv_pos_site_id
 _symmetry_equiv_pos_as_xyz
  1  'x, y, z'
loop_
 _atom_site_type_symbol
 _atom_site_label
 _atom_site_symmetry_multiplicity
 _atom_site_fract_x
 _atom_site_fract_y
 _atom_site_fract_z
 _atom_site_occupancy
  N  N0  1  0.248168  0.420335  0.478144  1
  N  N1  1  0.509288  0.403125  0.638895  1
  N  N2  1  0.990712  0.596875  0.138895  1
  N  N3  1  0.490712  0.596875  0.361105  1
  N  N4  1  0.009288  0.403125  0.861105  1
  N  N5  1  0.251832  0.579665  0.978144  1
  N  N6  1  0.751832  0.579665  0.521856  1
  N  N7  1  0.748168  0.420335  0.021856  1
  N  N8  1  0.735153  0.993364  0.434211  1
  N  N9  1  0.764847  0.006636  0.934211  1
  N  N10  1  0.264847  0.006636  0.565789  1
  N  N11  1  0.235153  0.993364  0.065789  1
  N  N12  1  0.072880  0.898849  0.872096  1
  N  N13  1  0.427120  0.101151  0.372096  1
  N  N14  1  0.927120  0.101151  0.127904  1
  N  N15  1  0.572880  0.898849  0.627904  1
  O  O16  1  0.700641  0.374304  0.108447  1
  O  O17  1  0.799359  0.625696  0.608447  1
  O  O18  1  0.299359  0.625696  0.891553  1
  O  O19  1  0.200641  0.374304  0.391553  1
  O  O20  1  0.925238  0.442364  0.786687  1
  O  O21  1  0.574762  0.557636  0.286687  1
  O  O22  1  0.074761  0.557636  0.213313  1
  O  O23  1  0.599992  0.306896  0.650678  1
  O  O24  1  0.425239  0.442364  0.713313  1
  O  O25  1  0.099992  0.306896  0.849322  1
  O  O26  1  0.400008  0.693104  0.349322  1
  O  O27  1  0.900008  0.693104  0.150678  1
  O  O28  1  0.211605  0.938403  0.828397  1
  O  O29  1  0.288395  0.061597  0.328397  1
  O  O30  1  0.788395  0.061597  0.171603  1
  O  O31  1  0.711605  0.938403  0.671603  1
  O  O32  1  0.977865  0.796242  0.837487  1
  O  O33  1  0.522135  0.203758  0.337487  1
  O  O34  1  0.022135  0.203758  0.162513  1
  O  O35  1  0.477865  0.796242  0.662513  1
  O  O36  1  0.352385  0.090296  0.049870  1
  O  O37  1  0.147615  0.909704  0.549870  1
  O  O38  1  0.647615  0.909704  0.950130  1
  O  O39  1  0.852385  0.090296  0.450130  1
  O  O40  1  0.260472  0.893364  0.122256  1
  O  O41  1  0.239528  0.106636  0.622256  1
  O  O42  1  0.739528  0.106636  0.877744  1
  O  O43  1  0.760472  0.893364  0.377744  1
  O  O44  1  0.643033  0.418891  0.949390  1
  O  O45  1  0.856967  0.581109  0.449390  1
  O  O46  1  0.356967  0.581109  0.050610  1
  O  O47  1  0.143033  0.418891  0.550610  1
  K  K48  1  0.416506  0.195496  0.844677  1
  K  K49  1  0.083494  0.804504  0.344677  1
  K  K50  1  0.583494  0.804504  0.155323  1
  K  K51  1  0.916506  0.195496  0.655323  1
  K  K52  1  0.652756  0.661059  0.818491  1
  K  K53  1  0.847244  0.338941  0.318491  1
  K  K54  1  0.347244  0.338941  0.181509  1
  K  K55  1  0.152756  0.661059  0.681509  1
  Pt  Pt56  1  0.000000  0.000000  0.000000  1
  Pt  Pt57  1  0.500000  0.000000  0.500000  1
  Pt  Pt58  1  0.000000  0.500000  0.000000  1
  Pt  Pt59  1  0.500000  0.500000  0.500000  1
