# generated using pymatgen
data_ReSeCl
_symmetry_space_group_name_H-M   'P 1'
_cell_length_a   9.39523472
_cell_length_b   9.39523427
_cell_length_c   11.02333696
_cell_angle_alpha   90.00000000
_cell_angle_beta   90.00000000
_cell_angle_gamma   101.54739083
_symmetry_Int_Tables_number   1
_chemical_formula_structural   ReSeCl
_chemical_formula_sum   'Re12 Se12 Cl12'
_cell_volume   953.33996610
_cell_formula_units_Z   12
loop_
 _symmetry_equiv_pos_site_id
 _symmetry_equiv_pos_as_xyz
  1  'x, y, z'
loop_
 _atom_site_type_symbol
 _atom_site_label
 _atom_site_symmetry_multiplicity
 _atom_site_fract_x
 _atom_site_fract_y
 _atom_site_fract_z
 _atom_site_occupancy
  Re  Re0  1  0.126477  0.873523  0.000000  1
  Re  Re1  1  0.063354  0.066312  0.844154  1
  Re  Re2  1  0.140715  0.143947  0.069292  1
  Re  Re3  1  0.373523  0.626477  0.500000  1
  Re  Re4  1  0.359285  0.356053  0.569292  1
  Re  Re5  1  0.436646  0.433688  0.344154  1
  Re  Re6  1  0.566312  0.563354  0.655846  1
  Re  Re7  1  0.643947  0.640715  0.430708  1
  Re  Re8  1  0.629049  0.370951  0.500000  1
  Re  Re9  1  0.856053  0.859285  0.930708  1
  Re  Re10  1  0.933688  0.936646  0.155846  1
  Re  Re11  1  0.870951  0.129049  0.000000  1
  Se  Se12  1  0.044154  0.802706  0.784279  1
  Se  Se13  1  0.197294  0.955846  0.215721  1
  Se  Se14  1  0.073891  0.323802  0.916645  1
  Se  Se15  1  0.302706  0.544154  0.715721  1
  Se  Se16  1  0.455846  0.697294  0.284279  1
  Se  Se17  1  0.426109  0.176198  0.416645  1
  Se  Se18  1  0.676198  0.926109  0.083355  1
  Se  Se19  1  0.545728  0.302661  0.715373  1
  Se  Se20  1  0.697339  0.454272  0.284627  1
  Se  Se21  1  0.823802  0.573891  0.583355  1
  Se  Se22  1  0.802661  0.045728  0.784627  1
  Se  Se23  1  0.954272  0.197339  0.215373  1
  Cl  Cl24  1  0.211157  0.788843  0.500000  1
  Cl  Cl25  1  0.183724  0.433553  0.418874  1
  Cl  Cl26  1  0.157691  0.152531  0.639386  1
  Cl  Cl27  1  0.288843  0.711157  0.000000  1
  Cl  Cl28  1  0.342309  0.347469  0.139386  1
  Cl  Cl29  1  0.316276  0.066447  0.918874  1
  Cl  Cl30  1  0.566447  0.816276  0.581126  1
  Cl  Cl31  1  0.652531  0.657691  0.860614  1
  Cl  Cl32  1  0.705848  0.294152  0.000000  1
  Cl  Cl33  1  0.847469  0.842309  0.360614  1
  Cl  Cl34  1  0.794152  0.205848  0.500000  1
  Cl  Cl35  1  0.933553  0.683724  0.081126  1
