# generated using pymatgen
data_Sb2H10C3NCl9
_symmetry_space_group_name_H-M   'P 1'
_cell_length_a   11.84127507
_cell_length_b   11.60588237
_cell_length_c   10.09680095
_cell_angle_alpha   86.82678373
_cell_angle_beta   86.34095959
_cell_angle_gamma   85.90514716
_symmetry_Int_Tables_number   1
_chemical_formula_structural   Sb2H10C3NCl9
_chemical_formula_sum   'Sb4 H20 C6 N2 Cl18'
_cell_volume   1379.42436320
_cell_formula_units_Z   2
loop_
 _symmetry_equiv_pos_site_id
 _symmetry_equiv_pos_as_xyz
  1  'x, y, z'
loop_
 _atom_site_type_symbol
 _atom_site_label
 _atom_site_symmetry_multiplicity
 _atom_site_fract_x
 _atom_site_fract_y
 _atom_site_fract_z
 _atom_site_occupancy
  Sb  Sb0  1  0.986340  0.010008  0.942157  1
  Sb  Sb1  1  0.381108  0.115664  0.317645  1
  Sb  Sb2  1  0.461943  0.071126  0.588077  1
  Sb  Sb3  1  0.922311  0.040255  0.216384  1
  H  H4  1  0.433948  0.662882  0.575230  1
  H  H5  1  0.530934  0.416349  0.314775  1
  H  H6  1  0.642469  0.177941  0.273478  1
  H  H7  1  0.675908  0.721996  0.904135  1
  H  H8  1  0.581701  0.395023  0.352341  1
  H  H9  1  0.614810  0.164727  0.342048  1
  H  H10  1  0.719241  0.897103  0.667178  1
  H  H11  1  0.601678  0.491279  0.624084  1
  H  H12  1  0.978253  0.890360  0.225898  1
  H  H13  1  0.649483  0.670687  0.108456  1
  H  H14  1  0.931579  0.650820  0.585760  1
  H  H15  1  0.711939  0.655423  0.096010  1
  H  H16  1  0.899678  0.499346  0.110153  1
  H  H17  1  0.767857  0.786773  0.309716  1
  H  H18  1  0.866088  0.099106  0.915481  1
  H  H19  1  0.931463  0.330871  0.918355  1
  H  H20  1  0.847750  0.678634  0.366512  1
  H  H21  1  0.910473  0.271484  0.759627  1
  H  H22  1  0.012177  0.380070  0.766287  1
  H  H23  1  0.027589  0.746886  0.053453  1
  C  C24  1  0.228243  0.356434  0.967122  1
  C  C25  1  0.310432  0.280033  0.377759  1
  C  C26  1  0.080542  0.674372  0.006231  1
  C  C27  1  0.487206  0.539175  0.933848  1
  C  C28  1  0.969971  0.308980  0.820562  1
  C  C29  1  0.400898  0.637630  0.480987  1
  N  N30  1  0.779319  0.734209  0.393420  1
  N  N31  1  0.723846  0.713950  0.814476  1
  Cl  Cl32  1  0.084668  0.199115  0.847584  1
  Cl  Cl33  1  0.019423  0.601363  0.524188  1
  Cl  Cl34  1  0.171891  0.367250  0.118334  1
  Cl  Cl35  1  0.201204  0.724281  0.935661  1
  Cl  Cl36  1  0.202161  0.022992  0.320379  1
  Cl  Cl37  1  0.295460  0.007375  0.705206  1
  Cl  Cl38  1  0.284719  0.725988  0.453105  1
  Cl  Cl39  1  0.313856  0.355170  0.513523  1
  Cl  Cl40  1  0.429154  0.558402  0.093681  1
  Cl  Cl41  1  0.548096  0.883148  0.546822  1
  Cl  Cl42  1  0.568625  0.411330  0.931592  1
  Cl  Cl43  1  0.665629  0.643999  0.399061  1
  Cl  Cl44  1  0.772193  0.259403  0.532174  1
  Cl  Cl45  1  0.763596  0.944427  0.125667  1
  Cl  Cl46  1  0.771308  0.978666  0.715886  1
  Cl  Cl47  1  0.805837  0.245971  0.109891  1
  Cl  Cl48  1  0.848975  0.656078  0.864708  1
  Cl  Cl49  1  0.872030  0.392045  0.497793  1
