# generated using pymatgen
data_V2Ni(PO5)2
_symmetry_space_group_name_H-M   'P 1'
_cell_length_a   7.30720048
_cell_length_b   8.71721137
_cell_length_c   8.30413689
_cell_angle_alpha   90.00000000
_cell_angle_beta   114.47138549
_cell_angle_gamma   90.00000000
_symmetry_Int_Tables_number   1
_chemical_formula_structural   V2Ni(PO5)2
_chemical_formula_sum   'V4 Ni2 P4 O20'
_cell_volume   481.44290064
_cell_formula_units_Z   2
loop_
 _symmetry_equiv_pos_site_id
 _symmetry_equiv_pos_as_xyz
  1  'x, y, z'
loop_
 _atom_site_type_symbol
 _atom_site_label
 _atom_site_symmetry_multiplicity
 _atom_site_fract_x
 _atom_site_fract_y
 _atom_site_fract_z
 _atom_site_occupancy
  V  V0  1  0.531727  0.776404  0.305995  1
  V  V1  1  0.968273  0.276404  0.194005  1
  V  V2  1  0.031727  0.723596  0.805995  1
  V  V3  1  0.468273  0.223596  0.694005  1
  Ni  Ni4  1  0.000000  0.000000  0.000000  1
  Ni  Ni5  1  0.500000  0.500000  0.500000  1
  P  P6  1  0.768036  0.409210  0.783095  1
  P  P7  1  0.231964  0.590790  0.216905  1
  P  P8  1  0.731964  0.909210  0.716905  1
  P  P9  1  0.268036  0.090790  0.283095  1
  O  O10  1  0.942862  0.985131  0.752102  1
  O  O11  1  0.057138  0.014869  0.247898  1
  O  O12  1  0.442862  0.514869  0.252102  1
  O  O13  1  0.446396  0.986759  0.323949  1
  O  O14  1  0.685947  0.777945  0.214306  1
  O  O15  1  0.314053  0.222055  0.785694  1
  O  O16  1  0.696555  0.327714  0.598375  1
  O  O17  1  0.553604  0.013241  0.676051  1
  O  O18  1  0.196555  0.172286  0.098375  1
  O  O19  1  0.788966  0.279266  0.921146  1
  O  O20  1  0.303445  0.672286  0.401625  1
  O  O21  1  0.211034  0.720734  0.078854  1
  O  O22  1  0.557138  0.485131  0.747898  1
  O  O23  1  0.946396  0.513241  0.823949  1
  O  O24  1  0.814053  0.277945  0.285694  1
  O  O25  1  0.185947  0.722055  0.714306  1
  O  O26  1  0.053604  0.486759  0.176051  1
  O  O27  1  0.288966  0.220734  0.421146  1
  O  O28  1  0.803445  0.827714  0.901625  1
  O  O29  1  0.711034  0.779266  0.578854  1
