# generated using pymatgen
data_Fe2C8SO10
_symmetry_space_group_name_H-M   'P 1'
_cell_length_a   8.83291903
_cell_length_b   12.35714935
_cell_length_c   13.29129594
_cell_angle_alpha   90.00000000
_cell_angle_beta   90.00000000
_cell_angle_gamma   107.26534695
_symmetry_Int_Tables_number   1
_chemical_formula_structural   Fe2C8SO10
_chemical_formula_sum   'Fe8 C32 S4 O40'
_cell_volume   1385.37126892
_cell_formula_units_Z   4
loop_
 _symmetry_equiv_pos_site_id
 _symmetry_equiv_pos_as_xyz
  1  'x, y, z'
loop_
 _atom_site_type_symbol
 _atom_site_label
 _atom_site_symmetry_multiplicity
 _atom_site_fract_x
 _atom_site_fract_y
 _atom_site_fract_z
 _atom_site_occupancy
  Fe  Fe0  1  0.932439  0.088896  0.221284  1
  Fe  Fe1  1  0.067561  0.911104  0.778716  1
  Fe  Fe2  1  0.567561  0.411104  0.721284  1
  Fe  Fe3  1  0.735621  0.163170  0.348936  1
  Fe  Fe4  1  0.764379  0.336830  0.848936  1
  Fe  Fe5  1  0.235621  0.663170  0.151064  1
  Fe  Fe6  1  0.264379  0.836830  0.651064  1
  Fe  Fe7  1  0.432439  0.588896  0.278716  1
  C  C8  1  0.177202  0.534670  0.074596  1
  C  C9  1  0.403502  0.359562  0.809460  1
  C  C10  1  0.896681  0.945680  0.270238  1
  C  C11  1  0.396135  0.722977  0.062163  1
  C  C12  1  0.767980  0.040680  0.131913  1
  C  C13  1  0.855580  0.234942  0.892761  1
  C  C14  1  0.929066  0.891669  0.880032  1
  C  C15  1  0.322798  0.965330  0.574596  1
  C  C16  1  0.603319  0.554320  0.770238  1
  C  C17  1  0.429066  0.391669  0.619968  1
  C  C18  1  0.103319  0.054320  0.729762  1
  C  C19  1  0.596498  0.640438  0.190540  1
  C  C20  1  0.570934  0.608331  0.380032  1
  C  C21  1  0.732020  0.459320  0.631913  1
  C  C22  1  0.096498  0.140438  0.309460  1
  C  C23  1  0.934093  0.388914  0.764683  1
  C  C24  1  0.903502  0.859562  0.690540  1
  C  C25  1  0.103865  0.777023  0.562163  1
  C  C26  1  0.644420  0.265058  0.392761  1
  C  C27  1  0.070934  0.108331  0.119968  1
  C  C28  1  0.434093  0.888914  0.735317  1
  C  C29  1  0.355580  0.734942  0.607239  1
  C  C30  1  0.065907  0.611086  0.235317  1
  C  C31  1  0.896135  0.222977  0.437837  1
  C  C32  1  0.232020  0.959320  0.868087  1
  C  C33  1  0.603865  0.277023  0.937837  1
  C  C34  1  0.677202  0.034670  0.425404  1
  C  C35  1  0.822798  0.465330  0.925404  1
  C  C36  1  0.267980  0.540680  0.368087  1
  C  C37  1  0.144420  0.765058  0.107239  1
  C  C38  1  0.396681  0.445680  0.229762  1
  C  C39  1  0.565907  0.111086  0.264683  1
  S  S40  1  0.612117  0.240282  0.722426  1
  S  S41  1  0.387883  0.759718  0.277574  1
  S  S42  1  0.887883  0.259718  0.222426  1
  S  S43  1  0.112117  0.740282  0.777574  1
  O  O44  1  0.198952  0.715627  0.865258  1
  O  O45  1  0.828780  0.488431  0.571413  1
  O  O46  1  0.414596  0.667981  0.580220  1
  O  O47  1  0.914596  0.167981  0.919780  1
  O  O48  1  0.328780  0.988431  0.928587  1
  O  O49  1  0.160051  0.120182  0.054168  1
  O  O50  1  0.548567  0.914411  0.782585  1
  O  O51  1  0.801048  0.284373  0.134742  1
  O  O52  1  0.008261  0.736994  0.503215  1
  O  O53  1  0.704704  0.671113  0.137828  1
  O  O54  1  0.795296  0.828887  0.637828  1
  O  O55  1  0.339949  0.379818  0.554168  1
  O  O56  1  0.301048  0.784373  0.365258  1
  O  O57  1  0.048567  0.414411  0.717415  1
  O  O58  1  0.879537  0.855943  0.302545  1
  O  O59  1  0.839949  0.879818  0.945832  1
  O  O60  1  0.085404  0.832019  0.080220  1
  O  O61  1  0.974520  0.645871  0.745319  1
  O  O62  1  0.951433  0.585589  0.282585  1
  O  O63  1  0.474520  0.145871  0.754681  1
  O  O64  1  0.585404  0.332019  0.419780  1
  O  O65  1  0.698952  0.215627  0.634742  1
  O  O66  1  0.671220  0.011569  0.071413  1
  O  O67  1  0.295296  0.328887  0.862172  1
  O  O68  1  0.620463  0.644057  0.802545  1
  O  O69  1  0.660051  0.620182  0.445832  1
  O  O70  1  0.352497  0.045803  0.525068  1
  O  O71  1  0.025480  0.354129  0.254681  1
  O  O72  1  0.147503  0.454197  0.025068  1
  O  O73  1  0.451433  0.085589  0.217415  1
  O  O74  1  0.491739  0.763006  0.003215  1
  O  O75  1  0.508261  0.236994  0.996785  1
  O  O76  1  0.120463  0.144057  0.697455  1
  O  O77  1  0.647503  0.954197  0.474932  1
  O  O78  1  0.852497  0.545803  0.974932  1
  O  O79  1  0.525480  0.854129  0.245319  1
  O  O80  1  0.379537  0.355943  0.197455  1
  O  O81  1  0.171220  0.511569  0.428587  1
  O  O82  1  0.991739  0.263006  0.496785  1
  O  O83  1  0.204704  0.171113  0.362172  1
