# generated using pymatgen
data_NaNdS2
_symmetry_space_group_name_H-M   'P 1'
_cell_length_a   8.08669446
_cell_length_b   10.83389941
_cell_length_c   7.21098635
_cell_angle_alpha   28.97819310
_cell_angle_beta   55.89427669
_cell_angle_gamma   41.72591490
_symmetry_Int_Tables_number   1
_chemical_formula_structural   NaNdS2
_chemical_formula_sum   'Na2 Nd2 S4'
_cell_volume   195.21083869
_cell_formula_units_Z   2
loop_
 _symmetry_equiv_pos_site_id
 _symmetry_equiv_pos_as_xyz
  1  'x, y, z'
loop_
 _atom_site_type_symbol
 _atom_site_label
 _atom_site_symmetry_multiplicity
 _atom_site_fract_x
 _atom_site_fract_y
 _atom_site_fract_z
 _atom_site_occupancy
  Na  Na0  1  0.253890  0.496609  0.001180  1
  Na  Na1  1  0.503656  0.996363  0.003933  1
  Nd  Nd2  1  0.003416  0.996975  0.001769  1
  Nd  Nd3  1  0.753900  0.496971  0.002073  1
  S  S4  1  0.515790  0.497264  0.476948  1
  S  S5  1  0.240984  0.996100  0.528434  1
  S  S6  1  0.991662  0.496212  0.528380  1
  S  S7  1  0.765815  0.997541  0.476232  1
