# generated using pymatgen
data_Nb5As3
_symmetry_space_group_name_H-M   'P 1'
_cell_length_a   3.54066113
_cell_length_b   11.88626493
_cell_length_c   26.33092940
_cell_angle_alpha   89.99980299
_cell_angle_beta   90.00022118
_cell_angle_gamma   89.86708650
_symmetry_Int_Tables_number   1
_chemical_formula_structural   Nb5As3
_chemical_formula_sum   'Nb40 As24'
_cell_volume   1108.14040303
_cell_formula_units_Z   8
loop_
 _symmetry_equiv_pos_site_id
 _symmetry_equiv_pos_as_xyz
  1  'x, y, z'
loop_
 _atom_site_type_symbol
 _atom_site_label
 _atom_site_symmetry_multiplicity
 _atom_site_fract_x
 _atom_site_fract_y
 _atom_site_fract_z
 _atom_site_occupancy
  Nb  Nb0  1  0.750451  0.916632  0.033088  1
  Nb  Nb1  1  0.749958  0.432740  0.897362  1
  Nb  Nb2  1  0.749635  0.789020  0.376520  1
  Nb  Nb3  1  0.249635  0.289020  0.123482  1
  Nb  Nb4  1  0.249522  0.555750  0.349053  1
  Nb  Nb5  1  0.749521  0.055749  0.150946  1
  Nb  Nb6  1  0.249763  0.881069  0.724084  1
  Nb  Nb7  1  0.249862  0.647637  0.636718  1
  Nb  Nb8  1  0.249708  0.803310  0.953817  1
  Nb  Nb9  1  0.250479  0.944251  0.849054  1
  Nb  Nb10  1  0.750478  0.444250  0.650947  1
  Nb  Nb11  1  0.250025  0.394411  0.998338  1
  Nb  Nb12  1  0.249958  0.539538  0.823117  1
  Nb  Nb13  1  0.749928  0.844937  0.238779  1
  Nb  Nb14  1  0.250294  0.696691  0.453813  1
  Nb  Nb15  1  0.249957  0.932740  0.602646  1
  Nb  Nb16  1  0.749763  0.381067  0.775909  1
  Nb  Nb17  1  0.750071  0.655063  0.738783  1
  Nb  Nb18  1  0.250449  0.416632  0.466902  1
  Nb  Nb19  1  0.749706  0.303309  0.546187  1
  Nb  Nb20  1  0.750138  0.352363  0.363282  1
  Nb  Nb21  1  0.750042  0.460462  0.176883  1
  Nb  Nb22  1  0.250139  0.852363  0.136722  1
  Nb  Nb23  1  0.749551  0.583368  0.533098  1
  Nb  Nb24  1  0.250365  0.210980  0.623480  1
  Nb  Nb25  1  0.250237  0.618933  0.224091  1
  Nb  Nb26  1  0.250043  0.960460  0.323115  1
  Nb  Nb27  1  0.249929  0.344937  0.261217  1
  Nb  Nb28  1  0.250072  0.155063  0.761221  1
  Nb  Nb29  1  0.750237  0.118931  0.275916  1
  Nb  Nb30  1  0.249976  0.105588  0.498329  1
  Nb  Nb31  1  0.249549  0.083368  0.966912  1
  Nb  Nb32  1  0.250042  0.567260  0.102638  1
  Nb  Nb33  1  0.749957  0.039540  0.676885  1
  Nb  Nb34  1  0.750024  0.894412  0.501671  1
  Nb  Nb35  1  0.750043  0.067260  0.397354  1
  Nb  Nb36  1  0.749861  0.147637  0.863278  1
  Nb  Nb37  1  0.749975  0.605589  0.001662  1
  Nb  Nb38  1  0.750292  0.196690  0.046183  1
  Nb  Nb39  1  0.750365  0.710980  0.876518  1
  As  As40  1  0.749758  0.551851  0.423609  1
  As  As41  1  0.250015  0.307685  0.843268  1
  As  As42  1  0.249986  0.192314  0.343268  1
  As  As43  1  0.250061  0.746959  0.302380  1
  As  As44  1  0.250028  0.003458  0.220170  1
  As  As45  1  0.249815  0.580399  0.927501  1
  As  As46  1  0.750026  0.503459  0.279836  1
  As  As47  1  0.750059  0.246959  0.197616  1
  As  As48  1  0.750185  0.419601  0.072499  1
  As  As49  1  0.250242  0.448149  0.576391  1
  As  As50  1  0.250186  0.919602  0.427512  1
  As  As51  1  0.250185  0.749086  0.049137  1
  As  As52  1  0.249811  0.750915  0.549135  1
  As  As53  1  0.249974  0.496541  0.720164  1
  As  As54  1  0.750189  0.249085  0.450865  1
  As  As55  1  0.249761  0.051851  0.076377  1
  As  As56  1  0.749939  0.253041  0.697620  1
  As  As57  1  0.749814  0.080398  0.572488  1
  As  As58  1  0.750239  0.948149  0.923623  1
  As  As59  1  0.749815  0.250914  0.950863  1
  As  As60  1  0.749985  0.692315  0.156732  1
  As  As61  1  0.750014  0.807686  0.656732  1
  As  As62  1  0.249941  0.753041  0.802384  1
  As  As63  1  0.749972  0.996542  0.779830  1
