# generated using pymatgen
data_CuHgSCl
_symmetry_space_group_name_H-M   'P 1'
_cell_length_a   4.09464712
_cell_length_b   9.03609932
_cell_length_c   10.15795507
_cell_angle_alpha   89.99840478
_cell_angle_beta   90.00014753
_cell_angle_gamma   90.00017668
_symmetry_Int_Tables_number   1
_chemical_formula_structural   CuHgSCl
_chemical_formula_sum   'Cu4 Hg4 S4 Cl4'
_cell_volume   375.84066091
_cell_formula_units_Z   4
loop_
 _symmetry_equiv_pos_site_id
 _symmetry_equiv_pos_as_xyz
  1  'x, y, z'
loop_
 _atom_site_type_symbol
 _atom_site_label
 _atom_site_symmetry_multiplicity
 _atom_site_fract_x
 _atom_site_fract_y
 _atom_site_fract_z
 _atom_site_occupancy
  Cu  Cu0  1  0.000003  0.229382  0.914795  1
  Cu  Cu1  1  -0.000000  0.770674  0.414807  1
  Cu  Cu2  1  0.000001  0.770501  0.085211  1
  Cu  Cu3  1  -0.000001  0.229527  0.585227  1
  Hg  Hg4  1  0.500001  0.204542  0.249994  1
  Hg  Hg5  1  0.499990  0.499999  0.499992  1
  Hg  Hg6  1  0.500002  0.795460  0.750006  1
  Hg  Hg7  1  0.499996  0.499984  -0.000001  1
  S  S8  1  0.500000  0.766615  0.990082  1
  S  S9  1  0.500001  0.766617  0.509931  1
  S  S10  1  0.500004  0.233364  0.009906  1
  S  S11  1  0.500001  0.233367  0.490075  1
  Cl  Cl12  1  0.000001  0.041676  0.749986  1
  Cl  Cl13  1  0.000001  0.958315  0.249987  1
  Cl  Cl14  1  0.000000  0.558579  0.250005  1
  Cl  Cl15  1  0.000000  0.441397  0.749997  1
