# generated using pymatgen
data_PH4SNO2
_symmetry_space_group_name_H-M   'P 1'
_cell_length_a   12.45825581
_cell_length_b   12.86949791
_cell_length_c   8.29760222
_cell_angle_alpha   90.00000000
_cell_angle_beta   90.00000000
_cell_angle_gamma   90.00000000
_symmetry_Int_Tables_number   1
_chemical_formula_structural   PH4SNO2
_chemical_formula_sum   'P12 H48 S12 N12 O24'
_cell_volume   1330.36698635
_cell_formula_units_Z   12
loop_
 _symmetry_equiv_pos_site_id
 _symmetry_equiv_pos_as_xyz
  1  'x, y, z'
loop_
 _atom_site_type_symbol
 _atom_site_label
 _atom_site_symmetry_multiplicity
 _atom_site_fract_x
 _atom_site_fract_y
 _atom_site_fract_z
 _atom_site_occupancy
  P  P0  1  0.379758  0.134728  0.339615  1
  P  P1  1  0.879758  0.365272  0.160385  1
  P  P2  1  0.620242  0.634728  0.660385  1
  P  P3  1  0.120242  0.865272  0.839615  1
  P  P4  1  0.620242  0.865272  0.660385  1
  P  P5  1  0.120242  0.634728  0.839615  1
  P  P6  1  0.379758  0.365272  0.339615  1
  P  P7  1  0.879758  0.134728  0.160385  1
  P  P8  1  0.527847  0.250000  0.565725  1
  P  P9  1  0.027847  0.250000  0.934275  1
  P  P10  1  0.472153  0.750000  0.434275  1
  P  P11  1  0.972153  0.750000  0.065725  1
  H  H12  1  0.938968  0.750000  0.411838  1
  H  H13  1  0.438968  0.750000  0.088162  1
  H  H14  1  0.061032  0.250000  0.588162  1
  H  H15  1  0.561032  0.250000  0.911838  1
  H  H16  1  0.674428  0.250000  0.033609  1
  H  H17  1  0.174428  0.250000  0.466391  1
  H  H18  1  0.325572  0.750000  0.966391  1
  H  H19  1  0.825572  0.750000  0.533609  1
  H  H20  1  0.563098  0.184336  0.088870  1
  H  H21  1  0.063098  0.315664  0.411130  1
  H  H22  1  0.436902  0.684336  0.911130  1
  H  H23  1  0.936902  0.815664  0.588870  1
  H  H24  1  0.436902  0.815664  0.911130  1
  H  H25  1  0.936902  0.684336  0.588870  1
  H  H26  1  0.563098  0.315664  0.088870  1
  H  H27  1  0.063098  0.184336  0.411130  1
  H  H28  1  0.789282  0.430224  0.838823  1
  H  H29  1  0.289282  0.069776  0.661177  1
  H  H30  1  0.210718  0.930224  0.161177  1
  H  H31  1  0.710718  0.569776  0.338823  1
  H  H32  1  0.210718  0.569776  0.161177  1
  H  H33  1  0.710718  0.930224  0.338823  1
  H  H34  1  0.789282  0.069776  0.838823  1
  H  H35  1  0.289282  0.430224  0.661177  1
  H  H36  1  0.730910  0.623516  0.155102  1
  H  H37  1  0.230910  0.876484  0.344898  1
  H  H38  1  0.269090  0.123516  0.844898  1
  H  H39  1  0.769090  0.376484  0.655102  1
  H  H40  1  0.269090  0.376484  0.844898  1
  H  H41  1  0.769090  0.123516  0.655102  1
  H  H42  1  0.730910  0.876484  0.155102  1
  H  H43  1  0.230910  0.623516  0.344898  1
  H  H44  1  0.606067  0.914412  0.213014  1
  H  H45  1  0.106067  0.585588  0.286986  1
  H  H46  1  0.393933  0.414412  0.786986  1
  H  H47  1  0.893933  0.085588  0.713014  1
  H  H48  1  0.393933  0.085588  0.786986  1
  H  H49  1  0.893933  0.414412  0.713014  1
  H  H50  1  0.606067  0.585588  0.213014  1
  H  H51  1  0.106067  0.914412  0.286986  1
  H  H52  1  0.796886  0.504438  0.668602  1
  H  H53  1  0.296886  0.995562  0.831398  1
  H  H54  1  0.203114  0.004438  0.331398  1
  H  H55  1  0.703114  0.495562  0.168602  1
  H  H56  1  0.203114  0.495562  0.331398  1
  H  H57  1  0.703114  0.004438  0.168602  1
  H  H58  1  0.796886  0.995562  0.668602  1
  H  H59  1  0.296886  0.504438  0.831398  1
  S  S60  1  0.429811  0.037680  0.174290  1
  S  S61  1  0.929811  0.462320  0.325710  1
  S  S62  1  0.570189  0.537680  0.825710  1
  S  S63  1  0.070189  0.962320  0.674290  1
  S  S64  1  0.570189  0.962320  0.825710  1
  S  S65  1  0.070189  0.537680  0.674290  1
  S  S66  1  0.429811  0.462320  0.174290  1
  S  S67  1  0.929811  0.037680  0.325710  1
  S  S68  1  0.682113  0.250000  0.511814  1
  S  S69  1  0.182113  0.250000  0.988186  1
  S  S70  1  0.317887  0.750000  0.488186  1
  S  S71  1  0.817887  0.750000  0.011814  1
  N  N72  1  0.908406  0.750000  0.530933  1
  N  N73  1  0.408406  0.750000  0.969067  1
  N  N74  1  0.091594  0.250000  0.469067  1
  N  N75  1  0.591594  0.250000  0.030933  1
  N  N76  1  0.813315  0.431765  0.719066  1
  N  N77  1  0.313315  0.068235  0.780934  1
  N  N78  1  0.186685  0.931765  0.280934  1
  N  N79  1  0.686685  0.568235  0.219066  1
  N  N80  1  0.186685  0.568235  0.280934  1
  N  N81  1  0.686685  0.931765  0.219066  1
  N  N82  1  0.813315  0.068235  0.719066  1
  N  N83  1  0.313315  0.431765  0.780934  1
  O  O84  1  0.377373  0.250000  0.256741  1
  O  O85  1  0.877373  0.250000  0.243259  1
  O  O86  1  0.622627  0.750000  0.743259  1
  O  O87  1  0.122627  0.750000  0.756741  1
  O  O88  1  0.274992  0.113942  0.426515  1
  O  O89  1  0.774992  0.386058  0.073485  1
  O  O90  1  0.725008  0.613942  0.573485  1
  O  O91  1  0.225008  0.886058  0.926515  1
  O  O92  1  0.725008  0.886058  0.573485  1
  O  O93  1  0.225008  0.613942  0.926515  1
  O  O94  1  0.274992  0.386058  0.426515  1
  O  O95  1  0.774992  0.113942  0.073485  1
  O  O96  1  0.472679  0.150520  0.475990  1
  O  O97  1  0.972679  0.349480  0.024010  1
  O  O98  1  0.527321  0.650520  0.524010  1
  O  O99  1  0.027321  0.849480  0.975990  1
  O  O100  1  0.527321  0.849480  0.524010  1
  O  O101  1  0.027321  0.650520  0.975990  1
  O  O102  1  0.472679  0.349480  0.475990  1
  O  O103  1  0.972679  0.150520  0.024010  1
  O  O104  1  0.489665  0.250000  0.737945  1
  O  O105  1  0.989665  0.250000  0.762055  1
  O  O106  1  0.510335  0.750000  0.262055  1
  O  O107  1  0.010335  0.750000  0.237945  1
