# generated using pymatgen
data_CsUVO6
_symmetry_space_group_name_H-M   'P 1'
_cell_length_a   7.62214743
_cell_length_b   8.50791474
_cell_length_c   10.62709226
_cell_angle_alpha   90.00000000
_cell_angle_beta   105.21673261
_cell_angle_gamma   90.00000000
_symmetry_Int_Tables_number   1
_chemical_formula_structural   CsUVO6
_chemical_formula_sum   'Cs4 U4 V4 O24'
_cell_volume   664.99010425
_cell_formula_units_Z   4
loop_
 _symmetry_equiv_pos_site_id
 _symmetry_equiv_pos_as_xyz
  1  'x, y, z'
loop_
 _atom_site_type_symbol
 _atom_site_label
 _atom_site_symmetry_multiplicity
 _atom_site_fract_x
 _atom_site_fract_y
 _atom_site_fract_z
 _atom_site_occupancy
  Cs  Cs0  1  0.463948  0.767621  0.634956  1
  Cs  Cs1  1  0.463948  0.732379  0.134956  1
  Cs  Cs2  1  0.536052  0.267621  0.865044  1
  Cs  Cs3  1  0.536052  0.232379  0.365044  1
  U  U4  1  0.988478  0.020023  0.179938  1
  U  U5  1  0.988478  0.479977  0.679938  1
  U  U6  1  0.011522  0.979977  0.820062  1
  U  U7  1  0.011522  0.520023  0.320062  1
  V  V8  1  0.101897  0.352253  0.056362  1
  V  V9  1  0.898103  0.852253  0.443638  1
  V  V10  1  0.101897  0.147747  0.556362  1
  V  V11  1  0.898103  0.647747  0.943638  1
  O  O12  1  0.071876  0.289819  0.216244  1
  O  O13  1  0.031310  0.154811  0.994687  1
  O  O14  1  0.928124  0.789819  0.283756  1
  O  O15  1  0.678150  0.632936  0.929727  1
  O  O16  1  0.031760  0.940770  0.607083  1
  O  O17  1  0.968690  0.845189  0.005313  1
  O  O18  1  0.256286  0.561929  0.375379  1
  O  O19  1  0.767338  0.477819  0.263410  1
  O  O20  1  0.321850  0.367064  0.070273  1
  O  O21  1  0.031760  0.559230  0.107083  1
  O  O22  1  0.232662  0.977819  0.236590  1
  O  O23  1  0.678150  0.867064  0.429727  1
  O  O24  1  0.968240  0.440770  0.892917  1
  O  O25  1  0.767338  0.022181  0.763410  1
  O  O26  1  0.071876  0.210181  0.716244  1
  O  O27  1  0.968240  0.059230  0.392917  1
  O  O28  1  0.928124  0.710181  0.783756  1
  O  O29  1  0.968690  0.654811  0.505313  1
  O  O30  1  0.256286  0.938071  0.875379  1
  O  O31  1  0.743714  0.061929  0.124621  1
  O  O32  1  0.743714  0.438071  0.624621  1
  O  O33  1  0.232662  0.522181  0.736590  1
  O  O34  1  0.031310  0.345189  0.494687  1
  O  O35  1  0.321850  0.132936  0.570273  1
