# generated using pymatgen
data_HgC2(SN)2
_symmetry_space_group_name_H-M   'P 1'
_cell_length_a   4.11446681
_cell_length_b   5.90151050
_cell_length_c   6.57234560
_cell_angle_alpha   93.97916759
_cell_angle_beta   90.04234292
_cell_angle_gamma   110.36674232
_symmetry_Int_Tables_number   1
_chemical_formula_structural   HgC2(SN)2
_chemical_formula_sum   'Hg1 C2 S2 N2'
_cell_volume   149.19663287
_cell_formula_units_Z   1
loop_
 _symmetry_equiv_pos_site_id
 _symmetry_equiv_pos_as_xyz
  1  'x, y, z'
loop_
 _atom_site_type_symbol
 _atom_site_label
 _atom_site_symmetry_multiplicity
 _atom_site_fract_x
 _atom_site_fract_y
 _atom_site_fract_z
 _atom_site_occupancy
  Hg  Hg0  1  0.997361  0.000944  0.000342  1
  C  C1  1  0.735311  0.479909  0.776441  1
  C  C2  1  0.254258  0.519391  0.224562  1
  S  S3  1  0.867318  0.746466  0.679254  1
  S  S4  1  0.123347  0.253207  0.323609  1
  N  N5  1  0.637867  0.285044  0.839123  1
  N  N6  1  0.350300  0.711928  0.158726  1
