# generated using pymatgen
data_Tm2Ga8Fe
_symmetry_space_group_name_H-M   'P 1'
_cell_length_a   4.21313651
_cell_length_b   4.21318840
_cell_length_c   11.16336672
_cell_angle_alpha   90.00130139
_cell_angle_beta   89.99991371
_cell_angle_gamma   90.00107230
_symmetry_Int_Tables_number   1
_chemical_formula_structural   Tm2Ga8Fe
_chemical_formula_sum   'Tm2 Ga8 Fe1'
_cell_volume   198.15799637
_cell_formula_units_Z   1
loop_
 _symmetry_equiv_pos_site_id
 _symmetry_equiv_pos_as_xyz
  1  'x, y, z'
loop_
 _atom_site_type_symbol
 _atom_site_label
 _atom_site_symmetry_multiplicity
 _atom_site_fract_x
 _atom_site_fract_y
 _atom_site_fract_z
 _atom_site_occupancy
  Tm  Tm0  1  -0.000002  -0.000004  0.694398  1
  Tm  Tm1  1  0.000005  0.000004  0.305603  1
  Ga  Ga2  1  0.500000  0.000003  0.884532  1
  Ga  Ga3  1  0.499999  0.500001  0.301134  1
  Ga  Ga4  1  0.499998  -0.000005  0.115467  1
  Ga  Ga5  1  0.000005  0.500005  0.884534  1
  Ga  Ga6  1  -0.000006  0.500001  0.115468  1
  Ga  Ga7  1  0.000000  0.499999  0.500001  1
  Ga  Ga8  1  0.500000  0.499997  0.698864  1
  Ga  Ga9  1  0.500000  -0.000001  0.500000  1
  Fe  Fe10  1  -0.000001  -0.000000  -0.000000  1
