# generated using pymatgen
data_Ba(HO)2
_symmetry_space_group_name_H-M   'P 1'
_cell_length_a   9.15379605
_cell_length_b   8.25639332
_cell_length_c   7.07440881
_cell_angle_alpha   90.00000000
_cell_angle_beta   99.46804546
_cell_angle_gamma   90.00000000
_symmetry_Int_Tables_number   1
_chemical_formula_structural   Ba(HO)2
_chemical_formula_sum   'Ba8 H16 O16'
_cell_volume   527.38152866
_cell_formula_units_Z   8
loop_
 _symmetry_equiv_pos_site_id
 _symmetry_equiv_pos_as_xyz
  1  'x, y, z'
loop_
 _atom_site_type_symbol
 _atom_site_label
 _atom_site_symmetry_multiplicity
 _atom_site_fract_x
 _atom_site_fract_y
 _atom_site_fract_z
 _atom_site_occupancy
  Ba  Ba0  1  0.906972  0.124453  0.258839  1
  Ba  Ba1  1  0.406972  0.375547  0.758839  1
  Ba  Ba2  1  0.093028  0.875547  0.741161  1
  Ba  Ba3  1  0.593028  0.624453  0.241161  1
  Ba  Ba4  1  0.334899  0.046215  0.264735  1
  Ba  Ba5  1  0.834899  0.453785  0.764735  1
  Ba  Ba6  1  0.665101  0.953785  0.735265  1
  Ba  Ba7  1  0.165101  0.546215  0.235265  1
  H  H8  1  0.716114  0.896039  0.384283  1
  H  H9  1  0.216114  0.603961  0.884283  1
  H  H10  1  0.283886  0.103961  0.615717  1
  H  H11  1  0.783886  0.396039  0.115717  1
  H  H12  1  0.029320  0.844192  0.227471  1
  H  H13  1  0.529320  0.655808  0.727471  1
  H  H14  1  0.970680  0.155808  0.772529  1
  H  H15  1  0.470680  0.344192  0.272529  1
  H  H16  1  0.850914  0.743625  0.021709  1
  H  H17  1  0.350914  0.756375  0.521709  1
  H  H18  1  0.149086  0.256375  0.978291  1
  H  H19  1  0.649086  0.243625  0.478291  1
  H  H20  1  0.395502  0.805096  0.948980  1
  H  H21  1  0.895502  0.694904  0.448980  1
  H  H22  1  0.604498  0.194904  0.051020  1
  H  H23  1  0.104498  0.305096  0.551020  1
  O  O24  1  0.635262  0.970662  0.332331  1
  O  O25  1  0.135262  0.529338  0.832331  1
  O  O26  1  0.364738  0.029338  0.667669  1
  O  O27  1  0.864738  0.470662  0.167669  1
  O  O28  1  0.097195  0.858223  0.352134  1
  O  O29  1  0.597195  0.641777  0.852134  1
  O  O30  1  0.902805  0.141777  0.647866  1
  O  O31  1  0.402805  0.358223  0.147866  1
  O  O32  1  0.901625  0.845484  0.005340  1
  O  O33  1  0.401625  0.654516  0.505340  1
  O  O34  1  0.098375  0.154516  0.994660  1
  O  O35  1  0.598375  0.345484  0.494660  1
  O  O36  1  0.325877  0.780847  0.035971  1
  O  O37  1  0.825877  0.719153  0.535971  1
  O  O38  1  0.674123  0.219153  0.964029  1
  O  O39  1  0.174123  0.280847  0.464029  1
