# generated using pymatgen
data_Cu2Bi8Pb2S15
_symmetry_space_group_name_H-M   'P 1'
_cell_length_a   4.02940549
_cell_length_b   11.69517559
_cell_length_c   55.84350088
_cell_angle_alpha   89.99809342
_cell_angle_beta   89.99670855
_cell_angle_gamma   89.99565125
_symmetry_Int_Tables_number   1
_chemical_formula_structural   Cu2Bi8Pb2S15
_chemical_formula_sum   'Cu8 Bi32 Pb8 S60'
_cell_volume   2631.60289530
_cell_formula_units_Z   4
loop_
 _symmetry_equiv_pos_site_id
 _symmetry_equiv_pos_as_xyz
  1  'x, y, z'
loop_
 _atom_site_type_symbol
 _atom_site_label
 _atom_site_symmetry_multiplicity
 _atom_site_fract_x
 _atom_site_fract_y
 _atom_site_fract_z
 _atom_site_occupancy
  Cu  Cu0  1  0.749985  0.220551  0.141835  1
  Cu  Cu1  1  0.250118  0.280432  0.842988  1
  Cu  Cu2  1  0.249868  0.780466  0.657002  1
  Cu  Cu3  1  0.250037  0.779393  0.858182  1
  Cu  Cu4  1  0.749949  0.719553  0.157000  1
  Cu  Cu5  1  0.249987  0.279438  0.641813  1
  Cu  Cu6  1  0.750038  0.219582  0.343007  1
  Cu  Cu7  1  0.750043  0.720540  0.358160  1
  Bi  Bi8  1  0.749851  0.005835  0.435293  1
  Bi  Bi9  1  0.249940  0.992621  0.765681  1
  Bi  Bi10  1  0.249851  0.976376  0.362781  1
  Bi  Bi11  1  0.750121  0.027283  0.837435  1
  Bi  Bi12  1  0.250167  0.494104  0.935284  1
  Bi  Bi13  1  0.749955  0.020583  0.033751  1
  Bi  Bi14  1  0.750016  0.520526  0.466246  1
  Bi  Bi15  1  0.249836  0.479442  0.533751  1
  Bi  Bi16  1  0.250116  0.645413  0.207607  1
  Bi  Bi17  1  0.250088  0.979440  0.966254  1
  Bi  Bi18  1  0.249740  0.145357  0.292396  1
  Bi  Bi19  1  0.750090  0.023608  0.637228  1
  Bi  Bi20  1  0.249849  0.972719  0.162574  1
  Bi  Bi21  1  0.750078  0.843021  0.507694  1
  Bi  Bi22  1  0.249917  0.156990  0.492312  1
  Bi  Bi23  1  0.749829  0.352223  0.592784  1
  Bi  Bi24  1  0.749750  0.354591  0.792392  1
  Bi  Bi25  1  0.250138  0.472735  0.337427  1
  Bi  Bi26  1  0.749966  0.507403  0.265684  1
  Bi  Bi27  1  0.250114  0.647830  0.407213  1
  Bi  Bi28  1  0.749753  0.343033  0.992306  1
  Bi  Bi29  1  0.749945  0.007445  0.234314  1
  Bi  Bi30  1  0.250102  0.657005  0.007703  1
  Bi  Bi31  1  0.249817  0.147795  0.092790  1
  Bi  Bi32  1  0.750070  0.523596  0.862774  1
  Bi  Bi33  1  0.249953  0.994140  0.564719  1
  Bi  Bi34  1  0.249931  0.492675  0.734318  1
  Bi  Bi35  1  0.750308  0.852179  0.907226  1
  Bi  Bi36  1  0.749896  0.854579  0.707604  1
  Bi  Bi37  1  0.749873  0.505873  0.064707  1
  Bi  Bi38  1  0.749971  0.527309  0.662565  1
  Bi  Bi39  1  0.249854  0.476364  0.137219  1
  Pb  Pb40  1  0.749894  0.316715  0.400997  1
  Pb  Pb41  1  0.249656  0.684778  0.800406  1
  Pb  Pb42  1  0.250484  0.183207  0.900985  1
  Pb  Pb43  1  0.250159  0.184841  0.699593  1
  Pb  Pb44  1  0.750571  0.815280  0.300405  1
  Pb  Pb45  1  0.750333  0.315392  0.199593  1
  Pb  Pb46  1  0.749981  0.816650  0.099004  1
  Pb  Pb47  1  0.249456  0.683247  0.598996  1
  S  S48  1  0.249992  0.273894  0.160203  1
  S  S49  1  0.250069  0.960056  0.674723  1
  S  S50  1  0.750002  0.704356  0.239145  1
  S  S51  1  0.250122  0.944356  0.271477  1
  S  S52  1  0.749940  0.727774  0.638652  1
  S  S53  1  0.250011  0.772181  0.138661  1
  S  S54  1  0.749938  0.211905  0.061838  1
  S  S55  1  0.750033  0.206744  0.460258  1
  S  S56  1  0.750165  0.539931  0.174726  1
  S  S57  1  0.749958  0.872816  0.989916  1
  S  S58  1  0.249917  0.627141  0.489923  1
  S  S59  1  0.749987  0.890737  0.790229  1
  S  S60  1  0.249825  0.628329  0.887940  1
  S  S61  1  0.250126  0.128300  0.612052  1
  S  S62  1  0.250012  0.106689  0.410868  1
  S  S63  1  0.250005  0.632871  0.687724  1
  S  S64  1  0.249954  0.448871  0.429242  1
  S  S65  1  0.250027  0.293226  0.960259  1
  S  S66  1  0.749949  0.204367  0.260854  1
  S  S67  1  0.250212  0.793217  0.539746  1
  S  S68  1  0.749975  0.706830  0.039750  1
  S  S69  1  0.749915  0.555609  0.771485  1
  S  S70  1  0.749962  0.051127  0.929250  1
  S  S71  1  0.249969  0.109260  0.209764  1
  S  S72  1  0.750023  0.867116  0.187723  1
  S  S73  1  0.249993  0.444404  0.228519  1
  S  S74  1  0.250055  0.773935  0.339786  1
  S  S75  1  0.749876  0.551156  0.570747  1
  S  S76  1  0.250081  0.132851  0.812278  1
  S  S77  1  0.750049  0.893257  0.589134  1
  S  S78  1  0.249806  0.460080  0.825283  1
  S  S79  1  0.749996  0.372814  0.510084  1
  S  S80  1  0.750030  0.390734  0.709776  1
  S  S81  1  0.749996  0.226099  0.660202  1
  S  S82  1  0.249991  0.948878  0.070747  1
  S  S83  1  0.249925  0.288093  0.561841  1
  S  S84  1  0.749952  0.055622  0.728506  1
  S  S85  1  0.250110  0.788061  0.938169  1
  S  S86  1  0.250001  0.127203  0.010078  1
  S  S87  1  0.750209  0.367122  0.312279  1
  S  S88  1  0.750005  0.726075  0.839789  1
  S  S89  1  0.250094  0.448282  0.025343  1
  S  S90  1  0.250041  0.272225  0.361346  1
  S  S91  1  0.250246  0.948284  0.474669  1
  S  S92  1  0.750147  0.393255  0.910870  1
  S  S93  1  0.249903  0.609258  0.290230  1
  S  S94  1  0.750043  0.227810  0.861341  1
  S  S95  1  0.249991  0.461807  0.625440  1
  S  S96  1  0.749914  0.711895  0.438169  1
  S  S97  1  0.249838  0.295691  0.760851  1
  S  S98  1  0.249980  0.795673  0.739152  1
  S  S99  1  0.750143  0.039956  0.325275  1
  S  S100  1  0.750018  0.551725  0.974667  1
  S  S101  1  0.750140  0.038188  0.125441  1
  S  S102  1  0.750100  0.371645  0.112052  1
  S  S103  1  0.750044  0.051717  0.525335  1
  S  S104  1  0.749908  0.538232  0.374564  1
  S  S105  1  0.749959  0.871640  0.387942  1
  S  S106  1  0.249962  0.606702  0.089133  1
  S  S107  1  0.249922  0.961774  0.874562  1
