# generated using pymatgen
data_CsMnF4
_symmetry_space_group_name_H-M   'P 1'
_cell_length_a   6.48581204
_cell_length_b   8.12286977
_cell_length_c   8.12286977
_cell_angle_alpha   90.00000000
_cell_angle_beta   90.00000000
_cell_angle_gamma   90.00000000
_symmetry_Int_Tables_number   1
_chemical_formula_structural   CsMnF4
_chemical_formula_sum   'Cs4 Mn4 F16'
_cell_volume   427.94045048
_cell_formula_units_Z   4
loop_
 _symmetry_equiv_pos_site_id
 _symmetry_equiv_pos_as_xyz
  1  'x, y, z'
loop_
 _atom_site_type_symbol
 _atom_site_label
 _atom_site_symmetry_multiplicity
 _atom_site_fract_x
 _atom_site_fract_y
 _atom_site_fract_z
 _atom_site_occupancy
  Cs  Cs0  1  0.552009  0.750000  0.750000  1
  Cs  Cs1  1  0.500000  0.250000  0.750000  1
  Cs  Cs2  1  0.447991  0.250000  0.250000  1
  Cs  Cs3  1  0.500000  0.750000  0.250000  1
  Mn  Mn4  1  0.000000  0.000000  0.000000  1
  Mn  Mn5  1  0.000000  0.500000  0.500000  1
  Mn  Mn6  1  0.000000  0.000000  0.500000  1
  Mn  Mn7  1  0.000000  0.500000  0.000000  1
  F  F8  1  0.951832  0.497511  0.767261  1
  F  F9  1  0.283495  0.525052  0.968289  1
  F  F10  1  0.048168  0.997511  0.267261  1
  F  F11  1  0.716505  0.031711  0.025052  1
  F  F12  1  0.951832  0.767261  0.002489  1
  F  F13  1  0.283495  0.974948  0.531711  1
  F  F14  1  0.283495  0.968289  0.974948  1
  F  F15  1  0.048168  0.502489  0.232739  1
  F  F16  1  0.951832  0.002489  0.732739  1
  F  F17  1  0.951832  0.732739  0.497511  1
  F  F18  1  0.716505  0.474948  0.031711  1
  F  F19  1  0.716505  0.468289  0.474948  1
  F  F20  1  0.283495  0.531711  0.525052  1
  F  F21  1  0.048168  0.232739  0.997511  1
  F  F22  1  0.048168  0.267261  0.502489  1
  F  F23  1  0.716505  0.025052  0.468289  1
