# generated using pymatgen
data_CsCdCl3
_symmetry_space_group_name_H-M   'P 1'
_cell_length_a   7.57508922
_cell_length_b   7.57508881
_cell_length_c   18.87334011
_cell_angle_alpha   90.00000000
_cell_angle_beta   90.00000000
_cell_angle_gamma   120.00000178
_symmetry_Int_Tables_number   1
_chemical_formula_structural   CsCdCl3
_chemical_formula_sum   'Cs6 Cd6 Cl18'
_cell_volume   937.89640570
_cell_formula_units_Z   6
loop_
 _symmetry_equiv_pos_site_id
 _symmetry_equiv_pos_as_xyz
  1  'x, y, z'
loop_
 _atom_site_type_symbol
 _atom_site_label
 _atom_site_symmetry_multiplicity
 _atom_site_fract_x
 _atom_site_fract_y
 _atom_site_fract_z
 _atom_site_occupancy
  Cs  Cs0  1  0.333333  0.666667  0.090151  1
  Cs  Cs1  1  0.666667  0.333333  0.909849  1
  Cs  Cs2  1  0.666667  0.333333  0.590151  1
  Cs  Cs3  1  0.000000  0.000000  0.250000  1
  Cs  Cs4  1  0.333333  0.666667  0.409849  1
  Cs  Cs5  1  0.000000  0.000000  0.750000  1
  Cd  Cd6  1  0.666667  0.333333  0.339482  1
  Cd  Cd7  1  0.333333  0.666667  0.660518  1
  Cd  Cd8  1  0.666667  0.333333  0.160518  1
  Cd  Cd9  1  0.000000  0.000000  0.500000  1
  Cd  Cd10  1  0.333333  0.666667  0.839482  1
  Cd  Cd11  1  0.000000  0.000000  0.000000  1
  Cl  Cl12  1  0.835582  0.164418  0.082551  1
  Cl  Cl13  1  0.835582  0.671164  0.082551  1
  Cl  Cl14  1  0.835582  0.164418  0.417449  1
  Cl  Cl15  1  0.164418  0.328836  0.582551  1
  Cl  Cl16  1  0.835582  0.671164  0.417449  1
  Cl  Cl17  1  0.985166  0.492583  0.250000  1
  Cl  Cl18  1  0.328836  0.164418  0.082551  1
  Cl  Cl19  1  0.507417  0.492583  0.250000  1
  Cl  Cl20  1  0.328836  0.164418  0.417449  1
  Cl  Cl21  1  0.671164  0.835582  0.917449  1
  Cl  Cl22  1  0.164418  0.835582  0.917449  1
  Cl  Cl23  1  0.164418  0.835582  0.582551  1
  Cl  Cl24  1  0.671164  0.835582  0.582551  1
  Cl  Cl25  1  0.507417  0.014834  0.250000  1
  Cl  Cl26  1  0.164418  0.328836  0.917449  1
  Cl  Cl27  1  0.492583  0.985166  0.750000  1
  Cl  Cl28  1  0.492583  0.507417  0.750000  1
  Cl  Cl29  1  0.014834  0.507417  0.750000  1
