# generated using pymatgen
data_Sb3S2XeN(O2F9)2
_symmetry_space_group_name_H-M   'P 1'
_cell_length_a   10.51135057
_cell_length_b   10.83638180
_cell_length_c   18.22298791
_cell_angle_alpha   90.00000000
_cell_angle_beta   104.96283376
_cell_angle_gamma   90.00000000
_symmetry_Int_Tables_number   1
_chemical_formula_structural   Sb3S2XeN(O2F9)2
_chemical_formula_sum   'Sb12 S8 Xe4 N4 O16 F72'
_cell_volume   2005.31024019
_cell_formula_units_Z   4
loop_
 _symmetry_equiv_pos_site_id
 _symmetry_equiv_pos_as_xyz
  1  'x, y, z'
loop_
 _atom_site_type_symbol
 _atom_site_label
 _atom_site_symmetry_multiplicity
 _atom_site_fract_x
 _atom_site_fract_y
 _atom_site_fract_z
 _atom_site_occupancy
  Sb  Sb0  1  0.453764  0.739325  0.540262  1
  Sb  Sb1  1  0.026936  0.289215  0.387463  1
  Sb  Sb2  1  0.973064  0.710785  0.612537  1
  Sb  Sb3  1  0.546236  0.260675  0.459738  1
  Sb  Sb4  1  0.526936  0.210785  0.887463  1
  Sb  Sb5  1  0.771680  0.425136  0.805152  1
  Sb  Sb6  1  0.728320  0.925136  0.694848  1
  Sb  Sb7  1  0.228320  0.574864  0.194848  1
  Sb  Sb8  1  0.046236  0.239325  0.959738  1
  Sb  Sb9  1  0.473064  0.789215  0.112537  1
  Sb  Sb10  1  0.953764  0.760675  0.040262  1
  Sb  Sb11  1  0.271680  0.074864  0.305152  1
  S  S12  1  0.942973  0.745865  0.336327  1
  S  S13  1  0.312511  0.364684  0.654249  1
  S  S14  1  0.442973  0.754135  0.836327  1
  S  S15  1  0.557027  0.245865  0.163673  1
  S  S16  1  0.057027  0.254135  0.663673  1
  S  S17  1  0.687489  0.635316  0.345751  1
  S  S18  1  0.812511  0.135316  0.154249  1
  S  S19  1  0.187489  0.864684  0.845751  1
  Xe  Xe20  1  0.284036  0.069995  0.617739  1
  Xe  Xe21  1  0.215964  0.569995  0.882261  1
  Xe  Xe22  1  0.715964  0.930005  0.382261  1
  Xe  Xe23  1  0.784036  0.430005  0.117739  1
  N  N24  1  0.288353  0.741288  0.852755  1
  N  N25  1  0.788353  0.758712  0.352755  1
  N  N26  1  0.711647  0.258712  0.147245  1
  N  N27  1  0.211647  0.241288  0.647245  1
  O  O28  1  0.786208  0.058053  0.212055  1
  O  O29  1  0.564663  0.271532  0.240852  1
  O  O30  1  0.498308  0.140248  0.122118  1
  O  O31  1  0.064663  0.228468  0.740852  1
  O  O32  1  0.998308  0.359752  0.622118  1
  O  O33  1  0.713792  0.558053  0.287945  1
  O  O34  1  0.435337  0.728468  0.759148  1
  O  O35  1  0.286208  0.441947  0.712055  1
  O  O36  1  0.935337  0.771532  0.259148  1
  O  O37  1  0.501692  0.859752  0.877882  1
  O  O38  1  0.561101  0.678151  0.347452  1
  O  O39  1  0.001692  0.640248  0.377882  1
  O  O40  1  0.938899  0.178151  0.152548  1
  O  O41  1  0.438899  0.321849  0.652548  1
  O  O42  1  0.061101  0.821849  0.847452  1
  O  O43  1  0.213792  0.941947  0.787945  1
  F  F44  1  0.344845  0.720332  0.028602  1
  F  F45  1  0.149901  0.409300  0.374667  1
  F  F46  1  0.087558  0.140904  0.883813  1
  F  F47  1  0.802213  0.801062  0.963306  1
  F  F48  1  0.484534  0.139982  0.517592  1
  F  F49  1  0.088095  0.665163  0.707615  1
  F  F50  1  0.850099  0.590700  0.625333  1
  F  F51  1  0.440834  0.119336  0.948257  1
  F  F52  1  0.119846  0.178294  0.318581  1
  F  F53  1  0.880154  0.821706  0.681419  1
  F  F54  1  0.616709  0.792711  0.628477  1
  F  F55  1  0.933945  0.506271  0.811139  1
  F  F56  1  0.223576  0.682560  0.275272  1
  F  F57  1  0.495402  0.363438  0.116282  1
  F  F58  1  0.249357  0.429893  0.576476  1
  F  F59  1  0.350099  0.909300  0.125333  1
  F  F60  1  0.776424  0.317440  0.724728  1
  F  F61  1  0.638114  0.125089  0.421743  1
  F  F62  1  0.697787  0.301062  0.536694  1
  F  F63  1  0.239928  0.496528  0.104163  1
  F  F64  1  0.260072  0.996528  0.395837  1
  F  F65  1  0.361886  0.874911  0.578257  1
  F  F66  1  0.276424  0.182560  0.224728  1
  F  F67  1  0.995402  0.136562  0.616282  1
  F  F68  1  0.559166  0.880664  0.051743  1
  F  F69  1  0.587558  0.359096  0.383813  1
  F  F70  1  0.411905  0.165163  0.792385  1
  F  F71  1  0.429804  0.379877  0.480793  1
  F  F72  1  0.076931  0.855610  0.612931  1
  F  F73  1  0.655155  0.279668  0.971398  1
  F  F74  1  0.940834  0.380664  0.448257  1
  F  F75  1  0.383291  0.207289  0.371523  1
  F  F76  1  0.929804  0.120123  0.980793  1
  F  F77  1  0.059166  0.619336  0.551743  1
  F  F78  1  0.152258  0.967578  0.240708  1
  F  F79  1  0.576931  0.644390  0.112931  1
  F  F80  1  0.015466  0.639982  0.982408  1
  F  F81  1  0.515466  0.860018  0.482408  1
  F  F82  1  0.347742  0.467578  0.259292  1
  F  F83  1  0.739928  0.003472  0.604163  1
  F  F84  1  0.155155  0.220332  0.471398  1
  F  F85  1  0.197787  0.198938  0.036694  1
  F  F86  1  0.652258  0.532422  0.740708  1
  F  F87  1  0.250643  0.929893  0.923524  1
  F  F88  1  0.923069  0.144390  0.387069  1
  F  F89  1  0.750643  0.570107  0.423524  1
  F  F90  1  0.844845  0.779668  0.528602  1
  F  F91  1  0.649901  0.090700  0.874667  1
  F  F92  1  0.412442  0.640904  0.616187  1
  F  F93  1  0.570196  0.620123  0.519207  1
  F  F94  1  0.004598  0.863438  0.383718  1
  F  F95  1  0.066055  0.493729  0.188861  1
  F  F96  1  0.760072  0.503472  0.895837  1
  F  F97  1  0.912442  0.859096  0.116187  1
  F  F98  1  0.302213  0.698938  0.463306  1
  F  F99  1  0.070196  0.879877  0.019207  1
  F  F100  1  0.984534  0.360018  0.017592  1
  F  F101  1  0.504598  0.636562  0.883718  1
  F  F102  1  0.588095  0.834837  0.207615  1
  F  F103  1  0.723576  0.817440  0.775272  1
  F  F104  1  0.380154  0.678294  0.181419  1
  F  F105  1  0.749357  0.070107  0.076476  1
  F  F106  1  0.116709  0.707289  0.128477  1
  F  F107  1  0.433945  0.993729  0.311139  1
  F  F108  1  0.847742  0.032422  0.759292  1
  F  F109  1  0.883291  0.292711  0.871523  1
  F  F110  1  0.423069  0.355610  0.887069  1
  F  F111  1  0.566055  0.006271  0.688861  1
  F  F112  1  0.619846  0.321706  0.818581  1
  F  F113  1  0.861886  0.625089  0.078257  1
  F  F114  1  0.138114  0.374911  0.921743  1
  F  F115  1  0.911905  0.334837  0.292385  1
