# generated using pymatgen
data_KRb2ScF6
_symmetry_space_group_name_H-M   'P 1'
_cell_length_a   6.51416643
_cell_length_b   6.44655359
_cell_length_c   9.14468930
_cell_angle_alpha   90.13973228
_cell_angle_beta   90.00000000
_cell_angle_gamma   90.00000000
_symmetry_Int_Tables_number   1
_chemical_formula_structural   KRb2ScF6
_chemical_formula_sum   'K2 Rb4 Sc2 F12'
_cell_volume   384.02023583
_cell_formula_units_Z   2
loop_
 _symmetry_equiv_pos_site_id
 _symmetry_equiv_pos_as_xyz
  1  'x, y, z'
loop_
 _atom_site_type_symbol
 _atom_site_label
 _atom_site_symmetry_multiplicity
 _atom_site_fract_x
 _atom_site_fract_y
 _atom_site_fract_z
 _atom_site_occupancy
  F  F0  1  0.245552  0.321805  0.460461  1
  F  F1  1  0.745552  0.178195  0.039539  1
  F  F2  1  0.754448  0.678195  0.539539  1
  F  F3  1  0.254448  0.821805  0.960461  1
  F  F4  1  0.317649  0.754210  0.532451  1
  F  F5  1  0.817649  0.745790  0.967549  1
  F  F6  1  0.682351  0.245790  0.467549  1
  F  F7  1  0.182351  0.254210  0.032451  1
  F  F8  1  0.022628  0.931876  0.217670  1
  F  F9  1  0.522628  0.568124  0.282330  1
  F  F10  1  0.977372  0.068124  0.782330  1
  F  F11  1  0.477372  0.431876  0.717670  1
  K  K12  1  0.000000  0.000000  0.500000  1
  K  K13  1  0.500000  0.500000  0.000000  1
  Sc  Sc14  1  0.000000  0.000000  0.000000  1
  Sc  Sc15  1  0.500000  0.500000  0.500000  1
  Rb  Rb16  1  0.532985  0.993684  0.749959  1
  Rb  Rb17  1  0.032985  0.506316  0.750041  1
  Rb  Rb18  1  0.467015  0.006316  0.250041  1
  Rb  Rb19  1  0.967015  0.493684  0.249959  1
