# generated using pymatgen
data_Zn(Bi19O30)2
_symmetry_space_group_name_H-M   'P 1'
_cell_length_a   8.99593737
_cell_length_b   8.99593791
_cell_length_c   53.91745002
_cell_angle_alpha   109.47806059
_cell_angle_beta   109.43374986
_cell_angle_gamma   109.54550438
_symmetry_Int_Tables_number   1
_chemical_formula_structural   Zn(Bi19O30)2
_chemical_formula_sum   'Zn2 Bi76 O120'
_cell_volume   3357.11193101
_cell_formula_units_Z   2
loop_
 _symmetry_equiv_pos_site_id
 _symmetry_equiv_pos_as_xyz
  1  'x, y, z'
loop_
 _atom_site_type_symbol
 _atom_site_label
 _atom_site_symmetry_multiplicity
 _atom_site_fract_x
 _atom_site_fract_y
 _atom_site_fract_z
 _atom_site_occupancy
  Zn  Zn0  1  0.000190  0.000843  0.000624  1
  Zn  Zn1  1  0.997098  0.996446  0.166043  1
  Bi  Bi2  1  0.182725  0.867252  0.951377  1
  Bi  Bi3  1  0.143604  0.330024  0.973560  1
  Bi  Bi4  1  0.176061  0.519179  0.887434  1
  Bi  Bi5  1  0.197123  0.857662  0.783295  1
  Bi  Bi6  1  0.350461  0.839450  0.859423  1
  Bi  Bi7  1  0.506695  0.679738  0.969374  1
  Bi  Bi8  1  0.144869  0.344100  0.807784  1
  Bi  Bi9  1  0.320319  0.171392  0.919321  1
  Bi  Bi10  1  0.691606  0.820895  0.921606  1
  Bi  Bi11  1  0.162506  0.499321  0.717947  1
  Bi  Bi12  1  0.191830  0.856339  0.615369  1
  Bi  Bi13  1  0.507745  0.308801  0.861762  1
  Bi  Bi14  1  0.335963  0.836758  0.690670  1
  Bi  Bi15  1  0.498955  0.660841  0.801233  1
  Bi  Bi16  1  0.701934  0.183684  0.978774  1
  Bi  Bi17  1  0.143323  0.336334  0.639435  1
  Bi  Bi18  1  0.818745  0.519546  0.949016  1
  Bi  Bi19  1  0.307141  0.162352  0.750164  1
  Bi  Bi20  1  0.661180  0.805190  0.750052  1
  Bi  Bi21  1  0.164125  0.499616  0.551297  1
  Bi  Bi22  1  0.855099  0.699330  0.866301  1
  Bi  Bi23  1  0.002575  0.002014  0.834073  1
  Bi  Bi24  1  0.191639  0.854824  0.448720  1
  Bi  Bi25  1  0.498790  0.306460  0.693705  1
  Bi  Bi26  1  0.335569  0.836274  0.523940  1
  Bi  Bi27  1  0.696226  0.195535  0.809460  1
  Bi  Bi28  1  0.842809  0.155888  0.891709  1
  Bi  Bi29  1  0.500677  0.665322  0.634785  1
  Bi  Bi30  1  0.144232  0.336562  0.472962  1
  Bi  Bi31  1  0.307250  0.164204  0.583293  1
  Bi  Bi32  1  0.805998  0.500180  0.776858  1
  Bi  Bi33  1  0.664449  0.807494  0.583374  1
  Bi  Bi34  1  0.157894  0.497356  0.383372  1
  Bi  Bi35  1  0.856637  0.691891  0.698707  1
  Bi  Bi36  1  0.194578  0.851459  0.279233  1
  Bi  Bi37  1  0.499727  0.306716  0.527232  1
  Bi  Bi38  1  0.338773  0.839464  0.357207  1
  Bi  Bi39  1  0.692633  0.191929  0.642726  1
  Bi  Bi40  1  0.838031  0.143997  0.723178  1
  Bi  Bi41  1  0.499648  0.664395  0.467959  1
  Bi  Bi42  1  0.138229  0.337173  0.304904  1
  Bi  Bi43  1  0.304879  0.160869  0.416614  1
  Bi  Bi44  1  0.807584  0.500278  0.610698  1
  Bi  Bi45  1  0.856614  0.691970  0.531882  1
  Bi  Bi46  1  0.661369  0.806158  0.416503  1
  Bi  Bi47  1  0.158990  0.474462  0.215290  1
  Bi  Bi48  1  0.000012  0.000216  0.666573  1
  Bi  Bi49  1  0.000781  0.000577  0.500094  1
  Bi  Bi50  1  0.184823  0.863026  0.115299  1
  Bi  Bi51  1  0.497392  0.298161  0.358882  1
  Bi  Bi52  1  0.311041  0.829291  0.187893  1
  Bi  Bi53  1  0.836094  0.143400  0.555969  1
  Bi  Bi54  1  0.692741  0.191946  0.475997  1
  Bi  Bi55  1  0.501527  0.657296  0.300366  1
  Bi  Bi56  1  0.135890  0.321691  0.137855  1
  Bi  Bi57  1  0.291260  0.161971  0.245061  1
  Bi  Bi58  1  0.804929  0.498963  0.443489  1
  Bi  Bi59  1  0.853444  0.691557  0.365434  1
  Bi  Bi60  1  0.655466  0.804393  0.247345  1
  Bi  Bi61  1  0.171228  0.493024  0.051367  1
  Bi  Bi62  1  0.488662  0.302243  0.193107  1
  Bi  Bi63  1  0.326109  0.830733  0.023414  1
  Bi  Bi64  1  0.508157  0.677276  0.135569  1
  Bi  Bi65  1  0.839031  0.144849  0.389808  1
  Bi  Bi66  1  0.682917  0.193928  0.307244  1
  Bi  Bi67  1  0.303161  0.169190  0.081377  1
  Bi  Bi68  1  0.805630  0.492551  0.274957  1
  Bi  Bi69  1  0.680926  0.814896  0.085290  1
  Bi  Bi70  1  0.863494  0.690450  0.197292  1
  Bi  Bi71  1  0.997571  0.998133  0.332593  1
  Bi  Bi72  1  0.494561  0.308760  0.028812  1
  Bi  Bi73  1  0.825451  0.124650  0.217651  1
  Bi  Bi74  1  0.690245  0.185621  0.143252  1
  Bi  Bi75  1  0.813801  0.507948  0.112872  1
  Bi  Bi76  1  0.863864  0.694744  0.031098  1
  Bi  Bi77  1  0.830717  0.136570  0.053795  1
  O  O78  1  0.240693  0.617681  0.980461  1
  O  O79  1  0.114740  0.741032  0.892468  1
  O  O80  1  0.373879  0.755315  0.939331  1
  O  O81  1  0.264957  0.380218  0.937419  1
  O  O82  1  0.371547  -0.000269  0.833044  1
  O  O83  1  0.244419  0.625633  0.814422  1
  O  O84  1  0.355117  0.118665  0.957250  1
  O  O85  1  0.231150  0.230065  0.871046  1
  O  O86  1  0.377959  0.628446  0.876652  1
  O  O87  1  0.116690  0.737796  0.726000  1
  O  O88  1  0.621988  0.621393  0.937223  1
  O  O89  1  0.379559  0.754921  0.773276  1
  O  O90  1  0.627245  0.886799  0.872822  1
  O  O91  1  0.636872  0.375283  0.959899  1
  O  O92  1  0.261218  0.377385  0.769739  1
  O  O93  1  0.355297  0.115686  0.789405  1
  O  O94  1  0.243979  0.623477  0.647288  1
  O  O95  1  0.626809  0.259443  0.896518  1
  O  O96  1  0.995278  0.990361  0.961367  1
  O  O97  1  0.238302  0.239027  0.705917  1
  O  O98  1  0.001948  0.763214  0.500508  1
  O  O99  1  0.376198  0.620485  0.710054  1
  O  O100  1  0.116421  0.739409  0.560157  1
  O  O101  1  0.761438  0.642815  0.897085  1
  O  O102  1  0.768192  0.996781  0.831671  1
  O  O103  1  0.626931  0.626575  0.771113  1
  O  O104  1  0.000516  0.000834  0.894630  1
  O  O105  1  0.622233  0.883223  0.707173  1
  O  O106  1  0.378464  0.755476  0.606510  1
  O  O107  1  0.739302  0.356545  0.852484  1
  O  O108  1  0.638214  0.379294  0.792250  1
  O  O109  1  0.884001  0.235875  0.937468  1
  O  O110  1  0.260803  0.377291  0.603613  1
  O  O111  1  0.369820  -0.000475  0.666529  1
  O  O112  1  0.370090  0.999704  0.500029  1
  O  O113  1  0.360895  0.116667  0.623277  1
  O  O114  1  0.620169  0.259813  0.729202  1
  O  O115  1  0.244079  0.623606  0.480643  1
  O  O116  1  0.994462  0.767504  0.832056  1
  O  O117  1  0.997626  0.996747  0.795191  1
  O  O118  1  0.239007  0.239506  0.539856  1
  O  O119  1  0.755581  0.639702  0.729838  1
  O  O120  1  0.377005  0.621233  0.543390  1
  O  O121  1  0.115266  0.739903  0.393390  1
  O  O122  1  0.997266  0.371806  0.833136  1
  O  O123  1  0.629999  0.629978  0.605058  1
  O  O124  1  0.739748  0.360221  0.686023  1
  O  O125  1  0.623028  0.883336  0.540693  1
  O  O126  1  0.381800  0.760694  0.440667  1
  O  O127  1  0.884874  0.243077  0.770521  1
  O  O128  1  0.639177  0.378869  0.625973  1
  O  O129  1  0.260677  0.376556  0.436829  1
  O  O130  1  0.360161  0.115874  0.456612  1
  O  O131  1  0.241644  0.624401  0.314183  1
  O  O132  1  0.621172  0.260337  0.562814  1
  O  O133  1  0.225598  0.226478  0.371476  1
  O  O134  1  0.000368  -0.000132  0.626810  1
  O  O135  1  0.000090  0.761492  0.666559  1
  O  O136  1  0.755616  0.639128  0.563054  1
  O  O137  1  0.379257  0.618869  0.377262  1
  O  O138  1  0.119330  0.737894  0.227336  1
  O  O139  1  0.760167  0.998902  0.666159  1
  O  O140  1  0.762138  0.000736  0.500108  1
  O  O141  1  -0.000965  0.998666  0.728238  1
  O  O142  1  0.629236  0.629606  0.438428  1
  O  O143  1  -0.000471  0.369915  0.666638  1
  O  O144  1  0.999630  0.999651  0.561609  1
  O  O145  1  0.739751  0.360253  0.519379  1
  O  O146  1  0.386222  0.759931  0.274198  1
  O  O147  1  0.625793  0.884713  0.374417  1
  O  O148  1  0.640183  0.379193  0.459494  1
  O  O149  1  0.883451  0.244286  0.603852  1
  O  O150  1  0.260305  0.378928  0.269581  1
  O  O151  1  0.372987  0.998448  0.333530  1
  O  O152  1  0.368537  0.118049  0.290015  1
  O  O153  1  0.238165  0.616476  0.146553  1
  O  O154  1  0.619949  0.261746  0.396146  1
  O  O155  1  0.222162  0.227079  0.205300  1
  O  O156  1  0.992356  0.767303  0.999058  1
  O  O157  1  0.758948  0.642781  0.396927  1
  O  O158  1  0.375160  0.611613  0.209416  1
  O  O159  1  0.118023  0.735759  0.059886  1
  O  O160  1  0.633056  0.632738  0.272037  1
  O  O161  1  0.000352  0.370647  0.500138  1
  O  O162  1  0.739101  0.357887  0.352245  1
  O  O163  1  0.615889  0.877478  0.206768  1
  O  O164  1  0.376445  0.758708  0.106781  1
  O  O165  1  0.649866  0.390312  0.293845  1
  O  O166  1  0.884600  0.244957  0.437465  1
  O  O167  1  0.264190  0.382168  0.103871  1
  O  O168  1  0.376651  0.999195  0.166436  1
  O  O169  1  0.359985  0.118421  0.122799  1
  O  O170  1  0.611068  0.259195  0.229199  1
  O  O171  1  0.003523  0.002798  0.460750  1
  O  O172  1  0.003793  0.004877  0.295621  1
  O  O173  1  0.006752  0.778163  0.334995  1
  O  O174  1  0.226177  0.227186  0.038083  1
  O  O175  1  0.755704  0.640444  0.229248  1
  O  O176  1  0.381629  0.623192  0.043868  1
  O  O177  1  0.775165  0.002123  0.334610  1
  O  O178  1  -0.000100  0.000256  0.395554  1
  O  O179  1  0.001467  0.373283  0.333622  1
  O  O180  1  0.998055  0.998650  0.229443  1
  O  O181  1  0.623707  0.623724  0.104014  1
  O  O182  1  0.734911  0.357923  0.186205  1
  O  O183  1  0.616266  0.881704  0.039673  1
  O  O184  1  0.880339  0.247705  0.270149  1
  O  O185  1  0.643663  0.378224  0.126993  1
  O  O186  1  0.377379  -0.000051  0.000235  1
  O  O187  1  0.623289  0.264832  0.063912  1
  O  O188  1  0.998684  0.997676  0.128583  1
  O  O189  1  0.005733  0.774728  0.167527  1
  O  O190  1  0.758947  0.640969  0.062796  1
  O  O191  1  0.772957  0.998010  0.167609  1
  O  O192  1  0.999641  0.999623  0.062653  1
  O  O193  1  0.998541  0.375970  0.166432  1
  O  O194  1  0.737156  0.358844  0.020114  1
  O  O195  1  0.881357  0.239813  0.102754  1
  O  O196  1  0.769569  0.000574  0.999140  1
  O  O197  1  0.000582  0.378038  0.000231  1
