# generated using pymatgen
data_Gd13Ge6O31F
_symmetry_space_group_name_H-M   'P 1'
_cell_length_a   9.83357549
_cell_length_b   9.83357499
_cell_length_c   9.83357577
_cell_angle_alpha   109.80993900
_cell_angle_beta   109.80993792
_cell_angle_gamma   109.80993592
_symmetry_Int_Tables_number   1
_chemical_formula_structural   Gd13Ge6O31F
_chemical_formula_sum   'Gd13 Ge6 O31 F1'
_cell_volume   722.67684041
_cell_formula_units_Z   1
loop_
 _symmetry_equiv_pos_site_id
 _symmetry_equiv_pos_as_xyz
  1  'x, y, z'
loop_
 _atom_site_type_symbol
 _atom_site_label
 _atom_site_symmetry_multiplicity
 _atom_site_fract_x
 _atom_site_fract_y
 _atom_site_fract_z
 _atom_site_occupancy
  Gd  Gd0  1  0.851617  0.942437  0.275340  1
  Gd  Gd1  1  0.942437  0.275340  0.851617  1
  Gd  Gd2  1  0.185221  0.469115  0.329408  1
  Gd  Gd3  1  0.005055  0.005055  0.005055  1
  Gd  Gd4  1  0.154682  0.060652  0.725626  1
  Gd  Gd5  1  0.725626  0.154682  0.060652  1
  Gd  Gd6  1  0.828187  0.524704  0.676474  1
  Gd  Gd7  1  0.060652  0.725626  0.154682  1
  Gd  Gd8  1  0.524704  0.676474  0.828187  1
  Gd  Gd9  1  0.275340  0.851617  0.942437  1
  Gd  Gd10  1  0.469115  0.329408  0.185221  1
  Gd  Gd11  1  0.676474  0.828187  0.524704  1
  Gd  Gd12  1  0.329408  0.185221  0.469115  1
  Ge  Ge13  1  0.069292  0.342103  0.556819  1
  Ge  Ge14  1  0.446786  0.933862  0.660192  1
  Ge  Ge15  1  0.660192  0.446786  0.933862  1
  Ge  Ge16  1  0.933862  0.660192  0.446786  1
  Ge  Ge17  1  0.556819  0.069292  0.342103  1
  Ge  Ge18  1  0.342103  0.556819  0.069292  1
  O  O19  1  0.106639  0.176754  0.555965  1
  O  O20  1  0.931223  0.250260  0.338935  1
  O  O21  1  0.752167  0.666311  0.072108  1
  O  O22  1  0.251726  0.509170  0.597709  1
  O  O23  1  0.415414  0.748495  0.503183  1
  O  O24  1  0.509170  0.597709  0.251726  1
  O  O25  1  0.176754  0.555965  0.106639  1
  O  O26  1  0.994263  0.408017  0.692271  1
  O  O27  1  0.313969  0.009263  0.594049  1
  O  O28  1  0.072108  0.752167  0.666311  1
  O  O29  1  0.594049  0.313969  0.009263  1
  O  O30  1  0.555965  0.106639  0.176754  1
  O  O31  1  0.009263  0.594049  0.313969  1
  O  O32  1  0.666311  0.072108  0.752167  1
  O  O33  1  0.408017  0.692271  0.994263  1
  O  O34  1  0.503183  0.415414  0.748495  1
  O  O35  1  0.755277  0.930912  0.022979  1
  O  O36  1  0.450389  0.901026  0.830141  1
  O  O37  1  0.748495  0.503183  0.415414  1
  O  O38  1  0.830141  0.450389  0.901026  1
  O  O39  1  0.071170  0.977631  0.242871  1
  O  O40  1  0.242871  0.071170  0.977631  1
  O  O41  1  0.315393  0.315393  0.315393  1
  O  O42  1  0.930912  0.022979  0.755277  1
  O  O43  1  0.692271  0.994263  0.408017  1
  O  O44  1  0.901026  0.830141  0.450389  1
  O  O45  1  0.338935  0.931223  0.250260  1
  O  O46  1  0.597709  0.251726  0.509170  1
  O  O47  1  0.022979  0.755277  0.930912  1
  O  O48  1  0.977631  0.242871  0.071170  1
  O  O49  1  0.250260  0.338935  0.931223  1
  F  F50  1  0.702646  0.702646  0.702646  1
