# generated using pymatgen
data_H5C2NO4
_symmetry_space_group_name_H-M   'P 1'
_cell_length_a   4.39621583
_cell_length_b   7.82547585
_cell_length_c   13.68956828
_cell_angle_alpha   90.00000000
_cell_angle_beta   90.00000000
_cell_angle_gamma   101.75694046
_symmetry_Int_Tables_number   1
_chemical_formula_structural   H5C2NO4
_chemical_formula_sum   'H20 C8 N4 O16'
_cell_volume   461.07484724
_cell_formula_units_Z   4
loop_
 _symmetry_equiv_pos_site_id
 _symmetry_equiv_pos_as_xyz
  1  'x, y, z'
loop_
 _atom_site_type_symbol
 _atom_site_label
 _atom_site_symmetry_multiplicity
 _atom_site_fract_x
 _atom_site_fract_y
 _atom_site_fract_z
 _atom_site_occupancy
  H  H0  1  0.700432  0.834771  0.415197  1
  H  H1  1  0.142213  0.486192  0.269162  1
  H  H2  1  0.700432  0.334771  0.084803  1
  H  H3  1  0.857787  0.513808  0.730838  1
  H  H4  1  0.220362  0.850580  0.873838  1
  H  H5  1  0.010600  0.268898  0.041582  1
  H  H6  1  0.220362  0.350580  0.626162  1
  H  H7  1  0.010600  0.768898  0.458418  1
  H  H8  1  0.648046  0.664384  0.489781  1
  H  H9  1  0.989400  0.231102  0.541582  1
  H  H10  1  0.299568  0.165229  0.584803  1
  H  H11  1  0.142213  0.986192  0.230838  1
  H  H12  1  0.857787  0.013808  0.769162  1
  H  H13  1  0.351954  0.835616  0.989781  1
  H  H14  1  0.648046  0.164384  0.010219  1
  H  H15  1  0.779638  0.149420  0.126163  1
  H  H16  1  0.299568  0.665229  0.915197  1
  H  H17  1  0.779638  0.649420  0.373837  1
  H  H18  1  0.989400  0.731102  0.958418  1
  H  H19  1  0.351954  0.335616  0.510219  1
  C  C20  1  0.308575  0.716674  0.656501  1
  C  C21  1  0.691425  0.283326  0.343499  1
  C  C22  1  0.411971  0.624963  0.172251  1
  C  C23  1  0.308575  0.216674  0.843499  1
  C  C24  1  0.691425  0.783326  0.156501  1
  C  C25  1  0.588029  0.875037  0.672251  1
  C  C26  1  0.411971  0.124963  0.327749  1
  C  C27  1  0.588029  0.375037  0.827749  1
  N  N28  1  0.213487  0.272540  0.565778  1
  N  N29  1  0.213487  0.772540  0.934222  1
  N  N30  1  0.786513  0.727460  0.434222  1
  N  N31  1  0.786513  0.227460  0.065778  1
  O  O32  1  0.661106  0.912142  0.765076  1
  O  O33  1  0.857676  0.335123  0.268908  1
  O  O34  1  0.275463  0.153385  0.928224  1
  O  O35  1  0.142324  0.164877  0.768908  1
  O  O36  1  0.338894  0.087858  0.234924  1
  O  O37  1  0.338894  0.587858  0.265076  1
  O  O38  1  0.727343  0.452364  0.897965  1
  O  O39  1  0.727343  0.952364  0.602035  1
  O  O40  1  0.661106  0.412143  0.734924  1
  O  O41  1  0.724537  0.346615  0.428224  1
  O  O42  1  0.857676  0.835123  0.231092  1
  O  O43  1  0.272657  0.547636  0.102035  1
  O  O44  1  0.275463  0.653385  0.571776  1
  O  O45  1  0.724537  0.846615  0.071776  1
  O  O46  1  0.272657  0.047636  0.397965  1
  O  O47  1  0.142324  0.664877  0.731092  1
