# generated using pymatgen
data_PH6NO4
_symmetry_space_group_name_H-M   'P 1'
_cell_length_a   7.18186498
_cell_length_b   7.97186754
_cell_length_c   8.03381256
_cell_angle_alpha   90.00000000
_cell_angle_beta   90.00000000
_cell_angle_gamma   90.00000000
_symmetry_Int_Tables_number   1
_chemical_formula_structural   PH6NO4
_chemical_formula_sum   'P4 H24 N4 O16'
_cell_volume   459.95887680
_cell_formula_units_Z   4
loop_
 _symmetry_equiv_pos_site_id
 _symmetry_equiv_pos_as_xyz
  1  'x, y, z'
loop_
 _atom_site_type_symbol
 _atom_site_label
 _atom_site_symmetry_multiplicity
 _atom_site_fract_x
 _atom_site_fract_y
 _atom_site_fract_z
 _atom_site_occupancy
  P  P0  1  0.495994  0.036098  0.450240  1
  P  P1  1  0.004006  0.963902  0.950240  1
  P  P2  1  0.504006  0.536098  0.049760  1
  P  P3  1  0.995994  0.463902  0.549760  1
  H  H4  1  0.751636  0.702031  0.110108  1
  H  H5  1  0.841687  0.960296  0.412708  1
  H  H6  1  0.248364  0.202031  0.389892  1
  H  H7  1  0.980716  0.860399  0.551823  1
  H  H8  1  0.825409  0.583713  0.343933  1
  H  H9  1  0.041599  0.569681  0.937185  1
  H  H10  1  0.418879  0.016623  0.909112  1
  H  H11  1  0.748364  0.297969  0.610108  1
  H  H12  1  0.174591  0.083713  0.156067  1
  H  H13  1  0.158313  0.460296  0.087292  1
  H  H14  1  0.958401  0.069681  0.562815  1
  H  H15  1  0.519284  0.139601  0.051823  1
  H  H16  1  0.081121  0.983377  0.409112  1
  H  H17  1  0.541599  0.930319  0.062815  1
  H  H18  1  0.658313  0.039704  0.912708  1
  H  H19  1  0.341687  0.539704  0.587292  1
  H  H20  1  0.480716  0.639601  0.448177  1
  H  H21  1  0.674591  0.416287  0.843933  1
  H  H22  1  0.918879  0.483377  0.090888  1
  H  H23  1  0.251636  0.797969  0.889892  1
  H  H24  1  0.581121  0.516623  0.590888  1
  H  H25  1  0.325409  0.916287  0.656067  1
  H  H26  1  0.019284  0.360399  0.948177  1
  H  H27  1  0.458401  0.430319  0.437185  1
  N  N28  1  0.966143  0.968566  0.483871  1
  N  N29  1  0.466143  0.531434  0.516129  1
  N  N30  1  0.033857  0.468566  0.016129  1
  N  N31  1  0.533857  0.031434  0.983871  1
  O  O32  1  0.586967  0.388049  0.934865  1
  O  O33  1  0.815683  0.399557  0.656555  1
  O  O34  1  0.086967  0.111951  0.065135  1
  O  O35  1  0.625342  0.949962  0.330270  1
  O  O36  1  0.068160  0.319478  0.446284  1
  O  O37  1  0.125342  0.550038  0.669730  1
  O  O38  1  0.684317  0.600443  0.156555  1
  O  O39  1  0.315683  0.100443  0.343445  1
  O  O40  1  0.374658  0.449962  0.169730  1
  O  O41  1  0.431840  0.680522  0.946284  1
  O  O42  1  0.874658  0.050038  0.830270  1
  O  O43  1  0.184317  0.899557  0.843445  1
  O  O44  1  0.568160  0.180522  0.553716  1
  O  O45  1  0.913033  0.611951  0.434865  1
  O  O46  1  0.931840  0.819478  0.053716  1
  O  O47  1  0.413033  0.888049  0.565135  1
