# generated using pymatgen
data_Y40Si13S27
_symmetry_space_group_name_H-M   'P 1'
_cell_length_a   4.02567713
_cell_length_b   4.02567713
_cell_length_c   158.35475566
_cell_angle_alpha   59.44017516
_cell_angle_beta   59.44017519
_cell_angle_gamma   60.00000097
_symmetry_Int_Tables_number   1
_chemical_formula_structural   Y40Si13S27
_chemical_formula_sum   'Y40 Si13 S27'
_cell_volume   1799.14764320
_cell_formula_units_Z   1
loop_
 _symmetry_equiv_pos_site_id
 _symmetry_equiv_pos_as_xyz
  1  'x, y, z'
loop_
 _atom_site_type_symbol
 _atom_site_label
 _atom_site_symmetry_multiplicity
 _atom_site_fract_x
 _atom_site_fract_y
 _atom_site_fract_z
 _atom_site_occupancy
  Y  Y0  1  0.500894  0.500894  0.012433  1
  Y  Y1  1  0.504592  0.504592  0.037156  1
  Y  Y2  1  0.503688  0.503688  0.062223  1
  Y  Y3  1  0.499097  0.499097  0.087568  1
  Y  Y4  1  0.500208  0.500208  0.112484  1
  Y  Y5  1  0.500305  0.500305  0.137477  1
  Y  Y6  1  0.500454  0.500454  0.162466  1
  Y  Y7  1  0.500408  0.500408  0.187469  1
  Y  Y8  1  0.499998  0.499998  0.212500  1
  Y  Y9  1  0.500640  0.500640  0.237452  1
  Y  Y10  1  0.495948  0.495948  0.262804  1
  Y  Y11  1  0.495400  0.495400  0.287845  1
  Y  Y12  1  0.499806  0.499806  0.312515  1
  Y  Y13  1  0.500378  0.500378  0.337472  1
  Y  Y14  1  0.498300  0.498300  0.362628  1
  Y  Y15  1  0.499696  0.499696  0.387523  1
  Y  Y16  1  0.492636  0.492636  0.413052  1
  Y  Y17  1  0.500413  0.500413  0.437469  1
  Y  Y18  1  0.498946  0.498946  0.462579  1
  Y  Y19  1  0.501027  0.501027  0.487423  1
  Y  Y20  1  0.498932  0.498932  0.512580  1
  Y  Y21  1  0.500349  0.500349  0.537474  1
  Y  Y22  1  0.500074  0.500074  0.562494  1
  Y  Y23  1  0.500511  0.500511  0.587462  1
  Y  Y24  1  0.500431  0.500431  0.612468  1
  Y  Y25  1  0.499855  0.499855  0.637511  1
  Y  Y26  1  0.499368  0.499368  0.662547  1
  Y  Y27  1  0.499260  0.499260  0.687556  1
  Y  Y28  1  0.499684  0.499684  0.712524  1
  Y  Y29  1  0.499937  0.499937  0.737505  1
  Y  Y30  1  0.500367  0.500367  0.762472  1
  Y  Y31  1  0.500228  0.500228  0.787483  1
  Y  Y32  1  0.500283  0.500283  0.812479  1
  Y  Y33  1  0.499600  0.499600  0.837530  1
  Y  Y34  1  0.501213  0.501213  0.862409  1
  Y  Y35  1  0.498856  0.498856  0.887586  1
  Y  Y36  1  0.501198  0.501198  0.912410  1
  Y  Y37  1  0.499335  0.499335  0.937550  1
  Y  Y38  1  0.507890  0.507890  0.961908  1
  Y  Y39  1  0.499669  0.499669  0.987525  1
  Si  Si40  1  0.002561  0.002561  0.999808  1
  Si  Si41  1  0.999414  0.999414  0.075044  1
  Si  Si42  1  0.001580  0.001580  0.049881  1
  Si  Si43  1  0.999415  0.999415  0.100044  1
  Si  Si44  1  0.000244  0.000244  0.149982  1
  Si  Si45  1  0.000525  0.000525  0.174961  1
  Si  Si46  1  0.999961  0.999961  0.125003  1
  Si  Si47  1  0.000575  0.000575  0.199957  1
  Si  Si48  1  0.998097  0.998097  0.275143  1
  Si  Si49  1  0.000665  0.000665  0.224950  1
  Si  Si50  1  0.000292  0.000292  0.249978  1
  Si  Si51  1  0.999380  0.999380  0.325046  1
  Si  Si52  1  0.997583  0.997583  0.375181  1
  S  S53  1  0.001903  0.001903  0.024857  1
  S  S54  1  0.998254  0.998254  0.300131  1
  S  S55  1  0.999037  0.999037  0.350072  1
  S  S56  1  0.990273  0.990273  0.400730  1
  S  S57  1  0.997770  0.997770  0.425167  1
  S  S58  1  0.999985  0.999985  0.475001  1
  S  S59  1  0.999426  0.999426  0.450043  1
  S  S60  1  0.999889  0.999889  0.525008  1
  S  S61  1  0.999997  0.999997  0.550000  1
  S  S62  1  0.999853  0.999853  0.500011  1
  S  S63  1  0.000499  0.000499  0.599963  1
  S  S64  1  0.000181  0.000181  0.624986  1
  S  S65  1  0.000416  0.000416  0.574969  1
  S  S66  1  0.999555  0.999555  0.650033  1
  S  S67  1  0.999272  0.999272  0.675055  1
  S  S68  1  0.999411  0.999411  0.700044  1
  S  S69  1  0.999824  0.999824  0.725013  1
  S  S70  1  0.000167  0.000167  0.749988  1
  S  S71  1  0.000184  0.000184  0.799986  1
  S  S72  1  0.000389  0.000389  0.774971  1
  S  S73  1  0.000130  0.000130  0.824990  1
  S  S74  1  0.000105  0.000105  0.849992  1
  S  S75  1  0.000595  0.000595  0.924955  1
  S  S76  1  0.000180  0.000180  0.874987  1
  S  S77  1  0.000005  0.000005  0.900000  1
  S  S78  1  0.002298  0.002298  0.949828  1
  S  S79  1  0.010237  0.010237  0.974232  1
