# generated using pymatgen
data_Ca2FeClO3
_symmetry_space_group_name_H-M   'P 1'
_cell_length_a   3.90136908
_cell_length_b   3.90146439
_cell_length_c   13.68039327
_cell_angle_alpha   89.99843688
_cell_angle_beta   90.00115208
_cell_angle_gamma   90.00202402
_symmetry_Int_Tables_number   1
_chemical_formula_structural   Ca2FeClO3
_chemical_formula_sum   'Ca4 Fe2 Cl2 O6'
_cell_volume   208.22998458
_cell_formula_units_Z   2
loop_
 _symmetry_equiv_pos_site_id
 _symmetry_equiv_pos_as_xyz
  1  'x, y, z'
loop_
 _atom_site_type_symbol
 _atom_site_label
 _atom_site_symmetry_multiplicity
 _atom_site_fract_x
 _atom_site_fract_y
 _atom_site_fract_z
 _atom_site_occupancy
  Ca  Ca0  1  0.250011  0.250006  0.340620  1
  Ca  Ca1  1  0.249999  0.250004  0.094292  1
  Ca  Ca2  1  0.749999  0.749987  0.905776  1
  Ca  Ca3  1  0.749987  0.749993  0.659402  1
  Fe  Fe4  1  0.250003  0.249992  0.790996  1
  Fe  Fe5  1  0.750007  0.749999  0.208978  1
  Cl  Cl6  1  0.250009  0.249999  0.576090  1
  Cl  Cl7  1  0.749991  0.750003  0.423798  1
  O  O8  1  0.749994  0.250027  0.766645  1
  O  O9  1  0.750006  0.750000  0.068672  1
  O  O10  1  0.249982  0.250003  0.931344  1
  O  O11  1  0.750017  0.249995  0.233380  1
  O  O12  1  0.249981  0.749998  0.766634  1
  O  O13  1  0.250013  0.749995  0.233371  1
