# generated using pymatgen
data_Li7IN2
_symmetry_space_group_name_H-M   'P 1'
_cell_length_a   7.34559025
_cell_length_b   7.38280997
_cell_length_c   7.38232464
_cell_angle_alpha   59.94295370
_cell_angle_beta   60.19845373
_cell_angle_gamma   60.22135536
_symmetry_Int_Tables_number   1
_chemical_formula_structural   Li7IN2
_chemical_formula_sum   'Li14 I2 N4'
_cell_volume   283.86272036
_cell_formula_units_Z   2
loop_
 _symmetry_equiv_pos_site_id
 _symmetry_equiv_pos_as_xyz
  1  'x, y, z'
loop_
 _atom_site_type_symbol
 _atom_site_label
 _atom_site_symmetry_multiplicity
 _atom_site_fract_x
 _atom_site_fract_y
 _atom_site_fract_z
 _atom_site_occupancy
  Li  Li0  1  0.003981  0.011036  0.009932  1
  Li  Li1  1  0.081556  0.426653  0.062255  1
  Li  Li2  1  0.073406  0.070045  0.426613  1
  Li  Li3  1  0.437121  0.061731  0.068896  1
  Li  Li4  1  0.074638  0.422165  0.422011  1
  Li  Li5  1  0.424600  0.076238  0.420741  1
  Li  Li6  1  0.424788  0.419287  0.077688  1
  Li  Li7  1  0.211483  0.786025  0.217670  1
  Li  Li8  1  0.216731  0.213487  0.785234  1
  Li  Li9  1  0.789525  0.217868  0.210946  1
  Li  Li10  1  0.290427  0.796921  0.797387  1
  Li  Li11  1  0.790107  0.270236  0.789762  1
  Li  Li12  1  0.791316  0.789423  0.270719  1
  Li  Li13  1  0.916805  0.878596  0.879345  1
  I  I14  1  0.498566  0.493165  0.493275  1
  I  I15  1  0.742173  0.728106  0.728320  1
  N  N16  1  0.125345  0.119041  0.118360  1
  N  N17  1  0.114812  0.109608  0.649166  1
  N  N18  1  0.115426  0.648869  0.109484  1
  N  N19  1  0.651394  0.111700  0.112396  1
