# generated using pymatgen
data_Ce5CuSe8
_symmetry_space_group_name_H-M   'P 1'
_cell_length_a   7.67891862
_cell_length_b   7.67891839
_cell_length_c   7.67891850
_cell_angle_alpha   110.44650340
_cell_angle_beta   107.53778450
_cell_angle_gamma   110.44650393
_symmetry_Int_Tables_number   1
_chemical_formula_structural   Ce5CuSe8
_chemical_formula_sum   'Ce5 Cu1 Se8'
_cell_volume   348.26414881
_cell_formula_units_Z   1
loop_
 _symmetry_equiv_pos_site_id
 _symmetry_equiv_pos_as_xyz
  1  'x, y, z'
loop_
 _atom_site_type_symbol
 _atom_site_label
 _atom_site_symmetry_multiplicity
 _atom_site_fract_x
 _atom_site_fract_y
 _atom_site_fract_z
 _atom_site_occupancy
  Ce  Ce0  1  0.241125  0.626700  0.368870  1
  Ce  Ce1  1  0.375000  0.250000  0.625000  1
  Ce  Ce2  1  0.742170  0.873300  0.114425  1
  Ce  Ce3  1  0.631130  0.372255  0.257830  1
  Ce  Ce4  1  0.885575  0.127745  0.758875  1
  Cu  Cu5  1  0.125000  0.750000  0.875000  1
  Se  Se6  1  0.989490  0.850695  0.478615  1
  Se  Se7  1  0.521385  0.010875  0.372079  1
  Se  Se8  1  0.147642  0.120731  0.139744  1
  Se  Se9  1  0.361205  0.489125  0.010510  1
  Se  Se10  1  0.473089  0.992102  0.852358  1
  Se  Se11  1  0.627921  0.649305  0.638795  1
  Se  Se12  1  0.860256  0.507898  0.980987  1
  Se  Se13  1  0.019013  0.379269  0.526911  1
