# generated using pymatgen
data_CsCuP3H8O13
_symmetry_space_group_name_H-M   'P 1'
_cell_length_a   9.89103899
_cell_length_b   8.68741568
_cell_length_c   7.61880085
_cell_angle_alpha   105.99225633
_cell_angle_beta   90.87452353
_cell_angle_gamma   102.42343561
_symmetry_Int_Tables_number   1
_chemical_formula_structural   CsCuP3H8O13
_chemical_formula_sum   'Cs2 Cu2 P6 H16 O26'
_cell_volume   612.65259680
_cell_formula_units_Z   2
loop_
 _symmetry_equiv_pos_site_id
 _symmetry_equiv_pos_as_xyz
  1  'x, y, z'
loop_
 _atom_site_type_symbol
 _atom_site_label
 _atom_site_symmetry_multiplicity
 _atom_site_fract_x
 _atom_site_fract_y
 _atom_site_fract_z
 _atom_site_occupancy
  Cs  Cs0  1  0.677999  0.586107  0.280133  1
  Cs  Cs1  1  0.322001  0.413893  0.719867  1
  Cu  Cu2  1  0.500000  0.000000  0.500000  1
  Cu  Cu3  1  0.000000  0.500000  0.000000  1
  P  P4  1  0.755931  0.650571  0.804381  1
  P  P5  1  0.244069  0.349429  0.195619  1
  P  P6  1  0.219110  0.998806  0.007923  1
  P  P7  1  0.780890  0.001194  0.992077  1
  P  P8  1  0.052265  0.727722  0.722057  1
  P  P9  1  0.947735  0.272278  0.277943  1
  H  H10  1  0.527507  0.767127  0.653190  1
  H  H11  1  0.472493  0.232873  0.346810  1
  H  H12  1  0.422769  0.878025  0.753749  1
  H  H13  1  0.577231  0.121975  0.246251  1
  H  H14  1  0.258103  0.002759  0.386920  1
  H  H15  1  0.741897  0.997241  0.613080  1
  H  H16  1  0.244979  0.899455  0.528549  1
  H  H17  1  0.755021  0.100545  0.471451  1
  H  H18  1  0.039525  0.692516  0.325441  1
  H  H19  1  0.960475  0.307484  0.674559  1
  H  H20  1  0.060826  0.804386  0.192221  1
  H  H21  1  0.939174  0.195614  0.807779  1
  H  H22  1  0.637706  0.310073  0.815136  1
  H  H23  1  0.362294  0.689927  0.184864  1
  H  H24  1  0.450354  0.822554  0.101764  1
  H  H25  1  0.549646  0.177446  0.898236  1
  O  O26  1  0.770166  0.510653  0.877259  1
  O  O27  1  0.229834  0.489347  0.122741  1
  O  O28  1  0.627247  0.638470  0.689487  1
  O  O29  1  0.372753  0.361530  0.310513  1
  O  O30  1  0.781221  0.811693  0.981580  1
  O  O31  1  0.218779  0.188307  0.018420  1
  O  O32  1  0.886210  0.694089  0.682446  1
  O  O33  1  0.113790  0.305911  0.317554  1
  O  O34  1  0.821560  0.032495  0.813007  1
  O  O35  1  0.178440  0.967505  0.186993  1
  O  O36  1  0.649606  0.042102  0.064791  1
  O  O37  1  0.350394  0.957898  0.935209  1
  O  O38  1  0.911723  0.085757  0.145186  1
  O  O39  1  0.088277  0.914243  0.854814  1
  O  O40  1  0.884571  0.277488  0.456550  1
  O  O41  1  0.115429  0.722512  0.543450  1
  O  O42  1  0.091364  0.618705  0.829664  1
  O  O43  1  0.908636  0.381295  0.170336  1
  O  O44  1  0.541956  0.170630  0.367933  1
  O  O45  1  0.458044  0.829370  0.632067  1
  O  O46  1  0.299486  0.003881  0.509686  1
  O  O47  1  0.700514  0.996119  0.490314  1
  O  O48  1  0.000710  0.700362  0.207115  1
  O  O49  1  0.999290  0.299638  0.792885  1
  O  O50  1  0.452905  0.767983  0.198712  1
  O  O51  1  0.547095  0.232017  0.801288  1
