# generated using pymatgen
data_Sr2La6TiCu3O16
_symmetry_space_group_name_H-M   'P 1'
_cell_length_a   10.86787688
_cell_length_b   5.43987719
_cell_length_c   7.07995232
_cell_angle_alpha   112.42232416
_cell_angle_beta   90.03430005
_cell_angle_gamma   89.99746644
_symmetry_Int_Tables_number   1
_chemical_formula_structural   Sr2La6TiCu3O16
_chemical_formula_sum   'Sr2 La6 Ti1 Cu3 O16'
_cell_volume   386.92145087
_cell_formula_units_Z   1
loop_
 _symmetry_equiv_pos_site_id
 _symmetry_equiv_pos_as_xyz
  1  'x, y, z'
loop_
 _atom_site_type_symbol
 _atom_site_label
 _atom_site_symmetry_multiplicity
 _atom_site_fract_x
 _atom_site_fract_y
 _atom_site_fract_z
 _atom_site_occupancy
  Sr  Sr0  1  0.250810  0.855538  0.711300  1
  Sr  Sr1  1  0.249190  0.144462  0.288700  1
  La  La2  1  0.993250  0.360191  0.718491  1
  La  La3  1  0.506750  0.639809  0.281509  1
  La  La4  1  0.504784  0.361086  0.719736  1
  La  La5  1  0.750633  0.861692  0.722030  1
  La  La6  1  0.749367  0.138308  0.277970  1
  La  La7  1  0.995216  0.638914  0.280264  1
  Ti  Ti8  1  0.250000  0.500000  0.000000  1
  Cu  Cu9  1  0.000838  0.999774  0.000168  1
  Cu  Cu10  1  0.499162  0.000226  -0.000168  1
  Cu  Cu11  1  0.750000  0.500000  0.000000  1
  O  O12  1  0.994267  0.187283  0.373331  1
  O  O13  1  0.123008  0.253207  0.996953  1
  O  O14  1  0.123454  0.744265  0.996906  1
  O  O15  1  0.246804  0.658851  0.317077  1
  O  O16  1  0.253196  0.341149  0.682923  1
  O  O17  1  0.376546  0.255735  0.003094  1
  O  O18  1  0.376992  0.746793  0.003047  1
  O  O19  1  0.505733  0.812717  0.626669  1
  O  O20  1  0.511840  0.187968  0.374453  1
  O  O21  1  0.624673  0.247475  0.997884  1
  O  O22  1  0.625093  0.751335  0.997920  1
  O  O23  1  0.746487  0.684560  0.368005  1
  O  O24  1  0.753513  0.315440  0.631995  1
  O  O25  1  0.874907  0.248665  0.002080  1
  O  O26  1  0.875327  0.752525  0.002116  1
  O  O27  1  0.988160  0.812032  0.625547  1
