# generated using pymatgen
data_KCo2H3(SeO5)2
_symmetry_space_group_name_H-M   'P 1'
_cell_length_a   8.30975473
_cell_length_b   8.30975410
_cell_length_c   7.08282913
_cell_angle_alpha   60.26393544
_cell_angle_beta   60.26393623
_cell_angle_gamma   50.90608988
_symmetry_Int_Tables_number   1
_chemical_formula_structural   KCo2H3(SeO5)2
_chemical_formula_sum   'K1 Co2 H3 Se2 O10'
_cell_volume   317.18432346
_cell_formula_units_Z   1
loop_
 _symmetry_equiv_pos_site_id
 _symmetry_equiv_pos_as_xyz
  1  'x, y, z'
loop_
 _atom_site_type_symbol
 _atom_site_label
 _atom_site_symmetry_multiplicity
 _atom_site_fract_x
 _atom_site_fract_y
 _atom_site_fract_z
 _atom_site_occupancy
  K  K0  1  0.516608  0.516608  0.387018  1
  Co  Co1  1  0.043177  0.498543  0.045748  1
  Co  Co2  1  0.498543  0.043177  0.045748  1
  H  H3  1  0.972541  0.972541  0.552534  1
  H  H4  1  0.493593  0.493593  0.927370  1
  H  H5  1  0.018135  0.018135  0.430725  1
  Se  Se6  1  0.882101  0.882101  0.116210  1
  Se  Se7  1  0.176447  0.176447  0.870344  1
  O  O8  1  0.274932  0.274932  0.209286  1
  O  O9  1  0.629361  0.629361  0.660585  1
  O  O10  1  0.309885  0.309885  0.795374  1
  O  O11  1  0.329773  0.946651  0.049853  1
  O  O12  1  0.112485  0.727144  0.942567  1
  O  O13  1  0.946651  0.329773  0.049853  1
  O  O14  1  0.727144  0.112485  0.942567  1
  O  O15  1  0.747748  0.747748  0.186785  1
  O  O16  1  0.309009  0.309009  0.348313  1
  O  O17  1  0.567866  0.567866  0.887121  1
