# generated using pymatgen
data_Al14Co5Si2
_symmetry_space_group_name_H-M   'P 1'
_cell_length_a   7.34671385
_cell_length_b   13.97897205
_cell_length_c   23.16811885
_cell_angle_alpha   90.00000000
_cell_angle_beta   90.00000000
_cell_angle_gamma   90.00000000
_symmetry_Int_Tables_number   1
_chemical_formula_structural   Al14Co5Si2
_chemical_formula_sum   'Al112 Co40 Si16'
_cell_volume   2379.35439718
_cell_formula_units_Z   8
loop_
 _symmetry_equiv_pos_site_id
 _symmetry_equiv_pos_as_xyz
  1  'x, y, z'
loop_
 _atom_site_type_symbol
 _atom_site_label
 _atom_site_symmetry_multiplicity
 _atom_site_fract_x
 _atom_site_fract_y
 _atom_site_fract_z
 _atom_site_occupancy
  Al  Al0  1  0.490142  0.347420  0.839877  1
  Al  Al1  1  0.031746  0.039176  0.659136  1
  Al  Al2  1  0.275034  0.933713  0.581852  1
  Al  Al3  1  0.291125  0.391812  0.083261  1
  Al  Al4  1  0.968254  0.960824  0.159136  1
  Al  Al5  1  0.904363  0.763838  0.079032  1
  Al  Al6  1  0.990142  0.152580  0.160123  1
  Al  Al7  1  0.775034  0.566287  0.081852  1
  Al  Al8  1  0.188467  0.558631  0.152024  1
  Al  Al9  1  0.224966  0.433713  0.581852  1
  Al  Al10  1  0.688467  0.941369  0.847976  1
  Al  Al11  1  0.509858  0.652580  0.339877  1
  Al  Al12  1  0.775034  0.566287  0.418148  1
  Al  Al13  1  0.990142  0.152580  0.339877  1
  Al  Al14  1  0.811533  0.441369  0.652024  1
  Al  Al15  1  0.231591  0.693574  0.250000  1
  Al  Al16  1  0.910280  0.202787  0.474999  1
  Al  Al17  1  0.253408  0.710430  0.071240  1
  Al  Al18  1  0.589720  0.702787  0.474999  1
  Al  Al19  1  0.625894  0.965044  0.530478  1
  Al  Al20  1  0.746591  0.289570  0.928760  1
  Al  Al21  1  0.102511  0.618263  0.919488  1
  Al  Al22  1  0.208875  0.891812  0.416739  1
  Al  Al23  1  0.968254  0.960824  0.340864  1
  Al  Al24  1  0.260206  0.677745  0.688266  1
  Al  Al25  1  0.739794  0.322255  0.188266  1
  Al  Al26  1  0.188467  0.558631  0.347976  1
  Al  Al27  1  0.739794  0.322255  0.311734  1
  Al  Al28  1  0.125894  0.534956  0.469522  1
  Al  Al29  1  0.268409  0.193574  0.250000  1
  Al  Al30  1  0.260206  0.677745  0.811734  1
  Al  Al31  1  0.253408  0.710430  0.428760  1
  Al  Al32  1  0.102511  0.618263  0.580512  1
  Al  Al33  1  0.746591  0.289570  0.571240  1
  Al  Al34  1  0.708875  0.608188  0.916739  1
  Al  Al35  1  0.625894  0.965044  0.969522  1
  Al  Al36  1  0.607748  0.152827  0.187273  1
  Al  Al37  1  0.291125  0.391812  0.416739  1
  Al  Al38  1  0.811533  0.441369  0.847976  1
  Al  Al39  1  0.509858  0.652580  0.160123  1
  Al  Al40  1  0.089720  0.797213  0.974999  1
  Al  Al41  1  0.724966  0.066287  0.081852  1
  Al  Al42  1  0.208875  0.891812  0.083261  1
  Al  Al43  1  0.688467  0.941369  0.652024  1
  Al  Al44  1  0.602511  0.881737  0.419488  1
  Al  Al45  1  0.224966  0.433713  0.918148  1
  Al  Al46  1  0.531746  0.460824  0.340864  1
  Al  Al47  1  0.246591  0.210430  0.071240  1
  Al  Al48  1  0.107748  0.347173  0.687273  1
  Al  Al49  1  0.791125  0.108188  0.583261  1
  Al  Al50  1  0.093955  0.337789  0.185843  1
  Al  Al51  1  0.919719  0.507062  0.750000  1
  Al  Al52  1  0.246591  0.210430  0.428760  1
  Al  Al53  1  0.374106  0.034956  0.469522  1
  Al  Al54  1  0.080281  0.492938  0.250000  1
  Al  Al55  1  0.275034  0.933713  0.918148  1
  Al  Al56  1  0.593955  0.162211  0.814157  1
  Al  Al57  1  0.904363  0.763838  0.420968  1
  Al  Al58  1  0.892252  0.652827  0.187273  1
  Al  Al59  1  0.125894  0.534956  0.030478  1
  Al  Al60  1  0.468254  0.539176  0.659136  1
  Al  Al61  1  0.410280  0.297213  0.974999  1
  Al  Al62  1  0.311533  0.058631  0.347976  1
  Al  Al63  1  0.874106  0.465044  0.969522  1
  Al  Al64  1  0.531746  0.460824  0.159136  1
  Al  Al65  1  0.107748  0.347173  0.812727  1
  Al  Al66  1  0.419719  0.992938  0.250000  1
  Al  Al67  1  0.093955  0.337789  0.314157  1
  Al  Al68  1  0.760206  0.822255  0.188266  1
  Al  Al69  1  0.404363  0.736162  0.579032  1
  Al  Al70  1  0.580281  0.007062  0.750000  1
  Al  Al71  1  0.708875  0.608188  0.583261  1
  Al  Al72  1  0.589720  0.702787  0.025001  1
  Al  Al73  1  0.595637  0.263838  0.079032  1
  Al  Al74  1  0.753409  0.789570  0.571240  1
  Al  Al75  1  0.095637  0.236162  0.920968  1
  Al  Al76  1  0.397489  0.118263  0.919488  1
  Al  Al77  1  0.392252  0.847173  0.812727  1
  Al  Al78  1  0.602511  0.881737  0.080512  1
  Al  Al79  1  0.239794  0.177745  0.811734  1
  Al  Al80  1  0.239794  0.177745  0.688266  1
  Al  Al81  1  0.595637  0.263838  0.420968  1
  Al  Al82  1  0.607748  0.152827  0.312727  1
  Al  Al83  1  0.009858  0.847420  0.839877  1
  Al  Al84  1  0.406045  0.837789  0.185843  1
  Al  Al85  1  0.897489  0.381737  0.080512  1
  Al  Al86  1  0.397489  0.118263  0.580512  1
  Al  Al87  1  0.095637  0.236162  0.579032  1
  Al  Al88  1  0.768409  0.306426  0.750000  1
  Al  Al89  1  0.760206  0.822255  0.311734  1
  Al  Al90  1  0.089720  0.797213  0.525001  1
  Al  Al91  1  0.791125  0.108188  0.916739  1
  Al  Al92  1  0.753409  0.789570  0.928760  1
  Al  Al93  1  0.404363  0.736162  0.920968  1
  Al  Al94  1  0.724966  0.066287  0.418148  1
  Al  Al95  1  0.009858  0.847420  0.660123  1
  Al  Al96  1  0.392252  0.847173  0.687273  1
  Al  Al97  1  0.897489  0.381737  0.419488  1
  Al  Al98  1  0.406045  0.837789  0.314157  1
  Al  Al99  1  0.910280  0.202787  0.025001  1
  Al  Al100  1  0.031746  0.039176  0.840864  1
  Al  Al101  1  0.311533  0.058631  0.152024  1
  Al  Al102  1  0.490142  0.347420  0.660123  1
  Al  Al103  1  0.874106  0.465044  0.530478  1
  Al  Al104  1  0.410280  0.297213  0.525001  1
  Al  Al105  1  0.468254  0.539176  0.840864  1
  Al  Al106  1  0.731591  0.806426  0.750000  1
  Al  Al107  1  0.892252  0.652827  0.312727  1
  Al  Al108  1  0.906045  0.662211  0.685843  1
  Al  Al109  1  0.374106  0.034956  0.030478  1
  Al  Al110  1  0.906045  0.662211  0.814157  1
  Al  Al111  1  0.593955  0.162211  0.685843  1
  Co  Co112  1  0.919688  0.939820  0.924080  1
  Co  Co113  1  0.903171  0.654356  0.502270  1
  Co  Co114  1  0.902406  0.212301  0.662682  1
  Co  Co115  1  0.596829  0.154356  0.502270  1
  Co  Co116  1  0.403171  0.845644  0.497730  1
  Co  Co117  1  0.384450  0.020249  0.833033  1
  Co  Co118  1  0.402406  0.287699  0.162682  1
  Co  Co119  1  0.580312  0.439820  0.575920  1
  Co  Co120  1  0.403171  0.845644  0.002270  1
  Co  Co121  1  0.580312  0.439820  0.924080  1
  Co  Co122  1  0.905691  0.954597  0.750000  1
  Co  Co123  1  0.384450  0.020249  0.666967  1
  Co  Co124  1  0.617113  0.705030  0.250000  1
  Co  Co125  1  0.903171  0.654356  0.997730  1
  Co  Co126  1  0.596829  0.154356  0.997730  1
  Co  Co127  1  0.902406  0.212301  0.837318  1
  Co  Co128  1  0.096829  0.345644  0.497730  1
  Co  Co129  1  0.882887  0.205030  0.250000  1
  Co  Co130  1  0.080312  0.060180  0.424080  1
  Co  Co131  1  0.382887  0.294970  0.750000  1
  Co  Co132  1  0.419688  0.560180  0.075920  1
  Co  Co133  1  0.080312  0.060180  0.075920  1
  Co  Co134  1  0.594309  0.454597  0.750000  1
  Co  Co135  1  0.615550  0.979751  0.333033  1
  Co  Co136  1  0.597594  0.712301  0.662682  1
  Co  Co137  1  0.094309  0.045403  0.250000  1
  Co  Co138  1  0.402406  0.287699  0.337318  1
  Co  Co139  1  0.919688  0.939820  0.575920  1
  Co  Co140  1  0.115550  0.520249  0.666967  1
  Co  Co141  1  0.884450  0.479751  0.166967  1
  Co  Co142  1  0.096829  0.345644  0.002270  1
  Co  Co143  1  0.115550  0.520249  0.833033  1
  Co  Co144  1  0.884450  0.479751  0.333033  1
  Co  Co145  1  0.597594  0.712301  0.837318  1
  Co  Co146  1  0.615550  0.979751  0.166967  1
  Co  Co147  1  0.419688  0.560180  0.424080  1
  Co  Co148  1  0.097594  0.787699  0.162682  1
  Co  Co149  1  0.405691  0.545403  0.250000  1
  Co  Co150  1  0.097594  0.787699  0.337318  1
  Co  Co151  1  0.117113  0.794970  0.750000  1
  Si  Si152  1  0.415062  0.562916  0.972129  1
  Si  Si153  1  0.415062  0.562916  0.527871  1
  Si  Si154  1  0.382387  0.376068  0.250000  1
  Si  Si155  1  0.784544  0.028032  0.250000  1
  Si  Si156  1  0.117613  0.876068  0.250000  1
  Si  Si157  1  0.284544  0.471968  0.750000  1
  Si  Si158  1  0.715456  0.528032  0.250000  1
  Si  Si159  1  0.084938  0.062916  0.972129  1
  Si  Si160  1  0.584938  0.437084  0.472129  1
  Si  Si161  1  0.617613  0.623932  0.750000  1
  Si  Si162  1  0.915062  0.937084  0.027871  1
  Si  Si163  1  0.584938  0.437084  0.027871  1
  Si  Si164  1  0.882387  0.123932  0.750000  1
  Si  Si165  1  0.215456  0.971968  0.750000  1
  Si  Si166  1  0.915062  0.937084  0.472129  1
  Si  Si167  1  0.084938  0.062916  0.527871  1
