# generated using pymatgen
data_Fe2N
_symmetry_space_group_name_H-M   'P 1'
_cell_length_a   4.73931102
_cell_length_b   9.48035951
_cell_length_c   4.33186557
_cell_angle_alpha   89.94272053
_cell_angle_beta   90.02114441
_cell_angle_gamma   119.97823313
_symmetry_Int_Tables_number   1
_chemical_formula_structural   Fe2N
_chemical_formula_sum   'Fe12 N6'
_cell_volume   168.59341705
_cell_formula_units_Z   6
loop_
 _symmetry_equiv_pos_site_id
 _symmetry_equiv_pos_as_xyz
  1  'x, y, z'
loop_
 _atom_site_type_symbol
 _atom_site_label
 _atom_site_symmetry_multiplicity
 _atom_site_fract_x
 _atom_site_fract_y
 _atom_site_fract_z
 _atom_site_occupancy
  Fe  Fe0  1  0.999525  0.832160  0.496755  1
  Fe  Fe1  1  0.999962  0.665814  0.998654  1
  Fe  Fe2  1  0.001453  0.331904  0.500098  1
  Fe  Fe3  1  0.331045  0.666021  0.501868  1
  Fe  Fe4  1  0.665870  0.001058  0.496268  1
  Fe  Fe5  1  0.331853  0.497835  0.995452  1
  Fe  Fe6  1  0.667667  0.833263  0.997365  1
  Fe  Fe7  1  0.334068  0.165941  0.496660  1
  Fe  Fe8  1  0.664242  0.498621  0.499810  1
  Fe  Fe9  1  0.332935  0.999285  0.000842  1
  Fe  Fe10  1  0.659826  0.331432  0.997338  1
  Fe  Fe11  1  0.993707  0.166339  0.000073  1
  N  N12  1  0.998586  0.998419  0.248653  1
  N  N13  1  0.326269  0.824470  0.248501  1
  N  N14  1  0.673860  0.673834  0.748605  1
  N  N15  1  0.339392  0.339799  0.248920  1
  N  N16  1  0.655117  0.158726  0.748518  1
  N  N17  1  0.998279  0.499227  0.749390  1
