# generated using pymatgen
data_GaH12C4NCl3
_symmetry_space_group_name_H-M   'P 1'
_cell_length_a   13.04707148
_cell_length_b   13.04707148
_cell_length_c   13.04707148
_cell_angle_alpha   90.00000000
_cell_angle_beta   90.00000000
_cell_angle_gamma   90.00000000
_symmetry_Int_Tables_number   1
_chemical_formula_structural   GaH12C4NCl3
_chemical_formula_sum   'Ga8 H96 C32 N8 Cl24'
_cell_volume   2220.95175790
_cell_formula_units_Z   8
loop_
 _symmetry_equiv_pos_site_id
 _symmetry_equiv_pos_as_xyz
  1  'x, y, z'
loop_
 _atom_site_type_symbol
 _atom_site_label
 _atom_site_symmetry_multiplicity
 _atom_site_fract_x
 _atom_site_fract_y
 _atom_site_fract_z
 _atom_site_occupancy
  Ga  Ga0  1  0.053994  0.053994  0.053994  1
  Ga  Ga1  1  0.053994  0.446006  0.553994  1
  Ga  Ga2  1  0.446006  0.946006  0.553994  1
  Ga  Ga3  1  0.946006  0.946006  0.946006  1
  Ga  Ga4  1  0.553994  0.053994  0.446006  1
  Ga  Ga5  1  0.553994  0.446006  0.946006  1
  Ga  Ga6  1  0.946006  0.553994  0.446006  1
  Ga  Ga7  1  0.446006  0.553994  0.053994  1
  H  H8  1  0.924646  0.236042  0.283179  1
  H  H9  1  0.636014  0.731019  0.577671  1
  H  H10  1  0.363986  0.268981  0.422329  1
  H  H11  1  0.075354  0.736042  0.216821  1
  H  H12  1  0.758296  0.864069  0.779884  1
  H  H13  1  0.075354  0.763958  0.716821  1
  H  H14  1  0.635931  0.220116  0.258296  1
  H  H15  1  0.863986  0.268981  0.077671  1
  H  H16  1  0.135931  0.279884  0.741704  1
  H  H17  1  0.140927  0.661855  0.650530  1
  H  H18  1  0.231019  0.922329  0.363986  1
  H  H19  1  0.763958  0.716821  0.075354  1
  H  H20  1  0.349470  0.640927  0.838145  1
  H  H21  1  0.859073  0.338145  0.349470  1
  H  H22  1  0.077671  0.636014  0.768981  1
  H  H23  1  0.279884  0.741704  0.135931  1
  H  H24  1  0.258296  0.635931  0.220116  1
  H  H25  1  0.849470  0.859073  0.161855  1
  H  H26  1  0.864069  0.720116  0.258296  1
  H  H27  1  0.661855  0.849470  0.640927  1
  H  H28  1  0.241704  0.364069  0.720116  1
  H  H29  1  0.283179  0.924646  0.236042  1
  H  H30  1  0.575354  0.736042  0.283179  1
  H  H31  1  0.741704  0.135931  0.279884  1
  H  H32  1  0.720116  0.258296  0.864069  1
  H  H33  1  0.863986  0.231019  0.577671  1
  H  H34  1  0.716821  0.424646  0.263958  1
  H  H35  1  0.231019  0.577671  0.863986  1
  H  H36  1  0.650530  0.359073  0.161855  1
  H  H37  1  0.731019  0.922329  0.136014  1
  H  H38  1  0.422329  0.136014  0.768981  1
  H  H39  1  0.575354  0.763958  0.783179  1
  H  H40  1  0.922329  0.136014  0.731019  1
  H  H41  1  0.779884  0.741704  0.364069  1
  H  H42  1  0.577671  0.636014  0.731019  1
  H  H43  1  0.424646  0.263958  0.716821  1
  H  H44  1  0.263958  0.783179  0.924646  1
  H  H45  1  0.783179  0.575354  0.763958  1
  H  H46  1  0.422329  0.363986  0.268981  1
  H  H47  1  0.349470  0.859073  0.338145  1
  H  H48  1  0.838145  0.349470  0.640927  1
  H  H49  1  0.731019  0.577671  0.636014  1
  H  H50  1  0.241704  0.135931  0.220116  1
  H  H51  1  0.135931  0.220116  0.241704  1
  H  H52  1  0.577671  0.863986  0.231019  1
  H  H53  1  0.364069  0.779884  0.741704  1
  H  H54  1  0.364069  0.720116  0.241704  1
  H  H55  1  0.924646  0.263958  0.783179  1
  H  H56  1  0.716821  0.075354  0.763958  1
  H  H57  1  0.661855  0.650530  0.140927  1
  H  H58  1  0.783179  0.924646  0.263958  1
  H  H59  1  0.338145  0.150530  0.359073  1
  H  H60  1  0.779884  0.758296  0.864069  1
  H  H61  1  0.220116  0.241704  0.135931  1
  H  H62  1  0.216821  0.075354  0.736042  1
  H  H63  1  0.161855  0.849470  0.859073  1
  H  H64  1  0.650530  0.140927  0.661855  1
  H  H65  1  0.758296  0.635931  0.279884  1
  H  H66  1  0.736042  0.216821  0.075354  1
  H  H67  1  0.220116  0.258296  0.635931  1
  H  H68  1  0.216821  0.424646  0.236042  1
  H  H69  1  0.768981  0.077671  0.636014  1
  H  H70  1  0.359073  0.161855  0.650530  1
  H  H71  1  0.736042  0.283179  0.575354  1
  H  H72  1  0.838145  0.150530  0.140927  1
  H  H73  1  0.636014  0.768981  0.077671  1
  H  H74  1  0.140927  0.838145  0.150530  1
  H  H75  1  0.768981  0.422329  0.136014  1
  H  H76  1  0.161855  0.650530  0.359073  1
  H  H77  1  0.268981  0.077671  0.863986  1
  H  H78  1  0.236042  0.283179  0.924646  1
  H  H79  1  0.150530  0.359073  0.338145  1
  H  H80  1  0.424646  0.236042  0.216821  1
  H  H81  1  0.338145  0.349470  0.859073  1
  H  H82  1  0.763958  0.783179  0.575354  1
  H  H83  1  0.849470  0.640927  0.661855  1
  H  H84  1  0.236042  0.216821  0.424646  1
  H  H85  1  0.363986  0.231019  0.922329  1
  H  H86  1  0.258296  0.864069  0.720116  1
  H  H87  1  0.741704  0.364069  0.779884  1
  H  H88  1  0.864069  0.779884  0.758296  1
  H  H89  1  0.136014  0.731019  0.922329  1
  H  H90  1  0.640927  0.838145  0.349470  1
  H  H91  1  0.136014  0.768981  0.422329  1
  H  H92  1  0.077671  0.863986  0.268981  1
  H  H93  1  0.283179  0.575354  0.736042  1
  H  H94  1  0.635931  0.279884  0.758296  1
  H  H95  1  0.279884  0.758296  0.635931  1
  H  H96  1  0.640927  0.661855  0.849470  1
  H  H97  1  0.922329  0.363986  0.231019  1
  H  H98  1  0.268981  0.422329  0.363986  1
  H  H99  1  0.859073  0.161855  0.849470  1
  H  H100  1  0.150530  0.140927  0.838145  1
  H  H101  1  0.263958  0.716821  0.424646  1
  H  H102  1  0.720116  0.241704  0.364069  1
  H  H103  1  0.359073  0.338145  0.150530  1
  C  C104  1  0.715422  0.284578  0.784578  1
  C  C105  1  0.193700  0.774687  0.879310  1
  C  C106  1  0.774687  0.620690  0.693700  1
  C  C107  1  0.225313  0.120690  0.806300  1
  C  C108  1  0.306300  0.225313  0.379310  1
  C  C109  1  0.879310  0.306300  0.274687  1
  C  C110  1  0.225313  0.379310  0.306300  1
  C  C111  1  0.715422  0.215422  0.284578  1
  C  C112  1  0.693700  0.774687  0.620690  1
  C  C113  1  0.693700  0.725313  0.120690  1
  C  C114  1  0.215422  0.284578  0.715422  1
  C  C115  1  0.274687  0.620690  0.806300  1
  C  C116  1  0.784578  0.715422  0.284578  1
  C  C117  1  0.379310  0.193700  0.725313  1
  C  C118  1  0.725313  0.379310  0.193700  1
  C  C119  1  0.120690  0.806300  0.225313  1
  C  C120  1  0.620690  0.693700  0.774687  1
  C  C121  1  0.193700  0.725313  0.379310  1
  C  C122  1  0.306300  0.274687  0.879310  1
  C  C123  1  0.284578  0.715422  0.215422  1
  C  C124  1  0.784578  0.784578  0.784578  1
  C  C125  1  0.284578  0.784578  0.715422  1
  C  C126  1  0.379310  0.306300  0.225313  1
  C  C127  1  0.774687  0.879310  0.193700  1
  C  C128  1  0.274687  0.879310  0.306300  1
  C  C129  1  0.879310  0.193700  0.774687  1
  C  C130  1  0.806300  0.274687  0.620690  1
  C  C131  1  0.806300  0.225313  0.120690  1
  C  C132  1  0.725313  0.120690  0.693700  1
  C  C133  1  0.120690  0.693700  0.725313  1
  C  C134  1  0.215422  0.215422  0.215422  1
  C  C135  1  0.620690  0.806300  0.274687  1
  N  N136  1  0.218088  0.718088  0.781912  1
  N  N137  1  0.281912  0.281912  0.281912  1
  N  N138  1  0.718088  0.781912  0.218088  1
  N  N139  1  0.281912  0.218088  0.781912  1
  N  N140  1  0.718088  0.718088  0.718088  1
  N  N141  1  0.781912  0.281912  0.218088  1
  N  N142  1  0.781912  0.218088  0.718088  1
  N  N143  1  0.218088  0.781912  0.281912  1
  Cl  Cl144  1  0.777629  0.992495  0.947022  1
  Cl  Cl145  1  0.507505  0.052978  0.277629  1
  Cl  Cl146  1  0.992495  0.947022  0.777629  1
  Cl  Cl147  1  0.492495  0.947022  0.722371  1
  Cl  Cl148  1  0.222371  0.492495  0.552978  1
  Cl  Cl149  1  0.777629  0.507505  0.447022  1
  Cl  Cl150  1  0.507505  0.447022  0.777629  1
  Cl  Cl151  1  0.552978  0.277629  0.992495  1
  Cl  Cl152  1  0.947022  0.722371  0.492495  1
  Cl  Cl153  1  0.447022  0.722371  0.007505  1
  Cl  Cl154  1  0.007505  0.447022  0.722371  1
  Cl  Cl155  1  0.992495  0.552978  0.277629  1
  Cl  Cl156  1  0.277629  0.507505  0.052978  1
  Cl  Cl157  1  0.722371  0.007505  0.447022  1
  Cl  Cl158  1  0.492495  0.552978  0.222371  1
  Cl  Cl159  1  0.947022  0.777629  0.992495  1
  Cl  Cl160  1  0.552978  0.222371  0.492495  1
  Cl  Cl161  1  0.007505  0.052978  0.222371  1
  Cl  Cl162  1  0.222371  0.007505  0.052978  1
  Cl  Cl163  1  0.722371  0.492495  0.947022  1
  Cl  Cl164  1  0.052978  0.222371  0.007505  1
  Cl  Cl165  1  0.052978  0.277629  0.507505  1
  Cl  Cl166  1  0.277629  0.992495  0.552978  1
  Cl  Cl167  1  0.447022  0.777629  0.507505  1
