# generated using pymatgen
data_Pb2O3
_symmetry_space_group_name_H-M   'P 1'
_cell_length_a   8.43399881
_cell_length_b   5.71856141
_cell_length_c   6.96867857
_cell_angle_alpha   93.17514713
_cell_angle_beta   90.07328164
_cell_angle_gamma   90.09670843
_symmetry_Int_Tables_number   1
_chemical_formula_structural   Pb2O3
_chemical_formula_sum   'Pb8 O12'
_cell_volume   335.58498753
_cell_formula_units_Z   4
loop_
 _symmetry_equiv_pos_site_id
 _symmetry_equiv_pos_as_xyz
  1  'x, y, z'
loop_
 _atom_site_type_symbol
 _atom_site_label
 _atom_site_symmetry_multiplicity
 _atom_site_fract_x
 _atom_site_fract_y
 _atom_site_fract_z
 _atom_site_occupancy
  Pb  Pb0  1  0.749660  0.997428  0.000957  1
  Pb  Pb1  1  0.250636  0.997293  0.000864  1
  Pb  Pb2  1  0.749701  0.003000  0.499799  1
  Pb  Pb3  1  0.250297  0.002991  0.501182  1
  Pb  Pb4  1  0.499696  0.498257  0.246741  1
  Pb  Pb5  1  0.499433  0.495323  0.750114  1
  Pb  Pb6  1  0.998838  0.499644  0.751023  1
  Pb  Pb7  1  0.000351  0.504706  0.243486  1
  O  O8  1  0.500742  0.888291  0.002047  1
  O  O9  1  -0.000506  0.094899  0.994634  1
  O  O10  1  0.500451  0.121439  0.498707  1
  O  O11  1  -0.000196  0.894176  0.500286  1
  O  O12  1  0.748741  0.741902  0.241425  1
  O  O13  1  0.746489  0.741139  0.734249  1
  O  O14  1  0.252866  0.260133  0.766677  1
  O  O15  1  0.244039  0.259405  0.263415  1
  O  O16  1  0.755520  0.258980  0.262201  1
  O  O17  1  0.747212  0.259031  0.765975  1
  O  O18  1  0.254495  0.740678  0.733880  1
  O  O19  1  0.251537  0.741284  0.242337  1
