# generated using pymatgen
data_Ta10O9
_symmetry_space_group_name_H-M   'P 1'
_cell_length_a   2.74947762
_cell_length_b   5.92463666
_cell_length_c   17.97659681
_cell_angle_alpha   67.25249113
_cell_angle_beta   67.57871994
_cell_angle_gamma   61.99948181
_symmetry_Int_Tables_number   1
_chemical_formula_structural   Ta10O9
_chemical_formula_sum   'Ta10 O9'
_cell_volume   231.14811886
_cell_formula_units_Z   1
loop_
 _symmetry_equiv_pos_site_id
 _symmetry_equiv_pos_as_xyz
  1  'x, y, z'
loop_
 _atom_site_type_symbol
 _atom_site_label
 _atom_site_symmetry_multiplicity
 _atom_site_fract_x
 _atom_site_fract_y
 _atom_site_fract_z
 _atom_site_occupancy
  Ta  Ta0  1  0.007500  0.983944  0.003997  1
  Ta  Ta1  1  0.001825  0.485825  0.004160  1
  Ta  Ta2  1  0.961781  0.000904  0.213851  1
  Ta  Ta3  1  0.956190  0.474938  0.228370  1
  Ta  Ta4  1  0.048072  0.015867  0.375967  1
  Ta  Ta5  1  0.011234  0.501330  0.597507  1
  Ta  Ta6  1  -0.000933  0.006524  0.800481  1
  Ta  Ta7  1  0.006375  0.486895  0.401264  1
  Ta  Ta8  1  0.003002  0.998268  0.596416  1
  Ta  Ta9  1  0.986803  0.503381  0.799612  1
  O  O10  1  0.777611  0.377954  0.136824  1
  O  O11  1  0.509556  0.252208  0.497232  1
  O  O12  1  0.492726  0.747835  0.303806  1
  O  O13  1  0.788661  0.878542  0.132503  1
  O  O14  1  0.488855  0.254343  0.701039  1
  O  O15  1  0.460593  0.765299  0.508254  1
  O  O16  1  0.506333  0.251085  0.898393  1
  O  O17  1  0.523698  0.742630  0.695084  1
  O  O18  1  0.501946  0.751032  0.897922  1
