# generated using pymatgen
data_Ba(HO)2
_symmetry_space_group_name_H-M   'P 1'
_cell_length_a   9.23303253
_cell_length_b   8.15665480
_cell_length_c   7.05536583
_cell_angle_alpha   87.47700869
_cell_angle_beta   96.69527747
_cell_angle_gamma   89.30223659
_symmetry_Int_Tables_number   1
_chemical_formula_structural   Ba(HO)2
_chemical_formula_sum   'Ba8 H16 O16'
_cell_volume   527.12883220
_cell_formula_units_Z   8
loop_
 _symmetry_equiv_pos_site_id
 _symmetry_equiv_pos_as_xyz
  1  'x, y, z'
loop_
 _atom_site_type_symbol
 _atom_site_label
 _atom_site_symmetry_multiplicity
 _atom_site_fract_x
 _atom_site_fract_y
 _atom_site_fract_z
 _atom_site_occupancy
  Ba  Ba0  1  0.918087  0.143009  0.242307  1
  Ba  Ba1  1  0.409342  0.363497  0.731399  1
  Ba  Ba2  1  0.090340  0.875216  0.768976  1
  Ba  Ba3  1  0.612024  0.635437  0.246186  1
  Ba  Ba4  1  0.339967  0.026506  0.296995  1
  Ba  Ba5  1  0.841317  0.446760  0.788243  1
  Ba  Ba6  1  0.677501  0.962644  0.731061  1
  Ba  Ba7  1  0.178123  0.544325  0.199868  1
  H  H8  1  0.631079  0.033341  0.192168  1
  H  H9  1  0.127540  0.486622  0.680461  1
  H  H10  1  0.379408  0.973612  0.809826  1
  H  H11  1  0.880437  0.602580  0.117905  1
  H  H12  1  0.174299  0.792053  0.425107  1
  H  H13  1  0.608108  0.648155  0.722824  1
  H  H14  1  0.814560  0.203772  0.569398  1
  H  H15  1  0.332181  0.301678  0.083855  1
  H  H16  1  0.952861  0.822880  0.141719  1
  H  H17  1  0.400763  0.704975  0.595075  1
  H  H18  1  0.092420  0.203177  0.886608  1
  H  H19  1  0.583217  0.301811  0.397008  1
  H  H20  1  0.393205  0.742836  0.937011  1
  H  H21  1  0.872433  0.747372  0.472806  1
  H  H22  1  0.612953  0.258944  0.056372  1
  H  H23  1  0.118707  0.243961  0.547696  1
  O  O24  1  0.632232  0.969664  0.313405  1
  O  O25  1  0.132618  0.527356  0.809361  1
  O  O26  1  0.387692  0.028046  0.685248  1
  O  O27  1  0.882561  0.484816  0.166075  1
  O  O28  1  0.088106  0.859377  0.373096  1
  O  O29  1  0.573943  0.633044  0.848525  1
  O  O30  1  0.906779  0.148503  0.630437  1
  O  O31  1  0.420537  0.356035  0.140698  1
  O  O32  1  0.891416  0.815201  0.018613  1
  O  O33  1  0.367827  0.674036  0.465333  1
  O  O34  1  0.136095  0.153470  0.008529  1
  O  O35  1  0.638464  0.337077  0.514660  1
  O  O36  1  0.336448  0.801496  0.022538  1
  O  O37  1  0.815533  0.716788  0.576739  1
  O  O38  1  0.677242  0.204188  0.976486  1
  O  O39  1  0.177011  0.293796  0.454176  1
