# generated using pymatgen
data_Al2Ge(HO3)2
_symmetry_space_group_name_H-M   'P 1'
_cell_length_a   5.01613135
_cell_length_b   5.01613135
_cell_length_c   9.45787534
_cell_angle_alpha   78.87775272
_cell_angle_beta   101.12224728
_cell_angle_gamma   65.26992755
_symmetry_Int_Tables_number   1
_chemical_formula_structural   Al2Ge(HO3)2
_chemical_formula_sum   'Al4 Ge2 H4 O12'
_cell_volume   201.84867955
_cell_formula_units_Z   2
loop_
 _symmetry_equiv_pos_site_id
 _symmetry_equiv_pos_as_xyz
  1  'x, y, z'
loop_
 _atom_site_type_symbol
 _atom_site_label
 _atom_site_symmetry_multiplicity
 _atom_site_fract_x
 _atom_site_fract_y
 _atom_site_fract_z
 _atom_site_occupancy
  Al  Al0  1  0.472136  0.294054  0.914445  1
  Al  Al1  1  0.294054  0.472136  0.585555  1
  Al  Al2  1  0.527864  0.705946  0.085555  1
  Al  Al3  1  0.705946  0.527864  0.414445  1
  Ge  Ge4  1  0.026018  0.026018  0.750000  1
  Ge  Ge5  1  0.973982  0.973982  0.250000  1
  H  H6  1  0.897017  0.429719  0.932387  1
  H  H7  1  0.429719  0.897017  0.567613  1
  H  H8  1  0.102983  0.570281  0.067613  1
  H  H9  1  0.570281  0.102983  0.432387  1
  O  O10  1  0.068286  0.244768  0.588992  1
  O  O11  1  0.244768  0.068286  0.911008  1
  O  O12  1  0.931714  0.755232  0.411008  1
  O  O13  1  0.755232  0.931714  0.088992  1
  O  O14  1  0.163351  0.641730  0.739479  1
  O  O15  1  0.641730  0.163351  0.760521  1
  O  O16  1  0.836649  0.358270  0.260521  1
  O  O17  1  0.358270  0.836649  0.239479  1
  O  O18  1  0.704655  0.493462  0.956431  1
  O  O19  1  0.493462  0.704655  0.543569  1
  O  O20  1  0.295345  0.506538  0.043569  1
  O  O21  1  0.506538  0.295345  0.456431  1
