# generated using pymatgen
data_Tl3(V3S4)8
_symmetry_space_group_name_H-M   'P 1'
_cell_length_a   16.17566064
_cell_length_b   14.02531720
_cell_length_c   9.21073810
_cell_angle_alpha   41.78800497
_cell_angle_beta   114.34306930
_cell_angle_gamma   87.30498892
_symmetry_Int_Tables_number   1
_chemical_formula_structural   Tl3(V3S4)8
_chemical_formula_sum   'Tl3 V24 S32'
_cell_volume   1030.15993053
_cell_formula_units_Z   1
loop_
 _symmetry_equiv_pos_site_id
 _symmetry_equiv_pos_as_xyz
  1  'x, y, z'
loop_
 _atom_site_type_symbol
 _atom_site_label
 _atom_site_symmetry_multiplicity
 _atom_site_fract_x
 _atom_site_fract_y
 _atom_site_fract_z
 _atom_site_occupancy
  Tl  Tl0  1  0.071204  0.878089  0.238956  1
  Tl  Tl1  1  0.437040  0.128407  0.768049  1
  Tl  Tl2  1  0.687981  0.609148  0.768814  1
  V  V3  1  0.004158  0.940553  0.728058  1
  V  V4  1  0.967224  0.671256  0.193258  1
  V  V5  1  0.025092  0.352586  0.270246  1
  V  V6  1  0.246531  0.073196  0.797107  1
  V  V7  1  0.287728  0.771151  0.752809  1
  V  V8  1  0.257710  0.603213  0.257194  1
  V  V9  1  0.253515  0.403985  0.784106  1
  V  V10  1  0.176358  0.242738  0.202270  1
  V  V11  1  0.269621  0.944171  0.217705  1
  V  V12  1  0.460485  0.631677  0.687052  1
  V  V13  1  0.578468  0.278983  0.767420  1
  V  V14  1  0.468752  0.083940  0.263885  1
  V  V15  1  0.484117  0.903621  0.764587  1
  V  V16  1  0.480713  0.643753  0.312569  1
  V  V17  1  0.515253  0.340357  0.251433  1
  V  V18  1  0.757489  0.183639  0.720405  1
  V  V19  1  0.766843  0.841995  0.784429  1
  V  V20  1  0.701414  0.546463  0.289369  1
  V  V21  1  0.829927  0.419976  0.774002  1
  V  V22  1  0.738281  0.114029  0.321245  1
  V  V23  1  0.766439  0.839826  0.257754  1
  V  V24  1  0.008065  0.655760  0.767713  1
  V  V25  1  0.008090  0.377593  0.667872  1
  V  V26  1  0.958161  0.070989  0.231309  1
  S  S27  1  0.085149  0.515355  0.694409  1
  S  S28  1  0.086842  0.084020  0.731148  1
  S  S29  1  0.118897  0.789100  0.759512  1
  S  S30  1  0.184846  0.255007  0.777435  1
  S  S31  1  0.029278  0.227306  0.192255  1
  S  S32  1  0.124275  0.669371  0.259452  1
  S  S33  1  0.171358  0.369850  0.288741  1
  S  S34  1  0.160839  0.069623  0.206731  1
  S  S35  1  0.329480  0.943523  0.760311  1
  S  S36  1  0.332958  0.578727  0.774044  1
  S  S37  1  0.381208  0.327516  0.771531  1
  S  S38  1  0.410305  0.799896  0.672343  1
  S  S39  1  0.322556  0.756577  0.249126  1
  S  S40  1  0.377793  0.202184  0.286842  1
  S  S41  1  0.425799  0.922857  0.244684  1
  S  S42  1  0.403004  0.517305  0.274877  1
  S  S43  1  0.575744  0.425286  0.817157  1
  S  S44  1  0.623201  0.125565  0.742251  1
  S  S45  1  0.621314  0.803754  0.783156  1
  S  S46  1  0.604435  0.136047  0.361075  1
  S  S47  1  0.674887  0.395200  0.620341  1
  S  S48  1  0.633546  0.742123  0.231703  1
  S  S49  1  0.631835  0.436896  0.192593  1
  S  S50  1  0.671071  -0.007343  0.252906  1
  S  S51  1  0.846224  -0.004405  0.772615  1
  S  S52  1  0.874308  0.584750  0.760824  1
  S  S53  1  0.887214  0.283212  0.736170  1
  S  S54  1  0.908642  0.808171  0.753425  1
  S  S55  1  0.833419  0.684601  0.247777  1
  S  S56  1  0.850307  0.203334  0.211383  1
  S  S57  1  0.885699  0.925542  0.250429  1
  S  S58  1  0.914408  0.502959  0.233142  1
