# generated using pymatgen
data_Nb2Sb
_symmetry_space_group_name_H-M   'P 1'
_cell_length_a   2.93844548
_cell_length_b   24.23558300
_cell_length_c   6.94706710
_cell_angle_alpha   76.24358143
_cell_angle_beta   96.46369831
_cell_angle_gamma   117.42944990
_symmetry_Int_Tables_number   1
_chemical_formula_structural   Nb2Sb
_chemical_formula_sum   'Nb14 Sb7'
_cell_volume   426.51773242
_cell_formula_units_Z   7
loop_
 _symmetry_equiv_pos_site_id
 _symmetry_equiv_pos_as_xyz
  1  'x, y, z'
loop_
 _atom_site_type_symbol
 _atom_site_label
 _atom_site_symmetry_multiplicity
 _atom_site_fract_x
 _atom_site_fract_y
 _atom_site_fract_z
 _atom_site_occupancy
  Nb  Nb0  1  0.048552  0.861465  0.070601  1
  Nb  Nb1  1  0.948160  0.764552  0.399109  1
  Nb  Nb2  1  0.964159  0.720258  0.075887  1
  Nb  Nb3  1  0.041590  0.946229  0.733299  1
  Nb  Nb4  1  0.971151  0.577551  0.080283  1
  Nb  Nb5  1  0.979174  0.435295  0.075776  1
  Nb  Nb6  1  0.984543  0.340870  0.394469  1
  Nb  Nb7  1  0.968391  0.625667  0.402803  1
  Nb  Nb8  1  0.980577  0.292122  0.064486  1
  Nb  Nb9  1  0.977758  0.483330  0.402554  1
  Nb  Nb10  1  0.988515  0.150469  0.043992  1
  Nb  Nb11  1  0.030883  0.008179  0.040375  1
  Nb  Nb12  1  0.987188  0.197830  0.381188  1
  Nb  Nb13  1  0.022817  0.062224  0.357083  1
  Sb  Sb14  1  0.375636  0.927026  0.379745  1
  Sb  Sb15  1  0.638250  0.806755  0.731356  1
  Sb  Sb16  1  0.675424  0.658623  0.743096  1
  Sb  Sb17  1  0.682033  0.515289  0.741380  1
  Sb  Sb18  1  0.682323  0.372408  0.734788  1
  Sb  Sb19  1  0.685980  0.229465  0.718319  1
  Sb  Sb20  1  0.690951  0.082104  0.705716  1
