# generated using pymatgen
data_Nd(HO)3
_symmetry_space_group_name_H-M   'P 1'
_cell_length_a   6.61544491
_cell_length_b   6.57270061
_cell_length_c   3.71697036
_cell_angle_alpha   90.00000000
_cell_angle_beta   90.00000000
_cell_angle_gamma   120.67871709
_symmetry_Int_Tables_number   1
_chemical_formula_structural   Nd(HO)3
_chemical_formula_sum   'Nd2 H6 O6'
_cell_volume   138.99897380
_cell_formula_units_Z   2
loop_
 _symmetry_equiv_pos_site_id
 _symmetry_equiv_pos_as_xyz
  1  'x, y, z'
loop_
 _atom_site_type_symbol
 _atom_site_label
 _atom_site_symmetry_multiplicity
 _atom_site_fract_x
 _atom_site_fract_y
 _atom_site_fract_z
 _atom_site_occupancy
  Nd  Nd0  1  0.338210  0.662825  0.250000  1
  Nd  Nd1  1  0.665779  0.330081  0.750000  1
  H  H2  1  0.867449  0.719993  0.250000  1
  H  H3  1  0.858890  0.142121  0.250000  1
  H  H4  1  0.277480  0.137178  0.250000  1
  H  H5  1  0.137133  0.277714  0.750000  1
  H  H6  1  0.141616  0.836928  0.750000  1
  H  H7  1  0.721315  0.857968  0.750000  1
  O  O8  1  0.913413  0.600749  0.250000  1
  O  O9  1  0.690538  0.084737  0.250000  1
  O  O10  1  0.396446  0.305129  0.250000  1
  O  O11  1  0.087745  0.394287  0.750000  1
  O  O12  1  0.311258  0.904111  0.750000  1
  O  O13  1  0.608273  0.688315  0.750000  1
