# generated using pymatgen
data_CaGd2Zr(GaO3)4
_symmetry_space_group_name_H-M   'P 1'
_cell_length_a   10.96941764
_cell_length_b   10.99774692
_cell_length_c   10.93046435
_cell_angle_alpha   109.38366882
_cell_angle_beta   109.33431402
_cell_angle_gamma   109.62400645
_symmetry_Int_Tables_number   1
_chemical_formula_structural   CaGd2Zr(GaO3)4
_chemical_formula_sum   'Ca4 Gd8 Zr4 Ga16 O48'
_cell_volume   1015.98005974
_cell_formula_units_Z   4
loop_
 _symmetry_equiv_pos_site_id
 _symmetry_equiv_pos_as_xyz
  1  'x, y, z'
loop_
 _atom_site_type_symbol
 _atom_site_label
 _atom_site_symmetry_multiplicity
 _atom_site_fract_x
 _atom_site_fract_y
 _atom_site_fract_z
 _atom_site_occupancy
  Ca  Ca0  1  0.131869  0.374240  0.751073  1
  Ca  Ca1  1  0.123097  0.245650  0.371043  1
  Ca  Ca2  1  0.876903  0.754350  0.628957  1
  Ca  Ca3  1  0.868131  0.625760  0.248927  1
  Gd  Gd4  1  0.253502  0.877021  0.627183  1
  Gd  Gd5  1  0.380227  0.750550  0.121908  1
  Gd  Gd6  1  0.628990  0.880893  0.754777  1
  Gd  Gd7  1  0.246465  0.369087  0.119393  1
  Gd  Gd8  1  0.371010  0.119107  0.245223  1
  Gd  Gd9  1  0.753535  0.630913  0.880607  1
  Gd  Gd10  1  0.619773  0.249450  0.878092  1
  Gd  Gd11  1  0.746498  0.122979  0.372817  1
  Zr  Zr12  1  0.500000  0.500000  0.500000  1
  Zr  Zr13  1  0.000000  0.000000  0.500000  1
  Zr  Zr14  1  0.000000  0.500000  0.500000  1
  Zr  Zr15  1  0.000000  0.500000  0.000000  1
  Ga  Ga16  1  0.126455  0.760269  0.879029  1
  Ga  Ga17  1  0.126172  0.876441  0.249766  1
  Ga  Ga18  1  0.376456  0.628804  0.759332  1
  Ga  Ga19  1  0.256236  0.127937  0.880712  1
  Ga  Ga20  1  0.256652  0.631905  0.378290  1
  Ga  Ga21  1  0.500000  0.000000  0.500000  1
  Ga  Ga22  1  0.000000  0.000000  0.000000  1
  Ga  Ga23  1  0.375918  0.249547  0.626282  1
  Ga  Ga24  1  0.624082  0.750453  0.373718  1
  Ga  Ga25  1  0.500000  0.500000  0.000000  1
  Ga  Ga26  1  0.743764  0.872063  0.119288  1
  Ga  Ga27  1  0.743348  0.368095  0.621710  1
  Ga  Ga28  1  0.623544  0.371196  0.240668  1
  Ga  Ga29  1  0.500000  0.000000  0.000000  1
  Ga  Ga30  1  0.873828  0.123559  0.750234  1
  Ga  Ga31  1  0.873545  0.239731  0.120971  1
  O  O32  1  0.104531  0.977974  0.686177  1
  O  O33  1  0.027336  0.316863  0.904449  1
  O  O34  1  0.125688  0.604977  0.918076  1
  O  O35  1  0.089747  0.712495  0.684512  1
  O  O36  1  0.089857  0.878215  0.405133  1
  O  O37  1  0.102784  0.626840  0.417184  1
  O  O38  1  0.186722  0.479297  0.600224  1
  O  O39  1  0.418931  0.822609  0.797272  1
  O  O40  1  0.382499  0.586098  0.911774  1
  O  O41  1  0.300237  0.322075  0.922969  1
  O  O42  1  0.184037  0.207342  0.585126  1
  O  O43  1  0.322043  0.917069  0.295489  1
  O  O44  1  0.026615  0.202840  0.117760  1
  O  O45  1  0.211812  0.586457  0.182287  1
  O  O46  1  0.407206  0.825283  0.528825  1
  O  O47  1  0.292573  0.476390  0.373653  1
  O  O48  1  0.324310  0.906759  0.027908  1
  O  O49  1  0.122815  0.023238  0.200625  1
  O  O50  1  0.527800  0.626839  0.712415  1
  O  O51  1  0.405770  0.081467  0.878828  1
  O  O52  1  0.526549  0.404118  0.820969  1
  O  O53  1  0.379601  0.289183  0.472910  1
  O  O54  1  0.580933  0.903666  0.376019  1
  O  O55  1  0.205179  0.121655  0.027389  1
  O  O56  1  0.794821  0.878345  0.972611  1
  O  O57  1  0.419067  0.096334  0.623981  1
  O  O58  1  0.620399  0.710817  0.527090  1
  O  O59  1  0.473451  0.595882  0.179031  1
  O  O60  1  0.594230  0.918533  0.121172  1
  O  O61  1  0.472200  0.373161  0.287585  1
  O  O62  1  0.877185  0.976762  0.799375  1
  O  O63  1  0.675690  0.093241  0.972092  1
  O  O64  1  0.707427  0.523610  0.626347  1
  O  O65  1  0.592794  0.174717  0.471175  1
  O  O66  1  0.788188  0.413543  0.817713  1
  O  O67  1  0.973385  0.797160  0.882240  1
  O  O68  1  0.677957  0.082931  0.704511  1
  O  O69  1  0.815963  0.792658  0.414874  1
  O  O70  1  0.699763  0.677925  0.077031  1
  O  O71  1  0.617501  0.413902  0.088226  1
  O  O72  1  0.581069  0.177391  0.202728  1
  O  O73  1  0.813278  0.520703  0.399776  1
  O  O74  1  0.897216  0.373160  0.582816  1
  O  O75  1  0.910143  0.121785  0.594867  1
  O  O76  1  0.910253  0.287505  0.315488  1
  O  O77  1  0.874312  0.395023  0.081924  1
  O  O78  1  0.972664  0.683137  0.095551  1
  O  O79  1  0.895469  0.022026  0.313823  1
