# generated using pymatgen
data_TlGaSe2
_symmetry_space_group_name_H-M   'P 1'
_cell_length_a   7.75384027
_cell_length_b   7.75384059
_cell_length_c   15.89755647
_cell_angle_alpha   82.87835923
_cell_angle_beta   82.87835896
_cell_angle_gamma   89.99213800
_symmetry_Int_Tables_number   1
_chemical_formula_structural   TlGaSe2
_chemical_formula_sum   'Tl8 Ga8 Se16'
_cell_volume   940.99025938
_cell_formula_units_Z   8
loop_
 _symmetry_equiv_pos_site_id
 _symmetry_equiv_pos_as_xyz
  1  'x, y, z'
loop_
 _atom_site_type_symbol
 _atom_site_label
 _atom_site_symmetry_multiplicity
 _atom_site_fract_x
 _atom_site_fract_y
 _atom_site_fract_z
 _atom_site_occupancy
  Tl  Tl0  1  0.179362  0.305031  0.760568  1
  Tl  Tl1  1  0.296345  0.676092  0.270519  1
  Tl  Tl2  1  0.869324  0.749321  0.993758  1
  Tl  Tl3  1  0.747084  0.372362  0.486549  1
  Tl  Tl4  1  0.305031  0.179362  0.260568  1
  Tl  Tl5  1  0.676092  0.296345  0.770519  1
  Tl  Tl6  1  0.372362  0.747084  0.986549  1
  Tl  Tl7  1  0.749321  0.869324  0.493758  1
  Ga  Ga8  1  0.816595  0.444177  0.213506  1
  Ga  Ga9  1  0.944159  0.817257  0.713912  1
  Ga  Ga10  1  0.236589  0.616936  0.538883  1
  Ga  Ga11  1  0.237194  0.108486  0.537704  1
  Ga  Ga12  1  0.108486  0.237194  0.037704  1
  Ga  Ga13  1  0.616936  0.236589  0.038883  1
  Ga  Ga14  1  0.444177  0.816595  0.713506  1
  Ga  Ga15  1  0.817257  0.944159  0.213912  1
  Se  Se16  1  0.886257  0.259553  0.941350  1
  Se  Se17  1  0.170664  0.791558  0.807981  1
  Se  Se18  1  0.669518  0.800768  0.808917  1
  Se  Se19  1  0.953401  0.098372  0.624555  1
  Se  Se20  1  0.478042  0.580270  0.624820  1
  Se  Se21  1  0.952672  0.579716  0.625957  1
  Se  Se22  1  0.387087  0.265555  0.945922  1
  Se  Se23  1  0.800768  0.669518  0.308917  1
  Se  Se24  1  0.098032  0.477423  0.124199  1
  Se  Se25  1  0.477423  0.098032  0.624199  1
  Se  Se26  1  0.265555  0.387087  0.445922  1
  Se  Se27  1  0.580270  0.478042  0.124820  1
  Se  Se28  1  0.098372  0.953401  0.124555  1
  Se  Se29  1  0.791558  0.170664  0.307981  1
  Se  Se30  1  0.259553  0.886257  0.441350  1
  Se  Se31  1  0.579716  0.952672  0.125957  1
