# generated using pymatgen
data_Si4H2O9
_symmetry_space_group_name_H-M   'P 1'
_cell_length_a   15.47568296
_cell_length_b   15.47477551
_cell_length_c   15.48417591
_cell_angle_alpha   151.39142387
_cell_angle_beta   151.40155257
_cell_angle_gamma   40.89184379
_symmetry_Int_Tables_number   1
_chemical_formula_structural   Si4H2O9
_chemical_formula_sum   'Si16 H8 O36'
_cell_volume   848.12090768
_cell_formula_units_Z   4
loop_
 _symmetry_equiv_pos_site_id
 _symmetry_equiv_pos_as_xyz
  1  'x, y, z'
loop_
 _atom_site_type_symbol
 _atom_site_label
 _atom_site_symmetry_multiplicity
 _atom_site_fract_x
 _atom_site_fract_y
 _atom_site_fract_z
 _atom_site_occupancy
  Si  Si0  1  0.954317  0.044956  0.499321  1
  Si  Si1  1  0.546041  0.455433  0.501445  1
  Si  Si2  1  0.204736  0.794959  0.999053  1
  Si  Si3  1  0.795539  0.205414  0.000710  1
  Si  Si4  1  0.955503  0.454225  0.909641  1
  Si  Si5  1  0.544509  0.046225  0.090223  1
  Si  Si6  1  0.205174  0.203842  0.409462  1
  Si  Si7  1  0.794769  0.795774  0.590806  1
  Si  Si8  1  0.176200  0.474177  0.297582  1
  Si  Si9  1  0.175536  0.879130  0.702916  1
  Si  Si10  1  0.573591  0.372196  0.797648  1
  Si  Si11  1  0.575631  0.777703  0.205537  1
  Si  Si12  1  0.526644  0.823625  0.702356  1
  Si  Si13  1  0.121183  0.824229  0.297657  1
  Si  Si14  1  0.628760  0.425748  0.202169  1
  Si  Si15  1  0.223603  0.426523  0.797748  1
  H  H16  1  0.221023  0.242749  0.222543  1
  H  H17  1  0.047746  0.031822  0.832695  1
  H  H18  1  0.704615  0.220969  0.673758  1
  H  H19  1  0.558032  0.998471  0.282971  1
  H  H20  1  0.774078  0.964478  0.983423  1
  H  H21  1  0.981152  0.790675  0.016806  1
  H  H22  1  0.769214  0.459337  0.483233  1
  H  H23  1  0.975981  0.286014  0.516717  1
  O  O24  1  0.120742  0.303951  0.164104  1
  O  O25  1  0.139798  0.946616  0.829051  1
  O  O26  1  0.610761  0.304976  0.672996  1
  O  O27  1  0.644275  0.948812  0.354050  1
  O  O28  1  0.693144  0.858361  0.810191  1
  O  O29  1  0.048297  0.882766  0.189922  1
  O  O30  1  0.701458  0.367183  0.309832  1
  O  O31  1  0.057167  0.391848  0.690208  1
  O  O32  1  0.213802  0.632021  0.933705  1
  O  O33  1  0.698395  0.279541  0.066280  1
  O  O34  1  0.050958  0.970328  0.432940  1
  O  O35  1  0.536861  0.618141  0.566550  1
  O  O36  1  0.214138  0.279730  0.582333  1
  O  O37  1  0.697423  0.631599  0.417208  1
  O  O38  1  0.052893  0.618393  0.083306  1
  O  O39  1  0.536071  0.969916  0.917631  1
  O  O40  1  0.368701  0.785609  0.065439  1
  O  O41  1  0.719325  0.303019  0.934266  1
  O  O42  1  0.030593  0.947574  0.565937  1
  O  O43  1  0.382336  0.466216  0.436212  1
  O  O44  1  0.367857  0.301583  0.581363  1
  O  O45  1  0.719904  0.786041  0.418228  1
  O  O46  1  0.029590  0.462917  0.080947  1
  O  O47  1  0.382228  0.948889  0.919599  1
  O  O48  1  0.339616  0.839867  0.500297  1
  O  O49  1  0.410332  0.410420  0.999959  1
  O  O50  1  0.161043  0.660319  0.500255  1
  O  O51  1  0.587774  0.591196  -0.000301  1
  O  O52  1  0.013585  0.249980  0.237636  1
  O  O53  1  0.012492  0.775865  0.762265  1
  O  O54  1  0.737775  0.473945  0.737639  1
  O  O55  1  0.735819  0.000481  0.262899  1
  O  O56  1  0.749514  0.987544  0.763198  1
  O  O57  1  0.224417  0.985925  0.236477  1
  O  O58  1  0.525571  0.264058  0.263355  1
  O  O59  1  0.000756  0.262635  0.737163  1
