# generated using pymatgen
data_NaMgPO4
_symmetry_space_group_name_H-M   'P 1'
_cell_length_a   6.93217338
_cell_length_b   8.89949678
_cell_length_c   15.50652850
_cell_angle_alpha   90.00000000
_cell_angle_beta   90.00000000
_cell_angle_gamma   90.00000000
_symmetry_Int_Tables_number   1
_chemical_formula_structural   NaMgPO4
_chemical_formula_sum   'Na12 Mg12 P12 O48'
_cell_volume   956.64200924
_cell_formula_units_Z   12
loop_
 _symmetry_equiv_pos_site_id
 _symmetry_equiv_pos_as_xyz
  1  'x, y, z'
loop_
 _atom_site_type_symbol
 _atom_site_label
 _atom_site_symmetry_multiplicity
 _atom_site_fract_x
 _atom_site_fract_y
 _atom_site_fract_z
 _atom_site_occupancy
  O  O0  1  0.267647  0.880784  0.828678  1
  O  O1  1  0.767647  0.119216  0.671322  1
  O  O2  1  0.232353  0.380784  0.171322  1
  O  O3  1  0.732353  0.619216  0.328678  1
  O  O4  1  0.083175  0.885397  0.017214  1
  O  O5  1  0.583175  0.114603  0.482786  1
  O  O6  1  0.416825  0.385397  0.982786  1
  O  O7  1  0.916825  0.614603  0.517214  1
  O  O8  1  0.027797  0.863171  0.348311  1
  O  O9  1  0.527797  0.136829  0.151689  1
  O  O10  1  0.472203  0.363171  0.651689  1
  O  O11  1  0.972203  0.636829  0.848311  1
  O  O12  1  0.099099  0.864522  0.681372  1
  O  O13  1  0.599099  0.135478  0.818628  1
  O  O14  1  0.400901  0.364522  0.318628  1
  O  O15  1  0.900901  0.635478  0.181372  1
  O  O16  1  0.231959  0.638779  0.065734  1
  O  O17  1  0.731959  0.361221  0.434266  1
  O  O18  1  0.268041  0.138779  0.934266  1
  O  O19  1  0.768041  0.861221  0.565734  1
  O  O20  1  0.461376  0.885329  0.691407  1
  O  O21  1  0.260435  0.876863  0.157950  1
  O  O22  1  0.239565  0.376863  0.842050  1
  O  O23  1  0.739565  0.623137  0.657950  1
  O  O24  1  0.293672  0.642899  0.733474  1
  O  O25  1  0.793672  0.357101  0.766526  1
  O  O26  1  0.206328  0.142899  0.266526  1
  O  O27  1  0.706328  0.857101  0.233474  1
  O  O28  1  0.206815  0.881208  0.492089  1
  O  O29  1  0.706815  0.118792  0.007911  1
  O  O30  1  0.293185  0.381208  0.507911  1
  O  O31  1  0.793185  0.618792  0.992089  1
  O  O32  1  0.225557  0.643318  0.396947  1
  O  O33  1  0.725557  0.356682  0.103053  1
  O  O34  1  0.274443  0.143318  0.603053  1
  O  O35  1  0.774443  0.856682  0.896947  1
  O  O36  1  0.610147  0.614507  0.851151  1
  O  O37  1  0.110147  0.385493  0.648849  1
  O  O38  1  0.889853  0.114507  0.148849  1
  O  O39  1  0.389853  0.885493  0.351151  1
  O  O40  1  0.556078  0.648380  0.514063  1
  O  O41  1  0.056078  0.351620  0.985937  1
  O  O42  1  0.943922  0.148380  0.485937  1
  O  O43  1  0.443922  0.851620  0.014063  1
  O  O44  1  0.538624  0.614671  0.191407  1
  O  O45  1  0.038624  0.385329  0.308593  1
  O  O46  1  0.961376  0.114671  0.808593  1
  O  O47  1  0.760435  0.123137  0.342050  1
  Na  Na48  1  0.696481  0.858583  0.405558  1
  Na  Na49  1  0.196481  0.141417  0.094442  1
  Na  Na50  1  0.803519  0.358583  0.594442  1
  Na  Na51  1  0.303519  0.641417  0.905558  1
  Na  Na52  1  0.786255  0.848828  0.736293  1
  Na  Na53  1  0.286255  0.151172  0.763707  1
  Na  Na54  1  0.713745  0.348828  0.263707  1
  Na  Na55  1  0.213745  0.651172  0.236293  1
  Na  Na56  1  0.770952  0.851023  0.069925  1
  Na  Na57  1  0.270952  0.148977  0.430075  1
  Na  Na58  1  0.729048  0.351023  0.930075  1
  Na  Na59  1  0.229048  0.648977  0.569925  1
  Mg  Mg60  1  0.555632  0.516035  0.737777  1
  Mg  Mg61  1  0.055632  0.483965  0.762223  1
  Mg  Mg62  1  0.944368  0.016035  0.262223  1
  Mg  Mg63  1  0.444368  0.983965  0.237777  1
  Mg  Mg64  1  0.952695  0.523404  0.401416  1
  Mg  Mg65  1  0.452695  0.476596  0.098584  1
  Mg  Mg66  1  0.547305  0.023404  0.598584  1
  Mg  Mg67  1  0.047305  0.976596  0.901416  1
  Mg  Mg68  1  0.970550  0.505745  0.076731  1
  Mg  Mg69  1  0.470550  0.494255  0.423269  1
  Mg  Mg70  1  0.529450  0.005745  0.923269  1
  Mg  Mg71  1  0.029450  0.994255  0.576731  1
  P  P72  1  0.787779  0.679367  0.898670  1
  P  P73  1  0.287779  0.320633  0.601330  1
  P  P74  1  0.712221  0.179367  0.101330  1
  P  P75  1  0.212221  0.820633  0.398670  1
  P  P76  1  0.720576  0.680463  0.234093  1
  P  P77  1  0.220577  0.319537  0.265907  1
  P  P78  1  0.779424  0.180463  0.765907  1
  P  P79  1  0.279423  0.819537  0.734093  1
  P  P80  1  0.742802  0.685395  0.564367  1
  P  P81  1  0.242802  0.314605  0.935633  1
  P  P82  1  0.757198  0.185395  0.435633  1
  P  P83  1  0.257198  0.814605  0.064367  1
