# generated using pymatgen
data_BaU(SeO4)2
_symmetry_space_group_name_H-M   'P 1'
_cell_length_a   7.64447995
_cell_length_b   8.77681330
_cell_length_c   14.08573942
_cell_angle_alpha   90.00000000
_cell_angle_beta   105.11186974
_cell_angle_gamma   90.00000000
_symmetry_Int_Tables_number   1
_chemical_formula_structural   BaU(SeO4)2
_chemical_formula_sum   'Ba4 U4 Se8 O32'
_cell_volume   912.38920210
_cell_formula_units_Z   4
loop_
 _symmetry_equiv_pos_site_id
 _symmetry_equiv_pos_as_xyz
  1  'x, y, z'
loop_
 _atom_site_type_symbol
 _atom_site_label
 _atom_site_symmetry_multiplicity
 _atom_site_fract_x
 _atom_site_fract_y
 _atom_site_fract_z
 _atom_site_occupancy
  Ba  Ba0  1  0.659879  0.078002  0.153449  1
  Ba  Ba1  1  0.659879  0.421998  0.653449  1
  Ba  Ba2  1  0.340121  0.921998  0.846551  1
  Ba  Ba3  1  0.340121  0.578002  0.346551  1
  U  U4  1  0.770858  0.909272  0.715557  1
  U  U5  1  0.229142  0.090728  0.284443  1
  U  U6  1  0.770858  0.590728  0.215557  1
  U  U7  1  0.229142  0.409272  0.784443  1
  Se  Se8  1  0.065932  0.770661  0.123633  1
  Se  Se9  1  0.934068  0.270661  0.376367  1
  Se  Se10  1  0.687025  -0.045158  0.452498  1
  Se  Se11  1  0.687025  0.545158  0.952498  1
  Se  Se12  1  0.312975  0.454842  0.047502  1
  Se  Se13  1  0.312975  0.045158  0.547502  1
  Se  Se14  1  0.065932  0.729339  0.623633  1
  Se  Se15  1  0.934068  0.229339  0.876367  1
  O  O16  1  0.723697  0.451272  0.064525  1
  O  O17  1  0.410674  0.937009  0.030946  1
  O  O18  1  0.410674  0.562991  0.530946  1
  O  O19  1  0.066264  -0.082077  0.655432  1
  O  O20  1  0.847389  0.803917  0.138497  1
  O  O21  1  0.066264  0.582077  0.155432  1
  O  O22  1  0.212249  0.847118  0.230243  1
  O  O23  1  0.152611  0.303917  0.361503  1
  O  O24  1  0.723697  0.048728  0.564525  1
  O  O25  1  0.970541  0.891629  0.825936  1
  O  O26  1  0.361727  0.282803  0.719611  1
  O  O27  1  0.787751  0.347118  0.269757  1
  O  O28  1  0.212249  0.652882  0.730243  1
  O  O29  1  0.029459  0.391629  0.674064  1
  O  O30  1  0.933736  0.417923  0.844568  1
  O  O31  1  0.589326  0.437009  0.469054  1
  O  O32  1  0.589326  0.062991  0.969054  1
  O  O33  1  0.933736  0.082077  0.344568  1
  O  O34  1  0.546029  0.071230  0.367939  1
  O  O35  1  0.453971  0.571230  0.132061  1
  O  O36  1  0.276303  0.548728  0.935475  1
  O  O37  1  0.970541  0.608371  0.325936  1
  O  O38  1  0.029459  0.108371  0.174064  1
  O  O39  1  0.276303  0.951272  0.435475  1
  O  O40  1  0.638273  0.782803  0.780389  1
  O  O41  1  0.361727  0.217197  0.219611  1
  O  O42  1  0.638273  0.717197  0.280389  1
  O  O43  1  0.152611  0.196083  0.861503  1
  O  O44  1  0.546029  0.428770  0.867939  1
  O  O45  1  0.847389  0.696083  0.638497  1
  O  O46  1  0.453971  0.928770  0.632061  1
  O  O47  1  0.787751  0.152882  0.769757  1
