# generated using pymatgen
data_Na2EuCl5
_symmetry_space_group_name_H-M   'P 1'
_cell_length_a   7.91409209
_cell_length_b   8.56540615
_cell_length_c   12.38764961
_cell_angle_alpha   90.00017643
_cell_angle_beta   89.99782201
_cell_angle_gamma   89.99993297
_symmetry_Int_Tables_number   1
_chemical_formula_structural   Na2EuCl5
_chemical_formula_sum   'Na8 Eu4 Cl20'
_cell_volume   839.72672064
_cell_formula_units_Z   4
loop_
 _symmetry_equiv_pos_site_id
 _symmetry_equiv_pos_as_xyz
  1  'x, y, z'
loop_
 _atom_site_type_symbol
 _atom_site_label
 _atom_site_symmetry_multiplicity
 _atom_site_fract_x
 _atom_site_fract_y
 _atom_site_fract_z
 _atom_site_occupancy
  Eu  Eu0  1  0.420614  0.750000  0.493466  1
  Eu  Eu1  1  0.079386  0.750001  0.993461  1
  Eu  Eu2  1  0.579446  0.250001  0.506556  1
  Eu  Eu3  1  0.920556  0.250001  0.006563  1
  Na  Na4  1  0.033947  0.001522  0.672545  1
  Na  Na5  1  0.466036  0.498480  0.172471  1
  Na  Na6  1  0.466035  0.001518  0.172471  1
  Na  Na7  1  0.533986  0.501446  0.827526  1
  Na  Na8  1  0.033948  0.498479  0.672546  1
  Na  Na9  1  0.533988  0.998554  0.827526  1
  Na  Na10  1  0.966034  0.998551  0.327449  1
  Na  Na11  1  0.966033  0.501449  0.327449  1
  Cl  Cl12  1  0.055212  0.750000  0.493907  1
  Cl  Cl13  1  0.141156  0.250000  0.183522  1
  Cl  Cl14  1  0.358871  0.249999  0.683554  1
  Cl  Cl15  1  0.820133  0.250001  0.786501  1
  Cl  Cl16  1  0.166230  0.454336  0.911380  1
  Cl  Cl17  1  0.666212  0.954346  0.588632  1
  Cl  Cl18  1  0.444794  0.749999  0.993907  1
  Cl  Cl19  1  0.858867  0.750000  0.816467  1
  Cl  Cl20  1  0.320109  0.750000  0.713491  1
  Cl  Cl21  1  0.666212  0.545654  0.588632  1
  Cl  Cl22  1  0.333758  0.454351  0.411366  1
  Cl  Cl23  1  0.679892  0.250000  0.286488  1
  Cl  Cl24  1  0.179874  0.749999  0.213498  1
  Cl  Cl25  1  0.333757  0.045649  0.411366  1
  Cl  Cl26  1  0.944797  0.250000  0.506089  1
  Cl  Cl27  1  0.166231  0.045663  0.911380  1
  Cl  Cl28  1  0.641086  0.750000  0.316455  1
  Cl  Cl29  1  0.833788  0.545634  0.088616  1
  Cl  Cl30  1  0.833789  0.954366  0.088616  1
  Cl  Cl31  1  0.555224  0.250001  0.006103  1
