# generated using pymatgen
data_CoH12(BrO7)2
_symmetry_space_group_name_H-M   'P 1'
_cell_length_a   7.95926012
_cell_length_b   7.96245366
_cell_length_c   5.87332025
_cell_angle_alpha   90.00000003
_cell_angle_beta   89.97775565
_cell_angle_gamma   120.01327402
_symmetry_Int_Tables_number   1
_chemical_formula_structural   CoH12(BrO7)2
_chemical_formula_sum   'Co1 H12 Br2 O14'
_cell_volume   322.31148429
_cell_formula_units_Z   1
loop_
 _symmetry_equiv_pos_site_id
 _symmetry_equiv_pos_as_xyz
  1  'x, y, z'
loop_
 _atom_site_type_symbol
 _atom_site_label
 _atom_site_symmetry_multiplicity
 _atom_site_fract_x
 _atom_site_fract_y
 _atom_site_fract_z
 _atom_site_occupancy
  Co  Co0  1  0.000000  0.000000  0.000000  1
  H  H1  1  0.331256  0.265048  0.781392  1
  H  H2  1  0.933907  0.668752  0.781422  1
  H  H3  1  0.735171  0.066209  0.781485  1
  H  H4  1  0.331256  0.066208  0.781392  1
  H  H5  1  0.735171  0.668962  0.781485  1
  H  H6  1  0.933907  0.265156  0.781422  1
  H  H7  1  0.668744  0.734952  0.218608  1
  H  H8  1  0.066093  0.331248  0.218578  1
  H  H9  1  0.264829  0.933791  0.218515  1
  H  H10  1  0.668744  0.933792  0.218608  1
  H  H11  1  0.264829  0.331038  0.218515  1
  H  H12  1  0.066093  0.734844  0.218578  1
  Br  Br13  1  0.666755  0.333378  0.323314  1
  Br  Br14  1  0.333245  0.666622  0.676686  1
  O  O15  1  0.666590  0.333295  0.603129  1
  O  O16  1  0.333410  0.666705  0.396871  1
  O  O17  1  0.553988  0.108059  0.224478  1
  O  O18  1  0.553988  0.445929  0.224478  1
  O  O19  1  0.891839  0.445920  0.224446  1
  O  O20  1  0.446012  0.891941  0.775522  1
  O  O21  1  0.446012  0.554071  0.775522  1
  O  O22  1  0.108161  0.554080  0.775554  1
  O  O23  1  0.247861  0.123931  0.791723  1
  O  O24  1  0.875845  0.752243  0.791621  1
  O  O25  1  0.875845  0.123602  0.791621  1
  O  O26  1  0.752139  0.876069  0.208277  1
  O  O27  1  0.124155  0.247757  0.208379  1
  O  O28  1  0.124155  0.876398  0.208379  1
