# generated using pymatgen
data_Ca2Al2SiO7
_symmetry_space_group_name_H-M   'P 1'
_cell_length_a   13.21802119
_cell_length_b   6.77935812
_cell_length_c   7.48280727
_cell_angle_alpha   90.00000000
_cell_angle_beta   90.00000000
_cell_angle_gamma   90.00000000
_symmetry_Int_Tables_number   1
_chemical_formula_structural   Ca2Al2SiO7
_chemical_formula_sum   'Ca8 Al8 Si4 O28'
_cell_volume   670.53210927
_cell_formula_units_Z   4
loop_
 _symmetry_equiv_pos_site_id
 _symmetry_equiv_pos_as_xyz
  1  'x, y, z'
loop_
 _atom_site_type_symbol
 _atom_site_label
 _atom_site_symmetry_multiplicity
 _atom_site_fract_x
 _atom_site_fract_y
 _atom_site_fract_z
 _atom_site_occupancy
  Ca  Ca0  1  0.278918  0.329405  0.657614  1
  Ca  Ca1  1  0.285581  -0.080814  0.369382  1
  Ca  Ca2  1  0.214419  0.419186  0.130618  1
  Ca  Ca3  1  0.221082  0.829405  0.842386  1
  Ca  Ca4  1  0.785581  0.080814  0.630618  1
  Ca  Ca5  1  0.778918  0.670595  0.342386  1
  Ca  Ca6  1  0.721082  0.170595  0.157614  1
  Ca  Ca7  1  0.714419  0.580814  0.869382  1
  Al  Al8  1  0.998039  0.010012  0.122305  1
  Al  Al9  1  0.001961  0.489988  0.622305  1
  Al  Al10  1  0.601732  0.828837  0.155909  1
  Al  Al11  1  0.898268  0.328837  0.344091  1
  Al  Al12  1  0.498039  -0.010012  0.877695  1
  Al  Al13  1  0.501961  0.510012  0.377695  1
  Al  Al14  1  0.101732  0.171163  0.844091  1
  Al  Al15  1  0.398268  0.671163  0.655909  1
  Si  Si16  1  0.899345  0.378107  0.953233  1
  Si  Si17  1  0.600655  0.878107  0.546767  1
  Si  Si18  1  0.399345  0.621893  0.046767  1
  Si  Si19  1  0.100655  0.121893  0.453233  1
  O  O20  1  0.348994  0.536584  0.864081  1
  O  O21  1  0.086101  0.957637  0.296460  1
  O  O22  1  0.305613  0.759981  0.119583  1
  O  O23  1  0.112217  0.423047  0.739372  1
  O  O24  1  0.279016  0.673525  0.551603  1
  O  O25  1  -0.008491  0.224258  0.516605  1
  O  O26  1  0.046942  0.930007  0.917843  1
  O  O27  1  0.508491  0.724258  -0.016605  1
  O  O28  1  0.453058  0.430007  0.582157  1
  O  O29  1  0.220984  0.173525  0.948397  1
  O  O30  1  0.413899  0.457637  0.203540  1
  O  O31  1  0.194387  0.259981  0.380417  1
  O  O32  1  0.387783  0.923047  0.760628  1
  O  O33  1  0.151006  0.036584  0.635919  1
  O  O34  1  0.848994  0.463416  0.135919  1
  O  O35  1  0.586101  0.042363  0.703540  1
  O  O36  1  0.779016  0.326475  0.448397  1
  O  O37  1  0.612217  0.576953  0.260628  1
  O  O38  1  0.805613  0.240019  0.880417  1
  O  O39  1  0.546942  0.069993  0.082157  1
  O  O40  1  0.491509  0.775742  0.483395  1
  O  O41  1  0.953058  0.569993  0.417843  1
  O  O42  1  0.008491  0.275742  0.016605  1
  O  O43  1  0.887783  0.076953  0.239372  1
  O  O44  1  0.694387  0.740019  0.619583  1
  O  O45  1  0.913899  0.542363  0.796460  1
  O  O46  1  0.720984  0.826475  0.051603  1
  O  O47  1  0.651006  0.963416  0.364081  1
