# generated using pymatgen
data_LiAlSi2H2O7
_symmetry_space_group_name_H-M   'P 1'
_cell_length_a   6.50949882
_cell_length_b   6.75627253
_cell_length_c   7.33381732
_cell_angle_alpha   62.25232113
_cell_angle_beta   88.26745926
_cell_angle_gamma   73.74495903
_symmetry_Int_Tables_number   1
_chemical_formula_structural   LiAlSi2H2O7
_chemical_formula_sum   'Li2 Al2 Si4 H4 O14'
_cell_volume   272.13186067
_cell_formula_units_Z   2
loop_
 _symmetry_equiv_pos_site_id
 _symmetry_equiv_pos_as_xyz
  1  'x, y, z'
loop_
 _atom_site_type_symbol
 _atom_site_label
 _atom_site_symmetry_multiplicity
 _atom_site_fract_x
 _atom_site_fract_y
 _atom_site_fract_z
 _atom_site_occupancy
  Li  Li0  1  0.070020  0.046923  0.573346  1
  Li  Li1  1  0.567791  0.887884  0.622756  1
  Al  Al2  1  -0.006111  0.582712  0.738092  1
  Al  Al3  1  0.445135  0.004545  0.032074  1
  Si  Si4  1  0.543603  0.452997  0.880400  1
  Si  Si5  1  0.822679  0.007036  0.866813  1
  Si  Si6  1  0.269142  0.283665  0.231865  1
  Si  Si7  1  0.952483  0.615725  0.301567  1
  H  H8  1  0.390533  0.836912  0.260270  1
  H  H9  1  0.315919  0.653783  0.573923  1
  H  H10  1  0.000638  0.103376  0.849484  1
  H  H11  1  0.699767  0.426815  0.417750  1
  O  O12  1  0.736938  0.535975  0.748133  1
  O  O13  1  0.853154  0.390179  0.400107  1
  O  O14  1  0.162355  0.270251  0.913978  1
  O  O15  1  0.020876  0.670169  0.475335  1
  O  O16  1  0.880866  0.865949  0.733403  1
  O  O17  1  0.583935  0.211572  0.805367  1
  O  O18  1  0.463613  0.851023  0.882222  1
  O  O19  1  0.150222  0.558666  0.173817  1
  O  O20  1  0.306700  0.622831  0.718569  1
  O  O21  1  0.523049  0.597099  0.026403  1
  O  O22  1  0.484900  0.238056  0.110664  1
  O  O23  1  0.314923  0.116741  0.471748  1
  O  O24  1  0.079881  0.227150  0.116976  1
  O  O25  1  0.780289  0.851465  0.113139  1
