# generated using pymatgen
data_Rb2Cr3O10
_symmetry_space_group_name_H-M   'P 1'
_cell_length_a   9.48481739
_cell_length_b   11.67183830
_cell_length_c   19.25821909
_cell_angle_alpha   90.00000000
_cell_angle_beta   90.00000000
_cell_angle_gamma   90.00000000
_symmetry_Int_Tables_number   1
_chemical_formula_structural   Rb2Cr3O10
_chemical_formula_sum   'Rb16 Cr24 O80'
_cell_volume   2131.98605291
_cell_formula_units_Z   8
loop_
 _symmetry_equiv_pos_site_id
 _symmetry_equiv_pos_as_xyz
  1  'x, y, z'
loop_
 _atom_site_type_symbol
 _atom_site_label
 _atom_site_symmetry_multiplicity
 _atom_site_fract_x
 _atom_site_fract_y
 _atom_site_fract_z
 _atom_site_occupancy
  Rb  Rb0  1  0.781337  0.224530  0.317617  1
  Rb  Rb1  1  0.718663  0.724530  0.682383  1
  Rb  Rb2  1  0.218663  0.775470  0.682383  1
  Rb  Rb3  1  0.847709  0.047816  0.583895  1
  Rb  Rb4  1  0.281337  0.275470  0.317617  1
  Rb  Rb5  1  0.152291  0.952184  0.416105  1
  Rb  Rb6  1  0.718663  0.224530  0.817617  1
  Rb  Rb7  1  0.347709  0.952184  0.916105  1
  Rb  Rb8  1  0.781337  0.724530  0.182383  1
  Rb  Rb9  1  0.152291  0.452184  0.083895  1
  Rb  Rb10  1  0.652291  0.047816  0.083895  1
  Rb  Rb11  1  0.652291  0.547816  0.416105  1
  Rb  Rb12  1  0.347709  0.452184  0.583895  1
  Rb  Rb13  1  0.847709  0.547816  0.916105  1
  Rb  Rb14  1  0.281337  0.775470  0.182383  1
  Rb  Rb15  1  0.218663  0.275470  0.817617  1
  Cr  Cr16  1  0.291882  0.128159  0.612198  1
  Cr  Cr17  1  0.511582  0.496014  0.232894  1
  Cr  Cr18  1  0.208118  0.628159  0.387802  1
  Cr  Cr19  1  0.988418  0.996014  0.767106  1
  Cr  Cr20  1  0.208118  0.128159  0.112198  1
  Cr  Cr21  1  0.488418  0.003986  0.732894  1
  Cr  Cr22  1  0.708118  0.371841  0.112198  1
  Cr  Cr23  1  0.291882  0.628159  0.887802  1
  Cr  Cr24  1  0.488418  0.503986  0.767106  1
  Cr  Cr25  1  0.708118  0.871841  0.387802  1
  Cr  Cr26  1  0.511582  0.996014  0.267106  1
  Cr  Cr27  1  0.009860  0.693980  0.526144  1
  Cr  Cr28  1  0.988418  0.496014  0.732894  1
  Cr  Cr29  1  0.509860  0.306020  0.973856  1
  Cr  Cr30  1  0.791882  0.871841  0.887802  1
  Cr  Cr31  1  0.490140  0.193980  0.473856  1
  Cr  Cr32  1  0.011582  0.003986  0.232894  1
  Cr  Cr33  1  0.509860  0.806020  0.526144  1
  Cr  Cr34  1  0.791882  0.371841  0.612198  1
  Cr  Cr35  1  0.009860  0.193980  0.973856  1
  Cr  Cr36  1  0.490140  0.693980  0.026144  1
  Cr  Cr37  1  0.990140  0.806020  0.026144  1
  Cr  Cr38  1  0.990140  0.306020  0.473856  1
  Cr  Cr39  1  0.011582  0.503986  0.267106  1
  O  O40  1  0.349695  0.355657  0.976252  1
  O  O41  1  0.508803  0.676000  0.557024  1
  O  O42  1  0.491197  0.824000  0.057024  1
  O  O43  1  0.728913  0.276028  0.663474  1
  O  O44  1  0.667634  0.423890  0.564737  1
  O  O45  1  0.667634  0.923890  0.935263  1
  O  O46  1  0.445742  0.593469  0.705377  1
  O  O47  1  0.332366  0.576110  0.435263  1
  O  O48  1  0.419255  0.196711  0.562258  1
  O  O49  1  0.919255  0.803289  0.937742  1
  O  O50  1  0.554258  0.406531  0.294623  1
  O  O51  1  0.975502  0.127966  0.740340  1
  O  O52  1  0.349695  0.855657  0.523748  1
  O  O53  1  0.080745  0.196711  0.062258  1
  O  O54  1  0.109949  0.113014  0.925828  1
  O  O55  1  0.648956  0.530042  0.792052  1
  O  O56  1  0.054258  0.093469  0.294623  1
  O  O57  1  0.054258  0.593469  0.205377  1
  O  O58  1  0.135721  0.516839  0.339329  1
  O  O59  1  0.635721  0.483161  0.160671  1
  O  O60  1  0.167634  0.076110  0.564737  1
  O  O61  1  0.580745  0.303289  0.062258  1
  O  O62  1  0.851044  0.030042  0.207948  1
  O  O63  1  0.609949  0.386986  0.925828  1
  O  O64  1  0.991197  0.176000  0.442976  1
  O  O65  1  0.390051  0.613014  0.074172  1
  O  O66  1  0.135721  0.016839  0.160671  1
  O  O67  1  0.419255  0.696711  0.937742  1
  O  O68  1  0.364279  0.016839  0.660671  1
  O  O69  1  0.228913  0.723972  0.836526  1
  O  O70  1  0.771087  0.276028  0.163474  1
  O  O71  1  0.650305  0.644343  0.023748  1
  O  O72  1  0.150305  0.855657  0.023748  1
  O  O73  1  0.864279  0.983161  0.839329  1
  O  O74  1  0.524498  0.627966  0.259660  1
  O  O75  1  0.945742  0.406531  0.794623  1
  O  O76  1  0.008803  0.324000  0.942976  1
  O  O77  1  0.851044  0.530042  0.292052  1
  O  O78  1  0.635721  0.983161  0.339329  1
  O  O79  1  0.148956  0.469958  0.707948  1
  O  O80  1  0.975502  0.627966  0.759660  1
  O  O81  1  0.945742  0.906531  0.705377  1
  O  O82  1  0.024498  0.372034  0.240340  1
  O  O83  1  0.890051  0.386986  0.425828  1
  O  O84  1  0.008803  0.824000  0.557024  1
  O  O85  1  0.650305  0.144343  0.476253  1
  O  O86  1  0.271087  0.223972  0.163474  1
  O  O87  1  0.991197  0.676000  0.057024  1
  O  O88  1  0.332366  0.076110  0.064737  1
  O  O89  1  0.919255  0.303289  0.562258  1
  O  O90  1  0.771087  0.776028  0.336526  1
  O  O91  1  0.109949  0.613014  0.574172  1
  O  O92  1  0.351044  0.969958  0.292052  1
  O  O93  1  0.475502  0.372034  0.740340  1
  O  O94  1  0.648956  0.030042  0.707948  1
  O  O95  1  0.167634  0.576110  0.935263  1
  O  O96  1  0.228913  0.223972  0.663474  1
  O  O97  1  0.728913  0.776028  0.836526  1
  O  O98  1  0.024498  0.872034  0.259660  1
  O  O99  1  0.508803  0.176000  0.942976  1
  O  O100  1  0.832366  0.923890  0.435263  1
  O  O101  1  0.364279  0.516839  0.839329  1
  O  O102  1  0.080745  0.696711  0.437742  1
  O  O103  1  0.524498  0.127966  0.240340  1
  O  O104  1  0.390051  0.113014  0.425828  1
  O  O105  1  0.271087  0.723972  0.336526  1
  O  O106  1  0.849695  0.644343  0.523748  1
  O  O107  1  0.150305  0.355657  0.476253  1
  O  O108  1  0.148956  0.969958  0.792052  1
  O  O109  1  0.864279  0.483161  0.660671  1
  O  O110  1  0.351044  0.469958  0.207948  1
  O  O111  1  0.832366  0.423890  0.064737  1
  O  O112  1  0.554258  0.906531  0.205377  1
  O  O113  1  0.580745  0.803289  0.437742  1
  O  O114  1  0.445742  0.093469  0.794623  1
  O  O115  1  0.849695  0.144343  0.976252  1
  O  O116  1  0.491197  0.324000  0.442976  1
  O  O117  1  0.609949  0.886986  0.574172  1
  O  O118  1  0.475502  0.872034  0.759660  1
  O  O119  1  0.890051  0.886986  0.074172  1
