# generated using pymatgen
data_NdInAu
_symmetry_space_group_name_H-M   'P 1'
_cell_length_a   7.84093287
_cell_length_b   7.84166715
_cell_length_c   4.22161158
_cell_angle_alpha   90.03221962
_cell_angle_beta   89.90420921
_cell_angle_gamma   119.97018298
_symmetry_Int_Tables_number   1
_chemical_formula_structural   NdInAu
_chemical_formula_sum   'Nd3 In3 Au3'
_cell_volume   224.86135510
_cell_formula_units_Z   3
loop_
 _symmetry_equiv_pos_site_id
 _symmetry_equiv_pos_as_xyz
  1  'x, y, z'
loop_
 _atom_site_type_symbol
 _atom_site_label
 _atom_site_symmetry_multiplicity
 _atom_site_fract_x
 _atom_site_fract_y
 _atom_site_fract_z
 _atom_site_occupancy
  Nd  Nd0  1  0.000044  0.587418  0.500137  1
  Nd  Nd1  1  0.587320  -0.000054  0.500242  1
  Nd  Nd2  1  0.412590  0.412606  0.499695  1
  In  In3  1  -0.000061  0.251431  0.000005  1
  In  In4  1  0.251498  0.000111  0.000038  1
  In  In5  1  0.748582  0.748507  0.999957  1
  Au  Au6  1  -0.000056  -0.000026  0.499963  1
  Au  Au7  1  0.666719  0.333342  0.999930  1
  Au  Au8  1  0.333363  0.666664  0.000033  1
