# generated using pymatgen
data_ZrN6O17
_symmetry_space_group_name_H-M   'P 1'
_cell_length_a   13.97890794
_cell_length_b   13.97890792
_cell_length_c   16.63674532
_cell_angle_alpha   114.84225715
_cell_angle_beta   114.84225708
_cell_angle_gamma   90.00000201
_symmetry_Int_Tables_number   1
_chemical_formula_structural   ZrN6O17
_chemical_formula_sum   'Zr8 N48 O136'
_cell_volume   2614.96339175
_cell_formula_units_Z   8
loop_
 _symmetry_equiv_pos_site_id
 _symmetry_equiv_pos_as_xyz
  1  'x, y, z'
loop_
 _atom_site_type_symbol
 _atom_site_label
 _atom_site_symmetry_multiplicity
 _atom_site_fract_x
 _atom_site_fract_y
 _atom_site_fract_z
 _atom_site_occupancy
  Zr  Zr0  1  0.783462  0.214195  0.169292  1
  Zr  Zr1  1  0.614170  0.544904  0.830708  1
  Zr  Zr2  1  0.714195  0.885830  0.669292  1
  Zr  Zr3  1  0.216538  0.785805  0.830708  1
  Zr  Zr4  1  0.955096  0.283462  0.669292  1
  Zr  Zr5  1  0.044904  0.716538  0.330708  1
  Zr  Zr6  1  0.385830  0.455096  0.169292  1
  Zr  Zr7  1  0.285805  0.114170  0.330708  1
  N  N8  1  0.006506  0.492766  0.819113  1
  N  N9  1  0.383606  0.335254  0.455162  1
  N  N10  1  0.217325  0.752046  0.297771  1
  N  N11  1  0.919554  0.954275  0.702229  1
  N  N12  1  0.850872  0.776907  0.243541  1
  N  N13  1  0.880092  0.116394  0.044838  1
  N  N14  1  0.723093  0.107332  0.256459  1
  N  N15  1  0.545725  0.717325  0.797771  1
  N  N16  1  0.607332  0.033367  0.756459  1
  N  N17  1  0.426602  0.876501  0.979389  1
  N  N18  1  0.992766  0.312607  0.319113  1
  N  N19  1  0.211187  0.719502  0.077118  1
  N  N20  1  0.080446  0.045725  0.297771  1
  N  N21  1  0.993494  0.507234  0.180887  1
  N  N22  1  0.780498  0.634070  0.422882  1
  N  N23  1  0.276907  0.892668  0.743541  1
  N  N24  1  0.326347  0.506506  0.319113  1
  N  N25  1  0.219502  0.365930  0.577118  1
  N  N26  1  0.642384  0.288813  0.422882  1
  N  N27  1  0.454275  0.282675  0.202229  1
  N  N28  1  0.835254  0.571557  0.955162  1
  N  N29  1  0.747954  0.419554  0.202229  1
  N  N30  1  0.623499  0.947214  0.520611  1
  N  N31  1  0.187393  0.173653  0.180887  1
  N  N32  1  0.447214  0.397112  0.020611  1
  N  N33  1  0.007234  0.687393  0.680887  1
  N  N34  1  0.552786  0.602888  0.979389  1
  N  N35  1  0.812607  0.826347  0.819113  1
  N  N36  1  0.071557  0.619908  0.455162  1
  N  N37  1  0.119908  0.883606  0.955162  1
  N  N38  1  0.897112  0.073398  0.520611  1
  N  N39  1  0.357616  0.711187  0.577118  1
  N  N40  1  0.673653  0.493494  0.680887  1
  N  N41  1  0.376501  0.052786  0.479389  1
  N  N42  1  0.466633  0.350872  0.743541  1
  N  N43  1  0.134070  0.142384  0.922882  1
  N  N44  1  0.573398  0.123499  0.020611  1
  N  N45  1  0.102888  0.926602  0.479389  1
  N  N46  1  0.149128  0.223093  0.756459  1
  N  N47  1  0.788813  0.280498  0.922882  1
  N  N48  1  0.392668  0.966633  0.243541  1
  N  N49  1  0.533367  0.649128  0.256459  1
  N  N50  1  0.782675  0.247954  0.702229  1
  N  N51  1  0.164746  0.428443  0.044838  1
  N  N52  1  0.252046  0.580446  0.797771  1
  N  N53  1  0.928443  0.380092  0.544838  1
  N  N54  1  0.865930  0.857616  0.077118  1
  N  N55  1  0.616394  0.664746  0.544838  1
  O  O56  1  0.303808  0.944846  0.710921  1
  O  O57  1  0.444846  0.907112  0.210921  1
  O  O58  1  0.128478  0.019122  0.544149  1
  O  O59  1  0.876617  0.087162  0.108551  1
  O  O60  1  0.768065  0.478610  0.891449  1
  O  O61  1  0.254150  0.935716  0.818110  1
  O  O62  1  0.784187  0.871776  0.073738  1
  O  O63  1  0.415671  0.025027  0.544149  1
  O  O64  1  0.140663  0.194683  0.112023  1
  O  O65  1  0.559183  0.580260  0.290785  1
  O  O66  1  0.201962  0.284187  0.573738  1
  O  O67  1  0.947079  0.334177  0.244768  1
  O  O68  1  0.923517  0.566908  0.186907  1
  O  O69  1  0.051299  0.151816  0.919034  1
  O  O70  1  0.798038  0.715813  0.426262  1
  O  O71  1  0.404045  0.148768  0.492143  1
  O  O72  1  0.791555  0.651967  0.952033  1
  O  O73  1  0.351232  0.411902  0.007857  1
  O  O74  1  0.584329  0.974973  0.455851  1
  O  O75  1  0.742423  0.349155  0.118882  1
  O  O76  1  0.263391  0.119999  0.186907  1
  O  O77  1  0.399348  0.801706  0.888883  1
  O  O78  1  0.928978  0.580663  0.011312  1
  O  O79  1  0.628224  0.210449  0.426262  1
  O  O80  1  0.474973  0.371522  0.955851  1
  O  O81  1  0.731602  0.210525  0.290785  1
  O  O82  1  0.736609  0.880001  0.813093  1
  O  O83  1  0.082659  0.359337  0.387977  1
  O  O84  1  0.132265  0.732781  0.080966  1
  O  O85  1  0.499015  0.616381  0.734377  1
  O  O86  1  0.563960  0.382394  0.818110  1
  O  O87  1  0.348184  0.632265  0.580966  1
  O  O88  1  0.082334  0.930649  0.011312  1
  O  O89  1  0.150845  0.123541  0.381118  1
  O  O90  1  0.917341  0.640663  0.612023  1
  O  O91  1  0.555154  0.092888  0.789079  1
  O  O92  1  0.767219  0.551299  0.419034  1
  O  O93  1  0.696192  0.055154  0.289079  1
  O  O94  1  0.859337  0.805317  0.887977  1
  O  O95  1  0.710525  0.059183  0.790785  1
  O  O96  1  0.648768  0.588098  0.992143  1
  O  O97  1  0.978610  0.623383  0.391449  1
  O  O98  1  0.289551  0.701962  0.073738  1
  O  O99  1  0.848033  0.339522  0.547967  1
  O  O100  1  0.764637  0.382003  0.265623  1
  O  O101  1  0.291072  0.760103  0.278711  1
  O  O102  1  0.116381  0.735363  0.234377  1
  O  O103  1  0.656625  0.095955  0.007857  1
  O  O104  1  0.883619  0.264637  0.765623  1
  O  O105  1  0.080663  0.582334  0.511312  1
  O  O106  1  0.289475  0.940817  0.209215  1
  O  O107  1  0.933092  0.236609  0.313093  1
  O  O108  1  0.021390  0.376617  0.608551  1
  O  O109  1  0.076483  0.433092  0.813093  1
  O  O110  1  0.912822  0.100652  0.611117  1
  O  O111  1  0.619999  0.423517  0.686907  1
  O  O112  1  0.525027  0.628478  0.044149  1
  O  O113  1  0.430649  0.428978  0.511312  1
  O  O114  1  0.087178  0.899348  0.388883  1
  O  O115  1  0.231935  0.521390  0.108551  1
  O  O116  1  0.623541  0.730273  0.881118  1
  O  O117  1  0.481392  0.208928  0.221289  1
  O  O118  1  0.208445  0.348033  0.047967  1
  O  O119  1  0.699934  0.708445  0.547967  1
  O  O120  1  0.343375  0.904045  0.992143  1
  O  O121  1  0.839522  0.199934  0.047967  1
  O  O122  1  0.028640  0.582659  0.887977  1
  O  O123  1  0.071022  0.419337  0.988688  1
  O  O124  1  0.123383  0.912838  0.891449  1
  O  O125  1  0.233926  0.196192  0.789079  1
  O  O126  1  0.012361  0.981392  0.721289  1
  O  O127  1  0.257577  0.650845  0.881118  1
  O  O128  1  0.407112  0.266074  0.710921  1
  O  O129  1  0.268398  0.789475  0.709215  1
  O  O130  1  0.297690  0.410592  0.244768  1
  O  O131  1  0.510464  0.412822  0.111117  1
  O  O132  1  0.380001  0.576483  0.313093  1
  O  O133  1  0.708928  0.239897  0.721289  1
  O  O134  1  0.518608  0.791072  0.778711  1
  O  O135  1  0.371776  0.789551  0.573738  1
  O  O136  1  0.871522  0.980878  0.455851  1
  O  O137  1  0.910592  0.447079  0.744768  1
  O  O138  1  0.834177  0.797690  0.744768  1
  O  O139  1  0.919740  0.768398  0.209215  1
  O  O140  1  0.489536  0.587178  0.888883  1
  O  O141  1  0.698294  0.010464  0.611117  1
  O  O142  1  0.745850  0.064284  0.181890  1
  O  O143  1  0.710449  0.298038  0.926262  1
  O  O144  1  0.160478  0.800066  0.952033  1
  O  O145  1  0.867735  0.267219  0.919034  1
  O  O146  1  0.919337  0.417666  0.488688  1
  O  O147  1  0.232781  0.448701  0.580966  1
  O  O148  1  0.519122  0.915671  0.044149  1
  O  O149  1  0.766074  0.803808  0.210921  1
  O  O150  1  0.435716  0.063960  0.318110  1
  O  O151  1  0.971360  0.417341  0.112023  1
  O  O152  1  0.500985  0.383619  0.265623  1
  O  O153  1  0.300066  0.291555  0.452033  1
  O  O154  1  0.089408  0.552921  0.255232  1
  O  O155  1  0.569351  0.571022  0.488688  1
  O  O156  1  0.948701  0.848184  0.080966  1
  O  O157  1  0.987639  0.018608  0.278711  1
  O  O158  1  0.165823  0.202310  0.255232  1
  O  O159  1  0.849155  0.876459  0.618882  1
  O  O160  1  0.440817  0.419740  0.709215  1
  O  O161  1  0.769727  0.242423  0.618882  1
  O  O162  1  0.600652  0.198294  0.111117  1
  O  O163  1  0.882003  0.000985  0.765623  1
  O  O164  1  0.702310  0.589408  0.755232  1
  O  O165  1  0.260103  0.487639  0.778711  1
  O  O166  1  0.480878  0.084329  0.955851  1
  O  O167  1  0.080260  0.231602  0.790785  1
  O  O168  1  0.066908  0.763391  0.686907  1
  O  O169  1  0.911902  0.156625  0.507857  1
  O  O170  1  0.117997  0.999015  0.234377  1
  O  O171  1  0.052921  0.665823  0.755232  1
  O  O172  1  0.592888  0.733926  0.289079  1
  O  O173  1  0.230273  0.757577  0.381118  1
  O  O174  1  0.301706  0.989536  0.388883  1
  O  O175  1  0.305317  0.528640  0.387977  1
  O  O176  1  0.882394  0.754150  0.318110  1
  O  O177  1  0.739897  0.512361  0.221289  1
  O  O178  1  0.564284  0.936040  0.681890  1
  O  O179  1  0.694683  0.471360  0.612023  1
  O  O180  1  0.917666  0.069351  0.988688  1
  O  O181  1  0.235363  0.617997  0.734377  1
  O  O182  1  0.436040  0.617606  0.181890  1
  O  O183  1  0.151967  0.660478  0.452033  1
  O  O184  1  0.412838  0.268065  0.391449  1
  O  O185  1  0.215813  0.128224  0.926262  1
  O  O186  1  0.587162  0.731935  0.608551  1
  O  O187  1  0.595955  0.851232  0.507857  1
  O  O188  1  0.376459  0.269727  0.118882  1
  O  O189  1  0.088098  0.843375  0.492143  1
  O  O190  1  0.651816  0.367735  0.419034  1
  O  O191  1  0.117606  0.245850  0.681890  1
