# generated using pymatgen
data_ZnH12C2S2(N3O4)2
_symmetry_space_group_name_H-M   'P 1'
_cell_length_a   10.01332818
_cell_length_b   10.01332818
_cell_length_c   10.01332818
_cell_angle_alpha   121.83651165
_cell_angle_beta   121.83651165
_cell_angle_gamma   86.84745320
_symmetry_Int_Tables_number   1
_chemical_formula_structural   ZnH12C2S2(N3O4)2
_chemical_formula_sum   'Zn2 H24 C4 S4 N12 O16'
_cell_volume   689.09606523
_cell_formula_units_Z   2
loop_
 _symmetry_equiv_pos_site_id
 _symmetry_equiv_pos_as_xyz
  1  'x, y, z'
loop_
 _atom_site_type_symbol
 _atom_site_label
 _atom_site_symmetry_multiplicity
 _atom_site_fract_x
 _atom_site_fract_y
 _atom_site_fract_z
 _atom_site_occupancy
  Zn  Zn0  1  0.750000  0.250000  0.500000  1
  Zn  Zn1  1  0.000000  0.000000  0.000000  1
  H  H2  1  0.878327  0.862886  0.389250  1
  H  H3  1  0.276365  0.387114  0.515441  1
  H  H4  1  0.473635  0.489077  0.610750  1
  H  H5  1  0.871673  0.760923  0.484559  1
  H  H6  1  0.510923  0.121673  0.984559  1
  H  H7  1  0.612886  0.128327  0.889250  1
  H  H8  1  0.137114  0.526365  0.015441  1
  H  H9  1  0.239077  0.723635  0.110750  1
  H  H10  1  0.864224  0.511606  -0.000001  1
  H  H11  1  0.238393  0.738394  0.852618  1
  H  H12  1  0.511607  0.864225  0.000001  1
  H  H13  1  0.885776  0.385775  0.147382  1
  H  H14  1  0.135775  0.135776  0.647382  1
  H  H15  1  0.261606  0.114224  0.499999  1
  H  H16  1  0.488394  0.488393  0.352618  1
  H  H17  1  0.614225  0.761607  0.500001  1
  H  H18  1  0.892319  0.725663  0.125157  1
  H  H19  1  0.149494  0.524337  0.666656  1
  H  H20  1  0.600506  0.767161  0.874843  1
  H  H21  1  0.857681  0.482839  0.333344  1
  H  H22  1  0.232839  0.107681  0.833344  1
  H  H23  1  0.475663  0.142319  0.625157  1
  H  H24  1  0.274337  0.399494  0.166656  1
  H  H25  1  0.517161  0.850506  0.374843  1
  C  C26  1  0.875000  0.621146  0.246146  1
  C  C27  1  0.375000  0.628854  0.753854  1
  C  C28  1  0.371146  0.125000  0.746146  1
  C  C29  1  0.378854  0.625000  0.253854  1
  S  S30  1  0.907512  0.125000  0.282512  1
  S  S31  1  0.842488  0.625000  0.717488  1
  S  S32  1  0.375000  0.092488  0.217488  1
  S  S33  1  0.875000  0.157512  0.782512  1
  N  N34  1  0.875000  0.758717  0.383717  1
  N  N35  1  0.375000  0.491283  0.616283  1
  N  N36  1  0.508717  0.125000  0.883717  1
  N  N37  1  0.241283  0.625000  0.116283  1
  N  N38  1  0.878726  0.619274  0.113966  1
  N  N39  1  0.244692  0.630726  0.759453  1
  N  N40  1  0.505308  0.764760  0.886034  1
  N  N41  1  0.871274  0.485240  0.240547  1
  N  N42  1  0.235240  0.121274  0.740547  1
  N  N43  1  0.369274  0.128726  0.613966  1
  N  N44  1  0.380726  0.494692  0.259453  1
  N  N45  1  0.514760  0.755308  0.386034  1
  O  O46  1  0.749635  0.145364  0.267749  1
  O  O47  1  0.872385  0.104636  0.104272  1
  O  O48  1  0.877615  0.481886  0.732251  1
  O  O49  1  0.000365  0.768114  0.895728  1
  O  O50  1  0.518114  0.250365  0.395728  1
  O  O51  1  0.895364  0.999635  0.767749  1
  O  O52  1  0.854636  0.122385  0.604272  1
  O  O53  1  0.231886  0.127615  0.232251  1
  O  O54  1  0.047489  0.274342  0.462278  1
  O  O55  1  0.937936  0.975658  0.273147  1
  O  O56  1  0.812064  0.585210  0.537722  1
  O  O57  1  0.702511  0.664790  0.726853  1
  O  O58  1  0.414790  0.952511  0.226853  1
  O  O59  1  0.024342  0.297489  0.962278  1
  O  O60  1  0.725658  0.187936  0.773147  1
  O  O61  1  0.335210  0.062064  0.037722  1
