# generated using pymatgen
data_K3Fe(CN)6
_symmetry_space_group_name_H-M   'P 1'
_cell_length_a   8.39330572
_cell_length_b   10.41579497
_cell_length_c   13.44090379
_cell_angle_alpha   90.00000000
_cell_angle_beta   90.00000000
_cell_angle_gamma   90.00000000
_symmetry_Int_Tables_number   1
_chemical_formula_structural   K3Fe(CN)6
_chemical_formula_sum   'K12 Fe4 C24 N24'
_cell_volume   1175.04348015
_cell_formula_units_Z   4
loop_
 _symmetry_equiv_pos_site_id
 _symmetry_equiv_pos_as_xyz
  1  'x, y, z'
loop_
 _atom_site_type_symbol
 _atom_site_label
 _atom_site_symmetry_multiplicity
 _atom_site_fract_x
 _atom_site_fract_y
 _atom_site_fract_z
 _atom_site_occupancy
  K  K0  1  0.626525  0.000000  0.250000  1
  K  K1  1  0.125880  0.269818  0.998705  1
  K  K2  1  0.625880  0.230182  0.998705  1
  K  K3  1  0.373475  0.000000  0.750000  1
  K  K4  1  0.874120  0.730182  0.001295  1
  K  K5  1  0.374120  0.769818  0.001295  1
  K  K6  1  0.625880  0.769818  0.501295  1
  K  K7  1  0.126525  0.500000  0.250000  1
  K  K8  1  0.873475  0.500000  0.750000  1
  K  K9  1  0.374120  0.230182  0.498705  1
  K  K10  1  0.125880  0.730182  0.501295  1
  K  K11  1  0.874120  0.269818  0.498705  1
  Fe  Fe12  1  0.376588  0.500000  0.750000  1
  Fe  Fe13  1  0.623412  0.500000  0.250000  1
  Fe  Fe14  1  0.876588  0.000000  0.750000  1
  Fe  Fe15  1  0.123412  0.000000  0.250000  1
  C  C16  1  0.376308  0.667038  0.689619  1
  C  C17  1  0.536262  0.554060  0.844166  1
  C  C18  1  0.536262  0.445940  0.655834  1
  C  C19  1  0.963738  0.054060  0.155834  1
  C  C20  1  0.785763  0.447911  0.157658  1
  C  C21  1  0.123692  0.167038  0.310381  1
  C  C22  1  0.785763  0.552089  0.342342  1
  C  C23  1  0.214237  0.447911  0.657658  1
  C  C24  1  0.714237  0.052089  0.657658  1
  C  C25  1  0.214237  0.552089  0.842342  1
  C  C26  1  0.714237  0.947911  0.842342  1
  C  C27  1  0.036262  0.054060  0.655834  1
  C  C28  1  0.463738  0.554060  0.344166  1
  C  C29  1  0.036262  0.945940  0.844166  1
  C  C30  1  0.376308  0.332962  0.810381  1
  C  C31  1  0.623692  0.332962  0.310381  1
  C  C32  1  0.463738  0.445940  0.155834  1
  C  C33  1  0.285763  0.947911  0.342342  1
  C  C34  1  0.876308  0.167038  0.810381  1
  C  C35  1  0.285763  0.052089  0.157658  1
  C  C36  1  0.623692  0.667038  0.189619  1
  C  C37  1  0.123692  0.832962  0.189619  1
  C  C38  1  0.876308  0.832962  0.689619  1
  C  C39  1  0.963738  0.945940  0.344166  1
  N  N40  1  0.379765  0.231833  0.849509  1
  N  N41  1  0.386925  0.083590  0.102042  1
  N  N42  1  0.136448  0.087973  0.600347  1
  N  N43  1  0.879765  0.268167  0.849509  1
  N  N44  1  0.886925  0.583590  0.397958  1
  N  N45  1  0.886925  0.416410  0.102042  1
  N  N46  1  0.363552  0.587973  0.399653  1
  N  N47  1  0.636448  0.412027  0.600347  1
  N  N48  1  0.386925  0.916410  0.397958  1
  N  N49  1  0.120235  0.731833  0.150491  1
  N  N50  1  0.879765  0.731833  0.650491  1
  N  N51  1  0.136448  0.912027  0.899653  1
  N  N52  1  0.613075  0.916410  0.897958  1
  N  N53  1  0.363552  0.412027  0.100347  1
  N  N54  1  0.863552  0.087973  0.100347  1
  N  N55  1  0.863552  0.912027  0.399653  1
  N  N56  1  0.113075  0.416410  0.602042  1
  N  N57  1  0.113075  0.583590  0.897958  1
  N  N58  1  0.379765  0.768167  0.650491  1
  N  N59  1  0.120235  0.268167  0.349509  1
  N  N60  1  0.620235  0.231833  0.349509  1
  N  N61  1  0.613075  0.083590  0.602042  1
  N  N62  1  0.620235  0.768167  0.150491  1
  N  N63  1  0.636448  0.587973  0.899653  1
