# generated using pymatgen
data_Mo2H12C4N2O15
_symmetry_space_group_name_H-M   'P 1'
_cell_length_a   7.55870308
_cell_length_b   9.55938059
_cell_length_c   17.20302967
_cell_angle_alpha   90.00000000
_cell_angle_beta   90.00000000
_cell_angle_gamma   99.54907344
_symmetry_Int_Tables_number   1
_chemical_formula_structural   Mo2H12C4N2O15
_chemical_formula_sum   'Mo4 H24 C8 N4 O30'
_cell_volume   1225.80745862
_cell_formula_units_Z   2
loop_
 _symmetry_equiv_pos_site_id
 _symmetry_equiv_pos_as_xyz
  1  'x, y, z'
loop_
 _atom_site_type_symbol
 _atom_site_label
 _atom_site_symmetry_multiplicity
 _atom_site_fract_x
 _atom_site_fract_y
 _atom_site_fract_z
 _atom_site_occupancy
  Mo  Mo0  1  0.879240  0.383302  0.898171  1
  Mo  Mo1  1  0.120760  0.616698  0.101829  1
  Mo  Mo2  1  0.620760  0.616698  0.398171  1
  Mo  Mo3  1  0.379240  0.383302  0.601829  1
  H  H4  1  0.932928  0.157239  0.970285  1
  H  H5  1  0.541739  0.006250  0.512454  1
  H  H6  1  0.067072  0.842761  0.029715  1
  H  H7  1  0.600926  0.959355  0.892785  1
  H  H8  1  0.945009  0.225842  0.548241  1
  H  H9  1  0.399074  0.040645  0.107215  1
  H  H10  1  0.100926  0.959355  0.607215  1
  H  H11  1  0.163507  0.067347  0.127527  1
  H  H12  1  0.899074  0.040645  0.392785  1
  H  H13  1  0.054991  0.774158  0.451759  1
  H  H14  1  0.836493  0.932653  0.872473  1
  H  H15  1  0.663507  0.067347  0.372473  1
  H  H16  1  0.445009  0.225842  0.951759  1
  H  H17  1  0.859969  0.284689  0.477914  1
  H  H18  1  0.041739  0.006250  0.987546  1
  H  H19  1  0.554991  0.774158  0.048241  1
  H  H20  1  0.567072  0.842761  0.470285  1
  H  H21  1  0.640031  0.715311  0.977914  1
  H  H22  1  0.359969  0.284689  0.022086  1
  H  H23  1  0.336493  0.932653  0.627527  1
  H  H24  1  0.432928  0.157239  0.529715  1
  H  H25  1  0.140031  0.715311  0.522086  1
  H  H26  1  0.958261  0.993750  0.012454  1
  H  H27  1  0.458261  0.993750  0.487546  1
  C  C28  1  0.246436  0.105078  0.692671  1
  C  C29  1  0.775712  0.012911  0.359164  1
  C  C30  1  0.275712  0.012911  0.140836  1
  C  C31  1  0.746436  0.105078  0.807329  1
  C  C32  1  0.753564  0.894922  0.307329  1
  C  C33  1  0.253564  0.894922  0.192671  1
  C  C34  1  0.224288  0.987089  0.640836  1
  C  C35  1  0.724288  0.987089  0.859164  1
  N  N36  1  0.845946  0.756126  0.615840  1
  N  N37  1  0.154054  0.243874  0.384160  1
  N  N38  1  0.345946  0.756126  0.884160  1
  N  N39  1  0.654054  0.243874  0.115840  1
  O  O40  1  0.829470  0.193516  0.949915  1
  O  O41  1  0.115837  0.384920  0.962281  1
  O  O42  1  0.139747  0.803860  0.493740  1
  O  O43  1  0.329470  0.193516  0.550085  1
  O  O44  1  0.319663  0.554107  0.085455  1
  O  O45  1  0.490113  0.481148  0.676879  1
  O  O46  1  0.190213  0.993252  0.735590  1
  O  O47  1  0.990113  0.481148  0.823121  1
  O  O48  1  0.884163  0.615080  0.037719  1
  O  O49  1  0.716088  0.766336  0.296928  1
  O  O50  1  0.309787  0.006748  0.235590  1
  O  O51  1  0.783912  0.233664  0.796928  1
  O  O52  1  0.283912  0.233664  0.703072  1
  O  O53  1  0.690213  0.993252  0.764410  1
  O  O54  1  0.170530  0.806484  0.050085  1
  O  O55  1  0.670530  0.806484  0.449915  1
  O  O56  1  0.860253  0.196140  0.506260  1
  O  O57  1  0.819663  0.554107  0.414545  1
  O  O58  1  0.384163  0.615080  0.462281  1
  O  O59  1  0.500000  0.500000  0.500000  1
  O  O60  1  0.809787  0.006748  0.264410  1
  O  O61  1  0.216088  0.766336  0.203072  1
  O  O62  1  0.639747  0.803860  0.006260  1
  O  O63  1  0.009887  0.518852  0.176879  1
  O  O64  1  0.615837  0.384920  0.537719  1
  O  O65  1  0.360253  0.196140  0.993740  1
  O  O66  1  0.000000  0.500000  0.000000  1
  O  O67  1  0.180337  0.445893  0.585455  1
  O  O68  1  0.680337  0.445893  0.914545  1
  O  O69  1  0.509887  0.518852  0.323121  1
