# generated using pymatgen
data_Ca2MgAl2(SiO4)3
_symmetry_space_group_name_H-M   'P 1'
_cell_length_a   10.65003167
_cell_length_b   6.59389305
_cell_length_c   6.61590661
_cell_angle_alpha   84.05136207
_cell_angle_beta   78.35291342
_cell_angle_gamma   77.58956463
_symmetry_Int_Tables_number   1
_chemical_formula_structural   Ca2MgAl2(SiO4)3
_chemical_formula_sum   'Ca4 Mg2 Al4 Si6 O24'
_cell_volume   443.52159415
_cell_formula_units_Z   2
loop_
 _symmetry_equiv_pos_site_id
 _symmetry_equiv_pos_as_xyz
  1  'x, y, z'
loop_
 _atom_site_type_symbol
 _atom_site_label
 _atom_site_symmetry_multiplicity
 _atom_site_fract_x
 _atom_site_fract_y
 _atom_site_fract_z
 _atom_site_occupancy
  Ca  Ca0  1  0.121435  0.696872  0.300274  1
  Ca  Ca1  1  0.378565  0.303128  0.699726  1
  Ca  Ca2  1  0.626830  0.690579  0.309259  1
  Ca  Ca3  1  0.873170  0.309421  0.690741  1
  Mg  Mg4  1  0.124512  0.095481  0.905942  1
  Mg  Mg5  1  0.375488  0.904519  0.094058  1
  Al  Al6  1  0.640887  0.186849  0.387454  1
  Al  Al7  1  0.628731  0.090537  0.912193  1
  Al  Al8  1  0.871269  0.909463  0.087807  1
  Al  Al9  1  0.859113  0.813151  0.612546  1
  Si  Si10  1  0.136418  0.192089  0.376279  1
  Si  Si11  1  0.111383  0.620468  0.803353  1
  Si  Si12  1  0.388617  0.379532  0.196647  1
  Si  Si13  1  0.363582  0.807911  0.623721  1
  Si  Si14  1  0.612916  0.615233  0.810455  1
  Si  Si15  1  0.887084  0.384767  0.189545  1
  O  O16  1  0.008196  0.376157  0.319159  1
  O  O17  1  0.085054  0.112410  0.610946  1
  O  O18  1  0.180599  0.023237  0.201691  1
  O  O19  1  0.056510  0.804695  0.968800  1
  O  O20  1  0.163375  0.389135  0.894265  1
  O  O21  1  0.254351  0.326300  0.367051  1
  O  O22  1  0.245649  0.673700  0.632949  1
  O  O23  1  0.336625  0.610865  0.105735  1
  O  O24  1  0.443490  0.195305  0.031200  1
  O  O25  1  0.319401  0.976763  0.798309  1
  O  O26  1  0.414946  0.887590  0.389054  1
  O  O27  1  0.496807  0.375115  0.343896  1
  O  O28  1  0.491804  0.623843  0.680841  1
  O  O29  1  0.594639  0.108593  0.646669  1
  O  O30  1  0.686640  0.020520  0.179624  1
  O  O31  1  0.573490  0.799573  0.973148  1
  O  O32  1  0.656518  0.376206  0.899307  1
  O  O33  1  0.761440  0.342102  0.369629  1
  O  O34  1  0.738560  0.657898  0.630371  1
  O  O35  1  0.843482  0.623794  0.100693  1
  O  O36  1  0.926510  0.200427  0.026852  1
  O  O37  1  0.813360  0.979480  0.820376  1
  O  O38  1  0.905361  0.891407  0.353331  1
  O  O39  1  0.003193  0.624885  0.656104  1
