# generated using pymatgen
data_NaMgFe(SO4)3
_symmetry_space_group_name_H-M   'P 1'
_cell_length_a   8.60403231
_cell_length_b   8.62718937
_cell_length_c   8.94437465
_cell_angle_alpha   61.11084277
_cell_angle_beta   61.17129257
_cell_angle_gamma   60.10586678
_symmetry_Int_Tables_number   1
_chemical_formula_structural   NaMgFe(SO4)3
_chemical_formula_sum   'Na2 Mg2 Fe2 S6 O24'
_cell_volume   477.79628250
_cell_formula_units_Z   2
loop_
 _symmetry_equiv_pos_site_id
 _symmetry_equiv_pos_as_xyz
  1  'x, y, z'
loop_
 _atom_site_type_symbol
 _atom_site_label
 _atom_site_symmetry_multiplicity
 _atom_site_fract_x
 _atom_site_fract_y
 _atom_site_fract_z
 _atom_site_occupancy
  Na  Na0  1  0.001288  0.500956  0.997110  1
  Na  Na1  1  0.501158  0.000516  0.497123  1
  Mg  Mg2  1  0.146051  0.645369  0.557607  1
  Mg  Mg3  1  0.651133  0.145395  0.057760  1
  Fe  Fe4  1  0.347830  0.852450  0.947292  1
  Fe  Fe5  1  0.852145  0.352785  0.447127  1
  S  S6  1  0.247854  0.042478  0.252056  1
  S  S7  1  0.046367  0.248228  0.752911  1
  S  S8  1  0.541347  0.456679  0.252634  1
  S  S9  1  0.457855  0.542318  0.752097  1
  S  S10  1  0.952488  0.748054  0.252771  1
  S  S11  1  0.749300  0.956788  0.752402  1
  O  O12  1  0.079653  0.220506  0.264235  1
  O  O13  1  0.280498  0.017181  0.083399  1
  O  O14  1  0.013385  0.290772  0.585040  1
  O  O15  1  0.111091  0.790055  0.084644  1
  O  O16  1  0.412257  0.067549  0.237780  1
  O  O17  1  0.226814  0.081483  0.756207  1
  O  O18  1  0.071196  0.410424  0.743191  1
  O  O19  1  0.569120  0.283893  0.233004  1
  O  O20  1  0.385442  0.484877  0.416145  1
  O  O21  1  0.210995  0.882401  0.410203  1
  O  O22  1  0.504457  0.622392  0.089504  1
  O  O23  1  0.282534  0.566465  0.738635  1
  O  O24  1  0.721073  0.438872  0.258549  1
  O  O25  1  0.497268  0.382517  0.909728  1
  O  O26  1  0.783210  0.122708  0.588984  1
  O  O27  1  0.619037  0.517889  0.582746  1
  O  O28  1  0.435369  0.720784  0.763868  1
  O  O29  1  0.934669  0.581671  0.256148  1
  O  O30  1  0.775688  0.910496  0.243497  1
  O  O31  1  0.581539  0.938092  0.759162  1
  O  O32  1  0.892106  0.204234  0.914616  1
  O  O33  1  0.989859  0.703336  0.414215  1
  O  O34  1  0.713681  0.985095  0.915536  1
  O  O35  1  0.914243  0.784296  0.732076  1
