# generated using pymatgen
data_Ce3Si2S8Br
_symmetry_space_group_name_H-M   'P 1'
_cell_length_a   7.78009092
_cell_length_b   8.81677361
_cell_length_c   10.99693016
_cell_angle_alpha   96.69356541
_cell_angle_beta   90.00000000
_cell_angle_gamma   116.18108605
_symmetry_Int_Tables_number   1
_chemical_formula_structural   Ce3Si2S8Br
_chemical_formula_sum   'Ce6 Si4 S16 Br2'
_cell_volume   671.21139336
_cell_formula_units_Z   2
loop_
 _symmetry_equiv_pos_site_id
 _symmetry_equiv_pos_as_xyz
  1  'x, y, z'
loop_
 _atom_site_type_symbol
 _atom_site_label
 _atom_site_symmetry_multiplicity
 _atom_site_fract_x
 _atom_site_fract_y
 _atom_site_fract_z
 _atom_site_occupancy
  Ce  Ce0  1  0.391717  0.000000  0.750000  1
  Ce  Ce1  1  0.314890  0.390365  0.183908  1
  Ce  Ce2  1  0.685110  0.609635  0.816092  1
  Ce  Ce3  1  0.075475  0.390365  0.683908  1
  Ce  Ce4  1  0.924525  0.609635  0.316092  1
  Ce  Ce5  1  0.608283  0.000000  0.250000  1
  Si  Si6  1  0.372436  0.680173  0.470218  1
  Si  Si7  1  0.692264  0.319827  0.029782  1
  Si  Si8  1  0.307736  0.680173  0.970218  1
  Si  Si9  1  0.627564  0.319827  0.529782  1
  S  S10  1  0.445678  0.702077  0.660547  1
  S  S11  1  0.892010  0.289104  0.143912  1
  S  S12  1  0.143074  0.432252  0.414352  1
  S  S13  1  0.602905  0.710896  0.356088  1
  S  S14  1  0.856926  0.567748  0.585648  1
  S  S15  1  0.743600  0.297923  0.839453  1
  S  S16  1  0.289177  0.432252  0.914352  1
  S  S17  1  0.397095  0.289104  0.643912  1
  S  S18  1  0.554322  0.297923  0.339453  1
  S  S19  1  0.710823  0.567748  0.085648  1
  S  S20  1  0.592040  0.868088  0.952511  1
  S  S21  1  0.276047  0.868088  0.452511  1
  S  S22  1  0.723953  0.131912  0.547489  1
  S  S23  1  0.256400  0.702077  0.160547  1
  S  S24  1  0.107990  0.710896  0.856088  1
  S  S25  1  0.407960  0.131912  0.047489  1
  Br  Br26  1  0.007590  0.000000  0.250000  1
  Br  Br27  1  0.992410  0.000000  0.750000  1
