# generated using pymatgen
data_FeCu3S8
_symmetry_space_group_name_H-M   'P 1'
_cell_length_a   5.87252104
_cell_length_b   5.87346769
_cell_length_c   11.68631423
_cell_angle_alpha   89.87473981
_cell_angle_beta   90.00000000
_cell_angle_gamma   90.00000000
_symmetry_Int_Tables_number   1
_chemical_formula_structural   FeCu3S8
_chemical_formula_sum   'Fe2 Cu6 S16'
_cell_volume   403.08411891
_cell_formula_units_Z   2
loop_
 _symmetry_equiv_pos_site_id
 _symmetry_equiv_pos_as_xyz
  1  'x, y, z'
loop_
 _atom_site_type_symbol
 _atom_site_label
 _atom_site_symmetry_multiplicity
 _atom_site_fract_x
 _atom_site_fract_y
 _atom_site_fract_z
 _atom_site_occupancy
  Cu  Cu0  1  0.002288  0.002650  0.999736  1
  Cu  Cu1  1  0.997712  0.997350  0.500264  1
  Cu  Cu2  1  0.000000  0.500000  0.250000  1
  Cu  Cu3  1  0.502288  0.497350  0.000264  1
  Cu  Cu4  1  0.500000  0.000000  0.750000  1
  Cu  Cu5  1  0.497712  0.502650  0.499736  1
  Fe  Fe6  1  0.000000  0.500000  0.750000  1
  Fe  Fe7  1  0.500000  0.000000  0.250000  1
  S  S8  1  0.094234  0.898014  0.197003  1
  S  S9  1  0.103905  0.906684  0.697333  1
  S  S10  1  0.100391  0.601022  0.448112  1
  S  S11  1  0.105069  0.603578  0.955250  1
  S  S12  1  0.396095  0.406684  0.197333  1
  S  S13  1  0.394931  0.103578  0.455250  1
  S  S14  1  0.399609  0.101022  0.948112  1
  S  S15  1  0.405766  0.398014  0.697003  1
  S  S16  1  0.603905  0.593316  0.302667  1
  S  S17  1  0.594234  0.601986  0.802997  1
  S  S18  1  0.605069  0.896422  0.044750  1
  S  S19  1  0.600391  0.898978  0.551888  1
  S  S20  1  0.899609  0.398978  0.051888  1
  S  S21  1  0.894931  0.396422  0.544750  1
  S  S22  1  0.905766  0.101986  0.302997  1
  S  S23  1  0.896095  0.093316  0.802667  1
