# generated using pymatgen
data_MnC4NO5
_symmetry_space_group_name_H-M   'P 1'
_cell_length_a   6.72588082
_cell_length_b   6.76407768
_cell_length_c   9.55501311
_cell_angle_alpha   105.57213206
_cell_angle_beta   90.00000000
_cell_angle_gamma   119.81337334
_symmetry_Int_Tables_number   1
_chemical_formula_structural   MnC4NO5
_chemical_formula_sum   'Mn2 C8 N2 O10'
_cell_volume   358.65978421
_cell_formula_units_Z   2
loop_
 _symmetry_equiv_pos_site_id
 _symmetry_equiv_pos_as_xyz
  1  'x, y, z'
loop_
 _atom_site_type_symbol
 _atom_site_label
 _atom_site_symmetry_multiplicity
 _atom_site_fract_x
 _atom_site_fract_y
 _atom_site_fract_z
 _atom_site_occupancy
  Mn  Mn0  1  0.149991  0.000000  0.750000  1
  Mn  Mn1  1  0.850009  0.000000  0.250000  1
  C  C2  1  0.294596  0.264300  0.681831  1
  C  C3  1  0.618718  0.835963  0.089749  1
  C  C4  1  0.782755  0.164037  0.410251  1
  C  C5  1  0.381282  0.164037  0.910251  1
  C  C6  1  0.030296  0.735700  0.818169  1
  C  C7  1  0.969704  0.264300  0.181831  1
  C  C8  1  0.705404  0.735700  0.318169  1
  C  C9  1  0.217245  0.835963  0.589749  1
  N  N10  1  0.101594  0.000000  0.250000  1
  N  N11  1  0.898406  0.000000  0.750000  1
  O  O12  1  0.276800  0.000000  0.250000  1
  O  O13  1  0.250244  0.730545  0.483726  1
  O  O14  1  0.053343  0.427176  0.137600  1
  O  O15  1  0.946657  0.572824  0.862400  1
  O  O16  1  0.519699  0.269455  0.016274  1
  O  O17  1  0.373833  0.427176  0.637600  1
  O  O18  1  0.626167  0.572824  0.362400  1
  O  O19  1  0.480301  0.730545  0.983726  1
  O  O20  1  0.723200  0.000000  0.750000  1
  O  O21  1  0.749756  0.269455  0.516274  1
