# generated using pymatgen
data_BaNa5LiCo5F18
_symmetry_space_group_name_H-M   'P 1'
_cell_length_a   6.93605685
_cell_length_b   6.92269465
_cell_length_c   20.76491627
_cell_angle_alpha   109.46209951
_cell_angle_beta   109.50211057
_cell_angle_gamma   109.45816437
_symmetry_Int_Tables_number   1
_chemical_formula_structural   BaNa5LiCo5F18
_chemical_formula_sum   'Ba2 Na10 Li2 Co10 F36'
_cell_volume   767.44868981
_cell_formula_units_Z   2
loop_
 _symmetry_equiv_pos_site_id
 _symmetry_equiv_pos_as_xyz
  1  'x, y, z'
loop_
 _atom_site_type_symbol
 _atom_site_label
 _atom_site_symmetry_multiplicity
 _atom_site_fract_x
 _atom_site_fract_y
 _atom_site_fract_z
 _atom_site_occupancy
  Ba  Ba0  1  0.997387  0.000313  0.998083  1
  Ba  Ba1  1  0.002609  0.005190  0.335126  1
  Na  Na2  1  0.496469  0.505889  0.665639  1
  Na  Na3  1  0.507386  0.026357  0.838106  1
  Na  Na4  1  0.993079  0.493260  0.833673  1
  Na  Na5  1  0.489161  0.506699  0.331784  1
  Na  Na6  1  0.998936  0.011295  0.666808  1
  Na  Na7  1  0.497312  0.992135  0.498454  1
  Na  Na8  1  0.488054  0.504333  0.997040  1
  Na  Na9  1  0.011941  0.523036  0.497911  1
  Na  Na10  1  0.505022  0.020399  0.171460  1
  Na  Na11  1  0.007707  0.512962  0.165444  1
  Li  Li12  1  -0.000614  0.503459  0.333446  1
  Li  Li13  1  0.000561  0.503790  0.000338  1
  Co  Co14  1  0.499833  0.005985  0.667327  1
  Co  Co15  1  0.493860  0.498103  0.830358  1
  Co  Co16  1  0.998591  0.003753  0.166136  1
  Co  Co17  1  0.502195  0.006191  0.334685  1
  Co  Co18  1  0.995826  0.002615  0.829617  1
  Co  Co19  1  0.507784  0.512246  0.503106  1
  Co  Co20  1  0.001091  0.506714  0.666947  1
  Co  Co21  1  0.003973  0.007663  0.503766  1
  Co  Co22  1  0.499638  0.504503  0.166031  1
  Co  Co23  1  0.498679  0.004071  0.998775  1
  F  F24  1  0.203952  0.721263  0.969034  1
  F  F25  1  0.094857  0.808797  0.762484  1
  F  F26  1  0.191815  0.289156  0.825295  1
  F  F27  1  0.509425  0.804875  0.900556  1
  F  F28  1  0.289416  0.097434  0.931860  1
  F  F29  1  0.198827  0.709351  0.634427  1
  F  F30  1  0.287174  0.487643  0.730982  1
  F  F31  1  0.090023  0.811030  0.433350  1
  F  F32  1  0.200264  0.299496  0.498835  1
  F  F33  1  0.699223  0.512817  0.929671  1
  F  F34  1  0.514210  0.810491  0.571447  1
  F  F35  1  0.704446  0.909140  0.730896  1
  F  F36  1  0.488940  0.199075  0.762496  1
  F  F37  1  0.292843  0.099803  0.602379  1
  F  F38  1  0.207353  0.722992  0.304208  1
  F  F39  1  0.296821  0.496208  0.404215  1
  F  F40  1  0.798918  0.708814  0.834209  1
  F  F41  1  0.091312  0.813476  0.098645  1
  F  F42  1  0.913394  0.198073  0.901189  1
  F  F43  1  0.709466  0.517654  0.601212  1
  F  F44  1  0.195831  0.296359  0.162470  1
  F  F45  1  0.512606  0.809426  0.236970  1
  F  F46  1  0.800672  0.298352  0.697570  1
  F  F47  1  0.711202  0.913554  0.401649  1
  F  F48  1  0.292784  0.099637  0.268634  1
  F  F49  1  0.490353  0.203657  0.432456  1
  F  F50  1  0.292283  0.488272  0.068111  1
  F  F51  1  0.807840  0.720182  0.507684  1
  F  F52  1  0.906981  0.200863  0.570875  1
  F  F53  1  0.702955  0.517888  0.265356  1
  F  F54  1  0.797356  0.285342  0.363039  1
  F  F55  1  0.708711  0.909497  0.064642  1
  F  F56  1  0.487030  0.200302  0.096534  1
  F  F57  1  0.805077  0.713800  0.171287  1
  F  F58  1  0.914346  0.198719  0.236595  1
  F  F59  1  0.794816  0.284801  0.028679  1
