# generated using pymatgen
data_As5Pb3S10
_symmetry_space_group_name_H-M   'P 1'
_cell_length_a   7.89397099
_cell_length_b   8.81977235
_cell_length_c   26.96366515
_cell_angle_alpha   87.54624842
_cell_angle_beta   90.00000000
_cell_angle_gamma   90.00000000
_symmetry_Int_Tables_number   1
_chemical_formula_structural   As5Pb3S10
_chemical_formula_sum   'As20 Pb12 S40'
_cell_volume   1875.57071042
_cell_formula_units_Z   4
loop_
 _symmetry_equiv_pos_site_id
 _symmetry_equiv_pos_as_xyz
  1  'x, y, z'
loop_
 _atom_site_type_symbol
 _atom_site_label
 _atom_site_symmetry_multiplicity
 _atom_site_fract_x
 _atom_site_fract_y
 _atom_site_fract_z
 _atom_site_occupancy
  As  As0  1  0.845618  0.262383  0.591687  1
  As  As1  1  0.983217  0.012621  0.319953  1
  As  As2  1  0.305061  0.482219  0.812179  1
  As  As3  1  0.799599  0.070745  0.181644  1
  As  As4  1  0.662217  0.941589  0.904783  1
  As  As5  1  0.514612  0.235805  0.178615  1
  As  As6  1  0.483217  0.987379  0.680047  1
  As  As7  1  0.014612  0.764195  0.821385  1
  As  As8  1  0.657125  0.481108  0.905318  1
  As  As9  1  0.345618  0.737617  0.408313  1
  As  As10  1  0.834863  0.815419  0.599109  1
  As  As11  1  0.204544  0.306573  0.689489  1
  As  As12  1  0.299599  0.929255  0.818356  1
  As  As13  1  0.704374  0.188457  0.317881  1
  As  As14  1  0.334863  0.184581  0.400891  1
  As  As15  1  0.162217  0.058411  0.095217  1
  As  As16  1  0.157125  0.518892  0.094682  1
  As  As17  1  0.704544  0.693427  0.310511  1
  As  As18  1  0.204374  0.811543  0.682119  1
  As  As19  1  0.805061  0.517781  0.187821  1
  Pb  Pb20  1  0.957301  0.253837  0.826636  1
  Pb  Pb21  1  0.546935  0.489451  0.669381  1
  Pb  Pb22  1  0.737859  0.994914  0.461859  1
  Pb  Pb23  1  0.457301  0.746163  0.173364  1
  Pb  Pb24  1  0.213615  0.524050  0.540740  1
  Pb  Pb25  1  0.046935  0.510549  0.330619  1
  Pb  Pb26  1  0.768462  0.256306  0.036256  1
  Pb  Pb27  1  0.276929  0.233775  0.959191  1
  Pb  Pb28  1  0.268462  0.743694  0.963744  1
  Pb  Pb29  1  0.713615  0.475950  0.459260  1
  Pb  Pb30  1  0.237859  0.005086  0.538141  1
  Pb  Pb31  1  0.776929  0.766225  0.040809  1
  S  S32  1  0.873553  0.263626  0.379757  1
  S  S33  1  0.824744  0.754177  0.937984  1
  S  S34  1  0.973620  0.226366  0.134484  1
  S  S35  1  0.540427  0.556784  0.361319  1
  S  S36  1  0.084792  0.828714  0.265430  1
  S  S37  1  0.177104  0.990011  0.433627  1
  S  S38  1  0.467999  0.324495  0.856836  1
  S  S39  1  0.473620  0.773634  0.865516  1
  S  S40  1  0.584792  0.171286  0.734570  1
  S  S41  1  0.967999  0.675505  0.143164  1
  S  S42  1  0.998583  0.260417  0.519970  1
  S  S43  1  0.630394  0.988861  0.121084  1
  S  S44  1  0.484994  0.230164  0.472527  1
  S  S45  1  0.740969  0.050819  0.782751  1
  S  S46  1  0.677104  0.009989  0.566373  1
  S  S47  1  0.240969  0.949181  0.217249  1
  S  S48  1  0.374273  0.182288  0.632575  1
  S  S49  1  0.329469  0.716120  0.073895  1
  S  S50  1  0.040427  0.443216  0.638681  1
  S  S51  1  0.003612  0.515280  0.022830  1
  S  S52  1  0.324744  0.245823  0.062016  1
  S  S53  1  0.410069  0.425561  0.231393  1
  S  S54  1  0.130394  0.011139  0.878916  1
  S  S55  1  0.527396  0.026566  0.361264  1
  S  S56  1  0.510512  0.988368  0.976388  1
  S  S57  1  0.750344  0.691399  0.721404  1
  S  S58  1  0.984994  0.769836  0.527473  1
  S  S59  1  0.250344  0.308601  0.278596  1
  S  S60  1  0.027396  0.973434  0.638736  1
  S  S61  1  0.166227  0.548181  0.431004  1
  S  S62  1  0.910069  0.574439  0.768607  1
  S  S63  1  0.010512  0.011632  0.023612  1
  S  S64  1  0.373553  0.736374  0.620243  1
  S  S65  1  0.498583  0.739583  0.480030  1
  S  S66  1  0.503612  0.484720  0.977170  1
  S  S67  1  0.874273  0.817712  0.367425  1
  S  S68  1  0.618590  0.429134  0.128965  1
  S  S69  1  0.829469  0.283880  0.926105  1
  S  S70  1  0.118590  0.570866  0.871035  1
  S  S71  1  0.666227  0.451819  0.568996  1
