# generated using pymatgen
data_Fe3C9Se2O9
_symmetry_space_group_name_H-M   'P 1'
_cell_length_a   6.83787015
_cell_length_b   9.24919767
_cell_length_c   13.13652320
_cell_angle_alpha   94.02188248
_cell_angle_beta   94.43545709
_cell_angle_gamma   111.00583250
_symmetry_Int_Tables_number   1
_chemical_formula_structural   Fe3C9Se2O9
_chemical_formula_sum   'Fe6 C18 Se4 O18'
_cell_volume   768.99523214
_cell_formula_units_Z   2
loop_
 _symmetry_equiv_pos_site_id
 _symmetry_equiv_pos_as_xyz
  1  'x, y, z'
loop_
 _atom_site_type_symbol
 _atom_site_label
 _atom_site_symmetry_multiplicity
 _atom_site_fract_x
 _atom_site_fract_y
 _atom_site_fract_z
 _atom_site_occupancy
  Fe  Fe0  1  0.075353  0.732019  0.339548  1
  Fe  Fe1  1  0.215825  0.803717  0.157827  1
  Fe  Fe2  1  0.924647  0.267981  0.660452  1
  Fe  Fe3  1  0.371522  0.094882  0.254674  1
  Fe  Fe4  1  0.784175  0.196283  0.842173  1
  Fe  Fe5  1  0.628478  0.905118  0.745326  1
  C  C6  1  0.204727  0.383000  0.679551  1
  C  C7  1  0.593022  0.274209  0.883421  1
  C  C8  1  0.795273  0.617000  0.320449  1
  C  C9  1  0.294814  0.227108  0.177590  1
  C  C10  1  0.601194  0.802675  0.622149  1
  C  C11  1  0.914652  0.183548  0.533679  1
  C  C12  1  0.222648  0.913096  0.051708  1
  C  C13  1  0.085348  0.816452  0.466321  1
  C  C14  1  0.398806  0.197325  0.377851  1
  C  C15  1  0.995319  0.629380  0.116892  1
  C  C16  1  0.777352  0.086904  0.948292  1
  C  C17  1  0.705186  0.772892  0.822410  1
  C  C18  1  0.142505  0.566586  0.371033  1
  C  C19  1  0.645919  0.181301  0.230991  1
  C  C20  1  0.354081  0.818699  0.769009  1
  C  C21  1  0.406978  0.725791  0.116579  1
  C  C22  1  0.004681  0.370620  0.883108  1
  C  C23  1  0.857495  0.433414  0.628967  1
  Se  Se24  1  0.434086  0.878994  0.319362  1
  Se  Se25  1  0.009991  0.927294  0.247910  1
  Se  Se26  1  0.565914  0.121006  0.680638  1
  Se  Se27  1  0.990009  0.072706  0.752090  1
  O  O28  1  0.222019  0.976490  0.978132  1
  O  O29  1  0.578650  0.739719  0.540089  1
  O  O30  1  0.903623  0.127121  0.450638  1
  O  O31  1  0.752056  0.687867  0.870458  1
  O  O32  1  0.819679  0.540065  0.606048  1
  O  O33  1  0.145553  0.483720  0.915438  1
  O  O34  1  0.777981  0.023510  0.021868  1
  O  O35  1  0.421350  0.260281  0.459911  1
  O  O36  1  0.471474  0.324187  0.911925  1
  O  O37  1  0.616261  0.543433  0.309412  1
  O  O38  1  0.383739  0.456567  0.690588  1
  O  O39  1  0.854447  0.516280  0.084562  1
  O  O40  1  0.247944  0.312133  0.129542  1
  O  O41  1  0.180321  0.459935  0.393952  1
  O  O42  1  0.821884  0.241550  0.219456  1
  O  O43  1  0.528526  0.675813  0.088075  1
  O  O44  1  0.178116  0.758450  0.780544  1
  O  O45  1  0.096377  0.872879  0.549362  1
