# generated using pymatgen
data_H13Se2N3O8
_symmetry_space_group_name_H-M   'P 1'
_cell_length_a   6.14330521
_cell_length_b   6.14330521
_cell_length_c   16.07917590
_cell_angle_alpha   77.08445651
_cell_angle_beta   102.91554349
_cell_angle_gamma   119.40529210
_symmetry_Int_Tables_number   1
_chemical_formula_structural   H13Se2N3O8
_chemical_formula_sum   'H26 Se4 N6 O16'
_cell_volume   510.63146584
_cell_formula_units_Z   2
loop_
 _symmetry_equiv_pos_site_id
 _symmetry_equiv_pos_as_xyz
  1  'x, y, z'
loop_
 _atom_site_type_symbol
 _atom_site_label
 _atom_site_symmetry_multiplicity
 _atom_site_fract_x
 _atom_site_fract_y
 _atom_site_fract_z
 _atom_site_occupancy
  H  H0  1  0.223378  0.252029  0.752340  1
  H  H1  1  0.747971  0.776622  0.252340  1
  H  H2  1  0.400226  0.251308  0.300190  1
  H  H3  1  0.748692  0.599774  0.800190  1
  H  H4  1  0.259944  0.137555  0.203874  1
  H  H5  1  0.862445  0.740056  0.703874  1
  H  H6  1  0.083991  0.134671  0.273664  1
  H  H7  1  0.865329  0.916009  0.773664  1
  H  H8  1  0.276548  0.405349  0.219029  1
  H  H9  1  0.594651  0.723452  0.719029  1
  H  H10  1  0.773726  0.804505  0.440398  1
  H  H11  1  0.195495  0.226274  0.940398  1
  H  H12  1  0.619358  0.791132  0.518351  1
  H  H13  1  0.208868  0.380642  0.018351  1
  H  H14  1  0.640566  0.001180  0.428791  1
  H  H15  1  0.998820  0.359434  0.928791  1
  H  H16  1  0.451074  0.686049  0.424841  1
  H  H17  1  0.313951  0.548926  0.924841  1
  H  H18  1  0.212898  0.173828  0.533002  1
  H  H19  1  0.826172  0.787102  0.033002  1
  H  H20  1  0.341810  0.972802  0.569049  1
  H  H21  1  0.027198  0.658190  0.069049  1
  H  H22  1  0.473855  0.225332  0.493573  1
  H  H23  1  0.774668  0.526145  0.993573  1
  H  H24  1  0.495521  0.270604  0.594770  1
  H  H25  1  0.729396  0.504479  0.094770  1
  Se  Se26  1  0.057759  0.445633  0.633905  1
  Se  Se27  1  0.554367  0.942241  0.133905  1
  Se  Se28  1  0.922064  0.532679  0.365749  1
  Se  Se29  1  0.467321  0.077936  0.865749  1
  N  N30  1  0.253649  0.229779  0.249490  1
  N  N31  1  0.770221  0.746351  0.749490  1
  N  N32  1  0.621414  0.820441  0.453185  1
  N  N33  1  0.179559  0.378586  0.953185  1
  N  N34  1  0.378935  0.160309  0.547040  1
  N  N35  1  0.839691  0.621065  0.047040  1
  O  O36  1  0.857320  0.561654  0.621208  1
  O  O37  1  0.438346  0.142680  0.121208  1
  O  O38  1  0.098099  0.339936  0.744258  1
  O  O39  1  0.660064  0.901901  0.244258  1
  O  O40  1  0.950266  0.196237  0.584119  1
  O  O41  1  0.803763  0.049734  0.084119  1
  O  O42  1  0.342317  0.673362  0.611361  1
  O  O43  1  0.326638  0.657683  0.111361  1
  O  O44  1  0.138132  0.434985  0.380333  1
  O  O45  1  0.565015  0.861868  0.880333  1
  O  O46  1  0.863071  0.629018  0.259290  1
  O  O47  1  0.370982  0.136929  0.759290  1
  O  O48  1  0.642227  0.296032  0.394667  1
  O  O49  1  0.703968  0.357773  0.894667  1
  O  O50  1  0.018115  0.776454  0.418524  1
  O  O51  1  0.223546  0.981885  0.918524  1
