# generated using pymatgen
data_Ba6Tb3Nb(SnO9)2
_symmetry_space_group_name_H-M   'P 1'
_cell_length_a   6.09580627
_cell_length_b   6.09117173
_cell_length_c   55.08277305
_cell_angle_alpha   60.18829155
_cell_angle_beta   60.09771492
_cell_angle_gamma   60.01249936
_symmetry_Int_Tables_number   1
_chemical_formula_structural   Ba6Tb3Nb(SnO9)2
_chemical_formula_sum   'Ba18 Tb9 Nb3 Sn6 O54'
_cell_volume   1449.46853173
_cell_formula_units_Z   3
loop_
 _symmetry_equiv_pos_site_id
 _symmetry_equiv_pos_as_xyz
  1  'x, y, z'
loop_
 _atom_site_type_symbol
 _atom_site_label
 _atom_site_symmetry_multiplicity
 _atom_site_fract_x
 _atom_site_fract_y
 _atom_site_fract_z
 _atom_site_occupancy
  Tb  Tb0  1  0.006611  0.008832  0.997473  1
  Tb  Tb1  1  0.504488  0.505831  0.053868  1
  Tb  Tb2  1  -0.000312  0.998973  0.111340  1
  Tb  Tb3  1  0.497925  0.498175  0.167352  1
  Tb  Tb4  1  0.996712  0.997067  0.223224  1
  Tb  Tb5  1  0.494522  0.493561  0.279720  1
  Tb  Tb6  1  0.989702  0.986496  0.337230  1
  Tb  Tb7  1  0.993954  0.994149  0.446456  1
  Tb  Tb8  1  0.001106  0.002699  0.888220  1
  Ba  Ba9  1  0.239665  0.241660  0.030960  1
  Ba  Ba10  1  0.248832  0.247731  0.139421  1
  Ba  Ba11  1  0.747126  0.746109  0.084404  1
  Ba  Ba12  1  0.242910  0.242955  0.252346  1
  Ba  Ba13  1  0.243010  0.240144  0.363810  1
  Ba  Ba14  1  0.745569  0.746657  0.195805  1
  Ba  Ba15  1  0.742861  0.739706  0.308306  1
  Ba  Ba16  1  0.251918  0.253479  0.471436  1
  Ba  Ba17  1  0.747413  0.748488  0.417456  1
  Ba  Ba18  1  0.256109  0.256346  0.581284  1
  Ba  Ba19  1  0.245902  0.246185  0.695778  1
  Ba  Ba20  1  0.755692  0.756576  0.525790  1
  Ba  Ba21  1  0.754302  0.754648  0.637430  1
  Ba  Ba22  1  0.256561  0.256238  0.803378  1
  Ba  Ba23  1  0.245924  0.245848  0.918001  1
  Ba  Ba24  1  0.748399  0.748359  0.750530  1
  Ba  Ba25  1  0.746571  0.745981  0.862292  1
  Ba  Ba26  1  0.741832  0.743814  0.974698  1
  Nb  Nb27  1  0.000118  0.000158  0.666654  1
  Nb  Nb28  1  0.504360  0.504241  0.831890  1
  Nb  Nb29  1  0.505243  0.506478  0.942533  1
  Sn  Sn30  1  0.492283  0.490938  0.391641  1
  Sn  Sn31  1  0.494085  0.494729  0.501881  1
  Sn  Sn32  1  0.996806  0.996357  0.556703  1
  Sn  Sn33  1  0.499104  0.498973  0.611504  1
  Sn  Sn34  1  0.501470  0.501941  0.721671  1
  Sn  Sn35  1  0.002187  0.002931  0.776895  1
  O  O36  1  0.250825  0.253268  0.081551  1
  O  O37  1  0.269844  0.761183  0.023435  1
  O  O38  1  0.759129  0.270961  0.023464  1
  O  O39  1  0.251940  0.760619  0.081707  1
  O  O40  1  0.761852  0.253190  0.081549  1
  O  O41  1  0.758438  0.761180  0.023453  1
  O  O42  1  0.248513  0.247114  0.194635  1
  O  O43  1  0.256704  0.748082  0.138228  1
  O  O44  1  0.749385  0.253941  0.138552  1
  O  O45  1  0.247676  0.754396  0.194466  1
  O  O46  1  0.752712  0.247007  0.194643  1
  O  O47  1  0.750845  0.748026  0.138242  1
  O  O48  1  0.240514  0.242864  0.307289  1
  O  O49  1  0.251357  0.746976  0.250677  1
  O  O50  1  0.746315  0.251834  0.250639  1
  O  O51  1  0.242513  0.746422  0.307605  1
  O  O52  1  0.750933  0.243046  0.307265  1
  O  O53  1  0.745807  0.747169  0.250658  1
  O  O54  1  0.251401  0.251820  0.418119  1
  O  O55  1  0.255780  0.731678  0.364627  1
  O  O56  1  0.732565  0.248161  0.365195  1
  O  O57  1  0.251745  0.732261  0.418287  1
  O  O58  1  0.734109  0.251781  0.418120  1
  O  O59  1  0.731009  0.731588  0.364625  1
  O  O60  1  0.237002  0.237047  0.532374  1
  O  O61  1  0.242676  0.730806  0.477380  1
  O  O62  1  0.730485  0.242383  0.477415  1
  O  O63  1  0.237095  0.734075  0.532414  1
  O  O64  1  0.734389  0.237310  0.532339  1
  O  O65  1  0.730281  0.730888  0.477376  1
  O  O66  1  0.236611  0.236309  0.641803  1
  O  O67  1  0.230871  0.739510  0.587739  1
  O  O68  1  0.738953  0.231188  0.587860  1
  O  O69  1  0.236811  0.749727  0.641813  1
  O  O70  1  0.750023  0.236691  0.641775  1
  O  O71  1  0.739698  0.739415  0.587745  1
  O  O72  1  0.244926  0.756188  0.693583  1
  O  O73  1  0.256490  0.256530  0.747863  1
  O  O74  1  0.757149  0.243786  0.693520  1
  O  O75  1  0.256411  0.756446  0.747859  1
  O  O76  1  0.756325  0.256476  0.747862  1
  O  O77  1  0.756555  0.756332  0.693564  1
  O  O78  1  0.280339  0.280710  0.854285  1
  O  O79  1  0.265390  0.758343  0.802017  1
  O  O80  1  0.758305  0.265531  0.801991  1
  O  O81  1  0.280566  0.750744  0.854248  1
  O  O82  1  0.750462  0.280736  0.854282  1
  O  O83  1  0.758269  0.758456  0.802006  1
  O  O84  1  0.284906  0.750385  0.912787  1
  O  O85  1  0.279257  0.280818  0.964713  1
  O  O86  1  0.750032  0.285062  0.912766  1
  O  O87  1  0.279395  0.758866  0.964707  1
  O  O88  1  0.749856  0.750655  0.912753  1
  O  O89  1  0.757604  0.280573  0.964752  1
