# generated using pymatgen
data_SrMg2Al6(Si3O10)3
_symmetry_space_group_name_H-M   'P 1'
_cell_length_a   10.25966783
_cell_length_b   10.32237315
_cell_length_c   14.27236074
_cell_angle_alpha   90.51666071
_cell_angle_beta   89.33167805
_cell_angle_gamma   119.66090143
_symmetry_Int_Tables_number   1
_chemical_formula_structural   SrMg2Al6(Si3O10)3
_chemical_formula_sum   'Sr2 Mg4 Al12 Si18 O60'
_cell_volume   1313.35032001
_cell_formula_units_Z   2
loop_
 _symmetry_equiv_pos_site_id
 _symmetry_equiv_pos_as_xyz
  1  'x, y, z'
loop_
 _atom_site_type_symbol
 _atom_site_label
 _atom_site_symmetry_multiplicity
 _atom_site_fract_x
 _atom_site_fract_y
 _atom_site_fract_z
 _atom_site_occupancy
  Sr  Sr0  1  0.012902  0.015857  0.243417  1
  Sr  Sr1  1  0.988990  0.004451  0.743833  1
  Mg  Mg2  1  0.329061  0.662461  0.247899  1
  Mg  Mg3  1  0.329859  0.665339  0.748076  1
  Mg  Mg4  1  0.674891  0.339454  0.246943  1
  Mg  Mg5  1  0.672678  0.331286  0.749367  1
  Al  Al6  1  0.101163  0.756592  0.614239  1
  Al  Al7  1  0.002843  0.498586  0.752900  1
  Al  Al8  1  0.501388  0.996719  0.249375  1
  Al  Al9  1  0.359974  0.251495  0.113329  1
  Al  Al10  1  0.498480  0.496147  0.747052  1
  Al  Al11  1  0.509627  0.506465  0.252655  1
  Al  Al12  1  0.497492  0.001720  0.749556  1
  Al  Al13  1  0.898385  0.658368  0.112643  1
  Al  Al14  1  0.752707  0.103380  0.886502  1
  Al  Al15  1  0.993626  0.498004  0.247493  1
  Al  Al16  1  0.895921  0.237560  0.614827  1
  Al  Al17  1  0.893395  0.241035  0.386973  1
  Si  Si18  1  0.099229  0.755017  0.386758  1
  Si  Si19  1  0.244565  0.906041  0.889514  1
  Si  Si20  1  0.249312  0.900824  0.114291  1
  Si  Si21  1  0.097141  0.338220  0.113530  1
  Si  Si22  1  0.102878  0.341371  0.889073  1
  Si  Si23  1  0.246976  0.345592  0.386314  1
  Si  Si24  1  0.251077  0.349855  0.609943  1
  Si  Si25  1  0.648308  0.894078  0.612681  1
  Si  Si26  1  0.651496  0.897973  0.389074  1
  Si  Si27  1  0.358296  0.252527  0.888589  1
  Si  Si28  1  0.647819  0.750262  0.887233  1
  Si  Si29  1  0.651362  0.757915  0.111703  1
  Si  Si30  1  0.347712  0.101818  0.610545  1
  Si  Si31  1  0.344446  0.096403  0.387442  1
  Si  Si32  1  0.751013  0.648424  0.613448  1
  Si  Si33  1  0.754041  0.650912  0.392371  1
  Si  Si34  1  0.900936  0.662599  0.886683  1
  Si  Si35  1  0.749847  0.104585  0.111033  1
  O  O36  1  0.077484  0.796943  0.147224  1
  O  O37  1  0.067675  0.807229  0.858574  1
  O  O38  1  0.203458  0.933091  0.355027  1
  O  O39  1  0.203982  0.947886  0.644573  1
  O  O40  1  0.117489  0.732435  0.494694  1
  O  O41  1  0.134998  0.647759  0.317835  1
  O  O42  1  0.142359  0.642298  0.683473  1
  O  O43  1  0.269306  0.889164  0.000212  1
  O  O44  1  0.133279  0.487420  0.175024  1
  O  O45  1  0.135183  0.489226  0.829753  1
  O  O46  1  0.109137  0.373919  0.001751  1
  O  O47  1  0.352457  0.865718  0.824708  1
  O  O48  1  0.361601  0.859010  0.173783  1
  O  O49  1  0.078130  0.268166  0.643822  1
  O  O50  1  0.075489  0.273344  0.353748  1
  O  O51  1  0.202133  0.270604  0.144543  1
  O  O52  1  0.229824  0.295904  0.857935  1
  O  O53  1  0.503143  0.859136  0.325446  1
  O  O54  1  0.500425  0.861746  0.675861  1
  O  O55  1  0.275292  0.386133  0.497726  1
  O  O56  1  0.358632  0.493530  0.324134  1
  O  O57  1  0.358270  0.497650  0.673894  1
  O  O58  1  0.613935  0.892958  0.501044  1
  O  O59  1  0.288091  0.213315  0.358462  1
  O  O60  1  0.310995  0.234648  0.638292  1
  O  O61  1  0.506210  0.644790  0.177186  1
  O  O62  1  0.501464  0.635456  0.824467  1
  O  O63  1  0.613666  0.723609  -0.000011  1
  O  O64  1  0.282226  0.074780  0.858941  1
  O  O65  1  0.290420  0.066814  0.147215  1
  O  O66  1  0.706632  0.920014  0.856892  1
  O  O67  1  0.697979  0.930505  0.137670  1
  O  O68  1  0.401067  0.279080  0.995685  1
  O  O69  1  0.510943  0.368130  0.182641  1
  O  O70  1  0.498302  0.354294  0.817987  1
  O  O71  1  0.702124  0.772508  0.366830  1
  O  O72  1  0.684669  0.760879  0.637681  1
  O  O73  1  0.376587  0.104839  0.498039  1
  O  O74  1  0.646771  0.507232  0.329272  1
  O  O75  1  0.644085  0.500446  0.675250  1
  O  O76  1  0.734768  0.609937  0.502162  1
  O  O77  1  0.490733  0.127506  0.326224  1
  O  O78  1  0.494321  0.131671  0.669391  1
  O  O79  1  0.794166  0.745429  0.146101  1
  O  O80  1  0.785598  0.720905  0.852438  1
  O  O81  1  0.930108  0.727265  0.359053  1
  O  O82  1  0.922986  0.732333  0.646496  1
  O  O83  1  0.636286  0.142350  0.818834  1
  O  O84  1  0.642818  0.140023  0.179315  1
  O  O85  1  0.885787  0.627289  0.994815  1
  O  O86  1  0.857871  0.501477  0.175861  1
  O  O87  1  0.871186  0.518935  0.824223  1
  O  O88  1  0.731700  0.129120  0.003467  1
  O  O89  1  0.857803  0.357914  0.317816  1
  O  O90  1  0.861997  0.354498  0.688089  1
  O  O91  1  0.866445  0.258096  0.501857  1
  O  O92  1  0.790964  0.050906  0.349681  1
  O  O93  1  0.794947  0.044853  0.649386  1
  O  O94  1  0.927713  0.200016  0.143535  1
  O  O95  1  0.946057  0.197533  0.856670  1
