# generated using pymatgen
data_KBiH10C4O13
_symmetry_space_group_name_H-M   'P 1'
_cell_length_a   9.19431101
_cell_length_b   11.98076969
_cell_length_c   9.85303924
_cell_angle_alpha   48.61484364
_cell_angle_beta   77.86784925
_cell_angle_gamma   53.51730711
_symmetry_Int_Tables_number   1
_chemical_formula_structural   KBiH10C4O13
_chemical_formula_sum   'K2 Bi2 H20 C8 O26'
_cell_volume   623.92307025
_cell_formula_units_Z   2
loop_
 _symmetry_equiv_pos_site_id
 _symmetry_equiv_pos_as_xyz
  1  'x, y, z'
loop_
 _atom_site_type_symbol
 _atom_site_label
 _atom_site_symmetry_multiplicity
 _atom_site_fract_x
 _atom_site_fract_y
 _atom_site_fract_z
 _atom_site_occupancy
  K  K0  1  0.155335  0.155335  0.344665  1
  K  K1  1  0.905335  0.905335  0.094665  1
  Bi  Bi2  1  0.656040  0.656040  0.843960  1
  Bi  Bi3  1  0.406040  0.406040  0.593960  1
  H  H4  1  0.042079  0.852271  0.639799  1
  H  H5  1  0.852271  0.042079  0.465851  1
  H  H6  1  0.610201  0.784149  0.207921  1
  H  H7  1  0.784149  0.610201  0.397729  1
  H  H8  1  0.466496  0.135248  0.123125  1
  H  H9  1  0.135248  0.466496  0.275131  1
  H  H10  1  0.126875  0.974869  0.783504  1
  H  H11  1  0.974869  0.126875  0.114752  1
  H  H12  1  0.599420  0.946163  0.336466  1
  H  H13  1  0.946163  0.599420  0.117951  1
  H  H14  1  0.913534  0.132049  0.650580  1
  H  H15  1  0.132049  0.913534  0.303837  1
  H  H16  1  0.269042  0.949845  0.080536  1
  H  H17  1  0.949845  0.269042  0.700578  1
  H  H18  1  0.169464  0.549422  0.980958  1
  H  H19  1  0.549422  0.169464  0.300155  1
  H  H20  1  0.345012  0.061669  0.986333  1
  H  H21  1  0.061669  0.345012  0.606986  1
  H  H22  1  0.263667  0.643014  0.904988  1
  H  H23  1  0.643014  0.263667  0.188331  1
  C  C24  1  0.973375  0.620448  0.616222  1
  C  C25  1  0.620448  0.973375  0.789955  1
  C  C26  1  0.633778  0.460045  0.276625  1
  C  C27  1  0.460045  0.633778  0.629552  1
  C  C28  1  0.089225  0.430414  0.825906  1
  C  C29  1  0.430414  0.089225  0.654455  1
  C  C30  1  0.424094  0.595545  0.160775  1
  C  C31  1  0.595545  0.424094  0.819586  1
  O  O32  1  0.002596  0.406880  0.949872  1
  O  O33  1  0.406880  0.002596  0.640652  1
  O  O34  1  0.300128  0.609348  0.247404  1
  O  O35  1  0.609348  0.300128  0.843120  1
  O  O36  1  0.798108  0.740557  0.581880  1
  O  O37  1  0.740557  0.798108  0.879455  1
  O  O38  1  0.668120  0.370545  0.451892  1
  O  O39  1  0.370545  0.668120  0.509443  1
  O  O40  1  0.265077  0.308286  0.861918  1
  O  O41  1  0.308286  0.265077  0.564719  1
  O  O42  1  0.388082  0.685281  0.984923  1
  O  O43  1  0.685281  0.388082  0.941714  1
  O  O44  1  0.059063  0.644244  0.491842  1
  O  O45  1  0.644244  0.059063  0.804851  1
  O  O46  1  0.758158  0.445149  0.190937  1
  O  O47  1  0.445149  0.758158  0.605756  1
  O  O48  1  0.983382  0.983382  0.516618  1
  O  O49  1  0.733382  0.733382  0.266618  1
  O  O50  1  0.489721  0.082314  0.252349  1
  O  O51  1  0.082314  0.489721  0.175616  1
  O  O52  1  0.997651  0.074384  0.760279  1
  O  O53  1  0.074384  0.997651  0.167686  1
  O  O54  1  0.378252  0.944370  0.034069  1
  O  O55  1  0.944370  0.378252  0.643309  1
  O  O56  1  0.215931  0.606691  0.871748  1
  O  O57  1  0.606691  0.215931  0.305630  1
