# generated using pymatgen
data_YAl6Si30(N15O)3
_symmetry_space_group_name_H-M   'P 1'
_cell_length_a   7.90127429
_cell_length_b   7.89251069
_cell_length_c   17.13224368
_cell_angle_alpha   90.15566582
_cell_angle_beta   90.10582362
_cell_angle_gamma   119.80452180
_symmetry_Int_Tables_number   1
_chemical_formula_structural   YAl6Si30(N15O)3
_chemical_formula_sum   'Y1 Al6 Si30 N45 O3'
_cell_volume   927.05336423
_cell_formula_units_Z   1
loop_
 _symmetry_equiv_pos_site_id
 _symmetry_equiv_pos_as_xyz
  1  'x, y, z'
loop_
 _atom_site_type_symbol
 _atom_site_label
 _atom_site_symmetry_multiplicity
 _atom_site_fract_x
 _atom_site_fract_y
 _atom_site_fract_z
 _atom_site_occupancy
  Y  Y0  1  0.673884  0.324301  0.911671  1
  Al  Al1  1  0.101163  0.508273  0.903144  1
  Al  Al2  1  0.745803  0.917285  0.002636  1
  Al  Al3  1  0.912729  0.425051  0.733781  1
  Al  Al4  1  0.831991  0.085533  0.171080  1
  Al  Al5  1  0.836264  0.088448  0.502460  1
  Al  Al6  1  0.829171  0.083309  0.832857  1
  Si  Si7  1  0.089637  0.843246  0.004205  1
  Si  Si8  1  0.089486  0.843728  0.337769  1
  Si  Si9  1  0.087548  0.842181  0.669791  1
  Si  Si10  1  0.090039  0.509478  0.238665  1
  Si  Si11  1  0.091223  0.507550  0.567946  1
  Si  Si12  1  0.435718  0.921776  0.238831  1
  Si  Si13  1  0.435215  0.919983  0.569931  1
  Si  Si14  1  0.430059  0.912087  0.903489  1
  Si  Si15  1  0.168199  0.253380  0.003633  1
  Si  Si16  1  0.165913  0.254201  0.335104  1
  Si  Si17  1  0.165313  0.253734  0.664072  1
  Si  Si18  1  0.254557  0.165521  0.169380  1
  Si  Si19  1  0.258241  0.164297  0.500816  1
  Si  Si20  1  0.247214  0.166384  0.832070  1
  Si  Si21  1  0.488099  0.573091  0.239198  1
  Si  Si22  1  0.488746  0.571710  0.570682  1
  Si  Si23  1  0.488286  0.574863  0.904415  1
  Si  Si24  1  0.739788  0.911458  0.667042  1
  Si  Si25  1  0.739900  0.911178  0.336131  1
  Si  Si26  1  0.567729  0.486582  0.072362  1
  Si  Si27  1  0.569018  0.483973  0.404111  1
  Si  Si28  1  0.561361  0.479598  0.734260  1
  Si  Si29  1  0.511203  0.071545  0.074178  1
  Si  Si30  1  0.514680  0.079811  0.403453  1
  Si  Si31  1  0.511359  0.078838  0.733390  1
  Si  Si32  1  0.913442  0.750400  0.164816  1
  Si  Si33  1  0.917781  0.752972  0.829183  1
  Si  Si34  1  0.912871  0.749572  0.497616  1
  Si  Si35  1  0.923189  0.428992  0.075357  1
  Si  Si36  1  0.914317  0.428383  0.404128  1
  N  N37  1  0.046293  0.393691  0.329058  1
  N  N38  1  0.050501  0.389257  0.655430  1
  N  N39  1  0.044723  0.387269  0.000277  1
  N  N40  1  0.339217  0.956415  0.327443  1
  N  N41  1  0.336720  0.953085  0.658913  1
  N  N42  1  0.341883  0.954078  0.993358  1
  N  N43  1  0.011939  0.006666  0.000942  1
  N  N44  1  0.010359  0.994740  0.169666  1
  N  N45  1  0.996801  0.000953  0.334233  1
  N  N46  1  0.012828  0.994998  0.502089  1
  N  N47  1  0.006016  0.995760  0.836371  1
  N  N48  1  0.333381  0.670278  0.221264  1
  N  N49  1  0.335104  0.669757  0.551873  1
  N  N50  1  0.349993  0.676596  0.879556  1
  N  N51  1  0.309874  0.322915  0.249558  1
  N  N52  1  0.318657  0.320189  0.581422  1
  N  N53  1  0.318856  0.321486  0.915769  1
  N  N54  1  0.321702  0.314604  0.084858  1
  N  N55  1  0.319216  0.311899  0.416076  1
  N  N56  1  0.309150  0.315783  0.749745  1
  N  N57  1  0.673399  0.988610  0.255186  1
  N  N58  1  0.674151  0.989855  0.585890  1
  N  N59  1  0.673101  0.021222  0.919994  1
  N  N60  1  0.612540  0.651647  0.328857  1
  N  N61  1  0.613461  0.638633  0.992127  1
  N  N62  1  0.611408  0.652262  0.661285  1
  N  N63  1  0.657806  0.606997  0.163301  1
  N  N64  1  0.658157  0.608918  0.495499  1
  N  N65  1  0.658899  0.594953  0.830672  1
  N  N66  1  0.392161  0.047718  0.163337  1
  N  N67  1  0.395289  0.045591  0.494098  1
  N  N68  1  0.399805  0.058593  0.830135  1
  N  N69  1  0.666913  0.330203  0.051199  1
  N  N70  1  0.665139  0.331310  0.385391  1
  N  N71  1  0.648439  0.325084  0.716421  1
  N  N72  1  0.992936  0.679911  0.081731  1
  N  N73  1  0.990286  0.680257  0.413741  1
  N  N74  1  0.998682  0.691755  0.747998  1
  N  N75  1  0.670317  0.994028  0.087313  1
  N  N76  1  0.670514  0.991596  0.746505  1
  N  N77  1  0.678736  0.999059  0.414859  1
  N  N78  1  0.955386  0.359053  0.165590  1
  N  N79  1  0.959429  0.359908  0.493044  1
  N  N80  1  0.925550  0.348747  0.833862  1
  N  N81  1  0.996081  0.000743  0.666183  1
  O  O82  1  0.008199  0.688568  0.250219  1
  O  O83  1  0.007177  0.686581  0.582112  1
  O  O84  1  0.998353  0.688399  0.917960  1
