# generated using pymatgen
data_Yb3Sm3S8
_symmetry_space_group_name_H-M   'P 1'
_cell_length_a   7.30713759
_cell_length_b   7.32057411
_cell_length_c   7.32057438
_cell_angle_alpha   109.74795782
_cell_angle_beta   108.66095059
_cell_angle_gamma   110.08214366
_symmetry_Int_Tables_number   1
_chemical_formula_structural   Yb3Sm3S8
_chemical_formula_sum   'Yb3 Sm3 S8'
_cell_volume   301.12414646
_cell_formula_units_Z   1
loop_
 _symmetry_equiv_pos_site_id
 _symmetry_equiv_pos_as_xyz
  1  'x, y, z'
loop_
 _atom_site_type_symbol
 _atom_site_label
 _atom_site_symmetry_multiplicity
 _atom_site_fract_x
 _atom_site_fract_y
 _atom_site_fract_z
 _atom_site_occupancy
  Yb  Yb0  1  0.125478  0.747898  0.875371  1
  Yb  Yb1  1  0.250000  0.625252  0.375252  1
  Yb  Yb2  1  0.374522  0.249893  0.622421  1
  Sm  Sm3  1  0.750000  0.874053  0.124053  1
  Sm  Sm4  1  0.624941  0.376083  0.252104  1
  Sm  Sm5  1  0.875059  0.127163  0.751142  1
  S  S6  1  0.994292  0.853098  0.495536  1
  S  S7  1  0.505708  0.001244  0.858807  1
  S  S8  1  0.145195  0.142357  0.140052  1
  S  S9  1  0.354805  0.494857  0.997162  1
  S  S10  1  0.642807  0.650939  0.646504  1
  S  S11  1  0.505946  0.003165  0.356246  1
  S  S12  1  0.857193  0.503697  0.008132  1
  S  S13  1  0.994054  0.350300  0.497219  1
