# generated using pymatgen
data_Ca4Mg3H14
_symmetry_space_group_name_H-M   'P 1'
_cell_length_a   6.23951381
_cell_length_b   6.23951381
_cell_length_c   6.86027516
_cell_angle_alpha   90.00000000
_cell_angle_beta   90.00000000
_cell_angle_gamma   119.99972981
_symmetry_Int_Tables_number   1
_chemical_formula_structural   Ca4Mg3H14
_chemical_formula_sum   'Ca4 Mg3 H14'
_cell_volume   231.29958291
_cell_formula_units_Z   1
loop_
 _symmetry_equiv_pos_site_id
 _symmetry_equiv_pos_as_xyz
  1  'x, y, z'
loop_
 _atom_site_type_symbol
 _atom_site_label
 _atom_site_symmetry_multiplicity
 _atom_site_fract_x
 _atom_site_fract_y
 _atom_site_fract_z
 _atom_site_occupancy
  Ca  Ca0  1  0.000010  0.000010  0.735053  1
  Ca  Ca1  1  0.000010  0.000010  0.264947  1
  Ca  Ca2  1  0.666684  0.333343  0.500000  1
  Ca  Ca3  1  0.333343  0.666684  0.500000  1
  Mg  Mg4  1  0.446346  0.446346  0.000000  1
  Mg  Mg5  1  0.553682  0.000023  0.000000  1
  Mg  Mg6  1  0.000023  0.553682  0.000000  1
  H  H7  1  0.388736  0.388736  0.723658  1
  H  H8  1  0.611279  0.000008  0.723662  1
  H  H9  1  0.000008  0.611279  0.723662  1
  H  H10  1  0.388736  0.388736  0.276342  1
  H  H11  1  0.611279  0.000008  0.276338  1
  H  H12  1  0.000008  0.611279  0.276338  1
  H  H13  1  0.737251  0.737251  0.500000  1
  H  H14  1  0.262762  0.000001  0.500000  1
  H  H15  1  0.000001  0.262762  0.500000  1
  H  H16  1  0.770673  0.770673  0.000000  1
  H  H17  1  0.229344  0.000006  0.000000  1
  H  H18  1  0.000006  0.229344  0.000000  1
  H  H19  1  0.666679  0.333340  0.000000  1
  H  H20  1  0.333340  0.666679  0.000000  1
