# generated using pymatgen
data_N2O3
_symmetry_space_group_name_H-M   'P 1'
_cell_length_a   5.20785804
_cell_length_b   6.60992928
_cell_length_c   8.77656254
_cell_angle_alpha   90.00000000
_cell_angle_beta   90.00000000
_cell_angle_gamma   90.00000000
_symmetry_Int_Tables_number   1
_chemical_formula_structural   N2O3
_chemical_formula_sum   'N8 O12'
_cell_volume   302.12064431
_cell_formula_units_Z   4
loop_
 _symmetry_equiv_pos_site_id
 _symmetry_equiv_pos_as_xyz
  1  'x, y, z'
loop_
 _atom_site_type_symbol
 _atom_site_label
 _atom_site_symmetry_multiplicity
 _atom_site_fract_x
 _atom_site_fract_y
 _atom_site_fract_z
 _atom_site_occupancy
  N  N0  1  0.098743  0.641155  0.625968  1
  N  N1  1  0.598743  0.858845  0.374032  1
  N  N2  1  0.401257  0.358845  0.125968  1
  N  N3  1  0.928021  0.998563  0.344047  1
  N  N4  1  0.901257  0.141155  0.874032  1
  N  N5  1  0.428021  0.501437  0.655953  1
  N  N6  1  0.071979  0.498563  0.155953  1
  N  N7  1  0.571979  0.001437  0.844047  1
  O  O8  1  0.026346  0.766193  0.719256  1
  O  O9  1  0.007602  0.086470  0.991357  1
  O  O10  1  0.973654  0.266193  0.780744  1
  O  O11  1  0.444221  0.388296  0.556855  1
  O  O12  1  0.992398  0.586470  0.508643  1
  O  O13  1  0.473654  0.233807  0.219256  1
  O  O14  1  0.526346  0.733807  0.280744  1
  O  O15  1  0.492398  0.913530  0.491357  1
  O  O16  1  0.555779  0.888296  0.943145  1
  O  O17  1  0.944221  0.111704  0.443145  1
  O  O18  1  0.507602  0.413530  0.008643  1
  O  O19  1  0.055779  0.611704  0.056855  1
