# generated using pymatgen
data_KNaH6PtC4N4O3
_symmetry_space_group_name_H-M   'P 1'
_cell_length_a   9.48733285
_cell_length_b   9.48733285
_cell_length_c   6.53346649
_cell_angle_alpha   73.15804483
_cell_angle_beta   106.84195517
_cell_angle_gamma   86.54521322
_symmetry_Int_Tables_number   1
_chemical_formula_structural   KNaH6PtC4N4O3
_chemical_formula_sum   'K2 Na2 H12 Pt2 C8 N8 O6'
_cell_volume   531.99125161
_cell_formula_units_Z   2
loop_
 _symmetry_equiv_pos_site_id
 _symmetry_equiv_pos_as_xyz
  1  'x, y, z'
loop_
 _atom_site_type_symbol
 _atom_site_label
 _atom_site_symmetry_multiplicity
 _atom_site_fract_x
 _atom_site_fract_y
 _atom_site_fract_z
 _atom_site_occupancy
  K  K0  1  0.036824  0.482759  0.483103  1
  K  K1  1  0.517241  0.963176  0.983103  1
  Na  Na2  1  0.640747  0.546190  0.012131  1
  Na  Na3  1  0.453810  0.359253  0.512131  1
  H  H4  1  0.430093  0.350547  0.954023  1
  H  H5  1  0.649453  0.569907  0.454023  1
  H  H6  1  0.346459  0.511742  0.805390  1
  H  H7  1  0.488258  0.653541  0.305390  1
  H  H8  1  0.220535  0.585827  0.122925  1
  H  H9  1  0.414173  0.779465  0.622925  1
  H  H10  1  0.189258  0.427748  0.123295  1
  H  H11  1  0.572252  0.810742  0.623295  1
  H  H12  1  0.853061  0.600257  0.788327  1
  H  H13  1  0.399743  0.146939  0.288327  1
  H  H14  1  0.862608  0.429067  0.843893  1
  H  H15  1  0.570933  0.137392  0.343893  1
  Pt  Pt16  1  0.003954  0.003443  0.500149  1
  Pt  Pt17  1  0.996557  0.996046  0.000149  1
  C  C18  1  0.189948  0.094400  0.540685  1
  C  C19  1  0.905600  0.810052  0.040685  1
  C  C20  1  0.121068  0.798572  0.638615  1
  C  C21  1  0.201428  0.878932  0.138615  1
  C  C22  1  0.814825  0.919237  0.464630  1
  C  C23  1  0.080763  0.185175  0.964630  1
  C  C24  1  0.885681  0.207008  0.351667  1
  C  C25  1  0.792992  0.114319  0.851667  1
  N  N26  1  0.297102  0.151906  0.564884  1
  N  N27  1  0.848094  0.702898  0.064884  1
  N  N28  1  0.189242  0.677339  0.715055  1
  N  N29  1  0.322661  0.810758  0.215055  1
  N  N30  1  0.701188  0.873344  0.446763  1
  N  N31  1  0.126656  0.298812  0.946763  1
  N  N32  1  0.816485  0.327378  0.261133  1
  N  N33  1  0.672622  0.183515  0.761133  1
  O  O34  1  0.432016  0.437381  0.828529  1
  O  O35  1  0.562619  0.567984  0.328529  1
  O  O36  1  0.223611  0.486782  0.225645  1
  O  O37  1  0.513218  0.776389  0.725645  1
  O  O38  1  0.811222  0.523201  0.727558  1
  O  O39  1  0.476799  0.188778  0.227558  1
