# generated using pymatgen
data_K(FeAs)2
_symmetry_space_group_name_H-M   'P 1'
_cell_length_a   4.16914312
_cell_length_b   4.16914312
_cell_length_c   7.54520261
_cell_angle_alpha   105.98209550
_cell_angle_beta   105.98209550
_cell_angle_gamma   90.07908415
_symmetry_Int_Tables_number   1
_chemical_formula_structural   K(FeAs)2
_chemical_formula_sum   'K1 Fe2 As2'
_cell_volume   120.78289659
_cell_formula_units_Z   1
loop_
 _symmetry_equiv_pos_site_id
 _symmetry_equiv_pos_as_xyz
  1  'x, y, z'
loop_
 _atom_site_type_symbol
 _atom_site_label
 _atom_site_symmetry_multiplicity
 _atom_site_fract_x
 _atom_site_fract_y
 _atom_site_fract_z
 _atom_site_occupancy
  As  As0  1  0.640322  0.640322  0.278189  1
  As  As1  1  0.359678  0.359678  0.721811  1
  Fe  Fe2  1  0.251762  0.748238  0.500000  1
  Fe  Fe3  1  0.748238  0.251762  0.500000  1
  K  K4  1  0.000000  0.000000  0.000000  1
