# generated using pymatgen
data_Cs2KMn(CN)6
_symmetry_space_group_name_H-M   'P 1'
_cell_length_a   7.70834483
_cell_length_b   8.22354538
_cell_length_c   11.22367985
_cell_angle_alpha   90.00000000
_cell_angle_beta   90.26086326
_cell_angle_gamma   90.00000000
_symmetry_Int_Tables_number   1
_chemical_formula_structural   Cs2KMn(CN)6
_chemical_formula_sum   'Cs4 K2 Mn2 C12 N12'
_cell_volume   711.46083346
_cell_formula_units_Z   2
loop_
 _symmetry_equiv_pos_site_id
 _symmetry_equiv_pos_as_xyz
  1  'x, y, z'
loop_
 _atom_site_type_symbol
 _atom_site_label
 _atom_site_symmetry_multiplicity
 _atom_site_fract_x
 _atom_site_fract_y
 _atom_site_fract_z
 _atom_site_occupancy
  Cs  Cs0  1  0.521763  0.930001  0.249280  1
  Cs  Cs1  1  0.978237  0.430001  0.250720  1
  Cs  Cs2  1  0.021763  0.569999  0.749280  1
  Cs  Cs3  1  0.478237  0.069999  0.750720  1
  K  K4  1  0.500000  0.500000  0.000000  1
  K  K5  1  0.000000  0.000000  0.500000  1
  Mn  Mn6  1  0.500000  0.500000  0.500000  1
  Mn  Mn7  1  0.000000  0.000000  0.000000  1
  C  C8  1  0.374182  0.703185  0.540253  1
  C  C9  1  0.287902  0.371376  0.532671  1
  C  C10  1  0.125818  0.203185  0.959747  1
  C  C11  1  0.874182  0.796815  0.040253  1
  C  C12  1  0.787902  0.128624  0.032671  1
  C  C13  1  0.927773  0.977107  0.831496  1
  C  C14  1  0.427773  0.522893  0.331496  1
  C  C15  1  0.072227  0.022893  0.168504  1
  C  C16  1  0.625818  0.296815  0.459747  1
  C  C17  1  0.212098  0.871376  0.967329  1
  C  C18  1  0.712098  0.628624  0.467329  1
  C  C19  1  0.572227  0.477107  0.668504  1
  N  N20  1  0.882992  0.958905  0.731870  1
  N  N21  1  0.701174  0.177376  0.433879  1
  N  N22  1  0.798826  0.677376  0.066121  1
  N  N23  1  0.617008  0.458905  0.768130  1
  N  N24  1  0.337240  0.794755  0.945696  1
  N  N25  1  0.201174  0.322624  0.933879  1
  N  N26  1  0.837240  0.705245  0.445696  1
  N  N27  1  0.162760  0.294755  0.554304  1
  N  N28  1  0.382992  0.541095  0.231870  1
  N  N29  1  0.662760  0.205245  0.054304  1
  N  N30  1  0.117008  0.041095  0.268130  1
  N  N31  1  0.298826  0.822624  0.566121  1
