# generated using pymatgen
data_Dy14(PbS8)3
_symmetry_space_group_name_H-M   'P 1'
_cell_length_a   7.30666433
_cell_length_b   7.30276823
_cell_length_c   21.88232462
_cell_angle_alpha   109.17244907
_cell_angle_beta   109.35870465
_cell_angle_gamma   109.90957281
_symmetry_Int_Tables_number   1
_chemical_formula_structural   Dy14(PbS8)3
_chemical_formula_sum   'Dy14 Pb3 S24'
_cell_volume   898.50086295
_cell_formula_units_Z   1
loop_
 _symmetry_equiv_pos_site_id
 _symmetry_equiv_pos_as_xyz
  1  'x, y, z'
loop_
 _atom_site_type_symbol
 _atom_site_label
 _atom_site_symmetry_multiplicity
 _atom_site_fract_x
 _atom_site_fract_y
 _atom_site_fract_z
 _atom_site_occupancy
  Dy  Dy0  1  0.101410  0.737205  0.946829  1
  Dy  Dy1  1  0.246669  0.601441  0.787326  1
  Dy  Dy2  1  0.139067  0.762084  0.628671  1
  Dy  Dy3  1  0.376836  0.253959  0.871883  1
  Dy  Dy4  1  0.117158  0.748163  0.289504  1
  Dy  Dy5  1  0.254837  0.627659  0.463401  1
  Dy  Dy6  1  0.740781  0.882194  0.711977  1
  Dy  Dy7  1  0.394871  0.261599  0.553346  1
  Dy  Dy8  1  0.868046  0.117133  0.912501  1
  Dy  Dy9  1  0.249504  0.616862  0.120595  1
  Dy  Dy10  1  0.752290  0.883016  0.378338  1
  Dy  Dy11  1  0.377308  0.247388  0.209708  1
  Dy  Dy12  1  0.875163  0.130152  0.586259  1
  Dy  Dy13  1  0.737232  0.872725  0.038095  1
  Pb  Pb14  1  0.623452  0.377180  0.418615  1
  Pb  Pb15  1  0.621741  0.372353  0.081436  1
  Pb  Pb16  1  0.878471  0.128879  0.251136  1
  S  S17  1  0.009781  0.877596  0.835101  1
  S  S18  1  0.002302  0.349996  0.832625  1
  S  S19  1  0.011136  0.880160  0.505875  1
  S  S20  1  0.121912  0.128804  0.712250  1
  S  S21  1  0.011722  0.362827  0.504601  1
  S  S22  1  0.350772  0.504495  0.667239  1
  S  S23  1  0.645779  0.651304  0.884028  1
  S  S24  1  0.488990  0.984269  0.946508  1
  S  S25  1  0.006534  0.854722  0.161091  1
  S  S26  1  0.488856  0.983613  0.786629  1
  S  S27  1  0.143156  0.136042  0.386427  1
  S  S28  1  0.018702  0.363212  0.166912  1
  S  S29  1  0.360216  0.515785  0.332090  1
  S  S30  1  0.640626  0.649445  0.552999  1
  S  S31  1  0.499200  -0.004584  0.616321  1
  S  S32  1  0.869932  0.505477  0.664713  1
  S  S33  1  0.500451  0.992895  0.456754  1
  S  S34  1  0.120933  0.130820  0.042251  1
  S  S35  1  0.349123  0.501939  0.995462  1
  S  S36  1  0.635413  0.636677  0.217545  1
  S  S37  1  0.484965  0.983176  0.282560  1
  S  S38  1  0.871433  0.525209  0.339358  1
  S  S39  1  0.478211  0.987158  0.114028  1
  S  S40  1  0.863659  0.495202  0.994546  1
