# generated using pymatgen
data_Pb2OF2
_symmetry_space_group_name_H-M   'P 1'
_cell_length_a   6.11020848
_cell_length_b   8.30812289
_cell_length_c   8.19194777
_cell_angle_alpha   89.97891226
_cell_angle_beta   89.93690605
_cell_angle_gamma   90.14091475
_symmetry_Int_Tables_number   1
_chemical_formula_structural   Pb2OF2
_chemical_formula_sum   'Pb8 O4 F8'
_cell_volume   415.85747110
_cell_formula_units_Z   4
loop_
 _symmetry_equiv_pos_site_id
 _symmetry_equiv_pos_as_xyz
  1  'x, y, z'
loop_
 _atom_site_type_symbol
 _atom_site_label
 _atom_site_symmetry_multiplicity
 _atom_site_fract_x
 _atom_site_fract_y
 _atom_site_fract_z
 _atom_site_occupancy
  Pb  Pb0  1  0.787388  -0.000193  0.260379  1
  Pb  Pb1  1  0.306064  0.747493  0.500002  1
  Pb  Pb2  1  0.307143  0.248291  0.499898  1
  Pb  Pb3  1  0.787650  0.000154  0.739557  1
  Pb  Pb4  1  0.717182  0.499986  0.758839  1
  Pb  Pb5  1  0.717589  0.499934  0.241281  1
  Pb  Pb6  1  0.250205  0.750878  -0.000089  1
  Pb  Pb7  1  0.247890  0.250480  0.000043  1
  O  O8  1  0.426336  -0.001171  0.499691  1
  O  O9  1  0.835657  0.998386  -0.000071  1
  O  O10  1  0.372017  0.501883  0.999756  1
  O  O11  1  0.585972  0.496844  0.499988  1
  F  F12  1  0.523179  0.226726  0.769594  1
  F  F13  1  0.523346  0.771891  0.229463  1
  F  F14  1  0.523097  0.227055  0.230394  1
  F  F15  1  0.016764  0.283469  0.743179  1
  F  F16  1  0.016248  0.721075  0.738894  1
  F  F17  1  0.016070  0.721235  0.261554  1
  F  F18  1  0.016862  0.283353  0.257287  1
  F  F19  1  0.523340  0.772231  0.770361  1
