# generated using pymatgen
data_KCu7TeS5ClO24
_symmetry_space_group_name_H-M   'P 1'
_cell_length_a   9.94712531
_cell_length_b   9.94712531
_cell_length_c   20.79878094
_cell_angle_alpha   90.00000000
_cell_angle_beta   90.00000000
_cell_angle_gamma   90.00000000
_symmetry_Int_Tables_number   1
_chemical_formula_structural   KCu7TeS5ClO24
_chemical_formula_sum   'K4 Cu28 Te4 S20 Cl4 O96'
_cell_volume   2057.94165994
_cell_formula_units_Z   4
loop_
 _symmetry_equiv_pos_site_id
 _symmetry_equiv_pos_as_xyz
  1  'x, y, z'
loop_
 _atom_site_type_symbol
 _atom_site_label
 _atom_site_symmetry_multiplicity
 _atom_site_fract_x
 _atom_site_fract_y
 _atom_site_fract_z
 _atom_site_occupancy
  K  K0  1  0.250000  0.750000  0.750000  1
  K  K1  1  0.250000  0.750000  0.250000  1
  K  K2  1  0.750000  0.250000  0.750000  1
  K  K3  1  0.750000  0.250000  0.250000  1
  Cu  Cu4  1  0.516265  0.726097  0.104914  1
  Cu  Cu5  1  0.750000  0.750000  0.800792  1
  Cu  Cu6  1  0.226097  0.483735  0.895086  1
  Cu  Cu7  1  0.000000  0.000000  0.000000  1
  Cu  Cu8  1  0.273903  0.016265  0.895086  1
  Cu  Cu9  1  0.750000  0.750000  0.300792  1
  Cu  Cu10  1  0.250000  0.250000  0.699208  1
  Cu  Cu11  1  0.983735  0.773903  0.104914  1
  Cu  Cu12  1  0.500000  0.500000  0.500000  1
  Cu  Cu13  1  0.226097  0.016265  0.395086  1
  Cu  Cu14  1  0.000000  0.500000  0.500000  1
  Cu  Cu15  1  0.773903  0.516265  0.104914  1
  Cu  Cu16  1  0.016265  0.273903  0.395086  1
  Cu  Cu17  1  0.983735  0.726097  0.604914  1
  Cu  Cu18  1  0.500000  0.000000  0.000000  1
  Cu  Cu19  1  0.483735  0.226097  0.395086  1
  Cu  Cu20  1  0.000000  0.000000  0.500000  1
  Cu  Cu21  1  0.273903  0.483735  0.395086  1
  Cu  Cu22  1  0.773903  0.983735  0.604914  1
  Cu  Cu23  1  0.500000  0.500000  0.000000  1
  Cu  Cu24  1  0.016265  0.226097  0.895086  1
  Cu  Cu25  1  0.250000  0.250000  0.199208  1
  Cu  Cu26  1  0.500000  0.000000  0.500000  1
  Cu  Cu27  1  0.000000  0.500000  0.000000  1
  Cu  Cu28  1  0.726097  0.983735  0.104914  1
  Cu  Cu29  1  0.726097  0.516265  0.604914  1
  Cu  Cu30  1  0.516265  0.773903  0.604914  1
  Cu  Cu31  1  0.483735  0.273903  0.895086  1
  Te  Te32  1  0.750000  0.750000  0.002423  1
  Te  Te33  1  0.750000  0.750000  0.502423  1
  Te  Te34  1  0.250000  0.250000  0.997577  1
  Te  Te35  1  0.250000  0.250000  0.497577  1
  S  S36  1  0.567251  0.506608  0.352736  1
  S  S37  1  0.432749  0.493392  0.647264  1
  S  S38  1  0.993392  0.567251  0.352736  1
  S  S39  1  0.493392  0.067251  0.647264  1
  S  S40  1  0.506608  0.567251  0.852736  1
  S  S41  1  0.506608  0.932749  0.352736  1
  S  S42  1  0.006608  0.067251  0.147264  1
  S  S43  1  0.250000  0.750000  0.000000  1
  S  S44  1  0.993392  0.932749  0.852736  1
  S  S45  1  0.067251  0.006608  0.647264  1
  S  S46  1  0.250000  0.750000  0.500000  1
  S  S47  1  0.493392  0.432749  0.147264  1
  S  S48  1  0.932749  0.506608  0.852736  1
  S  S49  1  0.006608  0.432749  0.647264  1
  S  S50  1  0.750000  0.250000  0.000000  1
  S  S51  1  0.432749  0.006608  0.147264  1
  S  S52  1  0.750000  0.250000  0.500000  1
  S  S53  1  0.932749  0.993392  0.352736  1
  S  S54  1  0.567251  0.993392  0.852736  1
  S  S55  1  0.067251  0.493392  0.147264  1
  Cl  Cl56  1  0.250000  0.250000  0.822565  1
  Cl  Cl57  1  0.250000  0.250000  0.322565  1
  Cl  Cl58  1  0.750000  0.750000  0.177435  1
  Cl  Cl59  1  0.750000  0.750000  0.677435  1
  O  O60  1  0.603170  0.545265  0.420561  1
  O  O61  1  0.415110  0.858223  0.156186  1
  O  O62  1  0.084890  0.641777  0.156186  1
  O  O63  1  0.345103  0.671011  0.040436  1
  O  O64  1  0.163188  0.070122  0.692335  1
  O  O65  1  0.045265  0.396830  0.579439  1
  O  O66  1  0.926838  0.453249  0.162133  1
  O  O67  1  0.336812  0.070122  0.192335  1
  O  O68  1  0.426838  0.546751  0.337867  1
  O  O69  1  0.103170  0.454735  0.079439  1
  O  O70  1  0.915110  0.141777  0.343814  1
  O  O71  1  0.845103  0.171011  0.959564  1
  O  O72  1  0.584890  0.141777  0.843814  1
  O  O73  1  0.454735  0.396830  0.079439  1
  O  O74  1  0.926838  0.046751  0.662133  1
  O  O75  1  0.929878  0.836812  0.807665  1
  O  O76  1  0.454735  0.103170  0.579439  1
  O  O77  1  0.573162  0.046751  0.162133  1
  O  O78  1  0.609106  0.864943  0.049409  1
  O  O79  1  0.654897  0.328989  0.959564  1
  O  O80  1  0.109106  0.364943  0.950591  1
  O  O81  1  0.046751  0.926838  0.162133  1
  O  O82  1  0.890894  0.864943  0.549409  1
  O  O83  1  0.396830  0.454735  0.579439  1
  O  O84  1  0.364943  0.390894  0.950591  1
  O  O85  1  0.836812  0.929878  0.307665  1
  O  O86  1  0.154897  0.671011  0.540436  1
  O  O87  1  0.641777  0.415110  0.156186  1
  O  O88  1  0.070122  0.336812  0.692335  1
  O  O89  1  0.915110  0.358223  0.843814  1
  O  O90  1  0.141777  0.915110  0.843814  1
  O  O91  1  0.453249  0.926838  0.662133  1
  O  O92  1  0.545265  0.603170  0.920561  1
  O  O93  1  0.828989  0.154897  0.540436  1
  O  O94  1  0.084890  0.858223  0.656186  1
  O  O95  1  0.954735  0.896830  0.920561  1
  O  O96  1  0.570122  0.663188  0.807665  1
  O  O97  1  0.836812  0.570122  0.807665  1
  O  O98  1  0.546751  0.073162  0.337867  1
  O  O99  1  0.858223  0.084890  0.156186  1
  O  O100  1  0.570122  0.836812  0.307665  1
  O  O101  1  0.954735  0.603170  0.420561  1
  O  O102  1  0.635057  0.609106  0.049409  1
  O  O103  1  0.073162  0.546751  0.837867  1
  O  O104  1  0.546751  0.426838  0.837867  1
  O  O105  1  0.864943  0.890894  0.049409  1
  O  O106  1  0.429878  0.336812  0.192335  1
  O  O107  1  0.336812  0.429878  0.692335  1
  O  O108  1  0.045265  0.103170  0.079439  1
  O  O109  1  0.364943  0.109106  0.450591  1
  O  O110  1  0.545265  0.896830  0.420561  1
  O  O111  1  0.154897  0.828989  0.040436  1
  O  O112  1  0.109106  0.135057  0.450591  1
  O  O113  1  0.396830  0.045265  0.079439  1
  O  O114  1  0.858223  0.415110  0.656186  1
  O  O115  1  0.135057  0.390894  0.450591  1
  O  O116  1  0.429878  0.163188  0.692335  1
  O  O117  1  0.896830  0.954735  0.420561  1
  O  O118  1  0.929878  0.663188  0.307665  1
  O  O119  1  0.896830  0.545265  0.920561  1
  O  O120  1  0.358223  0.584890  0.843814  1
  O  O121  1  0.609106  0.635057  0.549409  1
  O  O122  1  0.864943  0.609106  0.549409  1
  O  O123  1  0.135057  0.109106  0.950591  1
  O  O124  1  0.390894  0.364943  0.450591  1
  O  O125  1  0.358223  0.915110  0.343814  1
  O  O126  1  0.890894  0.635057  0.049409  1
  O  O127  1  0.953249  0.073162  0.837867  1
  O  O128  1  0.654897  0.171011  0.459564  1
  O  O129  1  0.953249  0.426838  0.337867  1
  O  O130  1  0.073162  0.953249  0.337867  1
  O  O131  1  0.141777  0.584890  0.343814  1
  O  O132  1  0.328989  0.845103  0.959564  1
  O  O133  1  0.345103  0.828989  0.540436  1
  O  O134  1  0.584890  0.358223  0.343814  1
  O  O135  1  0.171011  0.654897  0.959564  1
  O  O136  1  0.573162  0.453249  0.662133  1
  O  O137  1  0.390894  0.135057  0.950591  1
  O  O138  1  0.663188  0.929878  0.807665  1
  O  O139  1  0.641777  0.084890  0.656186  1
  O  O140  1  0.328989  0.654897  0.459564  1
  O  O141  1  0.103170  0.045265  0.579439  1
  O  O142  1  0.171011  0.845103  0.459564  1
  O  O143  1  0.663188  0.570122  0.307665  1
  O  O144  1  0.426838  0.953249  0.837867  1
  O  O145  1  0.453249  0.573162  0.162133  1
  O  O146  1  0.671011  0.154897  0.040436  1
  O  O147  1  0.671011  0.345103  0.540436  1
  O  O148  1  0.163188  0.429878  0.192335  1
  O  O149  1  0.046751  0.573162  0.662133  1
  O  O150  1  0.603170  0.954735  0.920561  1
  O  O151  1  0.415110  0.641777  0.656186  1
  O  O152  1  0.070122  0.163188  0.192335  1
  O  O153  1  0.635057  0.890894  0.549409  1
  O  O154  1  0.845103  0.328989  0.459564  1
  O  O155  1  0.828989  0.345103  0.040436  1
