# generated using pymatgen
data_TePCl9
_symmetry_space_group_name_H-M   'P 1'
_cell_length_a   12.47769040
_cell_length_b   12.47769011
_cell_length_c   12.47768963
_cell_angle_alpha   90.41774323
_cell_angle_beta   119.94512923
_cell_angle_gamma   119.57343522
_symmetry_Int_Tables_number   1
_chemical_formula_structural   TePCl9
_chemical_formula_sum   'Te4 P4 Cl36'
_cell_volume   1378.62677491
_cell_formula_units_Z   4
loop_
 _symmetry_equiv_pos_site_id
 _symmetry_equiv_pos_as_xyz
  1  'x, y, z'
loop_
 _atom_site_type_symbol
 _atom_site_label
 _atom_site_symmetry_multiplicity
 _atom_site_fract_x
 _atom_site_fract_y
 _atom_site_fract_z
 _atom_site_occupancy
  Te  Te0  1  0.094805  0.248940  0.345864  1
  Te  Te1  1  0.544820  0.824479  0.220341  1
  Te  Te2  1  0.903076  0.748940  0.654136  1
  Te  Te3  1  0.604137  0.324479  0.779659  1
  P  P4  1  0.526966  0.795396  0.751501  1
  P  P5  1  0.043895  0.295396  0.768429  1
  P  P6  1  0.043895  0.775466  0.248499  1
  P  P7  1  0.526966  0.275466  0.231571  1
  Cl  Cl8  1  0.605089  0.171625  0.642647  1
  Cl  Cl9  1  0.480929  0.925823  0.055106  1
  Cl  Cl10  1  0.109568  0.762557  0.847011  1
  Cl  Cl11  1  0.346415  0.120171  0.075797  1
  Cl  Cl12  1  0.605089  0.462442  0.933464  1
  Cl  Cl13  1  0.538247  0.847237  0.606964  1
  Cl  Cl14  1  0.881477  0.764070  0.247502  1
  Cl  Cl15  1  0.520996  0.151786  0.869210  1
  Cl  Cl16  1  0.695034  0.519070  0.675964  1
  Cl  Cl17  1  0.516568  0.633975  0.752498  1
  Cl  Cl18  1  0.346415  0.770618  0.726244  1
  Cl  Cl19  1  0.240273  0.347237  0.808990  1
  Cl  Cl20  1  0.651211  0.726382  0.424829  1
  Cl  Cl21  1  0.528978  0.671625  0.066536  1
  Cl  Cl22  1  0.089554  0.108723  0.191119  1
  Cl  Cl23  1  0.843106  0.019070  0.324036  1
  Cl  Cl24  1  0.044375  0.270618  0.924203  1
  Cl  Cl25  1  0.305893  0.438532  0.367361  1
  Cl  Cl26  1  0.044375  0.620171  0.273756  1
  Cl  Cl27  1  0.071170  0.938532  0.632639  1
  Cl  Cl28  1  0.516568  0.264070  0.382593  1
  Cl  Cl29  1  0.706448  0.933656  0.920503  1
  Cl  Cl30  1  0.282577  0.651786  0.130790  1
  Cl  Cl31  1  0.917604  0.898435  0.808881  1
  Cl  Cl32  1  0.013153  0.433656  0.727208  1
  Cl  Cl33  1  0.917604  0.608723  0.519169  1
  Cl  Cl34  1  0.089554  0.398435  0.480831  1
  Cl  Cl35  1  0.301552  0.226382  0.575171  1
  Cl  Cl36  1  0.538247  0.431283  0.191010  1
  Cl  Cl37  1  0.706448  0.285945  0.272792  1
  Cl  Cl38  1  0.881477  0.133975  0.617407  1
  Cl  Cl39  1  0.240273  0.931283  0.393036  1
  Cl  Cl40  1  0.528978  0.962442  0.357353  1
  Cl  Cl41  1  0.915546  0.262557  0.152989  1
  Cl  Cl42  1  0.870717  0.425823  0.944894  1
  Cl  Cl43  1  0.013153  0.785945  0.079497  1
