# generated using pymatgen
data_Sb3P2H6C2NO9
_symmetry_space_group_name_H-M   'P 1'
_cell_length_a   6.98421056
_cell_length_b   9.61339027
_cell_length_c   10.31072042
_cell_angle_alpha   107.16880982
_cell_angle_beta   97.45501902
_cell_angle_gamma   88.67049974
_symmetry_Int_Tables_number   1
_chemical_formula_structural   Sb3P2H6C2NO9
_chemical_formula_sum   'Sb6 P4 H12 C4 N2 O18'
_cell_volume   655.75878970
_cell_formula_units_Z   2
loop_
 _symmetry_equiv_pos_site_id
 _symmetry_equiv_pos_as_xyz
  1  'x, y, z'
loop_
 _atom_site_type_symbol
 _atom_site_label
 _atom_site_symmetry_multiplicity
 _atom_site_fract_x
 _atom_site_fract_y
 _atom_site_fract_z
 _atom_site_occupancy
  Sb  Sb0  1  0.929941  0.751530  0.174266  1
  Sb  Sb1  1  0.070059  0.248470  0.825734  1
  Sb  Sb2  1  0.190083  0.053664  0.175317  1
  Sb  Sb3  1  0.809917  0.946336  0.824683  1
  Sb  Sb4  1  0.811906  0.700873  0.474026  1
  Sb  Sb5  1  0.188094  0.299127  0.525974  1
  P  P6  1  0.457266  0.723108  0.226451  1
  P  P7  1  0.542734  0.276892  0.773549  1
  P  P8  1  0.879933  0.330899  0.253886  1
  P  P9  1  0.120067  0.669101  0.746114  1
  H  H10  1  0.511086  0.535333  0.852899  1
  H  H11  1  0.488914  0.464667  0.147101  1
  H  H12  1  0.692353  0.473192  0.961567  1
  H  H13  1  0.307647  0.526808  0.038433  1
  H  H14  1  0.741617  0.485157  0.799139  1
  H  H15  1  0.258383  0.514843  0.200861  1
  H  H16  1  0.449418  0.727550  0.738416  1
  H  H17  1  0.550582  0.272450  0.261584  1
  H  H18  1  0.311514  0.885300  0.808075  1
  H  H19  1  0.688486  0.114700  0.191925  1
  H  H20  1  0.399377  0.771407  0.912778  1
  H  H21  1  0.600623  0.228593  0.087222  1
  C  C22  1  0.630333  0.460409  0.855662  1
  C  C23  1  0.369667  0.539591  0.144338  1
  C  C24  1  0.342695  0.772809  0.808556  1
  C  C25  1  0.657305  0.227191  0.191444  1
  N  N26  1  0.284519  0.939199  0.555939  1
  N  N27  1  0.715481  0.060801  0.444061  1
  O  O28  1  0.718198  0.177714  0.781996  1
  O  O29  1  0.281802  0.822286  0.218003  1
  O  O30  1  0.531138  0.731600  0.378218  1
  O  O31  1  0.468862  0.268400  0.621782  1
  O  O32  1  0.380536  0.238514  0.847726  1
  O  O33  1  0.619464  0.761486  0.152274  1
  O  O34  1  0.855849  0.489114  0.248775  1
  O  O35  1  0.144151  0.510886  0.751225  1
  O  O36  1  0.072822  0.669785  0.593384  1
  O  O37  1  0.927178  0.330215  0.406616  1
  O  O38  1  0.962585  0.749502  0.834839  1
  O  O39  1  0.037415  0.250498  0.165161  1
  O  O40  1  0.060789  0.043244  0.831747  1
  O  O41  1  0.939211  0.956756  0.168253  1
  O  O42  1  0.947889  0.804727  0.377318  1
  O  O43  1  0.052111  0.195273  0.622682  1
  O  O44  1  0.740747  0.862503  0.625648  1
  O  O45  1  0.259253  0.137497  0.374352  1
