# generated using pymatgen
data_In2Bi4Pb4S13
_symmetry_space_group_name_H-M   'P 1'
_cell_length_a   4.04223495
_cell_length_b   21.79531905
_cell_length_c   27.05732160
_cell_angle_alpha   90.00000000
_cell_angle_beta   90.00000000
_cell_angle_gamma   90.00000000
_symmetry_Int_Tables_number   1
_chemical_formula_structural   In2Bi4Pb4S13
_chemical_formula_sum   'In8 Bi16 Pb16 S52'
_cell_volume   2383.79874724
_cell_formula_units_Z   4
loop_
 _symmetry_equiv_pos_site_id
 _symmetry_equiv_pos_as_xyz
  1  'x, y, z'
loop_
 _atom_site_type_symbol
 _atom_site_label
 _atom_site_symmetry_multiplicity
 _atom_site_fract_x
 _atom_site_fract_y
 _atom_site_fract_z
 _atom_site_occupancy
  In  In0  1  0.000000  0.225254  0.162598  1
  In  In1  1  0.000000  0.725254  0.337402  1
  In  In2  1  0.000000  0.774746  0.837402  1
  In  In3  1  0.000000  0.000000  0.000000  1
  In  In4  1  0.000000  0.500000  0.500000  1
  In  In5  1  0.000000  0.500000  0.000000  1
  In  In6  1  0.000000  0.000000  0.500000  1
  In  In7  1  0.000000  0.274746  0.662598  1
  Bi  Bi8  1  0.500000  0.883217  0.415185  1
  Bi  Bi9  1  0.500000  0.845768  0.975395  1
  Bi  Bi10  1  0.000000  0.358944  0.390850  1
  Bi  Bi11  1  0.500000  0.116783  0.584815  1
  Bi  Bi12  1  0.500000  0.345768  0.524605  1
  Bi  Bi13  1  0.500000  0.616783  0.915185  1
  Bi  Bi14  1  0.500000  0.383217  0.084815  1
  Bi  Bi15  1  0.000000  0.476924  0.844385  1
  Bi  Bi16  1  0.500000  0.654232  0.475395  1
  Bi  Bi17  1  0.000000  0.523076  0.155615  1
  Bi  Bi18  1  0.500000  0.154232  0.024605  1
  Bi  Bi19  1  0.000000  0.141056  0.890850  1
  Bi  Bi20  1  0.000000  0.023076  0.344385  1
  Bi  Bi21  1  0.000000  0.976924  0.655615  1
  Bi  Bi22  1  0.000000  0.858944  0.109150  1
  Bi  Bi23  1  0.000000  0.641056  0.609150  1
  Pb  Pb24  1  0.500000  0.536242  0.340116  1
  Pb  Pb25  1  0.500000  0.036242  0.159884  1
  Pb  Pb26  1  0.500000  0.463758  0.659884  1
  Pb  Pb27  1  0.500000  0.963758  0.840116  1
  Pb  Pb28  1  0.500000  0.827229  0.721485  1
  Pb  Pb29  1  0.500000  0.316043  0.931022  1
  Pb  Pb30  1  0.500000  0.874789  0.249583  1
  Pb  Pb31  1  0.500000  0.183957  0.431022  1
  Pb  Pb32  1  0.500000  0.625211  0.749583  1
  Pb  Pb33  1  0.500000  0.327229  0.778515  1
  Pb  Pb34  1  0.500000  0.683957  0.068978  1
  Pb  Pb35  1  0.500000  0.374789  0.250417  1
  Pb  Pb36  1  0.500000  0.816043  0.568978  1
  Pb  Pb37  1  0.500000  0.672771  0.221485  1
  Pb  Pb38  1  0.500000  0.172771  0.278515  1
  Pb  Pb39  1  0.500000  0.125211  0.750417  1
  S  S40  1  0.500000  0.063577  0.952990  1
  S  S41  1  0.500000  0.563577  0.547010  1
  S  S42  1  0.000000  0.080423  0.069724  1
  S  S43  1  0.000000  0.580423  0.430276  1
  S  S44  1  0.000000  0.060501  0.813261  1
  S  S45  1  0.500000  0.473803  0.778786  1
  S  S46  1  0.000000  0.439499  0.313261  1
  S  S47  1  0.000000  0.879354  0.799057  1
  S  S48  1  0.500000  0.973803  0.721214  1
  S  S49  1  0.000000  0.892933  0.343704  1
  S  S50  1  0.000000  0.777494  0.023710  1
  S  S51  1  0.500000  0.207493  0.852733  1
  S  S52  1  0.500000  0.754986  0.891909  1
  S  S53  1  0.500000  0.526197  0.221214  1
  S  S54  1  0.000000  0.120646  0.200943  1
  S  S55  1  0.000000  0.616658  0.991366  1
  S  S56  1  0.000000  0.883342  0.491366  1
  S  S57  1  0.000000  0.116658  0.508634  1
  S  S58  1  0.000000  0.850325  0.640951  1
  S  S59  1  0.000000  0.277494  0.476290  1
  S  S60  1  0.000000  0.726860  0.754404  1
  S  S61  1  0.500000  0.936423  0.047010  1
  S  S62  1  0.000000  0.222506  0.976290  1
  S  S63  1  0.500000  0.492940  0.930303  1
  S  S64  1  0.000000  0.607067  0.843704  1
  S  S65  1  0.000000  0.560501  0.686739  1
  S  S66  1  0.500000  0.007060  0.430303  1
  S  S67  1  0.000000  0.620646  0.299057  1
  S  S68  1  0.000000  0.392933  0.156296  1
  S  S69  1  0.000000  0.939499  0.186739  1
  S  S70  1  0.000000  0.273140  0.245596  1
  S  S71  1  0.000000  0.722506  0.523710  1
  S  S72  1  0.000000  0.226860  0.745596  1
  S  S73  1  0.500000  0.254986  0.608091  1
  S  S74  1  0.000000  0.107067  0.656296  1
  S  S75  1  0.500000  0.507060  0.069697  1
  S  S76  1  0.000000  0.919577  0.930276  1
  S  S77  1  0.500000  0.745014  0.391909  1
  S  S78  1  0.500000  0.792507  0.147267  1
  S  S79  1  0.500000  0.245014  0.108091  1
  S  S80  1  0.500000  0.707493  0.647267  1
  S  S81  1  0.500000  0.992940  0.569697  1
  S  S82  1  0.500000  0.436423  0.452990  1
  S  S83  1  0.000000  0.649675  0.140951  1
  S  S84  1  0.000000  0.379354  0.700943  1
  S  S85  1  0.000000  0.383342  0.008634  1
  S  S86  1  0.000000  0.149675  0.359049  1
  S  S87  1  0.000000  0.419577  0.569724  1
  S  S88  1  0.500000  0.026197  0.278786  1
  S  S89  1  0.000000  0.773140  0.254404  1
  S  S90  1  0.000000  0.350325  0.859049  1
  S  S91  1  0.500000  0.292507  0.352733  1
