# generated using pymatgen
data_KGa2Cl7
_symmetry_space_group_name_H-M   'P 1'
_cell_length_a   10.12922748
_cell_length_b   10.92768337
_cell_length_c   13.15105541
_cell_angle_alpha   90.00000000
_cell_angle_beta   90.00000000
_cell_angle_gamma   90.00000000
_symmetry_Int_Tables_number   1
_chemical_formula_structural   KGa2Cl7
_chemical_formula_sum   'K4 Ga8 Cl28'
_cell_volume   1455.67704976
_cell_formula_units_Z   4
loop_
 _symmetry_equiv_pos_site_id
 _symmetry_equiv_pos_as_xyz
  1  'x, y, z'
loop_
 _atom_site_type_symbol
 _atom_site_label
 _atom_site_symmetry_multiplicity
 _atom_site_fract_x
 _atom_site_fract_y
 _atom_site_fract_z
 _atom_site_occupancy
  K  K0  1  0.376331  0.883472  0.078893  1
  K  K1  1  0.876331  0.383472  0.421107  1
  K  K2  1  0.623669  0.383472  0.921107  1
  K  K3  1  0.123669  0.883472  0.578893  1
  Ga  Ga4  1  0.361184  0.208719  0.372065  1
  Ga  Ga5  1  0.861184  0.708719  0.127935  1
  Ga  Ga6  1  0.436177  0.495197  0.178911  1
  Ga  Ga7  1  0.936177  0.995197  0.321089  1
  Ga  Ga8  1  0.063823  0.495197  0.678911  1
  Ga  Ga9  1  0.563823  0.995197  0.821089  1
  Ga  Ga10  1  0.138816  0.208719  0.872065  1
  Ga  Ga11  1  0.638816  0.708719  0.627935  1
  Cl  Cl12  1  0.422764  0.073136  0.260465  1
  Cl  Cl13  1  0.516465  0.255719  0.477531  1
  Cl  Cl14  1  0.113551  0.882221  0.328249  1
  Cl  Cl15  1  0.483535  0.755719  0.522469  1
  Cl  Cl16  1  0.564330  0.168842  0.740833  1
  Cl  Cl17  1  0.077236  0.073136  0.760465  1
  Cl  Cl18  1  0.983535  0.255719  0.977531  1
  Cl  Cl19  1  0.386449  0.882221  0.828249  1
  Cl  Cl20  1  0.824948  0.669899  0.548885  1
  Cl  Cl21  1  0.656226  0.013216  0.970236  1
  Cl  Cl22  1  0.613551  0.382221  0.171751  1
  Cl  Cl23  1  0.175052  0.169899  0.451115  1
  Cl  Cl24  1  0.064330  0.668842  0.759167  1
  Cl  Cl25  1  0.324948  0.169899  0.951115  1
  Cl  Cl26  1  0.016465  0.755719  0.022469  1
  Cl  Cl27  1  0.577236  0.573136  0.739535  1
  Cl  Cl28  1  0.435670  0.668842  0.259167  1
  Cl  Cl29  1  0.156226  0.513216  0.529764  1
  Cl  Cl30  1  0.675052  0.669899  0.048885  1
  Cl  Cl31  1  0.209156  0.381481  0.781130  1
  Cl  Cl32  1  0.790844  0.881481  0.218870  1
  Cl  Cl33  1  0.343774  0.513216  0.029764  1
  Cl  Cl34  1  0.886449  0.382221  0.671751  1
  Cl  Cl35  1  0.843774  0.013216  0.470236  1
  Cl  Cl36  1  0.290844  0.381481  0.281130  1
  Cl  Cl37  1  0.709156  0.881481  0.718870  1
  Cl  Cl38  1  0.935670  0.168842  0.240833  1
  Cl  Cl39  1  0.922764  0.573136  0.239535  1
