# generated using pymatgen
data_CaNd2Ti2ZnO9
_symmetry_space_group_name_H-M   'P 1'
_cell_length_a   5.47500160
_cell_length_b   5.72259790
_cell_length_c   23.33079533
_cell_angle_alpha   90.01893440
_cell_angle_beta   89.80182732
_cell_angle_gamma   90.29670358
_symmetry_Int_Tables_number   1
_chemical_formula_structural   CaNd2Ti2ZnO9
_chemical_formula_sum   'Ca4 Nd8 Ti8 Zn4 O36'
_cell_volume   730.96836767
_cell_formula_units_Z   4
loop_
 _symmetry_equiv_pos_site_id
 _symmetry_equiv_pos_as_xyz
  1  'x, y, z'
loop_
 _atom_site_type_symbol
 _atom_site_label
 _atom_site_symmetry_multiplicity
 _atom_site_fract_x
 _atom_site_fract_y
 _atom_site_fract_z
 _atom_site_occupancy
  Ca  Ca0  1  0.491673  0.448921  0.588248  1
  Ca  Ca1  1  0.492191  0.449143  0.919819  1
  Ca  Ca2  1  -0.004398  0.060938  0.413454  1
  Ca  Ca3  1  0.990387  0.058931  0.744754  1
  Nd  Nd4  1  0.018995  0.936776  0.252019  1
  Nd  Nd5  1  0.016160  0.928216  0.586571  1
  Nd  Nd6  1  0.013461  0.929341  0.917548  1
  Nd  Nd7  1  0.482436  0.439492  0.250628  1
  Nd  Nd8  1  0.515545  0.561885  0.082303  1
  Nd  Nd9  1  0.517350  0.562438  0.416087  1
  Nd  Nd10  1  0.516189  0.563728  0.747093  1
  Nd  Nd11  1  0.980476  0.061173  0.082042  1
  Ti  Ti12  1  0.998277  0.499936  0.166673  1
  Ti  Ti13  1  0.029522  0.481161  0.502874  1
  Ti  Ti14  1  0.028659  0.481141  0.834634  1
  Ti  Ti15  1  0.490326  0.004399  -0.000300  1
  Ti  Ti16  1  0.525289  0.012734  0.498547  1
  Ti  Ti17  1  0.510497  0.003315  0.333973  1
  Ti  Ti18  1  0.524708  0.013684  0.831029  1
  Ti  Ti19  1  0.498986  0.007972  0.666812  1
  Zn  Zn20  1  0.001074  0.494920  0.997591  1
  Zn  Zn21  1  0.001969  0.494045  0.335029  1
  Zn  Zn22  1  0.002258  0.489586  0.666073  1
  Zn  Zn23  1  0.498819  0.000048  0.166792  1
  O  O24  1  0.095915  0.469917  0.085953  1
  O  O25  1  0.090390  0.471406  0.422156  1
  O  O26  1  0.088287  0.471773  0.753959  1
  O  O27  1  0.185655  0.210455  0.184759  1
  O  O28  1  0.201344  0.202717  0.518207  1
  O  O29  1  0.200565  0.202751  0.849944  1
  O  O30  1  0.210286  0.189283  0.318337  1
  O  O31  1  0.202876  0.184171  0.652412  1
  O  O32  1  0.200851  0.185271  0.984546  1
  O  O33  1  0.312373  0.710208  0.318793  1
  O  O34  1  0.292134  0.697601  0.516763  1
  O  O35  1  0.305419  0.713945  0.651756  1
  O  O36  1  0.290710  0.692386  0.183371  1
  O  O37  1  0.291028  0.697930  0.848275  1
  O  O38  1  0.307010  0.714718  0.981536  1
  O  O39  1  0.402720  0.971230  0.079613  1
  O  O40  1  0.407706  0.975571  0.419994  1
  O  O41  1  0.406889  0.977349  0.751339  1
  O  O42  1  0.586137  0.029359  0.582194  1
  O  O43  1  0.597936  0.029262  0.253903  1
  O  O44  1  0.586327  0.032236  0.913528  1
  O  O45  1  0.686348  0.288962  0.016101  1
  O  O46  1  0.704383  0.309651  0.150148  1
  O  O47  1  0.698983  0.291915  0.483749  1
  O  O48  1  0.682369  0.294554  0.349954  1
  O  O49  1  0.698272  0.292223  0.815238  1
  O  O50  1  0.680755  0.291966  0.681437  1
  O  O51  1  0.787911  0.811558  0.013334  1
  O  O52  1  0.788602  0.811832  0.350951  1
  O  O53  1  0.782268  0.811331  0.681084  1
  O  O54  1  0.809063  0.788211  0.148437  1
  O  O55  1  0.786563  0.807077  0.484656  1
  O  O56  1  0.784844  0.806964  0.816421  1
  O  O57  1  0.902245  0.530683  0.247538  1
  O  O58  1  0.902355  0.524539  0.578724  1
  O  O59  1  0.901631  0.525069  0.910596  1
