# generated using pymatgen
data_NdPb8F19
_symmetry_space_group_name_H-M   'P 1'
_cell_length_a   4.15436125
_cell_length_b   4.20129555
_cell_length_c   38.76514350
_cell_angle_alpha   60.75682935
_cell_angle_beta   61.41350385
_cell_angle_gamma   59.59692854
_symmetry_Int_Tables_number   1
_chemical_formula_structural   NdPb8F19
_chemical_formula_sum   'Nd1 Pb8 F19'
_cell_volume   484.54637059
_cell_formula_units_Z   1
loop_
 _symmetry_equiv_pos_site_id
 _symmetry_equiv_pos_as_xyz
  1  'x, y, z'
loop_
 _atom_site_type_symbol
 _atom_site_label
 _atom_site_symmetry_multiplicity
 _atom_site_fract_x
 _atom_site_fract_y
 _atom_site_fract_z
 _atom_site_occupancy
  Nd  Nd0  1  0.079764  0.044609  0.869708  1
  Pb  Pb1  1  0.081423  0.019365  0.986698  1
  Pb  Pb2  1  0.951032  0.038374  0.108033  1
  Pb  Pb3  1  0.974837  0.031115  0.218086  1
  Pb  Pb4  1  0.983100  0.018335  0.331107  1
  Pb  Pb5  1  0.996522  0.007988  0.443022  1
  Pb  Pb6  1  0.011199  0.004767  0.553229  1
  Pb  Pb7  1  0.036656  0.000432  0.662505  1
  Pb  Pb8  1  0.068810  0.000713  0.770044  1
  F  F9  1  0.210399  0.266303  0.139650  1
  F  F10  1  0.710499  0.773586  0.082575  1
  F  F11  1  0.746936  0.782367  0.187622  1
  F  F12  1  0.215489  0.268588  0.360762  1
  F  F13  1  0.234516  0.271466  0.246935  1
  F  F14  1  0.722434  0.774570  0.303117  1
  F  F15  1  0.244693  0.252219  0.472240  1
  F  F16  1  0.746597  0.759673  0.414893  1
  F  F17  1  0.261715  0.253109  0.581290  1
  F  F18  1  0.285660  0.243005  0.692040  1
  F  F19  1  0.759588  0.754859  0.525646  1
  F  F20  1  0.782983  0.746505  0.636031  1
  F  F21  1  0.335407  0.245233  0.797037  1
  F  F22  1  0.826501  0.752152  0.741014  1
  F  F23  1  0.333856  0.249816  0.907621  1
  F  F24  1  0.579501  0.467409  0.831538  1
  F  F25  1  0.791757  0.719390  0.863030  1
  F  F26  1  0.529732  0.433555  0.956427  1
  F  F27  1  0.700390  0.594498  0.012544  1
