# generated using pymatgen
data_Ce3Dy2O9
_symmetry_space_group_name_H-M   'P 1'
_cell_length_a   3.85662469
_cell_length_b   19.25555826
_cell_length_c   17.64580102
_cell_angle_alpha   10.90665686
_cell_angle_beta   56.94345521
_cell_angle_gamma   60.00903446
_symmetry_Int_Tables_number   1
_chemical_formula_structural   Ce3Dy2O9
_chemical_formula_sum   'Ce3 Dy2 O9'
_cell_volume   202.45788851
_cell_formula_units_Z   1
loop_
 _symmetry_equiv_pos_site_id
 _symmetry_equiv_pos_as_xyz
  1  'x, y, z'
loop_
 _atom_site_type_symbol
 _atom_site_label
 _atom_site_symmetry_multiplicity
 _atom_site_fract_x
 _atom_site_fract_y
 _atom_site_fract_z
 _atom_site_occupancy
  Ce  Ce0  1  0.997776  0.398276  0.000254  1
  Ce  Ce1  1  0.996794  0.797497  0.004217  1
  Ce  Ce2  1  0.995583  0.599683  0.000432  1
  Dy  Dy3  1  0.029227  0.014204  0.975023  1
  Dy  Dy4  1  0.967007  0.178000  0.033154  1
  O  O5  1  0.221428  0.031125  0.278493  1
  O  O6  1  0.267058  0.261696  0.229179  1
  O  O7  1  0.225984  0.436428  0.272545  1
  O  O8  1  0.276337  0.662005  0.228414  1
  O  O9  1  0.710210  0.121826  0.795274  1
  O  O10  1  0.751327  0.346171  0.753769  1
  O  O11  1  0.787961  0.570806  0.712117  1
  O  O12  1  0.726451  0.737559  0.769712  1
  O  O13  1  0.766717  0.960581  0.732277  1
