# generated using pymatgen
data_CsCrP2O7
_symmetry_space_group_name_H-M   'P 1'
_cell_length_a   7.79410437
_cell_length_b   8.46306898
_cell_length_c   10.05861084
_cell_angle_alpha   90.00000000
_cell_angle_beta   90.00000000
_cell_angle_gamma   105.07283110
_symmetry_Int_Tables_number   1
_chemical_formula_structural   CsCrP2O7
_chemical_formula_sum   'Cs4 Cr4 P8 O28'
_cell_volume   640.65996255
_cell_formula_units_Z   4
loop_
 _symmetry_equiv_pos_site_id
 _symmetry_equiv_pos_as_xyz
  1  'x, y, z'
loop_
 _atom_site_type_symbol
 _atom_site_label
 _atom_site_symmetry_multiplicity
 _atom_site_fract_x
 _atom_site_fract_y
 _atom_site_fract_z
 _atom_site_occupancy
  Cs  Cs0  1  0.199085  0.039053  0.205785  1
  Cs  Cs1  1  0.800915  0.960947  0.794215  1
  Cs  Cs2  1  0.199085  0.539053  0.294215  1
  Cs  Cs3  1  0.800915  0.460947  0.705785  1
  Cr  Cr4  1  0.758454  0.741649  0.398216  1
  Cr  Cr5  1  0.241546  0.758351  0.898216  1
  Cr  Cr6  1  0.241546  0.258351  0.601784  1
  Cr  Cr7  1  0.758454  0.241649  0.101783  1
  P  P8  1  0.128034  0.832520  0.595553  1
  P  P9  1  0.128034  0.332520  0.904447  1
  P  P10  1  0.577885  0.817625  0.125746  1
  P  P11  1  0.871966  0.167480  0.404447  1
  P  P12  1  0.577885  0.317625  0.374254  1
  P  P13  1  0.422115  0.182375  0.874254  1
  P  P14  1  0.422115  0.682375  0.625746  1
  P  P15  1  0.871966  0.667480  0.095553  1
  O  O16  1  0.609165  0.232257  0.933438  1
  O  O17  1  0.687983  0.706347  0.046107  1
  O  O18  1  0.433975  0.235710  0.727240  1
  O  O19  1  0.609165  0.732257  0.566562  1
  O  O20  1  0.679915  0.994136  0.101309  1
  O  O21  1  0.155399  0.015264  0.584424  1
  O  O22  1  0.320085  0.005864  0.898691  1
  O  O23  1  0.320085  0.505864  0.601309  1
  O  O24  1  0.018597  0.767482  0.005007  1
  O  O25  1  0.433975  0.735710  0.772760  1
  O  O26  1  0.091989  0.765378  0.738199  1
  O  O27  1  0.844601  0.484736  0.084424  1
  O  O28  1  0.908011  0.234622  0.261801  1
  O  O29  1  0.390835  0.767743  0.066562  1
  O  O30  1  0.679915  0.494136  0.398691  1
  O  O31  1  0.312017  0.293653  0.953893  1
  O  O32  1  0.687983  0.206347  0.453893  1
  O  O33  1  0.981403  0.232518  0.994993  1
  O  O34  1  0.981403  0.732518  0.505007  1
  O  O35  1  0.566025  0.264290  0.227240  1
  O  O36  1  0.312017  0.793653  0.546107  1
  O  O37  1  0.390835  0.267743  0.433438  1
  O  O38  1  0.908011  0.734622  0.238199  1
  O  O39  1  0.018597  0.267482  0.494993  1
  O  O40  1  0.844601  0.984736  0.415576  1
  O  O41  1  0.155399  0.515264  0.915576  1
  O  O42  1  0.091989  0.265378  0.761801  1
  O  O43  1  0.566025  0.764290  0.272760  1
