# generated using pymatgen
data_La2Al3Ge4
_symmetry_space_group_name_H-M   'P 1'
_cell_length_a   6.20435231
_cell_length_b   8.04606003
_cell_length_c   8.24099448
_cell_angle_alpha   90.08202015
_cell_angle_beta   112.18670497
_cell_angle_gamma   90.00746280
_symmetry_Int_Tables_number   1
_chemical_formula_structural   La2Al3Ge4
_chemical_formula_sum   'La4 Al6 Ge8'
_cell_volume   380.93439034
_cell_formula_units_Z   2
loop_
 _symmetry_equiv_pos_site_id
 _symmetry_equiv_pos_as_xyz
  1  'x, y, z'
loop_
 _atom_site_type_symbol
 _atom_site_label
 _atom_site_symmetry_multiplicity
 _atom_site_fract_x
 _atom_site_fract_y
 _atom_site_fract_z
 _atom_site_occupancy
  La  La0  1  0.116042  0.582059  0.227586  1
  La  La1  1  0.386015  0.081173  0.772877  1
  La  La2  1  0.611814  0.915403  0.226500  1
  La  La3  1  0.888307  0.414595  0.771645  1
  Al  Al4  1  0.030814  0.751708  0.567241  1
  Al  Al5  1  0.997812  0.001113  0.994745  1
  Al  Al6  1  0.536620  0.751234  0.567928  1
  Al  Al7  1  0.503342  0.500472  0.003917  1
  Al  Al8  1  0.967384  0.249669  0.429953  1
  Al  Al9  1  0.463088  0.244672  0.432768  1
  Ge  Ge10  1  0.700003  0.749834  0.901748  1
  Ge  Ge11  1  0.203505  0.749569  0.901240  1
  Ge  Ge12  1  0.304383  0.248306  0.099190  1
  Ge  Ge13  1  0.687029  0.548356  0.374225  1
  Ge  Ge14  1  0.801534  0.249466  0.096734  1
  Ge  Ge15  1  0.814489  0.049109  0.625158  1
  Ge  Ge16  1  0.184272  0.947727  0.370452  1
  Ge  Ge17  1  0.314106  0.446371  0.625400  1
