# generated using pymatgen
data_KSn2F5
_symmetry_space_group_name_H-M   'P 1'
_cell_length_a   7.49260482
_cell_length_b   7.49260521
_cell_length_c   56.56093601
_cell_angle_alpha   90.00000000
_cell_angle_beta   90.00000000
_cell_angle_gamma   119.99999825
_symmetry_Int_Tables_number   1
_chemical_formula_structural   KSn2F5
_chemical_formula_sum   'K18 Sn36 F90'
_cell_volume   2749.87469401
_cell_formula_units_Z   18
loop_
 _symmetry_equiv_pos_site_id
 _symmetry_equiv_pos_as_xyz
  1  'x, y, z'
loop_
 _atom_site_type_symbol
 _atom_site_label
 _atom_site_symmetry_multiplicity
 _atom_site_fract_x
 _atom_site_fract_y
 _atom_site_fract_z
 _atom_site_occupancy
  K  K0  1  0.000000  0.000000  0.168061  1
  K  K1  1  0.000000  0.000000  0.332830  1
  K  K2  1  0.000000  0.000000  0.504271  1
  K  K3  1  0.000000  0.000000  0.666531  1
  K  K4  1  0.000000  0.000000  0.996138  1
  K  K5  1  0.333333  0.666667  0.163952  1
  K  K6  1  0.333333  0.666667  0.328685  1
  K  K7  1  0.333333  0.666667  0.502743  1
  K  K8  1  0.333333  0.666667  0.663635  1
  K  K9  1  0.333333  0.666667  0.830330  1
  K  K10  1  0.333333  0.666667  0.991835  1
  K  K11  1  0.666667  0.333333  0.997089  1
  K  K12  1  0.666667  0.333333  0.170655  1
  K  K13  1  0.666667  0.333333  0.508289  1
  K  K14  1  0.666667  0.333333  0.336529  1
  K  K15  1  0.666667  0.333333  0.669651  1
  K  K16  1  0.666667  0.333333  0.836335  1
  K  K17  1  0.000000  0.000000  0.833506  1
  Sn  Sn18  1  0.345816  0.991626  0.055015  1
  Sn  Sn19  1  0.348846  -0.003006  0.223084  1
  Sn  Sn20  1  0.327052  0.011660  0.389275  1
  Sn  Sn21  1  0.330977  -0.001968  0.556255  1
  Sn  Sn22  1  0.329554  0.997680  0.722194  1
  Sn  Sn23  1  0.330633  0.996947  0.888694  1
  Sn  Sn24  1  0.008374  0.354190  0.055015  1
  Sn  Sn25  1  0.003006  0.351852  0.223084  1
  Sn  Sn26  1  0.988340  0.315392  0.389275  1
  Sn  Sn27  1  0.001968  0.332945  0.556255  1
  Sn  Sn28  1  0.002320  0.331874  0.722194  1
  Sn  Sn29  1  0.003053  0.333686  0.888694  1
  Sn  Sn30  1  0.313501  0.324702  0.110767  1
  Sn  Sn31  1  0.316949  0.324388  0.276646  1
  Sn  Sn32  1  0.314177  0.325091  0.444855  1
  Sn  Sn33  1  0.333429  0.330405  0.611312  1
  Sn  Sn34  1  0.331853  0.329503  0.777802  1
  Sn  Sn35  1  0.331692  0.329867  0.943966  1
  Sn  Sn36  1  0.645810  0.654184  0.055015  1
  Sn  Sn37  1  0.648148  0.651154  0.223084  1
  Sn  Sn38  1  0.684608  0.672948  0.389275  1
  Sn  Sn39  1  0.668126  0.670446  0.722194  1
  Sn  Sn40  1  0.667055  0.669023  0.556255  1
  Sn  Sn41  1  0.666314  0.669367  0.888694  1
  Sn  Sn42  1  0.011201  0.686499  0.110767  1
  Sn  Sn43  1  0.007439  0.683051  0.276646  1
  Sn  Sn44  1  0.010913  0.685823  0.444855  1
  Sn  Sn45  1  0.996976  0.666571  0.611312  1
  Sn  Sn46  1  0.997650  0.668147  0.777802  1
  Sn  Sn47  1  -0.001825  0.668308  0.943966  1
  Sn  Sn48  1  0.675298  0.988799  0.110767  1
  Sn  Sn49  1  0.675612  0.992561  0.276646  1
  Sn  Sn50  1  0.674909  0.989087  0.444855  1
  Sn  Sn51  1  0.669595  0.003024  0.611312  1
  Sn  Sn52  1  0.670497  0.002350  0.777802  1
  Sn  Sn53  1  0.670133  0.001825  0.943966  1
  F  F54  1  0.000000  0.000000  0.384782  1
  F  F55  1  0.000000  0.000000  0.717681  1
  F  F56  1  0.000000  0.000000  0.782317  1
  F  F57  1  0.000000  0.000000  0.884815  1
  F  F58  1  0.311735  0.971013  0.019988  1
  F  F59  1  0.310784  0.970012  0.186611  1
  F  F60  1  0.309988  0.968808  0.353085  1
  F  F61  1  0.314330  0.977894  0.518596  1
  F  F62  1  0.314421  0.975839  0.686088  1
  F  F63  1  0.314778  0.975680  0.852543  1
  F  F64  1  0.028987  0.340722  0.019988  1
  F  F65  1  0.029988  0.340773  0.186611  1
  F  F66  1  0.031192  0.341180  0.353085  1
  F  F67  1  0.022106  0.336436  0.518596  1
  F  F68  1  0.024161  0.338581  0.686088  1
  F  F69  1  0.024320  0.339097  0.852543  1
  F  F70  1  0.328515  0.886928  0.284968  1
  F  F71  1  0.330492  0.889919  0.118566  1
  F  F72  1  0.330564  0.892598  0.450024  1
  F  F73  1  0.333099  0.888539  0.617484  1
  F  F74  1  0.334086  0.888625  0.783775  1
  F  F75  1  0.334108  0.889699  0.952642  1
  F  F76  1  0.110081  0.440573  0.118566  1
  F  F77  1  0.113072  0.441586  0.284968  1
  F  F78  1  0.107402  0.437966  0.450024  1
  F  F79  1  0.111461  0.444560  0.617484  1
  F  F80  1  0.111375  0.445461  0.783775  1
  F  F81  1  0.110301  0.444409  0.952642  1
  F  F82  1  0.000000  0.000000  0.115356  1
  F  F83  1  0.000000  0.000000  0.281879  1
  F  F84  1  0.000000  0.000000  0.447369  1
  F  F85  1  0.000000  0.000000  0.550849  1
  F  F86  1  0.000000  0.000000  0.615386  1
  F  F87  1  0.333333  0.666667  0.054747  1
  F  F88  1  0.333333  0.666667  0.220088  1
  F  F89  1  0.333333  0.666667  0.551210  1
  F  F90  1  0.333333  0.666667  0.719959  1
  F  F91  1  0.333333  0.666667  0.886304  1
  F  F92  1  0.338070  0.307872  0.146932  1
  F  F93  1  0.342188  0.309965  0.313152  1
  F  F94  1  0.342205  0.310861  0.479734  1
  F  F95  1  0.339112  0.314758  0.647471  1
  F  F96  1  0.338527  0.314371  0.813908  1
  F  F97  1  0.335417  0.314339  0.981626  1
  F  F98  1  0.558414  0.671485  0.284968  1
  F  F99  1  0.559427  0.669508  0.118566  1
  F  F100  1  0.562034  0.669436  0.450024  1
  F  F101  1  0.555440  0.666901  0.617484  1
  F  F102  1  0.554539  0.665914  0.783775  1
  F  F103  1  0.555591  0.665892  0.952642  1
  F  F104  1  0.439002  0.334416  0.049977  1
  F  F105  1  0.439329  0.331289  0.213611  1
  F  F106  1  0.441950  0.330843  0.380939  1
  F  F107  1  0.443918  0.333143  0.547297  1
  F  F108  1  0.445451  0.334080  0.716217  1
  F  F109  1  0.444536  0.333030  0.882571  1
  F  F110  1  0.659278  0.688265  0.019988  1
  F  F111  1  0.658820  0.690012  0.353085  1
  F  F112  1  0.659227  0.689216  0.186611  1
  F  F113  1  0.663564  0.685670  0.518596  1
  F  F114  1  0.661419  0.685579  0.686088  1
  F  F115  1  0.660903  0.685222  0.852543  1
  F  F116  1  0.000000  0.000000  0.949968  1
  F  F117  1  0.666667  0.333333  0.780032  1
  F  F118  1  0.666667  0.333333  0.613703  1
  F  F119  1  0.666667  0.333333  0.948874  1
  F  F120  1  0.895414  0.560998  0.049977  1
  F  F121  1  0.891959  0.560671  0.213611  1
  F  F122  1  0.888893  0.558050  0.380939  1
  F  F123  1  0.888629  0.554549  0.716217  1
  F  F124  1  0.889224  0.556082  0.547297  1
  F  F125  1  0.888494  0.555464  0.882571  1
  F  F126  1  0.665584  0.104586  0.049977  1
  F  F127  1  0.669157  0.111107  0.380939  1
  F  F128  1  0.668711  0.108041  0.213611  1
  F  F129  1  0.666857  0.110776  0.547297  1
  F  F130  1  0.665920  0.111371  0.716217  1
  F  F131  1  0.666970  0.111506  0.882571  1
  F  F132  1  0.969803  0.661930  0.146932  1
  F  F133  1  0.967777  0.657812  0.313152  1
  F  F134  1  0.968657  0.657795  0.479734  1
  F  F135  1  0.975646  0.660888  0.647471  1
  F  F136  1  0.975844  0.661473  0.813908  1
  F  F137  1  0.978922  0.664583  0.981626  1
  F  F138  1  0.692128  0.030197  0.146932  1
  F  F139  1  0.690035  0.032223  0.313152  1
  F  F140  1  0.689139  0.031343  0.479734  1
  F  F141  1  0.685242  0.024354  0.647471  1
  F  F142  1  0.685629  0.024156  0.813908  1
  F  F143  1  0.685661  0.021078  0.981626  1
