# generated using pymatgen
data_Ni3OF5
_symmetry_space_group_name_H-M   'P 1'
_cell_length_a   10.53987265
_cell_length_b   6.63818945
_cell_length_c   3.08301527
_cell_angle_alpha   90.00000000
_cell_angle_beta   90.00000000
_cell_angle_gamma   108.44786041
_symmetry_Int_Tables_number   1
_chemical_formula_structural   Ni3OF5
_chemical_formula_sum   'Ni6 O2 F10'
_cell_volume   204.62057538
_cell_formula_units_Z   2
loop_
 _symmetry_equiv_pos_site_id
 _symmetry_equiv_pos_as_xyz
  1  'x, y, z'
loop_
 _atom_site_type_symbol
 _atom_site_label
 _atom_site_symmetry_multiplicity
 _atom_site_fract_x
 _atom_site_fract_y
 _atom_site_fract_z
 _atom_site_occupancy
  Ni  Ni0  1  0.996669  0.004106  0.000000  1
  Ni  Ni1  1  0.003388  0.492764  0.500000  1
  Ni  Ni2  1  0.331271  0.165620  0.500000  1
  Ni  Ni3  1  0.666911  0.334228  0.000000  1
  Ni  Ni4  1  0.342047  0.671716  0.000000  1
  Ni  Ni5  1  0.662507  0.831287  0.500000  1
  O  O6  1  0.001460  0.303585  0.000000  1
  O  O7  1  0.463828  0.732523  0.500000  1
  F  F8  1  0.129711  0.063106  0.500000  1
  F  F9  1  0.666688  0.032198  0.000000  1
  F  F10  1  0.001123  0.698689  0.000000  1
  F  F11  1  0.332504  0.362327  0.000000  1
  F  F12  1  0.206329  0.602465  0.500000  1
  F  F13  1  0.534250  0.267251  0.500000  1
  F  F14  1  0.798250  0.400360  0.500000  1
  F  F15  1  0.664869  0.634525  0.000000  1
  F  F16  1  0.333924  0.971561  0.000000  1
  F  F17  1  0.864273  0.931688  0.500000  1
