# generated using pymatgen
data_LiFe2OF3
_symmetry_space_group_name_H-M   'P 1'
_cell_length_a   6.27804007
_cell_length_b   6.22980597
_cell_length_c   8.62666477
_cell_angle_alpha   90.03994092
_cell_angle_beta   91.05598573
_cell_angle_gamma   90.19677511
_symmetry_Int_Tables_number   1
_chemical_formula_structural   LiFe2OF3
_chemical_formula_sum   'Li4 Fe8 O4 F12'
_cell_volume   337.33785073
_cell_formula_units_Z   4
loop_
 _symmetry_equiv_pos_site_id
 _symmetry_equiv_pos_as_xyz
  1  'x, y, z'
loop_
 _atom_site_type_symbol
 _atom_site_label
 _atom_site_symmetry_multiplicity
 _atom_site_fract_x
 _atom_site_fract_y
 _atom_site_fract_z
 _atom_site_occupancy
  Li  Li0  1  0.007004  0.247967  0.017704  1
  Li  Li1  1  0.010925  0.731083  0.494443  1
  Li  Li2  1  0.746455  0.501646  0.251585  1
  Li  Li3  1  0.740635  0.999340  0.253730  1
  Fe  Fe4  1  0.249386  0.994059  0.763837  1
  Fe  Fe5  1  0.254443  0.493317  0.727961  1
  Fe  Fe6  1  0.239670  0.269270  0.361459  1
  Fe  Fe7  1  0.224154  0.786280  0.127486  1
  Fe  Fe8  1  0.494137  0.246940  0.000529  1
  Fe  Fe9  1  0.492699  0.737687  0.490421  1
  Fe  Fe10  1  0.712471  0.252682  0.629988  1
  Fe  Fe11  1  0.821355  0.756005  0.878768  1
  O  O12  1  0.053361  0.738301  0.741205  1
  O  O13  1  0.265661  0.524505  0.484403  1
  O  O14  1  0.248471  0.039070  0.005803  1
  O  O15  1  0.459871  0.245516  0.754192  1
  F  F16  1  0.991719  0.238770  0.752055  1
  F  F17  1  0.240722  0.489056  0.014090  1
  F  F18  1  0.246842  0.985788  0.490474  1
  F  F19  1  0.522255  0.746949  0.760505  1
  F  F20  1  0.531775  0.253240  0.249002  1
  F  F21  1  0.522109  0.752439  0.243778  1
  F  F22  1  0.726300  0.972587  0.495627  1
  F  F23  1  0.760222  0.017911  0.010594  1
  F  F24  1  0.753777  0.477317  0.007605  1
  F  F25  1  0.759154  0.510611  0.491178  1
  F  F26  1  0.963623  0.241029  0.248346  1
  F  F27  1  0.960805  0.750635  0.253230  1
