# generated using pymatgen
data_Li6Co11(OF12)2
_symmetry_space_group_name_H-M   'P 1'
_cell_length_a   8.21026862
_cell_length_b   8.75538292
_cell_length_c   8.10264173
_cell_angle_alpha   106.16858152
_cell_angle_beta   90.09063505
_cell_angle_gamma   107.99160818
_symmetry_Int_Tables_number   1
_chemical_formula_structural   Li6Co11(OF12)2
_chemical_formula_sum   'Li6 Co11 O2 F24'
_cell_volume   529.60669581
_cell_formula_units_Z   1
loop_
 _symmetry_equiv_pos_site_id
 _symmetry_equiv_pos_as_xyz
  1  'x, y, z'
loop_
 _atom_site_type_symbol
 _atom_site_label
 _atom_site_symmetry_multiplicity
 _atom_site_fract_x
 _atom_site_fract_y
 _atom_site_fract_z
 _atom_site_occupancy
  Li  Li0  1  0.092002  0.239669  0.423763  1
  Li  Li1  1  0.210646  0.455174  0.078739  1
  Li  Li2  1  0.576112  0.932798  0.296965  1
  Li  Li3  1  0.376598  0.092397  0.696196  1
  Li  Li4  1  0.809160  0.553269  0.927658  1
  Li  Li5  1  0.899304  0.743063  0.573770  1
  Co  Co6  1  0.115372  0.850912  0.275742  1
  Co  Co7  1  0.230331  0.753236  0.866035  1
  Co  Co8  1  0.005685  0.995171  0.007415  1
  Co  Co9  1  0.295614  0.687982  0.484864  1
  Co  Co10  1  0.418662  0.508002  0.702774  1
  Co  Co11  1  0.351588  0.146849  0.142182  1
  Co  Co12  1  0.619653  0.856071  0.881536  1
  Co  Co13  1  0.627933  0.557600  0.273338  1
  Co  Co14  1  0.708878  0.320919  0.524499  1
  Co  Co15  1  0.789924  0.238970  0.128659  1
  Co  Co16  1  0.868422  0.155602  0.735411  1
  O  O17  1  0.133794  0.064700  0.230427  1
  O  O18  1  0.425924  0.745268  0.715409  1
  F  F19  1  0.007231  0.753982  0.989909  1
  F  F20  1  0.084996  0.683283  0.635002  1
  F  F21  1  0.073919  0.168385  0.620364  1
  F  F22  1  0.154455  0.624189  0.250380  1
  F  F23  1  0.246526  0.529027  0.884528  1
  F  F24  1  0.292555  0.926186  0.485103  1
  F  F25  1  0.379400  0.892231  0.109006  1
  F  F26  1  0.285450  0.440850  0.470695  1
  F  F27  1  0.253264  0.019621  0.886656  1
  F  F28  1  0.402578  0.385351  0.134366  1
  F  F29  1  0.492470  0.304403  0.664232  1
  F  F30  1  0.512676  0.725683  0.343551  1
  F  F31  1  0.622708  0.635759  0.912723  1
  F  F32  1  0.757979  0.988322  0.115398  1
  F  F33  1  0.578695  0.220473  0.274222  1
  F  F34  1  0.688460  0.545134  0.514004  1
  F  F35  1  0.654617  0.109825  0.881891  1
  F  F36  1  0.859665  0.913475  0.773784  1
  F  F37  1  0.692434  0.083782  0.518785  1
  F  F38  1  0.765624  0.451704  0.107059  1
  F  F39  1  0.852373  0.386898  0.750926  1
  F  F40  1  0.874803  0.763200  0.350339  1
  F  F41  1  0.906145  0.317599  0.365951  1
  F  F42  1  0.005375  0.232987  0.995745  1
