# generated using pymatgen
data_VO2F
_symmetry_space_group_name_H-M   'P 1'
_cell_length_a   5.10839936
_cell_length_b   9.00808554
_cell_length_c   5.07810133
_cell_angle_alpha   103.99180883
_cell_angle_beta   117.81061281
_cell_angle_gamma   76.52114528
_symmetry_Int_Tables_number   1
_chemical_formula_structural   VO2F
_chemical_formula_sum   'V4 O8 F4'
_cell_volume   198.57562119
_cell_formula_units_Z   4
loop_
 _symmetry_equiv_pos_site_id
 _symmetry_equiv_pos_as_xyz
  1  'x, y, z'
loop_
 _atom_site_type_symbol
 _atom_site_label
 _atom_site_symmetry_multiplicity
 _atom_site_fract_x
 _atom_site_fract_y
 _atom_site_fract_z
 _atom_site_occupancy
  V  V0  1  0.000000  0.000000  0.000000  1
  V  V1  1  0.685108  0.749653  0.206903  1
  V  V2  1  0.500000  0.500000  0.500000  1
  V  V3  1  0.314892  0.250347  0.793097  1
  O  O4  1  0.374551  0.876042  0.201303  1
  O  O5  1  0.463259  0.373209  0.126287  1
  O  O6  1  0.816919  0.874110  0.059855  1
  O  O7  1  0.297245  0.376554  0.545781  1
  O  O8  1  0.702755  0.623446  0.454219  1
  O  O9  1  0.183081  0.125890  0.940145  1
  O  O10  1  0.536741  0.626791  0.873713  1
  O  O11  1  0.625449  0.123958  0.798697  1
  F  F12  1  0.136414  0.623402  0.291014  1
  F  F13  1  0.036870  0.125346  0.372396  1
  F  F14  1  0.963130  0.874654  0.627604  1
  F  F15  1  0.863586  0.376598  0.708986  1
