# generated using pymatgen
data_LiCu5(PO4)2
_symmetry_space_group_name_H-M   'P 1'
_cell_length_a   6.20527268
_cell_length_b   5.66216552
_cell_length_c   10.34157432
_cell_angle_alpha   89.24593703
_cell_angle_beta   90.00000000
_cell_angle_gamma   90.00000000
_symmetry_Int_Tables_number   1
_chemical_formula_structural   LiCu5(PO4)2
_chemical_formula_sum   'Li2 Cu10 P4 O16'
_cell_volume   363.32265228
_cell_formula_units_Z   2
loop_
 _symmetry_equiv_pos_site_id
 _symmetry_equiv_pos_as_xyz
  1  'x, y, z'
loop_
 _atom_site_type_symbol
 _atom_site_label
 _atom_site_symmetry_multiplicity
 _atom_site_fract_x
 _atom_site_fract_y
 _atom_site_fract_z
 _atom_site_occupancy
  Li  Li0  1  0.000000  0.141486  0.246362  1
  Li  Li1  1  0.500000  0.854130  0.495621  1
  Cu  Cu2  1  0.000000  0.250082  0.733507  1
  Cu  Cu3  1  0.200045  0.350229  0.489008  1
  Cu  Cu4  1  0.286000  0.358103  0.000062  1
  Cu  Cu5  1  0.284973  0.637042  0.236505  1
  Cu  Cu6  1  0.256641  0.650271  0.751526  1
  Cu  Cu7  1  0.500000  0.740830  0.989065  1
  Cu  Cu8  1  0.743359  0.650271  0.751526  1
  Cu  Cu9  1  0.715027  0.637042  0.236505  1
  Cu  Cu10  1  0.799955  0.350229  0.489008  1
  Cu  Cu11  1  0.714000  0.358103  0.000062  1
  P  P12  1  0.000000  0.856635  0.005793  1
  P  P13  1  0.000000  0.824469  0.499735  1
  P  P14  1  0.500000  0.164997  0.259276  1
  P  P15  1  0.500000  0.159327  0.747953  1
  O  O16  1  0.000000  0.840241  0.649508  1
  O  O17  1  0.000000  0.076930  0.434782  1
  O  O18  1  0.000000  0.835390  0.156297  1
  O  O19  1  0.000000  0.115403  0.957595  1
  O  O20  1  0.211145  0.698865  0.451541  1
  O  O21  1  0.196974  0.715090  0.950143  1
  O  O22  1  0.289244  0.288282  0.206057  1
  O  O23  1  0.300865  0.305022  0.697834  1
  O  O24  1  0.500000  0.143383  0.898079  1
  O  O25  1  0.500000  0.911364  0.686146  1
  O  O26  1  0.500000  0.171124  0.409515  1
  O  O27  1  0.500000  0.908398  0.208005  1
  O  O28  1  0.699135  0.305022  0.697834  1
  O  O29  1  0.710756  0.288282  0.206057  1
  O  O30  1  0.788855  0.698865  0.451541  1
  O  O31  1  0.803026  0.715090  0.950143  1
