# generated using pymatgen
data_V2O5
_symmetry_space_group_name_H-M   'P 1'
_cell_length_a   10.22974320
_cell_length_b   5.35981858
_cell_length_c   8.95097224
_cell_angle_alpha   90.00000000
_cell_angle_beta   114.59091212
_cell_angle_gamma   90.00000000
_symmetry_Int_Tables_number   1
_chemical_formula_structural   V2O5
_chemical_formula_sum   'V8 O20'
_cell_volume   446.26542224
_cell_formula_units_Z   4
loop_
 _symmetry_equiv_pos_site_id
 _symmetry_equiv_pos_as_xyz
  1  'x, y, z'
loop_
 _atom_site_type_symbol
 _atom_site_label
 _atom_site_symmetry_multiplicity
 _atom_site_fract_x
 _atom_site_fract_y
 _atom_site_fract_z
 _atom_site_occupancy
  V  V0  1  0.117131  0.496651  0.793187  1
  V  V1  1  0.117131  0.003349  0.293187  1
  V  V2  1  0.382052  0.931261  0.707678  1
  V  V3  1  0.382052  0.568739  0.207678  1
  V  V4  1  0.617948  0.431261  0.792322  1
  V  V5  1  0.617948  0.068739  0.292322  1
  V  V6  1  0.882869  0.996651  0.706813  1
  V  V7  1  0.882869  0.503349  0.206813  1
  O  O8  1  0.972479  0.700254  0.770107  1
  O  O9  1  0.972479  0.799746  0.270107  1
  O  O10  1  0.246313  0.524597  0.998935  1
  O  O11  1  0.246313  0.975403  0.498935  1
  O  O12  1  0.188504  0.579608  0.667182  1
  O  O13  1  0.323412  0.040623  0.837801  1
  O  O14  1  0.188504  0.920392  0.167182  1
  O  O15  1  0.323412  0.459377  0.337801  1
  O  O16  1  0.482779  0.643291  0.788887  1
  O  O17  1  0.517221  0.143291  0.711113  1
  O  O18  1  0.482779  0.856709  0.288887  1
  O  O19  1  0.517221  0.356709  0.211113  1
  O  O20  1  0.676588  0.540623  0.662199  1
  O  O21  1  0.811496  0.079608  0.832818  1
  O  O22  1  0.676588  0.959377  0.162199  1
  O  O23  1  0.811496  0.420392  0.332818  1
  O  O24  1  0.753687  0.024597  0.501065  1
  O  O25  1  0.753687  0.475403  0.001065  1
  O  O26  1  0.027521  0.200254  0.729893  1
  O  O27  1  0.027521  0.299746  0.229893  1
