# generated using pymatgen
data_Li2AlVO4
_symmetry_space_group_name_H-M   'P 1'
_cell_length_a   6.36919559
_cell_length_b   5.56549064
_cell_length_c   4.98766437
_cell_angle_alpha   90.00000000
_cell_angle_beta   90.00000000
_cell_angle_gamma   90.00000000
_symmetry_Int_Tables_number   1
_chemical_formula_structural   Li2AlVO4
_chemical_formula_sum   'Li4 Al2 V2 O8'
_cell_volume   176.80122251
_cell_formula_units_Z   2
loop_
 _symmetry_equiv_pos_site_id
 _symmetry_equiv_pos_as_xyz
  1  'x, y, z'
loop_
 _atom_site_type_symbol
 _atom_site_label
 _atom_site_symmetry_multiplicity
 _atom_site_fract_x
 _atom_site_fract_y
 _atom_site_fract_z
 _atom_site_occupancy
  Li  Li0  1  0.250500  0.333493  0.991364  1
  Li  Li1  1  0.249500  0.666507  0.491364  1
  Li  Li2  1  0.749500  0.333493  0.991364  1
  Li  Li3  1  0.750500  0.666507  0.491364  1
  Al  Al4  1  0.000000  0.169881  0.498006  1
  Al  Al5  1  0.500000  0.830119  0.998006  1
  V  V6  1  0.000000  0.832479  0.990410  1
  V  V7  1  0.500000  0.167521  0.490410  1
  O  O8  1  0.000000  0.158478  0.856943  1
  O  O9  1  0.000000  0.864744  0.383293  1
  O  O10  1  0.265511  0.680594  0.894310  1
  O  O11  1  0.234489  0.319406  0.394310  1
  O  O12  1  0.500000  0.135256  0.883293  1
  O  O13  1  0.500000  0.841522  0.356943  1
  O  O14  1  0.765511  0.319406  0.394310  1
  O  O15  1  0.734489  0.680594  0.894310  1
