# generated using pymatgen
data_Pr2S2O
_symmetry_space_group_name_H-M   'P 1'
_cell_length_a   8.63732864
_cell_length_b   7.27930052
_cell_length_c   7.17555462
_cell_angle_alpha   90.00000000
_cell_angle_beta   98.61988347
_cell_angle_gamma   90.00000000
_symmetry_Int_Tables_number   1
_chemical_formula_structural   Pr2S2O
_chemical_formula_sum   'Pr8 S8 O4'
_cell_volume   446.05770674
_cell_formula_units_Z   4
loop_
 _symmetry_equiv_pos_site_id
 _symmetry_equiv_pos_as_xyz
  1  'x, y, z'
loop_
 _atom_site_type_symbol
 _atom_site_label
 _atom_site_symmetry_multiplicity
 _atom_site_fract_x
 _atom_site_fract_y
 _atom_site_fract_z
 _atom_site_occupancy
  Pr  Pr0  1  0.136050  0.555911  0.752768  1
  Pr  Pr1  1  0.136050  0.944089  0.252768  1
  Pr  Pr2  1  0.420683  0.139315  0.685475  1
  Pr  Pr3  1  0.420683  0.360685  0.185475  1
  Pr  Pr4  1  0.579317  0.639315  0.814525  1
  Pr  Pr5  1  0.579317  0.860685  0.314525  1
  Pr  Pr6  1  0.863950  0.055911  0.747232  1
  Pr  Pr7  1  0.863950  0.444089  0.247232  1
  S  S8  1  0.078519  0.224886  0.528115  1
  S  S9  1  0.078519  0.275114  0.028115  1
  S  S10  1  0.321286  0.859744  0.932176  1
  S  S11  1  0.321286  0.640256  0.432176  1
  S  S12  1  0.678714  0.359744  0.567824  1
  S  S13  1  0.678714  0.140256  0.067824  1
  S  S14  1  0.921481  0.724886  0.971885  1
  S  S15  1  0.921481  0.775114  0.471885  1
  O  O16  1  0.381997  0.414997  0.851714  1
  O  O17  1  0.381997  0.085003  0.351714  1
  O  O18  1  0.618003  0.914997  0.648286  1
  O  O19  1  0.618003  0.585003  0.148286  1
