# generated using pymatgen
data_Na5(WO3)6
_symmetry_space_group_name_H-M   'P 1'
_cell_length_a   6.83660895
_cell_length_b   16.87793102
_cell_length_c   6.83660895
_cell_angle_alpha   90.00000000
_cell_angle_beta   109.62993429
_cell_angle_gamma   90.00000000
_symmetry_Int_Tables_number   1
_chemical_formula_structural   Na5(WO3)6
_chemical_formula_sum   'Na10 W12 O36'
_cell_volume   743.01437261
_cell_formula_units_Z   2
loop_
 _symmetry_equiv_pos_site_id
 _symmetry_equiv_pos_as_xyz
  1  'x, y, z'
loop_
 _atom_site_type_symbol
 _atom_site_label
 _atom_site_symmetry_multiplicity
 _atom_site_fract_x
 _atom_site_fract_y
 _atom_site_fract_z
 _atom_site_occupancy
  Na  Na0  1  0.500370  0.666317  0.499630  1
  Na  Na1  1  0.249624  0.166338  0.750376  1
  Na  Na2  1  0.249988  0.500000  0.750012  1
  Na  Na3  1  0.500370  0.333683  0.499630  1
  Na  Na4  1  0.500010  0.000000  0.499990  1
  Na  Na5  1  0.249624  0.833662  0.750376  1
  Na  Na6  1  0.750327  0.833800  0.249673  1
  Na  Na7  1  0.750327  0.166200  0.249673  1
  Na  Na8  1  0.999659  0.666199  0.000342  1
  Na  Na9  1  0.999659  0.333801  0.000342  1
  W  W10  1  0.751256  0.165050  0.751165  1
  W  W11  1  0.751256  0.834950  0.751165  1
  W  W12  1  0.749814  0.500000  0.750121  1
  W  W13  1  0.248835  0.834950  0.248744  1
  W  W14  1  0.501173  0.665066  0.001205  1
  W  W15  1  0.998795  0.665066  0.498827  1
  W  W16  1  0.500096  0.000000  -0.000145  1
  W  W17  1  0.249879  0.500000  0.250186  1
  W  W18  1  0.998795  0.334934  0.498827  1
  W  W19  1  0.248835  0.165050  0.248744  1
  W  W20  1  0.501173  0.334934  0.001205  1
  W  W21  1  0.000145  0.000000  0.499904  1
  O  O22  1  0.625268  0.749980  0.875336  1
  O  O23  1  0.622758  0.914186  0.871765  1
  O  O24  1  0.622758  0.085814  0.871765  1
  O  O25  1  0.625268  0.250020  0.875336  1
  O  O26  1  0.878306  0.585876  0.627164  1
  O  O27  1  0.874894  0.750068  0.625103  1
  O  O28  1  0.621894  0.585754  0.872601  1
  O  O29  1  0.874894  0.249932  0.625103  1
  O  O30  1  0.621894  0.414246  0.872601  1
  O  O31  1  0.871673  0.914155  0.622856  1
  O  O32  1  0.871673  0.085845  0.622856  1
  O  O33  1  0.878306  0.414124  0.627164  1
  O  O34  1  0.249967  0.666484  0.750033  1
  O  O35  1  0.252705  0.000000  0.747295  1
  O  O36  1  0.249967  0.333516  0.750033  1
  O  O37  1  0.500023  0.166489  0.499977  1
  O  O38  1  0.747268  0.000000  0.252732  1
  O  O39  1  0.750008  0.331790  0.249992  1
  O  O40  1  0.500023  0.833511  0.499977  1
  O  O41  1  0.750008  0.668210  0.249992  1
  O  O42  1  0.497322  0.500000  0.502678  1
  O  O43  1  0.374897  0.750068  0.125106  1
  O  O44  1  0.128235  0.085814  0.377242  1
  O  O45  1  0.127399  0.414246  0.378106  1
  O  O46  1  0.127399  0.585754  0.378106  1
  O  O47  1  0.124664  0.749980  0.374732  1
  O  O48  1  0.372836  0.585876  0.121694  1
  O  O49  1  0.124664  0.250020  0.374732  1
  O  O50  1  0.377144  0.085845  0.128327  1
  O  O51  1  0.374897  0.249932  0.125106  1
  O  O52  1  0.372836  0.414124  0.121694  1
  O  O53  1  0.128235  0.914186  0.377242  1
  O  O54  1  0.377144  0.914155  0.128327  1
  O  O55  1  -0.000028  0.831791  0.000028  1
  O  O56  1  0.002823  0.500000  0.997177  1
  O  O57  1  -0.000028  0.168209  0.000028  1
