# generated using pymatgen
data_MgPHO9
_symmetry_space_group_name_H-M   'P 1'
_cell_length_a   5.39064150
_cell_length_b   5.37420906
_cell_length_c   5.33923309
_cell_angle_alpha   92.48155083
_cell_angle_beta   92.52343832
_cell_angle_gamma   92.57887751
_symmetry_Int_Tables_number   1
_chemical_formula_structural   MgPHO9
_chemical_formula_sum   'Mg1 P1 H1 O9'
_cell_volume   154.21444766
_cell_formula_units_Z   1
loop_
 _symmetry_equiv_pos_site_id
 _symmetry_equiv_pos_as_xyz
  1  'x, y, z'
loop_
 _atom_site_type_symbol
 _atom_site_label
 _atom_site_symmetry_multiplicity
 _atom_site_fract_x
 _atom_site_fract_y
 _atom_site_fract_z
 _atom_site_occupancy
  Mg  Mg0  1  0.018636  0.017932  0.019669  1
  P  P1  1  0.479203  0.479788  0.478494  1
  H  H2  1  0.637692  0.639923  0.640689  1
  O  O3  1  0.520089  0.208083  0.543351  1
  O  O4  1  0.207826  0.545343  0.519797  1
  O  O5  1  0.544904  0.522256  0.205688  1
  O  O6  1  0.041208  0.610033  0.957243  1
  O  O7  1  0.610837  0.956466  0.040910  1
  O  O8  1  0.957122  0.039547  0.611244  1
  O  O9  1  0.087288  0.976889  0.428445  1
  O  O10  1  0.975767  0.427677  0.085193  1
  O  O11  1  0.428429  0.085063  0.978276  1
