# generated using pymatgen
data_Mn12O5F19
_symmetry_space_group_name_H-M   'P 1'
_cell_length_a   5.01867444
_cell_length_b   5.60863436
_cell_length_c   15.75024325
_cell_angle_alpha   87.62355558
_cell_angle_beta   91.42982409
_cell_angle_gamma   95.45316566
_symmetry_Int_Tables_number   1
_chemical_formula_structural   Mn12O5F19
_chemical_formula_sum   'Mn12 O5 F19'
_cell_volume   440.85201141
_cell_formula_units_Z   1
loop_
 _symmetry_equiv_pos_site_id
 _symmetry_equiv_pos_as_xyz
  1  'x, y, z'
loop_
 _atom_site_type_symbol
 _atom_site_label
 _atom_site_symmetry_multiplicity
 _atom_site_fract_x
 _atom_site_fract_y
 _atom_site_fract_z
 _atom_site_occupancy
  Mn  Mn0  1  0.985537  0.935129  0.997367  1
  Mn  Mn1  1  0.986487  0.561304  0.152983  1
  Mn  Mn2  1  0.035765  0.908352  0.339192  1
  Mn  Mn3  1  -0.000021  0.557515  0.504149  1
  Mn  Mn4  1  0.946963  0.983284  0.665621  1
  Mn  Mn5  1  0.008140  0.539606  0.823275  1
  Mn  Mn6  1  0.500313  0.048519  0.178548  1
  Mn  Mn7  1  0.491880  0.430627  0.999772  1
  Mn  Mn8  1  0.526353  0.441255  0.654441  1
  Mn  Mn9  1  0.498488  0.063253  0.501354  1
  Mn  Mn10  1  0.488046  0.396704  0.329387  1
  Mn  Mn11  1  0.455738  0.061608  0.846548  1
  O  O12  1  0.275588  0.142885  0.280760  1
  O  O13  1  0.213109  0.851219  0.447634  1
  O  O14  1  0.248900  0.177456  0.950010  1
  O  O15  1  0.748215  0.293852  0.558209  1
  O  O16  1  0.767148  0.659507  0.046600  1
  F  F17  1  0.222805  0.871220  0.099320  1
  F  F18  1  0.270067  0.139907  0.598868  1
  F  F19  1  0.215171  0.852123  0.765252  1
  F  F20  1  0.304453  0.376383  0.110866  1
  F  F21  1  0.269317  0.650530  0.263870  1
  F  F22  1  0.201720  0.635629  0.612763  1
  F  F23  1  0.264246  0.681753  0.930607  1
  F  F24  1  0.277716  0.339031  0.765865  1
  F  F25  1  0.284422  0.361124  0.438759  1
  F  F26  1  0.715007  0.368293  0.901575  1
  F  F27  1  0.740126  0.351955  0.234107  1
  F  F28  1  0.778481  0.613746  0.385160  1
  F  F29  1  0.728041  0.692931  0.731246  1
  F  F30  1  0.718323  0.111272  0.393944  1
  F  F31  1  0.749651  0.159329  0.071048  1
  F  F32  1  0.752260  0.206214  0.742805  1
  F  F33  1  0.722535  0.796934  0.559159  1
  F  F34  1  0.795976  0.886104  0.888629  1
  F  F35  1  0.813031  0.853444  0.230308  1
