# generated using pymatgen
data_LiMn10(PO4)7
_symmetry_space_group_name_H-M   'P 1'
_cell_length_a   10.24870506
_cell_length_b   13.10836302
_cell_length_c   10.24870493
_cell_angle_alpha   113.01190633
_cell_angle_beta   59.99999959
_cell_angle_gamma   113.01190504
_symmetry_Int_Tables_number   1
_chemical_formula_structural   LiMn10(PO4)7
_chemical_formula_sum   'Li2 Mn20 P14 O56'
_cell_volume   1063.99345044
_cell_formula_units_Z   2
loop_
 _symmetry_equiv_pos_site_id
 _symmetry_equiv_pos_as_xyz
  1  'x, y, z'
loop_
 _atom_site_type_symbol
 _atom_site_label
 _atom_site_symmetry_multiplicity
 _atom_site_fract_x
 _atom_site_fract_y
 _atom_site_fract_z
 _atom_site_occupancy
  Li  Li0  1  0.184116  0.552348  0.184116  1
  Li  Li1  1  0.684116  0.052348  0.684116  1
  Mn  Mn2  1  0.065922  0.797982  0.074015  1
  Mn  Mn3  1  0.065647  0.983330  0.473029  1
  Mn  Mn4  1  0.444653  0.983330  0.065647  1
  Mn  Mn5  1  0.002548  0.007644  0.002548  1
  Mn  Mn6  1  0.074015  0.797982  0.658046  1
  Mn  Mn7  1  0.473029  0.983330  0.444653  1
  Mn  Mn8  1  0.409335  0.707700  0.446200  1
  Mn  Mn9  1  0.658046  0.797982  0.065922  1
  Mn  Mn10  1  0.158046  0.297982  0.574015  1
  Mn  Mn11  1  0.565922  0.297982  0.158046  1
  Mn  Mn12  1  0.502548  0.507644  0.502548  1
  Mn  Mn13  1  0.446200  0.707700  0.852165  1
  Mn  Mn14  1  0.852165  0.707700  0.409335  1
  Mn  Mn15  1  0.574015  0.297982  0.565922  1
  Mn  Mn16  1  0.352165  0.207700  0.946200  1
  Mn  Mn17  1  0.565647  0.483330  0.944653  1
  Mn  Mn18  1  0.909335  0.207700  0.352165  1
  Mn  Mn19  1  0.973029  0.483330  0.565647  1
  Mn  Mn20  1  0.944653  0.483330  0.973029  1
  Mn  Mn21  1  0.946200  0.207700  0.909335  1
  P  P22  1  0.268438  0.805315  0.268438  1
  P  P23  1  0.270014  0.411831  0.311457  1
  P  P24  1  0.184537  0.100169  0.230641  1
  P  P25  1  0.184989  0.600169  0.730641  1
  P  P26  1  0.330361  0.911831  0.811457  1
  P  P27  1  0.684537  0.600169  0.184989  1
  P  P28  1  0.770014  0.911831  0.330361  1
  P  P29  1  0.311457  0.411831  0.830361  1
  P  P30  1  0.230641  0.100169  0.684989  1
  P  P31  1  0.684989  0.100169  0.184537  1
  P  P32  1  0.811457  0.911831  0.770014  1
  P  P33  1  0.830361  0.411831  0.270014  1
  P  P34  1  0.730641  0.600169  0.684537  1
  P  P35  1  0.768438  0.305315  0.768438  1
  O  O36  1  0.164171  0.969342  0.184670  1
  O  O37  1  0.108809  0.762563  0.256866  1
  O  O38  1  0.313261  0.939784  0.313261  1
  O  O39  1  0.184670  0.969342  0.620501  1
  O  O40  1  0.396888  0.762563  0.108809  1
  O  O41  1  0.256866  0.762563  0.396888  1
  O  O42  1  0.099247  0.347152  0.403647  1
  O  O43  1  0.119315  0.135173  0.150000  1
  O  O44  1  0.118499  0.656263  0.677571  1
  O  O45  1  0.149564  0.889817  0.871476  1
  O  O46  1  0.266408  0.538723  0.356084  1
  O  O47  1  0.620501  0.969342  0.164171  1
  O  O48  1  0.090256  0.134023  0.409454  1
  O  O49  1  0.334486  0.368090  0.133381  1
  O  O50  1  0.120501  0.469342  0.684670  1
  O  O51  1  0.400223  0.868090  0.633381  1
  O  O52  1  0.134312  0.634023  0.909454  1
  O  O53  1  0.590256  0.634023  0.134312  1
  O  O54  1  0.599247  0.847152  0.344258  1
  O  O55  1  0.368778  0.389817  0.371476  1
  O  O56  1  0.360193  0.156263  0.177571  1
  O  O57  1  0.365857  0.635173  0.650000  1
  O  O58  1  0.344258  0.847152  0.903647  1
  O  O59  1  0.133381  0.368090  0.900223  1
  O  O60  1  0.177571  0.156263  0.618499  1
  O  O61  1  0.664171  0.469342  0.120501  1
  O  O62  1  0.619315  0.635173  0.365857  1
  O  O63  1  0.868778  0.889817  0.149564  1
  O  O64  1  0.371476  0.389817  0.649564  1
  O  O65  1  0.150000  0.135173  0.865857  1
  O  O66  1  0.356084  0.538723  0.916232  1
  O  O67  1  0.860193  0.656263  0.118499  1
  O  O68  1  0.834486  0.868090  0.400223  1
  O  O69  1  0.634312  0.134023  0.090256  1
  O  O70  1  0.633381  0.868090  0.834486  1
  O  O71  1  0.650000  0.635173  0.619315  1
  O  O72  1  0.649564  0.389817  0.368778  1
  O  O73  1  0.403647  0.347152  0.844258  1
  O  O74  1  0.409454  0.134023  0.634312  1
  O  O75  1  0.844258  0.347152  0.099247  1
  O  O76  1  0.618499  0.156263  0.360193  1
  O  O77  1  0.916232  0.538723  0.266408  1
  O  O78  1  0.677571  0.656263  0.860193  1
  O  O79  1  0.903647  0.847152  0.599247  1
  O  O80  1  0.684670  0.469342  0.664171  1
  O  O81  1  0.416232  0.038723  0.856084  1
  O  O82  1  0.871476  0.889817  0.868778  1
  O  O83  1  0.865857  0.135173  0.119315  1
  O  O84  1  0.900223  0.368090  0.334486  1
  O  O85  1  0.909454  0.634023  0.590256  1
  O  O86  1  0.608809  0.262563  0.896888  1
  O  O87  1  0.756866  0.262563  0.608809  1
  O  O88  1  0.766407  0.038723  0.416232  1
  O  O89  1  0.813261  0.439784  0.813261  1
  O  O90  1  0.896888  0.262563  0.756866  1
  O  O91  1  0.856084  0.038723  0.766407  1
