# generated using pymatgen
data_Mn3FeCo2(PO4)6
_symmetry_space_group_name_H-M   'P 1'
_cell_length_a   8.47402735
_cell_length_b   8.58595840
_cell_length_c   8.58595822
_cell_angle_alpha   59.99999401
_cell_angle_beta   59.56208712
_cell_angle_gamma   59.56208297
_symmetry_Int_Tables_number   1
_chemical_formula_structural   Mn3FeCo2(PO4)6
_chemical_formula_sum   'Mn3 Fe1 Co2 P6 O24'
_cell_volume   438.77899142
_cell_formula_units_Z   1
loop_
 _symmetry_equiv_pos_site_id
 _symmetry_equiv_pos_as_xyz
  1  'x, y, z'
loop_
 _atom_site_type_symbol
 _atom_site_label
 _atom_site_symmetry_multiplicity
 _atom_site_fract_x
 _atom_site_fract_y
 _atom_site_fract_z
 _atom_site_occupancy
  Mn  Mn0  1  0.072971  0.642343  0.642343  1
  Mn  Mn1  1  0.429173  0.856942  0.856942  1
  Mn  Mn2  1  0.929322  0.356893  0.356893  1
  Fe  Fe3  1  0.568136  0.143955  0.143955  1
  Co  Co4  1  0.995609  0.001464  0.001464  1
  Co  Co5  1  0.502007  0.499331  0.499331  1
  P  P6  1  0.248061  0.250038  0.545349  1
  P  P7  1  0.248061  0.956551  0.250038  1
  P  P8  1  0.248061  0.545349  0.956551  1
  P  P9  1  0.753408  0.457706  0.039583  1
  P  P10  1  0.753408  0.039583  0.749303  1
  P  P11  1  0.753408  0.749303  0.457706  1
  O  O12  1  0.060838  0.115680  0.311766  1
  O  O13  1  0.060838  0.511716  0.115680  1
  O  O14  1  0.060838  0.311766  0.511716  1
  O  O15  1  0.226280  0.090595  0.745267  1
  O  O16  1  0.432773  0.187552  0.387703  1
  O  O17  1  0.268755  0.415444  0.558870  1
  O  O18  1  0.226280  0.937857  0.090595  1
  O  O19  1  0.268755  0.756932  0.415444  1
  O  O20  1  0.565159  0.615009  0.006330  1
  O  O21  1  0.268755  0.558870  0.756932  1
  O  O22  1  0.775877  0.259824  0.056253  1
  O  O23  1  0.565159  0.006330  0.813502  1
  O  O24  1  0.432773  0.991972  0.187552  1
  O  O25  1  0.226280  0.745267  0.937857  1
  O  O26  1  0.730242  0.446056  0.238039  1
  O  O27  1  0.432773  0.387703  0.991972  1
  O  O28  1  0.730242  0.238039  0.585664  1
  O  O29  1  0.775877  0.056253  0.908045  1
  O  O30  1  0.730242  0.585664  0.446056  1
  O  O31  1  0.565159  0.813502  0.615009  1
  O  O32  1  0.775877  0.908045  0.259824  1
  O  O33  1  0.939534  0.683064  0.497589  1
  O  O34  1  0.939534  0.497589  0.879814  1
  O  O35  1  0.939534  0.879814  0.683064  1
