# generated using pymatgen
data_Li3CrPCO7
_symmetry_space_group_name_H-M   'P 1'
_cell_length_a   8.55502228
_cell_length_b   9.98871112
_cell_length_c   6.48494146
_cell_angle_alpha   90.00000000
_cell_angle_beta   90.00000000
_cell_angle_gamma   84.91204349
_symmetry_Int_Tables_number   1
_chemical_formula_structural   Li3CrPCO7
_chemical_formula_sum   'Li12 Cr4 P4 C4 O28'
_cell_volume   551.97834529
_cell_formula_units_Z   4
loop_
 _symmetry_equiv_pos_site_id
 _symmetry_equiv_pos_as_xyz
  1  'x, y, z'
loop_
 _atom_site_type_symbol
 _atom_site_label
 _atom_site_symmetry_multiplicity
 _atom_site_fract_x
 _atom_site_fract_y
 _atom_site_fract_z
 _atom_site_occupancy
  Li  Li0  1  0.106890  0.384962  0.253690  1
  Li  Li1  1  0.106890  0.884962  0.246310  1
  Li  Li2  1  0.292512  0.116411  0.019460  1
  Li  Li3  1  0.292512  0.616411  0.480540  1
  Li  Li4  1  0.354295  0.388872  0.741772  1
  Li  Li5  1  0.354295  0.888872  0.758228  1
  Li  Li6  1  0.645705  0.111128  0.241772  1
  Li  Li7  1  0.645705  0.611128  0.258228  1
  Li  Li8  1  0.707488  0.383589  0.519459  1
  Li  Li9  1  0.707488  0.883589  0.980541  1
  Li  Li10  1  0.893110  0.115038  0.753690  1
  Li  Li11  1  0.893110  0.615038  0.746310  1
  Cr  Cr12  1  0.261751  0.124380  0.510080  1
  Cr  Cr13  1  0.261751  0.624380  0.989920  1
  Cr  Cr14  1  0.738249  0.375620  0.010080  1
  Cr  Cr15  1  0.738249  0.875620  0.489920  1
  P  P16  1  0.410457  0.360998  0.246568  1
  P  P17  1  0.410457  0.860998  0.253432  1
  P  P18  1  0.589543  0.139002  0.746568  1
  P  P19  1  0.589543  0.639002  0.753432  1
  C  C20  1  0.038148  0.352810  0.749519  1
  C  C21  1  0.038148  0.852810  0.750481  1
  C  C22  1  0.961852  0.147190  0.249519  1
  C  C23  1  0.961852  0.647190  0.250481  1
  O  O24  1  0.064636  0.476458  0.753307  1
  O  O25  1  0.107615  0.182253  0.265926  1
  O  O26  1  0.064636  0.976458  0.746693  1
  O  O27  1  0.149759  0.257340  0.732364  1
  O  O28  1  0.107615  0.682253  0.234074  1
  O  O29  1  0.149759  0.757340  0.767636  1
  O  O30  1  0.311693  0.416568  0.056997  1
  O  O31  1  0.314063  0.413612  0.435990  1
  O  O32  1  0.314063  0.913612  0.064010  1
  O  O33  1  0.311693  0.916568  0.443003  1
  O  O34  1  0.421730  0.088855  0.748249  1
  O  O35  1  0.426348  0.205191  0.238491  1
  O  O36  1  0.421730  0.588855  0.751751  1
  O  O37  1  0.426348  0.705191  0.261509  1
  O  O38  1  0.573652  0.294809  0.738491  1
  O  O39  1  0.578270  0.411145  0.248249  1
  O  O40  1  0.573652  0.794809  0.761509  1
  O  O41  1  0.578270  0.911145  0.251751  1
  O  O42  1  0.685937  0.086388  0.935990  1
  O  O43  1  0.688307  0.083432  0.556997  1
  O  O44  1  0.685937  0.586388  0.564010  1
  O  O45  1  0.688307  0.583432  0.943003  1
  O  O46  1  0.850241  0.242660  0.232364  1
  O  O47  1  0.892385  0.317747  0.765926  1
  O  O48  1  0.850241  0.742660  0.267636  1
  O  O49  1  0.935364  0.023542  0.253307  1
  O  O50  1  0.892385  0.817747  0.734074  1
  O  O51  1  0.935364  0.523542  0.246693  1
