# generated using pymatgen
data_LaAlO3
_symmetry_space_group_name_H-M   'P 1'
_cell_length_a   16.24774815
_cell_length_b   7.93888801
_cell_length_c   7.36760527
_cell_angle_alpha   90.00000000
_cell_angle_beta   97.21804968
_cell_angle_gamma   90.00000000
_symmetry_Int_Tables_number   1
_chemical_formula_structural   LaAlO3
_chemical_formula_sum   'La12 Al12 O36'
_cell_volume   942.80913875
_cell_formula_units_Z   12
loop_
 _symmetry_equiv_pos_site_id
 _symmetry_equiv_pos_as_xyz
  1  'x, y, z'
loop_
 _atom_site_type_symbol
 _atom_site_label
 _atom_site_symmetry_multiplicity
 _atom_site_fract_x
 _atom_site_fract_y
 _atom_site_fract_z
 _atom_site_occupancy
  La  La0  1  0.096633  0.125803  0.264119  1
  La  La1  1  0.095372  0.625887  0.264374  1
  La  La2  1  0.243140  0.375400  0.968698  1
  La  La3  1  0.256860  0.875400  0.031302  1
  La  La4  1  0.404628  0.125887  0.735626  1
  La  La5  1  0.403367  0.625803  0.735881  1
  La  La6  1  0.596634  0.374198  0.264119  1
  La  La7  1  0.595372  0.874113  0.264374  1
  La  La8  1  0.743140  0.124600  0.968698  1
  La  La9  1  0.756860  0.624600  0.031302  1
  La  La10  1  0.904628  0.374113  0.735626  1
  La  La11  1  0.903366  0.874197  0.735881  1
  Al  Al12  1  0.093278  0.594586  0.763826  1
  Al  Al13  1  0.093346  0.155508  0.764777  1
  Al  Al14  1  0.201371  0.875818  0.555974  1
  Al  Al15  1  0.298629  0.375818  0.444026  1
  Al  Al16  1  0.406654  0.655508  0.235223  1
  Al  Al17  1  0.406722  0.094586  0.236174  1
  Al  Al18  1  0.593278  0.905414  0.763826  1
  Al  Al19  1  0.593346  0.344492  0.764777  1
  Al  Al20  1  0.701371  0.624182  0.555974  1
  Al  Al21  1  0.798629  0.124182  0.444026  1
  Al  Al22  1  0.906654  0.844492  0.235223  1
  Al  Al23  1  0.906722  0.405414  0.236174  1
  O  O24  1  0.012859  0.881238  0.226636  1
  O  O25  1  0.013869  0.370342  0.235037  1
  O  O26  1  0.108465  0.375267  0.745237  1
  O  O27  1  0.154170  0.643795  0.978299  1
  O  O28  1  0.137182  0.695590  0.584333  1
  O  O29  1  0.156224  0.108093  0.977824  1
  O  O30  1  0.137283  0.055511  0.584524  1
  O  O31  1  0.197408  0.873673  0.312066  1
  O  O32  1  0.205336  0.377082  0.288845  1
  O  O33  1  0.294664  0.877082  0.711155  1
  O  O34  1  0.302592  0.373673  0.687934  1
  O  O35  1  0.362717  0.555512  0.415476  1
  O  O36  1  0.343776  0.608093  0.022176  1
  O  O37  1  0.362818  0.195590  0.415667  1
  O  O38  1  0.345830  0.143795  0.021701  1
  O  O39  1  0.391535  0.875267  0.254763  1
  O  O40  1  0.486131  0.870342  0.764963  1
  O  O41  1  0.487141  0.381238  0.773364  1
  O  O42  1  0.512859  0.618762  0.226636  1
  O  O43  1  0.513869  0.129658  0.235037  1
  O  O44  1  0.608465  0.124733  0.745237  1
  O  O45  1  0.654170  0.856205  0.978299  1
  O  O46  1  0.637182  0.804410  0.584333  1
  O  O47  1  0.656224  0.391907  0.977824  1
  O  O48  1  0.637283  0.444489  0.584524  1
  O  O49  1  0.697408  0.626327  0.312066  1
  O  O50  1  0.705336  0.122918  0.288845  1
  O  O51  1  0.794664  0.622918  0.711155  1
  O  O52  1  0.802592  0.126327  0.687934  1
  O  O53  1  0.862717  0.944488  0.415476  1
  O  O54  1  0.843776  0.891907  0.022176  1
  O  O55  1  0.862818  0.304410  0.415667  1
  O  O56  1  0.845830  0.356205  0.021701  1
  O  O57  1  0.891535  0.624733  0.254763  1
  O  O58  1  0.986131  0.629658  0.764963  1
  O  O59  1  0.987141  0.118762  0.773364  1
