# generated using pymatgen
data_Li2MnV(P2O7)2
_symmetry_space_group_name_H-M   'P 1'
_cell_length_a   4.86700345
_cell_length_b   8.34328126
_cell_length_c   20.10676155
_cell_angle_alpha   90.41838265
_cell_angle_beta   95.58208454
_cell_angle_gamma   89.77318864
_symmetry_Int_Tables_number   1
_chemical_formula_structural   Li2MnV(P2O7)2
_chemical_formula_sum   'Li6 Mn3 V3 P12 O42'
_cell_volume   812.57300663
_cell_formula_units_Z   3
loop_
 _symmetry_equiv_pos_site_id
 _symmetry_equiv_pos_as_xyz
  1  'x, y, z'
loop_
 _atom_site_type_symbol
 _atom_site_label
 _atom_site_symmetry_multiplicity
 _atom_site_fract_x
 _atom_site_fract_y
 _atom_site_fract_z
 _atom_site_occupancy
  Li  Li0  1  0.046703  0.358526  0.775649  1
  Li  Li1  1  0.284872  0.859515  0.890891  1
  Li  Li2  1  0.380613  0.359668  0.442012  1
  Li  Li3  1  0.617348  0.859730  0.557793  1
  Li  Li4  1  0.714446  0.358364  0.109355  1
  Li  Li5  1  0.952544  0.860231  0.224475  1
  Mn  Mn6  1  0.028835  0.998381  0.755899  1
  Mn  Mn7  1  0.361400  0.001079  0.424173  1
  Mn  Mn8  1  0.971657  0.500811  0.242806  1
  V  V9  1  0.305402  0.497415  0.909490  1
  V  V10  1  0.638104  0.499662  0.575315  1
  V  V11  1  0.695452  0.998054  0.090531  1
  P  P12  1  0.150237  0.287754  0.637695  1
  P  P13  1  0.107325  0.681123  0.493802  1
  P  P14  1  0.225337  0.179511  0.172784  1
  P  P15  1  0.186647  0.782733  0.028832  1
  P  P16  1  0.559779  0.176831  0.840068  1
  P  P17  1  0.518997  0.783658  0.696260  1
  P  P18  1  0.483848  0.289369  0.303489  1
  P  P19  1  0.440671  0.678762  0.159781  1
  P  P20  1  0.814711  0.282407  0.971259  1
  P  P21  1  0.775703  0.679678  0.827949  1
  P  P22  1  0.894022  0.178332  0.507468  1
  P  P23  1  0.849456  0.790354  0.363460  1
  O  O24  1  0.097935  0.324046  0.950529  1
  O  O25  1  0.014209  0.153444  0.584345  1
  O  O26  1  0.173988  0.694971  0.961936  1
  O  O27  1  0.168534  0.205347  0.705086  1
  O  O28  1  0.036462  0.938676  0.364034  1
  O  O29  1  0.227701  0.825422  0.714322  1
  O  O30  1  0.138586  0.175183  0.464017  1
  O  O31  1  0.028363  0.036581  0.161486  1
  O  O32  1  0.079498  0.341410  0.164707  1
  O  O33  1  0.359865  0.035440  0.826510  1
  O  O34  1  0.251928  0.841816  0.502473  1
  O  O35  1  0.413047  0.339478  0.835075  1
  O  O36  1  0.304977  0.537313  0.504815  1
  O  O37  1  0.195127  0.676322  0.202854  1
  O  O38  1  0.294549  0.438681  0.303044  1
  O  O39  1  0.525480  0.672989  0.868854  1
  O  O40  1  0.431141  0.327262  0.614912  1
  O  O41  1  0.345603  0.158148  0.250428  1
  O  O42  1  0.627142  0.431028  0.971684  1
  O  O43  1  0.506055  0.694678  0.629558  1
  O  O44  1  0.322160  0.651311  0.082731  1
  O  O45  1  0.679929  0.151060  0.916927  1
  O  O46  1  0.501206  0.206571  0.370681  1
  O  O47  1  0.372282  0.930898  0.028371  1
  O  O48  1  0.656324  0.656314  0.750190  1
  O  O49  1  0.560901  0.830719  0.383444  1
  O  O50  1  0.474967  0.173418  0.131537  1
  O  O51  1  0.702877  0.933113  0.694903  1
  O  O52  1  0.804600  0.173879  0.796631  1
  O  O53  1  0.692929  0.037584  0.494042  1
  O  O54  1  0.587198  0.840729  0.165003  1
  O  O55  1  0.747183  0.341170  0.501501  1
  O  O56  1  0.642685  0.537330  0.173418  1
  O  O57  1  0.920063  0.840751  0.835442  1
  O  O58  1  0.973413  0.535784  0.839065  1
  O  O59  1  0.856800  0.674819  0.534848  1
  O  O60  1  0.771686  0.329859  0.283265  1
  O  O61  1  0.960716  0.435619  0.636970  1
  O  O62  1  0.831787  0.707255  0.295621  1
  O  O63  1  0.826018  0.195189  0.037788  1
  O  O64  1  0.987515  0.659353  0.416074  1
  O  O65  1  0.902466  0.823828  0.049644  1
