# generated using pymatgen
data_LiCrPO4
_symmetry_space_group_name_H-M   'P 1'
_cell_length_a   9.48267925
_cell_length_b   6.59956525
_cell_length_c   16.43414872
_cell_angle_alpha   90.00000000
_cell_angle_beta   90.58665612
_cell_angle_gamma   90.00000000
_symmetry_Int_Tables_number   1
_chemical_formula_structural   LiCrPO4
_chemical_formula_sum   'Li12 Cr12 P12 O48'
_cell_volume   1028.42075998
_cell_formula_units_Z   12
loop_
 _symmetry_equiv_pos_site_id
 _symmetry_equiv_pos_as_xyz
  1  'x, y, z'
loop_
 _atom_site_type_symbol
 _atom_site_label
 _atom_site_symmetry_multiplicity
 _atom_site_fract_x
 _atom_site_fract_y
 _atom_site_fract_z
 _atom_site_occupancy
  Li  Li0  1  0.247317  0.028695  0.918513  1
  Li  Li1  1  0.246851  0.982014  0.580844  1
  Li  Li2  1  0.248706  0.846473  0.249461  1
  Li  Li3  1  0.251294  0.346473  0.250539  1
  Li  Li4  1  0.253149  0.482014  0.919156  1
  Li  Li5  1  0.252683  0.528695  0.581487  1
  Li  Li6  1  0.747317  0.471305  0.418513  1
  Li  Li7  1  0.746851  0.517986  0.080844  1
  Li  Li8  1  0.748706  0.653527  0.749461  1
  Li  Li9  1  0.751294  0.153527  0.750539  1
  Li  Li10  1  0.753149  0.017986  0.419156  1
  Li  Li11  1  0.752683  0.971305  0.081487  1
  Cr  Cr12  1  0.996753  0.742771  0.391315  1
  Cr  Cr13  1  0.088271  0.755778  0.805514  1
  Cr  Cr14  1  0.163888  0.755636  0.054033  1
  Cr  Cr15  1  0.336112  0.255636  0.445967  1
  Cr  Cr16  1  0.411729  0.255778  0.694486  1
  Cr  Cr17  1  0.503247  0.242771  0.108685  1
  Cr  Cr18  1  0.496753  0.757229  0.891315  1
  Cr  Cr19  1  0.588271  0.744222  0.305514  1
  Cr  Cr20  1  0.663888  0.744364  0.554033  1
  Cr  Cr21  1  0.836112  0.244364  0.945967  1
  Cr  Cr22  1  0.911729  0.244222  0.194486  1
  Cr  Cr23  1  0.003247  0.257229  0.608685  1
  P  P24  1  0.043275  0.246702  0.406973  1
  P  P25  1  0.088247  0.257399  0.775998  1
  P  P26  1  0.118527  0.251139  0.069267  1
  P  P27  1  0.381473  0.751139  0.430733  1
  P  P28  1  0.411753  0.757399  0.724002  1
  P  P29  1  0.456725  0.746702  0.093027  1
  P  P30  1  0.543275  0.253298  0.906973  1
  P  P31  1  0.588247  0.242601  0.275998  1
  P  P32  1  0.618527  0.248861  0.569267  1
  P  P33  1  0.881473  0.748861  0.930733  1
  P  P34  1  0.911753  0.742601  0.224002  1
  P  P35  1  0.956725  0.753298  0.593027  1
  O  O36  1  0.051922  0.567721  0.612198  1
  O  O37  1  0.045227  0.945144  0.612829  1
  O  O38  1  0.041005  0.763415  0.953043  1
  O  O39  1  0.101486  0.067653  0.831500  1
  O  O40  1  0.105446  0.445408  0.832018  1
  O  O41  1  0.057872  0.741050  0.269375  1
  O  O42  1  0.094523  0.248645  0.497474  1
  O  O43  1  0.124663  0.252867  0.164379  1
  O  O44  1  0.187802  0.443829  0.033278  1
  O  O45  1  0.200015  0.256872  0.707418  1
  O  O46  1  0.180922  0.251888  0.355367  1
  O  O47  1  0.201063  0.066845  0.035237  1
  O  O48  1  0.298937  0.566845  0.464763  1
  O  O49  1  0.319078  0.751888  0.144633  1
  O  O50  1  0.299985  0.756872  0.792582  1
  O  O51  1  0.312198  0.943829  0.466722  1
  O  O52  1  0.375337  0.752867  0.335621  1
  O  O53  1  0.405477  0.748645  0.002526  1
  O  O54  1  0.394554  0.945408  0.667982  1
  O  O55  1  0.442128  0.241050  0.230625  1
  O  O56  1  0.398514  0.567653  0.668500  1
  O  O57  1  0.458995  0.263415  0.546957  1
  O  O58  1  0.454773  0.445144  0.887171  1
  O  O59  1  0.448078  0.067721  0.887802  1
  O  O60  1  0.551922  0.932279  0.112198  1
  O  O61  1  0.545227  0.554856  0.112829  1
  O  O62  1  0.541005  0.736585  0.453043  1
  O  O63  1  0.601486  0.432347  0.331500  1
  O  O64  1  0.557872  0.758950  0.769375  1
  O  O65  1  0.605446  0.054592  0.332018  1
  O  O66  1  0.594523  0.251355  0.997474  1
  O  O67  1  0.624663  0.247133  0.664379  1
  O  O68  1  0.687802  0.056171  0.533278  1
  O  O69  1  0.700015  0.243128  0.207418  1
  O  O70  1  0.680922  0.248112  0.855367  1
  O  O71  1  0.701063  0.433155  0.535237  1
  O  O72  1  0.798937  0.933155  0.964763  1
  O  O73  1  0.819078  0.748112  0.644633  1
  O  O74  1  0.799985  0.743128  0.292582  1
  O  O75  1  0.812198  0.556171  0.966722  1
  O  O76  1  0.875337  0.747133  0.835621  1
  O  O77  1  0.905477  0.751355  0.502526  1
  O  O78  1  0.942128  0.258950  0.730625  1
  O  O79  1  0.894554  0.554592  0.167982  1
  O  O80  1  0.898514  0.932347  0.168500  1
  O  O81  1  0.958995  0.236585  0.046957  1
  O  O82  1  0.954773  0.054856  0.387171  1
  O  O83  1  0.948078  0.432279  0.387802  1
