# generated using pymatgen
data_Li4Cu2Ni3Sb3O16
_symmetry_space_group_name_H-M   'P 1'
_cell_length_a   6.06375013
_cell_length_b   6.02916156
_cell_length_c   9.66925869
_cell_angle_alpha   90.01521895
_cell_angle_beta   92.12432166
_cell_angle_gamma   119.80982489
_symmetry_Int_Tables_number   1
_chemical_formula_structural   Li4Cu2Ni3Sb3O16
_chemical_formula_sum   'Li4 Cu2 Ni3 Sb3 O16'
_cell_volume   306.44432100
_cell_formula_units_Z   1
loop_
 _symmetry_equiv_pos_site_id
 _symmetry_equiv_pos_as_xyz
  1  'x, y, z'
loop_
 _atom_site_type_symbol
 _atom_site_label
 _atom_site_symmetry_multiplicity
 _atom_site_fract_x
 _atom_site_fract_y
 _atom_site_fract_z
 _atom_site_occupancy
  Li  Li0  1  0.341359  0.670555  0.885680  1
  Li  Li1  1  0.948864  0.974369  0.985938  1
  Li  Li2  1  0.974361  0.987169  0.503779  1
  Li  Li3  1  0.657910  0.329047  0.402411  1
  Cu  Cu4  1  0.350459  0.675593  0.495025  1
  Cu  Cu5  1  0.703763  0.351756  0.974902  1
  Ni  Ni6  1  0.658936  0.829475  0.215828  1
  Ni  Ni7  1  0.837918  0.663783  0.713270  1
  Ni  Ni8  1  0.837624  0.173872  0.713211  1
  Sb  Sb9  1  0.165498  0.829611  0.214435  1
  Sb  Sb10  1  0.165506  0.335916  0.214479  1
  Sb  Sb11  1  0.347371  0.173835  0.713593  1
  O  O12  1  0.173761  0.842110  0.599636  1
  O  O13  1  0.024788  0.512494  0.335172  1
  O  O14  1  0.320009  0.659942  0.100208  1
  O  O15  1  0.003987  0.002038  0.318620  1
  O  O16  1  0.011651  0.006083  0.805793  1
  O  O17  1  0.173958  0.331988  0.599666  1
  O  O18  1  0.473063  0.963976  0.340465  1
  O  O19  1  0.473074  0.509347  0.340513  1
  O  O20  1  0.305887  0.152913  0.102635  1
  O  O21  1  0.674420  0.837604  0.607299  1
  O  O22  1  0.526001  0.482056  0.845390  1
  O  O23  1  0.525568  0.043703  0.845312  1
  O  O24  1  0.664544  0.332013  0.605168  1
  O  O25  1  0.843626  0.674636  0.098024  1
  O  O26  1  0.972531  0.485604  0.833303  1
  O  O27  1  0.843559  0.168810  0.098084  1
