# generated using pymatgen
data_Li3Ti4VO8
_symmetry_space_group_name_H-M   'P 1'
_cell_length_a   5.99918105
_cell_length_b   5.95458946
_cell_length_c   5.95439711
_cell_angle_alpha   59.24392242
_cell_angle_beta   120.44456018
_cell_angle_gamma   120.44676178
_symmetry_Int_Tables_number   1
_chemical_formula_structural   Li3Ti4VO8
_chemical_formula_sum   'Li3 Ti4 V1 O8'
_cell_volume   148.52459563
_cell_formula_units_Z   1
loop_
 _symmetry_equiv_pos_site_id
 _symmetry_equiv_pos_as_xyz
  1  'x, y, z'
loop_
 _atom_site_type_symbol
 _atom_site_label
 _atom_site_symmetry_multiplicity
 _atom_site_fract_x
 _atom_site_fract_y
 _atom_site_fract_z
 _atom_site_occupancy
  Li  Li0  1  0.000001  0.500005  0.999996  1
  Li  Li1  1  0.499997  0.999997  1.000000  1
  Li  Li2  1  0.999992  0.000001  0.499994  1
  Ti  Ti3  1  0.500000  0.499994  0.499996  1
  Ti  Ti4  1  0.000002  0.000001  0.000000  1
  Ti  Ti5  1  0.499998  0.499997  0.000000  1
  Ti  Ti6  1  0.499999  0.000003  0.499999  1
  V  V7  1  0.000007  0.500005  0.500013  1
  O  O8  1  0.757629  0.750009  0.749991  1
  O  O9  1  0.747617  0.754321  0.248161  1
  O  O10  1  0.267128  0.750624  0.750614  1
  O  O11  1  0.252389  0.751843  0.245689  1
  O  O12  1  0.747616  0.248158  0.754311  1
  O  O13  1  0.732876  0.249383  0.249387  1
  O  O14  1  0.252381  0.245679  0.751834  1
  O  O15  1  0.242363  0.249990  0.250001  1
