# generated using pymatgen
data_LaTa2NO5
_symmetry_space_group_name_H-M   'P 1'
_cell_length_a   11.31722637
_cell_length_b   7.74141327
_cell_length_c   5.52784417
_cell_angle_alpha   89.96225378
_cell_angle_beta   89.59579955
_cell_angle_gamma   89.96765895
_symmetry_Int_Tables_number   1
_chemical_formula_structural   LaTa2NO5
_chemical_formula_sum   'La4 Ta8 N4 O20'
_cell_volume   484.28952789
_cell_formula_units_Z   4
loop_
 _symmetry_equiv_pos_site_id
 _symmetry_equiv_pos_as_xyz
  1  'x, y, z'
loop_
 _atom_site_type_symbol
 _atom_site_label
 _atom_site_symmetry_multiplicity
 _atom_site_fract_x
 _atom_site_fract_y
 _atom_site_fract_z
 _atom_site_occupancy
  La  La0  1  0.034860  0.747785  0.553921  1
  La  La1  1  0.463431  0.252402  0.049245  1
  La  La2  1  0.545418  0.747671  0.956351  1
  La  La3  1  0.958625  0.253759  0.448886  1
  Ta  Ta4  1  0.141099  0.995899  0.037480  1
  Ta  Ta5  1  0.140631  0.502540  0.040181  1
  Ta  Ta6  1  0.356775  0.996399  0.543498  1
  Ta  Ta7  1  0.357920  0.504506  0.541717  1
  Ta  Ta8  1  0.643729  0.992715  0.463805  1
  Ta  Ta9  1  0.650157  0.495373  0.463859  1
  Ta  Ta10  1  0.853231  0.496532  0.950101  1
  Ta  Ta11  1  0.857022  0.006518  0.962988  1
  N  N12  1  0.147719  0.750862  0.952868  1
  N  N13  1  0.640437  0.751432  0.546178  1
  N  N14  1  0.792375  0.444108  0.626448  1
  N  N15  1  0.855514  0.249073  0.050753  1
  O  O16  1  0.024027  0.035610  0.771089  1
  O  O17  1  0.026675  0.464142  0.770796  1
  O  O18  1  0.125329  0.249770  0.150722  1
  O  O19  1  0.213603  0.552619  0.373463  1
  O  O20  1  0.213826  0.948301  0.371872  1
  O  O21  1  0.289205  0.058194  0.866667  1
  O  O22  1  0.289259  0.442068  0.866417  1
  O  O23  1  0.356503  0.249702  0.455466  1
  O  O24  1  0.376313  0.750840  0.646973  1
  O  O25  1  0.468607  0.534484  0.266061  1
  O  O26  1  0.473752  0.966934  0.272179  1
  O  O27  1  0.520980  0.037216  0.729591  1
  O  O28  1  0.520794  0.463972  0.727626  1
  O  O29  1  0.616323  0.250923  0.345573  1
  O  O30  1  0.708211  0.556994  0.126597  1
  O  O31  1  0.709565  0.944464  0.128317  1
  O  O32  1  0.788693  0.055178  0.630071  1
  O  O33  1  0.880085  0.751074  0.854099  1
  O  O34  1  0.981442  0.535868  0.228283  1
  O  O35  1  0.977867  0.964067  0.229858  1
