# generated using pymatgen
data_Li4Ti3Co3(WO8)2
_symmetry_space_group_name_H-M   'P 1'
_cell_length_a   5.97627290
_cell_length_b   5.99135567
_cell_length_c   9.82758323
_cell_angle_alpha   89.98780370
_cell_angle_beta   90.82016673
_cell_angle_gamma   120.05183989
_symmetry_Int_Tables_number   1
_chemical_formula_structural   Li4Ti3Co3(WO8)2
_chemical_formula_sum   'Li4 Ti3 Co3 W2 O16'
_cell_volume   304.54204710
_cell_formula_units_Z   1
loop_
 _symmetry_equiv_pos_site_id
 _symmetry_equiv_pos_as_xyz
  1  'x, y, z'
loop_
 _atom_site_type_symbol
 _atom_site_label
 _atom_site_symmetry_multiplicity
 _atom_site_fract_x
 _atom_site_fract_y
 _atom_site_fract_z
 _atom_site_occupancy
  Li  Li0  1  0.328645  0.664169  0.904891  1
  Li  Li1  1  0.988135  0.994011  0.983356  1
  Li  Li2  1  0.008343  0.004733  0.491603  1
  Li  Li3  1  0.667970  0.333477  0.407285  1
  Ti  Ti4  1  0.180644  0.840301  0.215642  1
  Ti  Ti5  1  0.182903  0.341247  0.216282  1
  Ti  Ti6  1  0.359366  0.178676  0.732566  1
  Co  Co7  1  0.642619  0.820883  0.210938  1
  Co  Co8  1  0.832980  0.655754  0.711621  1
  Co  Co9  1  0.833632  0.178144  0.711603  1
  W  W10  1  0.340608  0.670651  0.490333  1
  W  W11  1  0.689876  0.344444  0.989582  1
  O  O12  1  0.182209  0.828346  0.586215  1
  O  O13  1  0.043706  0.521947  0.340047  1
  O  O14  1  0.295120  0.647383  0.105751  1
  O  O15  1  0.007177  0.004073  0.302396  1
  O  O16  1  0.014234  0.007155  0.793351  1
  O  O17  1  0.181875  0.354499  0.586038  1
  O  O18  1  0.466869  0.959614  0.350017  1
  O  O19  1  0.467548  0.507366  0.350148  1
  O  O20  1  0.339974  0.170191  0.106742  1
  O  O21  1  0.661824  0.830841  0.579546  1
  O  O22  1  0.503008  0.467045  0.852461  1
  O  O23  1  0.503631  0.034602  0.851673  1
  O  O24  1  0.637920  0.319205  0.608266  1
  O  O25  1  0.836821  0.668783  0.089738  1
  O  O26  1  0.966632  0.483830  0.850442  1
  O  O27  1  0.835731  0.168928  0.089309  1
