# generated using pymatgen
data_Li2AgF4
_symmetry_space_group_name_H-M   'P 1'
_cell_length_a   6.38608419
_cell_length_b   5.96952055
_cell_length_c   11.01158630
_cell_angle_alpha   89.85080720
_cell_angle_beta   142.27757883
_cell_angle_gamma   62.26854834
_symmetry_Int_Tables_number   1
_chemical_formula_structural   Li2AgF4
_chemical_formula_sum   'Li4 Ag2 F8'
_cell_volume   165.74236101
_cell_formula_units_Z   2
loop_
 _symmetry_equiv_pos_site_id
 _symmetry_equiv_pos_as_xyz
  1  'x, y, z'
loop_
 _atom_site_type_symbol
 _atom_site_label
 _atom_site_symmetry_multiplicity
 _atom_site_fract_x
 _atom_site_fract_y
 _atom_site_fract_z
 _atom_site_occupancy
  Li  Li0  1  0.997602  0.124502  0.750947  1
  Li  Li1  1  0.998144  0.633881  0.749029  1
  Li  Li2  1  0.000990  0.364710  0.250552  1
  Li  Li3  1  0.997958  0.877497  0.250088  1
  Ag  Ag4  1  0.996302  0.499543  0.498864  1
  Ag  Ag5  1  0.997670  0.502100  0.998803  1
  F  F6  1  0.618307  0.566512  0.665820  1
  F  F7  1  0.576077  0.090242  0.639886  1
  F  F8  1  0.421439  0.910266  0.360137  1
  F  F9  1  0.620882  0.811425  0.166593  1
  F  F10  1  0.379543  0.434430  0.333538  1
  F  F11  1  0.575571  0.332168  0.139527  1
  F  F12  1  0.419585  0.669466  0.859134  1
  F  F13  1  0.378591  0.185217  0.833888  1
