# generated using pymatgen
data_Zr3N4
_symmetry_space_group_name_H-M   'P 1'
_cell_length_a   3.46527645
_cell_length_b   8.72483666
_cell_length_c   3.46527643
_cell_angle_alpha   89.99999445
_cell_angle_beta   60.00000212
_cell_angle_gamma   101.45433458
_symmetry_Int_Tables_number   1
_chemical_formula_structural   Zr3N4
_chemical_formula_sum   'Zr3 N4'
_cell_volume   88.31499629
_cell_formula_units_Z   1
loop_
 _symmetry_equiv_pos_site_id
 _symmetry_equiv_pos_as_xyz
  1  'x, y, z'
loop_
 _atom_site_type_symbol
 _atom_site_label
 _atom_site_symmetry_multiplicity
 _atom_site_fract_x
 _atom_site_fract_y
 _atom_site_fract_z
 _atom_site_occupancy
  Zr  Zr0  1  0.444592  0.666888  0.777704  1
  Zr  Zr1  1  0.555408  0.333112  0.222296  1
  Zr  Zr2  1  0.000000  0.000000  0.000000  1
  N  N3  1  0.243484  0.865226  0.378258  1
  N  N4  1  0.735729  0.603592  0.132136  1
  N  N5  1  0.264271  0.396408  0.867864  1
  N  N6  1  0.756516  0.134774  0.621742  1
