# generated using pymatgen
data_LiTi(SiO3)2
_symmetry_space_group_name_H-M   'P 1'
_cell_length_a   7.38217377
_cell_length_b   7.46008735
_cell_length_c   7.05185650
_cell_angle_alpha   117.70732522
_cell_angle_beta   76.96920975
_cell_angle_gamma   98.59117714
_symmetry_Int_Tables_number   1
_chemical_formula_structural   LiTi(SiO3)2
_chemical_formula_sum   'Li3 Ti3 Si6 O18'
_cell_volume   334.52522101
_cell_formula_units_Z   3
loop_
 _symmetry_equiv_pos_site_id
 _symmetry_equiv_pos_as_xyz
  1  'x, y, z'
loop_
 _atom_site_type_symbol
 _atom_site_label
 _atom_site_symmetry_multiplicity
 _atom_site_fract_x
 _atom_site_fract_y
 _atom_site_fract_z
 _atom_site_occupancy
  Li  Li0  1  0.206868  0.744024  0.421709  1
  Li  Li1  1  0.500000  0.500000  0.500000  1
  Li  Li2  1  0.793132  0.255976  0.578291  1
  Ti  Ti3  1  0.227548  0.740319  0.948054  1
  Ti  Ti4  1  0.500000  0.500000  0.000000  1
  Ti  Ti5  1  0.772452  0.259681  0.051946  1
  Si  Si6  1  0.161474  0.283430  0.243478  1
  Si  Si7  1  0.168689  0.244660  0.676869  1
  Si  Si8  1  0.604953  0.976029  0.205362  1
  Si  Si9  1  0.395047  0.023971  0.794639  1
  Si  Si10  1  0.831311  0.755340  0.323131  1
  Si  Si11  1  0.838526  0.716570  0.756521  1
  O  O12  1  0.044337  0.759628  0.201323  1
  O  O13  1  0.050625  0.684151  0.751031  1
  O  O14  1  0.160762  0.230991  0.443801  1
  O  O15  1  0.238078  0.070301  0.023287  1
  O  O16  1  0.307975  0.472273  0.250739  1
  O  O17  1  0.432619  0.806593  0.148986  1
  O  O18  1  0.298006  0.445613  0.811971  1
  O  O19  1  0.426860  0.787705  0.712059  1
  O  O20  1  0.282014  0.044999  0.626874  1
  O  O21  1  0.717986  0.955001  0.373126  1
  O  O22  1  0.573140  0.212295  0.287941  1
  O  O23  1  0.701994  0.554387  0.188029  1
  O  O24  1  0.567381  0.193407  0.851013  1
  O  O25  1  0.692025  0.527727  0.749261  1
  O  O26  1  0.761922  0.929699  0.976713  1
  O  O27  1  0.839238  0.769009  0.556199  1
  O  O28  1  0.949375  0.315849  0.248969  1
  O  O29  1  0.955663  0.240372  0.798677  1
