# generated using pymatgen
data_Na3Ni2P2(CO7)2
_symmetry_space_group_name_H-M   'P 1'
_cell_length_a   8.92845789
_cell_length_b   8.28425482
_cell_length_c   8.29977543
_cell_angle_alpha   76.87455931
_cell_angle_beta   89.85183783
_cell_angle_gamma   91.70715318
_symmetry_Int_Tables_number   1
_chemical_formula_structural   Na3Ni2P2(CO7)2
_chemical_formula_sum   'Na6 Ni4 P4 C4 O28'
_cell_volume   597.56716092
_cell_formula_units_Z   2
loop_
 _symmetry_equiv_pos_site_id
 _symmetry_equiv_pos_as_xyz
  1  'x, y, z'
loop_
 _atom_site_type_symbol
 _atom_site_label
 _atom_site_symmetry_multiplicity
 _atom_site_fract_x
 _atom_site_fract_y
 _atom_site_fract_z
 _atom_site_occupancy
  Na  Na0  1  0.741800  0.097063  0.860152  1
  Na  Na1  1  0.756094  0.622018  0.377043  1
  Na  Na2  1  0.751401  0.380387  0.132963  1
  Na  Na3  1  0.248599  0.619612  0.867037  1
  Na  Na4  1  0.243906  0.377982  0.622957  1
  Na  Na5  1  0.258200  0.902937  0.139848  1
  Ni  Ni6  1  0.652619  0.017161  0.238229  1
  Ni  Ni7  1  0.656096  0.519249  0.733418  1
  Ni  Ni8  1  0.347381  0.982839  0.761771  1
  Ni  Ni9  1  0.343904  0.480751  0.266582  1
  P  P10  1  0.571989  0.237343  0.513549  1
  P  P11  1  0.575794  0.730215  0.021268  1
  P  P12  1  0.424206  0.269785  0.978732  1
  P  P13  1  0.428011  0.762657  0.486451  1
  C  C14  1  0.925300  0.478632  0.766973  1
  C  C15  1  0.924527  0.986956  0.269855  1
  C  C16  1  0.075473  0.013044  0.730145  1
  C  C17  1  0.074700  0.521368  0.233027  1
  O  O18  1  0.938216  0.034783  0.716088  1
  O  O19  1  0.936919  0.541810  0.214904  1
  O  O20  1  0.867711  0.594759  0.656033  1
  O  O21  1  0.865736  0.102022  0.156763  1
  O  O22  1  0.823440  0.384197  0.859875  1
  O  O23  1  0.825928  0.894744  0.366643  1
  O  O24  1  0.673630  0.664000  0.899514  1
  O  O25  1  0.666813  0.185450  0.379870  1
  O  O26  1  0.676499  0.366873  0.569360  1
  O  O27  1  0.676093  0.861098  0.078746  1
  O  O28  1  0.572471  0.196584  0.051820  1
  O  O29  1  0.577480  0.689299  0.553778  1
  O  O30  1  0.535846  0.093232  0.664355  1
  O  O31  1  0.538539  0.583615  0.173609  1
  O  O32  1  0.461461  0.416385  0.826391  1
  O  O33  1  0.464154  0.906768  0.335645  1
  O  O34  1  0.427529  0.803416  0.948180  1
  O  O35  1  0.422520  0.310701  0.446222  1
  O  O36  1  0.323907  0.138902  0.921254  1
  O  O37  1  0.333187  0.814550  0.620130  1
  O  O38  1  0.326370  0.336000  0.100486  1
  O  O39  1  0.323502  0.633127  0.430640  1
  O  O40  1  0.174072  0.105256  0.633357  1
  O  O41  1  0.176560  0.615803  0.140125  1
  O  O42  1  0.132289  0.405241  0.343967  1
  O  O43  1  0.134264  0.897978  0.843237  1
  O  O44  1  0.063081  0.458190  0.785096  1
  O  O45  1  0.061784  0.965217  0.283912  1
