# generated using pymatgen
data_Na3H(SO4)2
_symmetry_space_group_name_H-M   'P 1'
_cell_length_a   8.74542780
_cell_length_b   9.79006959
_cell_length_c   9.23234022
_cell_angle_alpha   89.99967112
_cell_angle_beta   108.56150097
_cell_angle_gamma   89.88065930
_symmetry_Int_Tables_number   1
_chemical_formula_structural   Na3H(SO4)2
_chemical_formula_sum   'Na12 H4 S8 O32'
_cell_volume   749.33827296
_cell_formula_units_Z   4
loop_
 _symmetry_equiv_pos_site_id
 _symmetry_equiv_pos_as_xyz
  1  'x, y, z'
loop_
 _atom_site_type_symbol
 _atom_site_label
 _atom_site_symmetry_multiplicity
 _atom_site_fract_x
 _atom_site_fract_y
 _atom_site_fract_z
 _atom_site_occupancy
  Na  Na0  1  0.007114  0.994792  0.000574  1
  Na  Na1  1  0.498470  0.998599  0.490516  1
  Na  Na2  1  0.747153  0.995726  0.274740  1
  Na  Na3  1  0.379435  0.155904  0.119050  1
  Na  Na4  1  0.003224  0.499505  0.497227  1
  Na  Na5  1  0.496816  0.499005  0.994748  1
  Na  Na6  1  0.256410  0.490633  0.216409  1
  Na  Na7  1  0.614612  0.660705  0.367722  1
  Na  Na8  1  0.249758  0.004213  0.715635  1
  Na  Na9  1  0.614334  0.844369  0.866193  1
  Na  Na10  1  0.749778  0.503328  0.773085  1
  Na  Na11  1  0.379150  0.341916  0.620441  1
  H  H12  1  0.876822  0.240829  0.881961  1
  H  H13  1  0.875904  0.258587  0.382546  1
  H  H14  1  0.100785  0.728140  0.113693  1
  H  H15  1  0.121450  0.745970  0.610898  1
  S  S16  1  0.135811  0.307942  0.852499  1
  S  S17  1  0.630010  0.320618  0.398838  1
  S  S18  1  0.135993  0.192333  0.352674  1
  S  S19  1  0.365659  0.818422  0.090120  1
  S  S20  1  0.858193  0.689867  0.137215  1
  S  S21  1  0.367977  0.678768  0.589142  1
  S  S22  1  0.862422  0.807490  0.637040  1
  S  S23  1  0.631256  0.179160  0.899116  1
  O  O24  1  0.158978  0.156646  0.868975  1
  O  O25  1  0.253530  0.375768  0.986496  1
  O  O26  1  0.965311  0.341532  0.850401  1
  O  O27  1  0.157437  0.358012  0.709578  1
  O  O28  1  0.609409  0.365369  0.542962  1
  O  O29  1  0.810277  0.343250  0.415595  1
  O  O30  1  0.597213  0.173493  0.368250  1
  O  O31  1  0.535390  0.405954  0.269091  1
  O  O32  1  0.158033  0.343881  0.369064  1
  O  O33  1  0.254992  0.124676  0.486320  1
  O  O34  1  0.965939  0.158334  0.350980  1
  O  O35  1  0.157733  0.143166  0.209354  1
  O  O36  1  0.384776  0.865503  0.944687  1
  O  O37  1  0.190425  0.831300  0.079257  1
  O  O38  1  0.413252  0.672431  0.120997  1
  O  O39  1  0.463919  0.905578  0.218613  1
  O  O40  1  0.848912  0.840898  0.121631  1
  O  O41  1  0.741988  0.624450  0.002802  1
  O  O42  1  0.031310  0.645889  0.140199  1
  O  O43  1  0.839736  0.641533  0.280658  1
  O  O44  1  0.382411  0.633492  0.442799  1
  O  O45  1  0.189212  0.659729  0.577598  1
  O  O46  1  0.405278  0.825681  0.619952  1
  O  O47  1  0.465562  0.592561  0.716893  1
  O  O48  1  0.841281  0.656082  0.620036  1
  O  O49  1  0.744687  0.875204  0.502825  1
  O  O50  1  0.032927  0.842457  0.639281  1
  O  O51  1  0.840949  0.856643  0.780290  1
  O  O52  1  0.613297  0.135443  0.045235  1
  O  O53  1  0.811112  0.155534  0.913944  1
  O  O54  1  0.597258  0.325888  0.867566  1
  O  O55  1  0.534230  0.093111  0.771330  1
