# generated using pymatgen
data_Li2Cr(PO3)4
_symmetry_space_group_name_H-M   'P 1'
_cell_length_a   8.14183213
_cell_length_b   12.90280008
_cell_length_c   10.32381089
_cell_angle_alpha   90.00000000
_cell_angle_beta   101.42789402
_cell_angle_gamma   90.00000000
_symmetry_Int_Tables_number   1
_chemical_formula_structural   Li2Cr(PO3)4
_chemical_formula_sum   'Li8 Cr4 P16 O48'
_cell_volume   1063.04022520
_cell_formula_units_Z   4
loop_
 _symmetry_equiv_pos_site_id
 _symmetry_equiv_pos_as_xyz
  1  'x, y, z'
loop_
 _atom_site_type_symbol
 _atom_site_label
 _atom_site_symmetry_multiplicity
 _atom_site_fract_x
 _atom_site_fract_y
 _atom_site_fract_z
 _atom_site_occupancy
  Li  Li0  1  0.162545  0.076780  0.572432  1
  Li  Li1  1  0.064315  0.700450  0.161226  1
  Li  Li2  1  0.337455  0.576780  0.927568  1
  Li  Li3  1  0.435685  0.200450  0.338774  1
  Li  Li4  1  0.564315  0.799550  0.661226  1
  Li  Li5  1  0.662545  0.423220  0.072432  1
  Li  Li6  1  0.935685  0.299550  0.838774  1
  Li  Li7  1  0.837455  0.923220  0.427568  1
  Cr  Cr8  1  0.236572  0.148894  0.982524  1
  Cr  Cr9  1  0.263428  0.648894  0.517476  1
  Cr  Cr10  1  0.736572  0.351106  0.482524  1
  Cr  Cr11  1  0.763428  0.851106  0.017476  1
  P  P12  1  0.078760  0.820898  0.684947  1
  P  P13  1  0.164331  0.421267  0.614166  1
  P  P14  1  0.053055  0.329311  0.147548  1
  P  P15  1  0.335669  0.921267  0.885834  1
  P  P16  1  0.217983  0.929896  0.137463  1
  P  P17  1  0.421240  0.320898  0.815053  1
  P  P18  1  0.282017  0.429896  0.362537  1
  P  P19  1  0.446945  0.829311  0.352452  1
  P  P20  1  0.553055  0.170689  0.647548  1
  P  P21  1  0.717983  0.570104  0.637463  1
  P  P22  1  0.578760  0.679102  0.184947  1
  P  P23  1  0.782017  0.070104  0.862537  1
  P  P24  1  0.664331  0.078733  0.114166  1
  P  P25  1  0.946945  0.670689  0.852452  1
  P  P26  1  0.835669  0.578733  0.385834  1
  P  P27  1  0.921240  0.179102  0.315053  1
  O  O28  1  0.119919  0.639611  0.919241  1
  O  O29  1  0.022999  0.366311  0.658696  1
  O  O30  1  0.000692  0.901826  0.587898  1
  O  O31  1  0.155271  0.873141  0.823576  1
  O  O32  1  0.067141  0.246053  0.268274  1
  O  O33  1  0.086228  0.849429  0.142150  1
  O  O34  1  0.183124  0.536665  0.633904  1
  O  O35  1  0.209755  0.749597  0.652526  1
  O  O36  1  0.290245  0.249597  0.847474  1
  O  O37  1  0.316876  0.036665  0.866096  1
  O  O38  1  0.162157  0.392619  0.462168  1
  O  O39  1  0.344729  0.373141  0.676424  1
  O  O40  1  0.167470  0.040968  0.111705  1
  O  O41  1  0.145193  0.428689  0.224609  1
  O  O42  1  0.337751  0.786266  0.441391  1
  O  O43  1  0.162249  0.286266  0.058609  1
  O  O44  1  0.354807  0.928689  0.275391  1
  O  O45  1  0.499308  0.401826  0.912102  1
  O  O46  1  0.477001  0.866311  0.841304  1
  O  O47  1  0.332530  0.540968  0.388295  1
  O  O48  1  0.380081  0.139611  0.580759  1
  O  O49  1  0.337843  0.892619  0.037832  1
  O  O50  1  0.567141  0.253947  0.768274  1
  O  O51  1  0.586228  0.650571  0.642150  1
  O  O52  1  0.413772  0.349429  0.357850  1
  O  O53  1  0.432859  0.746053  0.231726  1
  O  O54  1  0.662157  0.107381  0.962168  1
  O  O55  1  0.619919  0.860389  0.419241  1
  O  O56  1  0.667470  0.459032  0.611705  1
  O  O57  1  0.522999  0.133689  0.158696  1
  O  O58  1  0.500692  0.598174  0.087898  1
  O  O59  1  0.645193  0.071311  0.724609  1
  O  O60  1  0.837751  0.713734  0.941391  1
  O  O61  1  0.662249  0.213734  0.558609  1
  O  O62  1  0.854807  0.571311  0.775391  1
  O  O63  1  0.832530  0.959032  0.888295  1
  O  O64  1  0.655271  0.626859  0.323576  1
  O  O65  1  0.837843  0.607381  0.537832  1
  O  O66  1  0.683124  0.963335  0.133904  1
  O  O67  1  0.709755  0.750403  0.152526  1
  O  O68  1  0.790245  0.250403  0.347474  1
  O  O69  1  0.816876  0.463335  0.366096  1
  O  O70  1  0.913772  0.150571  0.857850  1
  O  O71  1  0.932859  0.753947  0.731726  1
  O  O72  1  0.844729  0.126859  0.176424  1
  O  O73  1  0.999308  0.098174  0.412102  1
  O  O74  1  0.977001  0.633689  0.341304  1
  O  O75  1  0.880081  0.360389  0.080759  1
