# generated using pymatgen
data_NaCa2V3(CoO6)2
_symmetry_space_group_name_H-M   'P 1'
_cell_length_a   10.87798403
_cell_length_b   10.87672702
_cell_length_c   10.87773002
_cell_angle_alpha   109.35050749
_cell_angle_beta   109.71389789
_cell_angle_gamma   109.35206009
_symmetry_Int_Tables_number   1
_chemical_formula_structural   NaCa2V3(CoO6)2
_chemical_formula_sum   'Na4 Ca8 V12 Co8 O48'
_cell_volume   990.70339254
_cell_formula_units_Z   4
loop_
 _symmetry_equiv_pos_site_id
 _symmetry_equiv_pos_as_xyz
  1  'x, y, z'
loop_
 _atom_site_type_symbol
 _atom_site_label
 _atom_site_symmetry_multiplicity
 _atom_site_fract_x
 _atom_site_fract_y
 _atom_site_fract_z
 _atom_site_occupancy
  Na  Na0  1  0.124988  0.249987  0.374968  1
  Na  Na1  1  0.374972  0.749999  0.124986  1
  Na  Na2  1  0.625028  0.250001  0.875014  1
  Na  Na3  1  0.875012  0.750013  0.625032  1
  Ca  Ca4  1  0.249959  0.876979  0.626977  1
  Ca  Ca5  1  0.127071  0.377046  0.750041  1
  Ca  Ca6  1  0.249999  0.377043  0.127082  1
  Ca  Ca7  1  0.627059  0.877104  0.750044  1
  Ca  Ca8  1  0.750001  0.622957  0.872918  1
  Ca  Ca9  1  0.372941  0.122896  0.249956  1
  Ca  Ca10  1  0.872929  0.622954  0.249959  1
  Ca  Ca11  1  0.750041  0.123021  0.373023  1
  V  V12  1  0.125107  0.750148  0.875116  1
  V  V13  1  0.124357  0.874290  0.249906  1
  V  V14  1  0.250066  0.625633  0.375658  1
  V  V15  1  0.249970  0.125811  0.875869  1
  V  V16  1  0.375754  0.625714  0.750070  1
  V  V17  1  0.374981  0.250024  0.624976  1
  V  V18  1  0.625019  0.749976  0.375024  1
  V  V19  1  0.749934  0.374367  0.624342  1
  V  V20  1  0.624246  0.374286  0.249930  1
  V  V21  1  0.750030  0.874189  0.124131  1
  V  V22  1  0.875643  0.125710  0.750094  1
  V  V23  1  0.874893  0.249852  0.124884  1
  Co  Co24  1  0.000000  0.500000  0.000000  1
  Co  Co25  1  0.000000  0.000000  0.000000  1
  Co  Co26  1  0.500000  0.500000  0.500000  1
  Co  Co27  1  0.500000  0.000000  0.500000  1
  Co  Co28  1  0.500000  0.500000  0.000000  1
  Co  Co29  1  0.500000  0.000000  0.000000  1
  Co  Co30  1  0.000000  0.500000  0.500000  1
  Co  Co31  1  0.000000  0.000000  0.500000  1
  O  O32  1  0.105629  0.988814  0.691687  1
  O  O33  1  0.113597  0.598952  0.906392  1
  O  O34  1  0.017779  0.309890  0.896765  1
  O  O35  1  0.093636  0.707247  0.692601  1
  O  O36  1  0.086856  0.879011  0.396852  1
  O  O37  1  0.103133  0.620986  0.413170  1
  O  O38  1  0.191675  0.488762  0.605576  1
  O  O39  1  0.413218  0.810056  0.792185  1
  O  O40  1  0.383139  0.586027  0.894297  1
  O  O41  1  0.292124  0.309850  0.913089  1
  O  O42  1  0.014597  0.207214  0.113613  1
  O  O43  1  0.308149  0.913914  0.297017  1
  O  O44  1  0.192628  0.207225  0.593598  1
  O  O45  1  0.202936  0.586100  0.191767  1
  O  O46  1  0.396851  0.809989  0.517802  1
  O  O47  1  0.297048  0.488884  0.383092  1
  O  O48  1  0.307199  0.900868  0.014527  1
  O  O49  1  0.116862  0.011124  0.202956  1
  O  O50  1  0.394424  0.086153  0.883230  1
  O  O51  1  0.517769  0.620979  0.707892  1
  O  O52  1  0.514581  0.400959  0.807413  1
  O  O53  1  0.386406  0.292850  0.485426  1
  O  O54  1  0.207892  0.121022  0.017733  1
  O  O55  1  0.593617  0.900950  0.386343  1
  O  O56  1  0.406383  0.099050  0.613657  1
  O  O57  1  0.792108  0.878978  0.982267  1
  O  O58  1  0.613594  0.707150  0.514574  1
  O  O59  1  0.485419  0.599041  0.192587  1
  O  O60  1  0.482231  0.379021  0.292108  1
  O  O61  1  0.605576  0.913847  0.116770  1
  O  O62  1  0.883138  0.988876  0.797044  1
  O  O63  1  0.692801  0.099132  0.985473  1
  O  O64  1  0.702952  0.511116  0.616908  1
  O  O65  1  0.603149  0.190011  0.482198  1
  O  O66  1  0.797064  0.413900  0.808233  1
  O  O67  1  0.807372  0.792775  0.406402  1
  O  O68  1  0.691851  0.086086  0.702983  1
  O  O69  1  0.985403  0.792786  0.886387  1
  O  O70  1  0.707876  0.690150  0.086911  1
  O  O71  1  0.616861  0.413973  0.105703  1
  O  O72  1  0.586782  0.189944  0.207815  1
  O  O73  1  0.808325  0.511238  0.394424  1
  O  O74  1  0.896867  0.379014  0.586830  1
  O  O75  1  0.913144  0.120989  0.603148  1
  O  O76  1  0.906364  0.292753  0.307399  1
  O  O77  1  0.982221  0.690110  0.103235  1
  O  O78  1  0.886403  0.401048  0.093608  1
  O  O79  1  0.894371  0.011186  0.308313  1
