# generated using pymatgen
data_V2N4O11
_symmetry_space_group_name_H-M   'P 1'
_cell_length_a   7.40381178
_cell_length_b   10.96654715
_cell_length_c   17.08860178
_cell_angle_alpha   90.00000000
_cell_angle_beta   93.34218786
_cell_angle_gamma   90.00000000
_symmetry_Int_Tables_number   1
_chemical_formula_structural   V2N4O11
_chemical_formula_sum   'V8 N16 O44'
_cell_volume   1385.13631421
_cell_formula_units_Z   4
loop_
 _symmetry_equiv_pos_site_id
 _symmetry_equiv_pos_as_xyz
  1  'x, y, z'
loop_
 _atom_site_type_symbol
 _atom_site_label
 _atom_site_symmetry_multiplicity
 _atom_site_fract_x
 _atom_site_fract_y
 _atom_site_fract_z
 _atom_site_occupancy
  V  V0  1  0.237920  0.194064  0.535743  1
  V  V1  1  0.762080  0.694064  0.964257  1
  V  V2  1  0.762080  0.805936  0.464257  1
  V  V3  1  0.237920  0.305936  0.035743  1
  V  V4  1  0.239897  0.385507  0.679452  1
  V  V5  1  0.760103  0.885507  0.820548  1
  V  V6  1  0.760103  0.614493  0.320548  1
  V  V7  1  0.239897  0.114493  0.179452  1
  N  N8  1  0.222316  0.585760  0.484795  1
  N  N9  1  0.777684  0.085760  0.015205  1
  N  N10  1  0.777684  0.414240  0.515205  1
  N  N11  1  0.222316  0.914240  0.984795  1
  N  N12  1  0.230462  0.794107  0.637606  1
  N  N13  1  0.769538  0.294107  0.862394  1
  N  N14  1  0.769538  0.205893  0.362394  1
  N  N15  1  0.230462  0.705893  0.137606  1
  N  N16  1  0.290174  0.065101  0.815322  1
  N  N17  1  0.709826  0.565101  0.684678  1
  N  N18  1  0.709826  0.934899  0.184678  1
  N  N19  1  0.290174  0.434899  0.315322  1
  N  N20  1  0.765941  0.090799  0.625147  1
  N  N21  1  0.234059  0.590799  0.874853  1
  N  N22  1  0.234059  0.909201  0.374853  1
  N  N23  1  0.765941  0.409201  0.125147  1
  O  O24  1  0.399039  0.285181  0.463884  1
  O  O25  1  0.600961  0.785181  0.036116  1
  O  O26  1  0.600961  0.714819  0.536116  1
  O  O27  1  0.399039  0.214819  0.963884  1
  O  O28  1  0.470968  0.178894  0.486247  1
  O  O29  1  0.529032  0.678894  0.013753  1
  O  O30  1  0.529032  0.821106  0.513753  1
  O  O31  1  0.470968  0.321106  0.986247  1
  O  O32  1  0.185805  0.116616  0.639740  1
  O  O33  1  0.814195  0.616616  0.860260  1
  O  O34  1  0.814195  0.883384  0.360260  1
  O  O35  1  0.185805  0.383384  0.139740  1
  O  O36  1  0.324521  0.062128  0.607737  1
  O  O37  1  0.675479  0.562128  0.892263  1
  O  O38  1  0.675479  0.937872  0.392263  1
  O  O39  1  0.324521  0.437872  0.107737  1
  O  O40  1  0.986662  0.350904  0.710812  1
  O  O41  1  0.013338  0.850904  0.789188  1
  O  O42  1  0.013338  0.649096  0.289188  1
  O  O43  1  0.986662  0.149096  0.210812  1
  O  O44  1  0.108411  0.322325  0.768005  1
  O  O45  1  0.891589  0.822325  0.731995  1
  O  O46  1  0.891589  0.677675  0.231995  1
  O  O47  1  0.108411  0.177675  0.268005  1
  O  O48  1  0.491250  0.331002  0.655674  1
  O  O49  1  0.508750  0.831002  0.844326  1
  O  O50  1  0.508750  0.668998  0.344326  1
  O  O51  1  0.491250  0.168998  0.155674  1
  O  O52  1  0.461005  0.312515  0.730781  1
  O  O53  1  0.538995  0.812515  0.769219  1
  O  O54  1  0.538995  0.687485  0.269219  1
  O  O55  1  0.461005  0.187485  0.230781  1
  O  O56  1  0.086532  0.138405  0.475087  1
  O  O57  1  0.913468  0.638405  0.024913  1
  O  O58  1  0.913468  0.861595  0.524913  1
  O  O59  1  0.086532  0.361595  0.975087  1
  O  O60  1  0.170503  0.340234  0.578142  1
  O  O61  1  0.829497  0.840234  0.921858  1
  O  O62  1  0.829497  0.659766  0.421858  1
  O  O63  1  0.170503  0.159766  0.078142  1
  O  O64  1  0.255983  0.530301  0.690353  1
  O  O65  1  0.744017  0.030301  0.809647  1
  O  O66  1  0.744017  0.469699  0.309647  1
  O  O67  1  0.255983  0.969699  0.190353  1
