# generated using pymatgen
data_Li8Mn7Fe(BO3)8
_symmetry_space_group_name_H-M   'P 1'
_cell_length_a   6.04356614
_cell_length_b   17.87925058
_cell_length_c   5.18579493
_cell_angle_alpha   97.15146052
_cell_angle_beta   113.15435351
_cell_angle_gamma   84.17320666
_symmetry_Int_Tables_number   1
_chemical_formula_structural   Li8Mn7Fe(BO3)8
_chemical_formula_sum   'Li8 Mn7 Fe1 B8 O24'
_cell_volume   510.35396997
_cell_formula_units_Z   1
loop_
 _symmetry_equiv_pos_site_id
 _symmetry_equiv_pos_as_xyz
  1  'x, y, z'
loop_
 _atom_site_type_symbol
 _atom_site_label
 _atom_site_symmetry_multiplicity
 _atom_site_fract_x
 _atom_site_fract_y
 _atom_site_fract_z
 _atom_site_occupancy
  Li  Li0  1  0.830777  0.842189  0.752068  1
  Li  Li1  1  0.921020  0.408025  0.747851  1
  Li  Li2  1  0.670805  0.658918  0.247887  1
  Li  Li3  1  0.579106  0.091816  0.252121  1
  Li  Li4  1  0.420555  0.907985  0.747208  1
  Li  Li5  1  0.328979  0.341967  0.752114  1
  Li  Li6  1  0.078882  0.592128  0.252375  1
  Li  Li7  1  0.171235  0.157662  0.247540  1
  Mn  Mn8  1  0.828070  0.936284  0.286697  1
  Mn  Mn9  1  0.921459  0.313414  0.213388  1
  Mn  Mn10  1  0.672014  0.563199  0.713540  1
  Mn  Mn11  1  0.578588  0.186558  0.786611  1
  Mn  Mn12  1  0.328493  0.436627  0.286581  1
  Mn  Mn13  1  0.080502  0.687360  0.788954  1
  Mn  Mn14  1  0.171292  0.063305  0.712861  1
  Fe  Fe15  1  0.425021  0.813505  0.222044  1
  B  B16  1  0.968797  0.768248  0.270870  1
  B  B17  1  0.780686  0.482005  0.228887  1
  B  B18  1  0.529670  0.732187  0.727431  1
  B  B19  1  0.281052  0.980661  0.228332  1
  B  B20  1  0.719011  0.018041  0.771017  1
  B  B21  1  0.469107  0.268088  0.271003  1
  B  B22  1  0.219152  0.518215  0.771062  1
  B  B23  1  0.030846  0.231910  0.728893  1
  O  O24  1  0.900908  0.424870  0.116944  1
  O  O25  1  0.847440  0.825270  0.381971  1
  O  O26  1  0.993268  0.303736  0.641609  1
  O  O27  1  0.742918  0.553898  0.141687  1
  O  O28  1  0.755918  0.946203  0.858368  1
  O  O29  1  0.956937  0.216812  0.941458  1
  O  O30  1  0.706777  0.466830  0.441330  1
  O  O31  1  0.649554  0.674561  0.618261  1
  O  O32  1  0.399729  0.922586  0.116952  1
  O  O33  1  0.793231  0.033042  0.558610  1
  O  O34  1  0.543321  0.283157  0.058667  1
  O  O35  1  0.490175  0.803332  0.631255  1
  O  O36  1  0.506549  0.196211  0.358216  1
  O  O37  1  0.456841  0.719876  0.942993  1
  O  O38  1  0.206862  0.966772  0.441856  1
  O  O39  1  0.599229  0.075229  0.883118  1
  O  O40  1  0.348876  0.325205  0.382875  1
  O  O41  1  0.293344  0.533184  0.558617  1
  O  O42  1  0.044385  0.783362  0.060010  1
  O  O43  1  0.245402  0.052502  0.140480  1
  O  O44  1  0.256468  0.446360  0.858345  1
  O  O45  1  0.006514  0.696455  0.359278  1
  O  O46  1  0.150959  0.174740  0.616844  1
  O  O47  1  0.099275  0.575512  0.882921  1
