# generated using pymatgen
data_Li2FeSi3O8
_symmetry_space_group_name_H-M   'P 1'
_cell_length_a   6.34066539
_cell_length_b   6.25473100
_cell_length_c   5.14754451
_cell_angle_alpha   73.72935607
_cell_angle_beta   106.23635359
_cell_angle_gamma   103.45331434
_symmetry_Int_Tables_number   1
_chemical_formula_structural   Li2FeSi3O8
_chemical_formula_sum   'Li2 Fe1 Si3 O8'
_cell_volume   185.49888093
_cell_formula_units_Z   1
loop_
 _symmetry_equiv_pos_site_id
 _symmetry_equiv_pos_as_xyz
  1  'x, y, z'
loop_
 _atom_site_type_symbol
 _atom_site_label
 _atom_site_symmetry_multiplicity
 _atom_site_fract_x
 _atom_site_fract_y
 _atom_site_fract_z
 _atom_site_occupancy
  Li  Li0  1  0.849666  0.632465  0.285598  1
  Li  Li1  1  0.123127  0.308323  0.801806  1
  Fe  Fe2  1  0.627436  0.297537  0.662179  1
  Si  Si3  1  0.817701  0.118114  0.305773  1
  Si  Si4  1  0.398192  0.752911  0.315445  1
  Si  Si5  1  0.196945  0.888148  0.708238  1
  O  O6  1  0.867874  0.199644  0.998839  1
  O  O7  1  0.182095  0.756670  0.035701  1
  O  O8  1  0.881184  0.322977  0.463418  1
  O  O9  1  0.540734  0.563115  0.347044  1
  O  O10  1  0.324843  0.142029  0.702279  1
  O  O11  1  0.549853  0.006871  0.283120  1
  O  O12  1  0.945798  0.896372  0.497493  1
  O  O13  1  0.293152  0.713426  0.593067  1
