# generated using pymatgen
data_K2LiNb6(PO8)3
_symmetry_space_group_name_H-M   'P 1'
_cell_length_a   8.53040034
_cell_length_b   13.45962208
_cell_length_c   10.49637229
_cell_angle_alpha   89.95714073
_cell_angle_beta   113.37710688
_cell_angle_gamma   89.98248704
_symmetry_Int_Tables_number   1
_chemical_formula_structural   K2LiNb6(PO8)3
_chemical_formula_sum   'K4 Li2 Nb12 P6 O48'
_cell_volume   1106.22360946
_cell_formula_units_Z   2
loop_
 _symmetry_equiv_pos_site_id
 _symmetry_equiv_pos_as_xyz
  1  'x, y, z'
loop_
 _atom_site_type_symbol
 _atom_site_label
 _atom_site_symmetry_multiplicity
 _atom_site_fract_x
 _atom_site_fract_y
 _atom_site_fract_z
 _atom_site_occupancy
  K  K0  1  0.594190  0.803186  0.107998  1
  K  K1  1  0.695836  0.341290  0.747217  1
  K  K2  1  0.304773  0.341395  0.252545  1
  K  K3  1  0.089204  0.855533  0.550401  1
  Li  Li4  1  0.578897  0.000402  0.577869  1
  Li  Li5  1  0.420359  0.500104  0.921369  1
  Nb  Nb6  1  0.962348  0.596015  0.241574  1
  Nb  Nb7  1  0.838522  0.340739  0.303353  1
  Nb  Nb8  1  0.971559  0.097186  0.750308  1
  Nb  Nb9  1  0.648129  0.561977  0.402737  1
  Nb  Nb10  1  0.845841  0.840491  0.811056  1
  Nb  Nb11  1  0.354061  0.061028  0.100160  1
  Nb  Nb12  1  0.651098  0.061798  0.908622  1
  Nb  Nb13  1  0.158868  0.841198  0.195479  1
  Nb  Nb14  1  0.347691  0.563115  0.590684  1
  Nb  Nb15  1  0.035906  0.097496  0.257382  1
  Nb  Nb16  1  0.153535  0.340631  0.687341  1
  Nb  Nb17  1  0.030714  0.596671  0.752358  1
  P  P18  1  0.723650  0.111970  0.387716  1
  P  P19  1  0.500102  0.276219  0.000230  1
  P  P20  1  0.724053  0.612134  0.888321  1
  P  P21  1  0.500242  0.776067  0.499663  1
  P  P22  1  0.276259  0.611672  0.112286  1
  P  P23  1  0.276571  0.112401  0.611444  1
  O  O24  1  0.975603  0.237106  0.264872  1
  O  O25  1  0.935894  0.446616  0.242384  1
  O  O26  1  0.847015  0.076205  0.077401  1
  O  O27  1  0.762291  0.597909  0.044704  1
  O  O28  1  0.868611  0.064404  0.355274  1
  O  O29  1  0.792956  0.624619  0.308761  1
  O  O30  1  0.972436  0.737017  0.761212  1
  O  O31  1  0.640388  0.342221  0.106521  1
  O  O32  1  0.928822  0.946417  0.736929  1
  O  O33  1  0.846653  0.576513  0.576145  1
  O  O34  1  0.710563  0.224834  0.358108  1
  O  O35  1  0.685471  0.429853  0.363295  1
  O  O36  1  0.500363  0.026518  0.001385  1
  O  O37  1  0.754329  0.091943  0.542000  1
  O  O38  1  0.865345  0.563235  0.852555  1
  O  O39  1  0.551663  0.061935  0.296926  1
  O  O40  1  0.790292  0.122646  0.806414  1
  O  O41  1  0.416086  0.212563  0.077930  1
  O  O42  1  0.582948  0.711715  0.421644  1
  O  O43  1  0.447719  0.560250  0.202047  1
  O  O44  1  0.634243  0.847658  0.602183  1
  O  O45  1  0.708729  0.724670  0.857116  1
  O  O46  1  0.686645  0.931284  0.861799  1
  O  O47  1  0.501158  0.525728  0.500327  1
  O  O48  1  0.314605  0.928842  0.136146  1
  O  O49  1  0.291519  0.724622  0.140879  1
  O  O50  1  0.357460  0.841932  0.395005  1
  O  O51  1  0.551354  0.558336  0.806284  1
  O  O52  1  0.418559  0.711253  0.579255  1
  O  O53  1  0.580803  0.212258  0.919405  1
  O  O54  1  0.206504  0.124422  0.190010  1
  O  O55  1  0.450418  0.060144  0.694054  1
  O  O56  1  0.132523  0.563933  0.145592  1
  O  O57  1  0.235880  0.096090  0.455561  1
  O  O58  1  0.317365  0.431486  0.641149  1
  O  O59  1  0.999947  0.846559  0.000579  1
  O  O60  1  0.291773  0.224730  0.644745  1
  O  O61  1  0.152938  0.576535  0.422624  1
  O  O62  1  0.066193  0.945932  0.260917  1
  O  O63  1  0.367131  0.348706  0.897636  1
  O  O64  1  0.026554  0.736691  0.236854  1
  O  O65  1  0.207236  0.621793  0.691645  1
  O  O66  1  0.134061  0.063143  0.646463  1
  O  O67  1  0.245657  0.592036  0.957756  1
  O  O68  1  0.999323  0.347080  0.499510  1
  O  O69  1  0.153598  0.076734  0.924144  1
  O  O70  1  0.070063  0.447033  0.760140  1
  O  O71  1  0.023845  0.237183  0.735389  1
