# generated using pymatgen
data_Y3I7O
_symmetry_space_group_name_H-M   'P 1'
_cell_length_a   8.38537279
_cell_length_b   8.38540001
_cell_length_c   14.89043417
_cell_angle_alpha   89.95803240
_cell_angle_beta   90.01977827
_cell_angle_gamma   119.99236665
_symmetry_Int_Tables_number   1
_chemical_formula_structural   Y3I7O
_chemical_formula_sum   'Y6 I14 O2'
_cell_volume   906.81237039
_cell_formula_units_Z   2
loop_
 _symmetry_equiv_pos_site_id
 _symmetry_equiv_pos_as_xyz
  1  'x, y, z'
loop_
 _atom_site_type_symbol
 _atom_site_label
 _atom_site_symmetry_multiplicity
 _atom_site_fract_x
 _atom_site_fract_y
 _atom_site_fract_z
 _atom_site_occupancy
  Y  Y0  1  0.146877  0.852908  0.758793  1
  Y  Y1  1  0.147131  0.294002  0.758688  1
  Y  Y2  1  0.293926  0.146670  0.258715  1
  Y  Y3  1  0.706050  0.853250  0.758830  1
  Y  Y4  1  0.852885  0.705911  0.258722  1
  Y  Y5  1  0.853183  0.147094  0.258733  1
  I  I6  1  0.170456  0.829523  0.127658  1
  I  I7  1  0.000788  0.500179  0.373544  1
  I  I8  1  0.333458  0.666946  0.641277  1
  I  I9  1  0.170425  0.340802  0.127610  1
  I  I10  1  0.499918  0.999043  0.373596  1
  I  I11  1  0.499183  0.500153  0.373103  1
  I  I12  1  0.659416  0.830046  0.127601  1
  I  I13  1  0.340760  0.170424  0.627640  1
  I  I14  1  0.500440  0.499495  0.873401  1
  I  I15  1  0.500500  0.001494  0.873437  1
  I  I16  1  0.666692  0.333870  0.141209  1
  I  I17  1  0.829523  0.659300  0.627700  1
  I  I18  1  0.998899  0.498869  0.873362  1
  I  I19  1  0.829599  0.170365  0.627584  1
  O  O20  1  0.999969  0.999859  0.296204  1
  O  O21  1  0.000042  0.000017  0.796254  1
