# generated using pymatgen
data_Li3MnCr4O8
_symmetry_space_group_name_H-M   'P 1'
_cell_length_a   6.09592676
_cell_length_b   6.09592688
_cell_length_c   6.12031867
_cell_angle_alpha   86.84332509
_cell_angle_beta   57.99514670
_cell_angle_gamma   58.45452824
_symmetry_Int_Tables_number   1
_chemical_formula_structural   Li3MnCr4O8
_chemical_formula_sum   'Li3 Mn1 Cr4 O8'
_cell_volume   156.40091711
_cell_formula_units_Z   1
loop_
 _symmetry_equiv_pos_site_id
 _symmetry_equiv_pos_as_xyz
  1  'x, y, z'
loop_
 _atom_site_type_symbol
 _atom_site_label
 _atom_site_symmetry_multiplicity
 _atom_site_fract_x
 _atom_site_fract_y
 _atom_site_fract_z
 _atom_site_occupancy
  Li  Li0  1  0.000000  0.000000  0.500000  1
  Li  Li1  1  0.500000  0.000000  0.500000  1
  Li  Li2  1  0.500000  0.500000  0.500000  1
  Mn  Mn3  1  0.500000  0.500000  0.000000  1
  Cr  Cr4  1  0.000000  0.500000  0.500000  1
  Cr  Cr5  1  0.000000  0.000000  0.000000  1
  Cr  Cr6  1  0.500000  0.000000  0.000000  1
  Cr  Cr7  1  0.000000  0.500000  0.000000  1
  O  O8  1  0.483839  0.253075  0.769237  1
  O  O9  1  0.010033  0.258612  0.764199  1
  O  O10  1  0.494413  0.774231  0.764199  1
  O  O11  1  0.988017  0.767998  0.779981  1
  O  O12  1  0.011983  0.232002  0.220019  1
  O  O13  1  0.505587  0.225769  0.235801  1
  O  O14  1  0.989967  0.741388  0.235801  1
  O  O15  1  0.516161  0.746925  0.230763  1
