# generated using pymatgen
data_Fe4O5F3
_symmetry_space_group_name_H-M   'P 1'
_cell_length_a   7.04818832
_cell_length_b   6.39429018
_cell_length_c   7.68891400
_cell_angle_alpha   65.42951807
_cell_angle_beta   62.98798044
_cell_angle_gamma   90.00000000
_symmetry_Int_Tables_number   1
_chemical_formula_structural   Fe4O5F3
_chemical_formula_sum   'Fe8 O10 F6'
_cell_volume   273.03526611
_cell_formula_units_Z   2
loop_
 _symmetry_equiv_pos_site_id
 _symmetry_equiv_pos_as_xyz
  1  'x, y, z'
loop_
 _atom_site_type_symbol
 _atom_site_label
 _atom_site_symmetry_multiplicity
 _atom_site_fract_x
 _atom_site_fract_y
 _atom_site_fract_z
 _atom_site_occupancy
  Fe  Fe0  1  0.019013  0.008327  0.983345  1
  Fe  Fe1  1  0.480987  0.491673  0.016655  1
  Fe  Fe2  1  0.250000  0.250000  0.500000  1
  Fe  Fe3  1  0.907723  0.373275  0.253451  1
  Fe  Fe4  1  0.378960  0.876393  0.247215  1
  Fe  Fe5  1  0.592277  0.126725  0.746549  1
  Fe  Fe6  1  0.121040  0.623607  0.752785  1
  Fe  Fe7  1  0.750000  0.750000  0.500000  1
  O  O8  1  0.007265  0.306223  0.997981  1
  O  O9  1  0.492735  0.193777  0.002019  1
  O  O10  1  0.007265  0.695796  0.997981  1
  O  O11  1  0.186443  0.369792  0.260415  1
  O  O12  1  0.313557  0.130208  0.739585  1
  O  O13  1  0.750000  0.050585  0.500000  1
  O  O14  1  0.250000  0.559585  0.500000  1
  O  O15  1  0.492735  0.804204  0.002019  1
  O  O16  1  0.750000  0.449415  0.500000  1
  O  O17  1  0.250000  0.940415  0.500000  1
  F  F18  1  0.572453  0.376473  0.247054  1
  F  F19  1  0.065734  0.874188  0.251623  1
  F  F20  1  0.927547  0.123527  0.752946  1
  F  F21  1  0.690100  0.878308  0.243384  1
  F  F22  1  0.434266  0.625812  0.748377  1
  F  F23  1  0.809900  0.621692  0.756616  1
