# generated using pymatgen
data_Mn12O5F19
_symmetry_space_group_name_H-M   'P 1'
_cell_length_a   5.43067347
_cell_length_b   5.27247417
_cell_length_c   15.59969013
_cell_angle_alpha   93.35871518
_cell_angle_beta   96.19489506
_cell_angle_gamma   81.44648851
_symmetry_Int_Tables_number   1
_chemical_formula_structural   Mn12O5F19
_chemical_formula_sum   'Mn12 O5 F19'
_cell_volume   438.70864808
_cell_formula_units_Z   1
loop_
 _symmetry_equiv_pos_site_id
 _symmetry_equiv_pos_as_xyz
  1  'x, y, z'
loop_
 _atom_site_type_symbol
 _atom_site_label
 _atom_site_symmetry_multiplicity
 _atom_site_fract_x
 _atom_site_fract_y
 _atom_site_fract_z
 _atom_site_occupancy
  Mn  Mn0  1  0.012888  0.070015  0.993903  1
  Mn  Mn1  1  0.002378  0.534090  0.149407  1
  Mn  Mn2  1  0.030916  0.037126  0.327405  1
  Mn  Mn3  1  0.016815  0.475275  0.483227  1
  Mn  Mn4  1  0.935781  0.010594  0.668363  1
  Mn  Mn5  1  0.050494  0.559599  0.823214  1
  Mn  Mn6  1  0.511825  0.964466  0.165257  1
  Mn  Mn7  1  0.471235  0.442935  0.013527  1
  Mn  Mn8  1  0.430355  0.498487  0.666610  1
  Mn  Mn9  1  0.519690  0.006710  0.503774  1
  Mn  Mn10  1  0.444487  0.458287  0.343593  1
  Mn  Mn11  1  0.477012  0.953692  0.827687  1
  O  O12  1  0.209342  0.772549  0.726992  1
  O  O13  1  0.202989  0.328847  0.073376  1
  O  O14  1  0.256902  0.231259  0.419879  1
  O  O15  1  0.640312  0.213104  0.615639  1
  O  O16  1  0.666826  0.631872  0.094301  1
  F  F17  1  0.177334  0.294277  0.242687  1
  F  F18  1  0.178131  0.822916  0.091432  1
  F  F19  1  0.135635  0.260185  0.594660  1
  F  F20  1  0.130342  0.722703  0.404532  1
  F  F21  1  0.268362  0.248116  0.914639  1
  F  F22  1  0.358471  0.781619  0.261020  1
  F  F23  1  0.382708  0.689497  0.563214  1
  F  F24  1  0.318354  0.739600  0.916529  1
  F  F25  1  0.394813  0.303444  0.764436  1
  F  F26  1  0.739448  0.357980  0.935413  1
  F  F27  1  0.685783  0.240798  0.260918  1
  F  F28  1  0.654152  0.698318  0.421575  1
  F  F29  1  0.709827  0.725121  0.736672  1
  F  F30  1  0.776384  0.200380  0.432785  1
  F  F31  1  0.711301  0.128682  0.078656  1
  F  F32  1  0.917948  0.218098  0.772916  1
  F  F33  1  0.881540  0.767930  0.570289  1
  F  F34  1  0.827045  0.839484  0.900657  1
  F  F35  1  0.872174  0.771944  0.240822  1
