# generated using pymatgen
data_CsMnH4(OF2)2
_symmetry_space_group_name_H-M   'P 1'
_cell_length_a   6.67322061
_cell_length_b   6.86592422
_cell_length_c   8.76468848
_cell_angle_alpha   94.80465923
_cell_angle_beta   112.37629537
_cell_angle_gamma   60.92417486
_symmetry_Int_Tables_number   1
_chemical_formula_structural   CsMnH4(OF2)2
_chemical_formula_sum   'Cs2 Mn2 H8 O4 F8'
_cell_volume   321.98738747
_cell_formula_units_Z   2
loop_
 _symmetry_equiv_pos_site_id
 _symmetry_equiv_pos_as_xyz
  1  'x, y, z'
loop_
 _atom_site_type_symbol
 _atom_site_label
 _atom_site_symmetry_multiplicity
 _atom_site_fract_x
 _atom_site_fract_y
 _atom_site_fract_z
 _atom_site_occupancy
  Cs  Cs0  1  0.972583  0.500000  0.500000  1
  Cs  Cs1  1  0.025721  0.000000  0.000000  1
  Mn  Mn2  1  0.496463  0.749697  0.748446  1
  Mn  Mn3  1  0.497714  0.250303  0.251554  1
  H  H4  1  0.093289  0.923689  0.421019  1
  H  H5  1  0.673856  0.805240  0.094424  1
  H  H6  1  0.317513  0.698943  0.399646  1
  H  H7  1  0.400508  0.421636  0.925512  1
  H  H8  1  0.896631  0.578364  0.074488  1
  H  H9  1  0.616810  0.301057  0.600354  1
  H  H10  1  0.384671  0.194760  0.905576  1
  H  H11  1  0.595958  0.076311  0.578981  1
  O  O12  1  0.246392  0.780874  0.481382  1
  O  O13  1  0.745491  0.721424  0.013439  1
  O  O14  1  0.453475  0.278576  0.986561  1
  O  O15  1  0.545885  0.219126  0.518618  1
  F  F16  1  0.561219  0.950707  0.232438  1
  F  F17  1  0.680323  0.847448  0.687365  1
  F  F18  1  0.315021  0.649709  0.810659  1
  F  F19  1  0.434795  0.550037  0.266332  1
  F  F20  1  0.718500  0.449963  0.733668  1
  F  F21  1  0.154071  0.350291  0.189341  1
  F  F22  1  0.840405  0.152553  0.312635  1
  F  F23  1  0.279488  0.049293  0.767562  1
