# generated using pymatgen
data_K2B10H9O
_symmetry_space_group_name_H-M   'P 1'
_cell_length_a   7.05155913
_cell_length_b   13.37088886
_cell_length_c   11.58325456
_cell_angle_alpha   90.00000000
_cell_angle_beta   81.19622231
_cell_angle_gamma   90.00000000
_symmetry_Int_Tables_number   1
_chemical_formula_structural   K2B10H9O
_chemical_formula_sum   'K8 B40 H36 O4'
_cell_volume   1079.26705484
_cell_formula_units_Z   4
loop_
 _symmetry_equiv_pos_site_id
 _symmetry_equiv_pos_as_xyz
  1  'x, y, z'
loop_
 _atom_site_type_symbol
 _atom_site_label
 _atom_site_symmetry_multiplicity
 _atom_site_fract_x
 _atom_site_fract_y
 _atom_site_fract_z
 _atom_site_occupancy
  K  K0  1  0.696009  0.149301  0.888256  1
  K  K1  1  0.303991  0.649301  0.611744  1
  K  K2  1  0.303991  0.850699  0.111744  1
  K  K3  1  0.696009  0.350699  0.388256  1
  K  K4  1  0.269795  0.108567  0.434273  1
  K  K5  1  0.730205  0.608567  0.065727  1
  K  K6  1  0.730205  0.891433  0.565727  1
  K  K7  1  0.269795  0.391433  0.934273  1
  B  B8  1  0.947499  0.956569  0.808044  1
  B  B9  1  0.052501  0.456569  0.691956  1
  B  B10  1  0.052501  0.043431  0.191956  1
  B  B11  1  0.947499  0.543431  0.308044  1
  B  B12  1  0.268840  0.917129  0.623999  1
  B  B13  1  0.731160  0.417129  0.876001  1
  B  B14  1  0.731160  0.082871  0.376001  1
  B  B15  1  0.268840  0.582871  0.123999  1
  B  B16  1  0.286178  0.966274  0.867425  1
  B  B17  1  0.713822  0.466274  0.632575  1
  B  B18  1  0.713822  0.033726  0.132575  1
  B  B19  1  0.286178  0.533726  0.367425  1
  B  B20  1  0.047428  0.982690  0.933449  1
  B  B21  1  0.952572  0.482690  0.566551  1
  B  B22  1  0.952572  0.017310  0.066551  1
  B  B23  1  0.047428  0.517310  0.433449  1
  B  B24  1  0.088424  0.997885  0.674824  1
  B  B25  1  0.911576  0.497885  0.825176  1
  B  B26  1  0.911576  0.002115  0.325176  1
  B  B27  1  0.088424  0.502115  0.174824  1
  B  B28  1  0.320497  0.873340  0.754257  1
  B  B29  1  0.679503  0.373340  0.745743  1
  B  B30  1  0.679503  0.126660  0.245743  1
  B  B31  1  0.320497  0.626660  0.254257  1
  B  B32  1  0.329852  0.007496  0.718233  1
  B  B33  1  0.670148  0.507496  0.781767  1
  B  B34  1  0.670148  0.992504  0.281767  1
  B  B35  1  0.329852  0.492504  0.218233  1
  B  B36  1  0.113199  0.867611  0.865998  1
  B  B37  1  0.886801  0.367611  0.634002  1
  B  B38  1  0.886801  0.132389  0.134002  1
  B  B39  1  0.113199  0.632389  0.365998  1
  B  B40  1  0.078359  0.865263  0.715168  1
  B  B41  1  0.921641  0.365263  0.784832  1
  B  B42  1  0.921641  0.134737  0.284832  1
  B  B43  1  0.078359  0.634737  0.215168  1
  B  B44  1  0.121338  0.055714  0.809824  1
  B  B45  1  0.878662  0.555714  0.690176  1
  B  B46  1  0.878662  0.944286  0.190176  1
  B  B47  1  0.121338  0.444286  0.309824  1
  H  H48  1  0.107142  0.144827  0.818958  1
  H  H49  1  0.892858  0.644827  0.681042  1
  H  H50  1  0.892858  0.855173  0.181042  1
  H  H51  1  0.107142  0.355173  0.318958  1
  H  H52  1  0.083827  0.792852  0.923771  1
  H  H53  1  0.916173  0.292852  0.576229  1
  H  H54  1  0.916173  0.207148  0.076229  1
  H  H55  1  0.083827  0.707148  0.423771  1
  H  H56  1  0.443242  0.810867  0.756543  1
  H  H57  1  0.556758  0.310867  0.743457  1
  H  H58  1  0.556758  0.189133  0.243457  1
  H  H59  1  0.443242  0.689133  0.256543  1
  H  H60  1  0.992165  0.796844  0.680183  1
  H  H61  1  0.007836  0.296844  0.819817  1
  H  H62  1  0.007836  0.203156  0.319817  1
  H  H63  1  0.992165  0.703156  0.180183  1
  H  H64  1  0.775374  0.956587  0.815716  1
  H  H65  1  0.224626  0.456587  0.684284  1
  H  H66  1  0.224626  0.043413  0.184284  1
  H  H67  1  0.775374  0.543413  0.315716  1
  H  H68  1  0.337144  0.897013  0.525887  1
  H  H69  1  0.662856  0.397013  0.974113  1
  H  H70  1  0.662856  0.102987  0.474113  1
  H  H71  1  0.337144  0.602987  0.025887  1
  H  H72  1  0.411029  0.978995  0.925532  1
  H  H73  1  0.588971  0.478995  0.574468  1
  H  H74  1  0.588971  0.021005  0.074468  1
  H  H75  1  0.411029  0.521005  0.425532  1
  H  H76  1  0.006049  0.044428  0.608112  1
  H  H77  1  0.993951  0.544428  0.891888  1
  H  H78  1  0.993951  0.955572  0.391888  1
  H  H79  1  0.006049  0.455572  0.108112  1
  H  H80  1  0.462254  0.063322  0.686215  1
  H  H81  1  0.537746  0.563322  0.813785  1
  H  H82  1  0.537746  0.936678  0.313785  1
  H  H83  1  0.462254  0.436678  0.186215  1
  O  O84  1  0.638869  0.786760  0.998002  1
  O  O85  1  0.361131  0.286760  0.501998  1
  O  O86  1  0.361131  0.213240  0.001998  1
  O  O87  1  0.638869  0.713240  0.498002  1
