# generated using pymatgen
data_Li3MnV(PO4)3
_symmetry_space_group_name_H-M   'P 1'
_cell_length_a   9.21124662
_cell_length_b   8.38338134
_cell_length_c   8.44771027
_cell_angle_alpha   60.54785362
_cell_angle_beta   63.11585748
_cell_angle_gamma   90.91192394
_symmetry_Int_Tables_number   1
_chemical_formula_structural   Li3MnV(PO4)3
_chemical_formula_sum   'Li6 Mn2 V2 P6 O24'
_cell_volume   482.21862571
_cell_formula_units_Z   2
loop_
 _symmetry_equiv_pos_site_id
 _symmetry_equiv_pos_as_xyz
  1  'x, y, z'
loop_
 _atom_site_type_symbol
 _atom_site_label
 _atom_site_symmetry_multiplicity
 _atom_site_fract_x
 _atom_site_fract_y
 _atom_site_fract_z
 _atom_site_occupancy
  Li  Li0  1  0.141040  0.076326  0.596897  1
  Li  Li1  1  0.149861  0.342674  0.925263  1
  Li  Li2  1  0.591896  0.790110  0.673712  1
  Li  Li3  1  0.859166  0.668518  0.067417  1
  Li  Li4  1  0.918692  0.945512  0.328122  1
  Li  Li5  1  0.861564  0.253790  0.813609  1
  Mn  Mn6  1  0.556759  0.860469  0.284479  1
  Mn  Mn7  1  0.433703  0.143093  0.717240  1
  V  V8  1  0.038844  0.358120  0.306782  1
  V  V9  1  0.962739  0.652705  0.689205  1
  P  P10  1  0.247615  0.048927  0.216021  1
  P  P11  1  0.247983  0.462245  0.496045  1
  P  P12  1  0.242666  0.753554  0.798795  1
  P  P13  1  0.755561  0.255397  0.201793  1
  P  P14  1  0.746773  0.530567  0.516105  1
  P  P15  1  0.751356  0.949322  0.783383  1
  O  O16  1  0.109308  0.844649  0.379630  1
  O  O17  1  0.244427  0.134759  0.008209  1
  O  O18  1  0.177158  0.174345  0.310334  1
  O  O19  1  0.168761  0.474212  0.358733  1
  O  O20  1  0.106050  0.467758  0.687102  1
  O  O21  1  0.099100  0.793440  0.744790  1
  O  O22  1  0.419281  0.038296  0.190283  1
  O  O23  1  0.265201  0.258549  0.603770  1
  O  O24  1  0.412390  0.622194  0.356969  1
  O  O25  1  0.176571  0.536166  0.991730  1
  O  O26  1  0.262391  0.889941  0.864778  1
  O  O27  1  0.410512  0.779171  0.615354  1
  O  O28  1  0.591117  0.215207  0.395503  1
  O  O29  1  0.746804  0.122887  0.125975  1
  O  O30  1  0.823928  0.469988  0.010239  1
  O  O31  1  0.573570  0.376656  0.649913  1
  O  O32  1  0.731240  0.737321  0.419963  1
  O  O33  1  0.582473  0.964528  0.792198  1
  O  O34  1  0.905383  0.215640  0.254267  1
  O  O35  1  0.879216  0.517862  0.322771  1
  O  O36  1  0.820184  0.497198  0.659091  1
  O  O37  1  0.809931  0.826601  0.686857  1
  O  O38  1  0.740640  0.860153  -0.002060  1
  O  O39  1  0.892365  0.153769  0.630788  1
