# generated using pymatgen
data_LiMnOF2
_symmetry_space_group_name_H-M   'P 1'
_cell_length_a   10.94599814
_cell_length_b   8.68285688
_cell_length_c   5.38049537
_cell_angle_alpha   91.71576258
_cell_angle_beta   112.44053246
_cell_angle_gamma   89.48039116
_symmetry_Int_Tables_number   1
_chemical_formula_structural   LiMnOF2
_chemical_formula_sum   'Li8 Mn8 O8 F16'
_cell_volume   472.43915393
_cell_formula_units_Z   8
loop_
 _symmetry_equiv_pos_site_id
 _symmetry_equiv_pos_as_xyz
  1  'x, y, z'
loop_
 _atom_site_type_symbol
 _atom_site_label
 _atom_site_symmetry_multiplicity
 _atom_site_fract_x
 _atom_site_fract_y
 _atom_site_fract_z
 _atom_site_occupancy
  Li  Li0  1  0.206728  0.387354  0.421054  1
  Li  Li1  1  0.295284  0.093915  0.075524  1
  Li  Li2  1  0.214917  0.602005  0.889828  1
  Li  Li3  1  0.286708  0.911384  0.576507  1
  Li  Li4  1  0.687091  0.090003  0.385891  1
  Li  Li5  1  0.816243  0.409943  0.138266  1
  Li  Li6  1  0.701179  0.907998  0.887799  1
  Li  Li7  1  0.802655  0.591184  0.622821  1
  Mn  Mn8  1  0.053836  0.640933  0.159842  1
  Mn  Mn9  1  0.009734  0.089864  0.260423  1
  Mn  Mn10  1  0.006324  0.916964  0.736883  1
  Mn  Mn11  1  0.018915  0.284134  0.771698  1
  Mn  Mn12  1  0.485576  0.791008  0.238369  1
  Mn  Mn13  1  0.487668  0.405525  0.247124  1
  Mn  Mn14  1  0.494172  0.582775  0.763703  1
  Mn  Mn15  1  0.488337  0.224696  0.753050  1
  O  O16  1  0.095565  0.096475  0.957569  1
  O  O17  1  0.113780  0.462617  0.033252  1
  O  O18  1  0.087751  0.922907  0.490160  1
  O  O19  1  0.094329  0.243185  0.515596  1
  O  O20  1  0.117140  0.782791  0.976756  1
  O  O21  1  0.399953  0.256929  0.989321  1
  O  O22  1  0.411686  0.577840  0.020606  1
  O  O23  1  0.405475  0.407523  0.552152  1
  F  F24  1  0.140001  0.572445  0.524806  1
  F  F25  1  0.357845  0.079862  0.458094  1
  F  F26  1  0.378033  0.741866  0.481995  1
  F  F27  1  0.358612  0.922626  0.949934  1
  F  F28  1  0.629659  0.411025  0.041044  1
  F  F29  1  0.619000  0.082721  0.993803  1
  F  F30  1  0.604522  0.575111  0.524813  1
  F  F31  1  0.597190  0.245026  0.514976  1
  F  F32  1  0.632494  0.917249  0.512169  1
  F  F33  1  0.604666  0.749392  0.982839  1
  F  F34  1  0.900378  0.252149  0.005947  1
  F  F35  1  0.894684  0.935441  0.978321  1
  F  F36  1  0.877269  0.412195  0.523206  1
  F  F37  1  0.889130  0.758956  0.542521  1
  F  F38  1  0.876859  0.073177  0.497972  1
  F  F39  1  0.858610  0.590803  0.003368  1
