# generated using pymatgen
data_Li2Nb6NiO18
_symmetry_space_group_name_H-M   'P 1'
_cell_length_a   11.18404368
_cell_length_b   8.96129859
_cell_length_c   7.65656919
_cell_angle_alpha   113.42358240
_cell_angle_beta   96.51629847
_cell_angle_gamma   104.79273935
_symmetry_Int_Tables_number   1
_chemical_formula_structural   Li2Nb6NiO18
_chemical_formula_sum   'Li4 Nb12 Ni2 O36'
_cell_volume   660.50215724
_cell_formula_units_Z   2
loop_
 _symmetry_equiv_pos_site_id
 _symmetry_equiv_pos_as_xyz
  1  'x, y, z'
loop_
 _atom_site_type_symbol
 _atom_site_label
 _atom_site_symmetry_multiplicity
 _atom_site_fract_x
 _atom_site_fract_y
 _atom_site_fract_z
 _atom_site_occupancy
  Li  Li0  1  0.047942  0.326656  0.953138  1
  Li  Li1  1  0.551139  0.328688  0.455053  1
  Li  Li2  1  0.877154  0.654275  0.110185  1
  Li  Li3  1  0.384216  0.658237  0.615964  1
  Nb  Nb4  1  0.841509  0.354850  0.665963  1
  Nb  Nb5  1  0.492752  0.987281  0.494738  1
  Nb  Nb6  1  0.667349  0.669459  0.841576  1
  Nb  Nb7  1  0.344366  0.330803  0.678603  1
  Nb  Nb8  1  0.495063  0.993686  0.974306  1
  Nb  Nb9  1  0.005733  0.022621  0.488995  1
  Nb  Nb10  1  0.827605  0.316694  0.151149  1
  Nb  Nb11  1  0.679599  0.657326  0.344001  1
  Nb  Nb12  1  0.170996  0.645334  0.819846  1
  Nb  Nb13  1  0.343188  0.351769  0.185726  1
  Nb  Nb14  1  0.997228  0.990830  0.000859  1
  Nb  Nb15  1  0.155112  0.673411  0.329977  1
  Ni  Ni16  1  0.696188  0.002723  0.305469  1
  Ni  Ni17  1  0.194703  0.001628  0.803120  1
  O  O18  1  0.904660  0.136836  0.988412  1
  O  O19  1  0.979706  0.218280  0.660793  1
  O  O20  1  0.865008  0.405853  0.934280  1
  O  O21  1  0.372615  0.107223  0.957398  1
  O  O22  1  0.709271  0.116752  0.570225  1
  O  O23  1  0.995231  0.531762  0.681067  1
  O  O24  1  0.815369  0.219403  0.344306  1
  O  O25  1  0.477459  0.208157  0.631431  1
  O  O26  1  0.554668  0.077473  0.274364  1
  O  O27  1  0.372914  0.410907  0.943362  1
  O  O28  1  0.719098  0.461348  0.651512  1
  O  O29  1  0.207205  0.111937  0.628865  1
  O  O30  1  0.873191  0.786771  0.946851  1
  O  O31  1  0.658537  0.203020  0.022805  1
  O  O32  1  0.494605  0.542039  0.697801  1
  O  O33  1  0.342198  0.261226  0.365398  1
  O  O34  1  0.651265  0.891118  0.019906  1
  O  O35  1  0.809728  0.542122  0.303250  1
  O  O36  1  0.048768  0.086043  0.282380  1
  O  O37  1  0.704162  0.743358  0.611695  1
  O  O38  1  0.235471  0.469052  0.653283  1
  O  O39  1  0.536016  0.458115  0.275549  1
  O  O40  1  0.370258  0.789653  0.923213  1
  O  O41  1  0.169339  0.192701  0.998819  1
  O  O42  1  0.822211  0.895268  0.356342  1
  O  O43  1  0.677021  0.596344  0.034618  1
  O  O44  1  0.499861  0.903423  0.691684  1
  O  O45  1  0.298110  0.542340  0.325117  1
  O  O46  1  0.151144  0.888260  0.955392  1
  O  O47  1  0.204005  0.780235  0.623991  1
  O  O48  1  0.580231  0.817079  0.314372  1
  O  O49  1  0.033834  0.461449  0.261051  1
  O  O50  1  0.328374  0.863915  0.356954  1
  O  O51  1  0.020610  0.932280  0.702145  1
  O  O52  1  0.155388  0.590698  0.028539  1
  O  O53  1  0.042424  0.791285  0.312359  1
