# generated using pymatgen
data_Cr8Ni50Mo17
_symmetry_space_group_name_H-M   'P 1'
_cell_length_a   9.26260436
_cell_length_b   9.90955015
_cell_length_c   11.19686670
_cell_angle_alpha   91.40898769
_cell_angle_beta   114.21471718
_cell_angle_gamma   105.15209060
_symmetry_Int_Tables_number   1
_chemical_formula_structural   Cr8Ni50Mo17
_chemical_formula_sum   'Cr8 Ni50 Mo17'
_cell_volume   894.53211868
_cell_formula_units_Z   1
loop_
 _symmetry_equiv_pos_site_id
 _symmetry_equiv_pos_as_xyz
  1  'x, y, z'
loop_
 _atom_site_type_symbol
 _atom_site_label
 _atom_site_symmetry_multiplicity
 _atom_site_fract_x
 _atom_site_fract_y
 _atom_site_fract_z
 _atom_site_occupancy
  Cr  Cr0  1  0.642137  0.037506  0.714556  1
  Cr  Cr1  1  0.479922  0.279237  0.040555  1
  Cr  Cr2  1  0.756476  0.362205  0.484010  1
  Cr  Cr3  1  0.682369  0.476808  0.635636  1
  Cr  Cr4  1  0.321151  0.520427  0.360441  1
  Cr  Cr5  1  0.080033  0.879899  0.839816  1
  Cr  Cr6  1  0.717206  0.923549  0.564761  1
  Cr  Cr7  1  0.360810  0.960312  0.280077  1
  Ni  Ni8  1  0.865067  0.199896  0.929212  1
  Ni  Ni9  1  0.512449  0.242581  0.653435  1
  Ni  Ni10  1  0.152147  0.285691  0.373505  1
  Ni  Ni11  1  0.428461  0.359877  0.815869  1
  Ni  Ni12  1  0.063972  0.401274  0.532857  1
  Ni  Ni13  1  0.979256  0.519235  0.689103  1
  Ni  Ni14  1  0.908355  0.645375  0.850033  1
  Ni  Ni15  1  0.783723  0.321416  0.092173  1
  Ni  Ni16  1  0.705128  0.438535  0.253865  1
  Ni  Ni17  1  0.349798  0.479709  0.974501  1
  Ni  Ni18  1  0.626783  0.558514  0.416727  1
  Ni  Ni19  1  0.269967  0.601067  0.137269  1
  Ni  Ni20  1  0.550387  0.681078  0.570808  1
  Ni  Ni21  1  0.193404  0.724512  0.293656  1
  Ni  Ni22  1  0.470337  0.805291  0.731337  1
  Ni  Ni23  1  0.108910  0.841303  0.454859  1
  Ni  Ni24  1  0.384427  0.921467  0.893559  1
  Ni  Ni25  1  0.024606  0.961573  0.616599  1
  Ni  Ni26  1  0.941722  0.077875  0.769646  1
  Ni  Ni27  1  0.826620  0.761501  0.011709  1
  Ni  Ni28  1  0.747730  0.883018  0.173433  1
  Ni  Ni29  1  0.664288  0.000573  0.336599  1
  Ni  Ni30  1  0.309783  0.043948  0.054056  1
  Ni  Ni31  1  0.590159  0.120656  0.493537  1
  Ni  Ni32  1  0.229866  0.159316  0.213747  1
  Ni  Ni33  1  0.176064  0.238028  0.987498  1
  Ni  Ni34  1  0.806241  0.276833  0.702145  1
  Ni  Ni35  1  0.457924  0.322189  0.429542  1
  Ni  Ni36  1  0.731640  0.399389  0.862896  1
  Ni  Ni37  1  0.376303  0.438773  0.584787  1
  Ni  Ni38  1  0.291122  0.558692  0.745431  1
  Ni  Ni39  1  0.210446  0.679692  0.906934  1
  Ni  Ni40  1  0.095017  0.358922  0.149262  1
  Ni  Ni41  1  0.016021  0.478797  0.306949  1
  Ni  Ni42  1  0.648686  0.513811  0.027091  1
  Ni  Ni43  1  0.928563  0.594319  0.467182  1
  Ni  Ni44  1  0.572569  0.638968  0.188461  1
  Ni  Ni45  1  0.849674  0.719150  0.629020  1
  Ni  Ni46  1  0.491029  0.758187  0.350259  1
  Ni  Ni47  1  0.771851  0.841680  0.782208  1
  Ni  Ni48  1  0.420065  0.881822  0.507836  1
  Ni  Ni49  1  0.690513  0.959398  0.942522  1
  Ni  Ni50  1  0.336917  0.999150  0.667165  1
  Ni  Ni51  1  0.251797  0.115672  0.830334  1
  Ni  Ni52  1  0.134062  0.800727  0.066072  1
  Ni  Ni53  1  0.055923  0.917492  0.226642  1
  Ni  Ni54  1  0.972463  0.038832  0.387388  1
  Ni  Ni55  1  0.610453  0.081177  0.106600  1
  Ni  Ni56  1  0.886739  0.156381  0.546321  1
  Ni  Ni57  1  0.530474  0.196646  0.267349  1
  Mo  Mo58  1  0.001914  0.997172  0.994901  1
  Mo  Mo59  1  0.284557  0.077632  0.435815  1
  Mo  Mo60  1  0.559570  0.160072  0.879475  1
  Mo  Mo61  1  0.201169  0.199022  0.599551  1
  Mo  Mo62  1  0.118131  0.318314  0.759105  1
  Mo  Mo63  1  0.039837  0.439841  0.919710  1
  Mo  Mo64  1  0.920106  0.120506  0.159610  1
  Mo  Mo65  1  0.837276  0.242732  0.324911  1
  Mo  Mo66  1  0.400897  0.399056  0.200418  1
  Mo  Mo67  1  0.602106  0.597582  0.794475  1
  Mo  Mo68  1  0.243738  0.637903  0.515917  1
  Mo  Mo69  1  0.519642  0.719909  0.959077  1
  Mo  Mo70  1  0.156817  0.762569  0.683484  1
  Mo  Mo71  1  0.959636  0.560685  0.079139  1
  Mo  Mo72  1  0.879587  0.680546  0.242193  1
  Mo  Mo73  1  0.796617  0.802873  0.406397  1
  Mo  Mo74  1  0.438398  0.843636  0.125985  1
