# generated using pymatgen
data_Li3La8Ti9Cr3O36
_symmetry_space_group_name_H-M   'P 1'
_cell_length_a   5.51468046
_cell_length_b   5.51730902
_cell_length_c   23.28630965
_cell_angle_alpha   90.04331090
_cell_angle_beta   89.98718997
_cell_angle_gamma   89.99303531
_symmetry_Int_Tables_number   1
_chemical_formula_structural   Li3La8Ti9Cr3O36
_chemical_formula_sum   'Li3 La8 Ti9 Cr3 O36'
_cell_volume   708.51360256
_cell_formula_units_Z   1
loop_
 _symmetry_equiv_pos_site_id
 _symmetry_equiv_pos_as_xyz
  1  'x, y, z'
loop_
 _atom_site_type_symbol
 _atom_site_label
 _atom_site_symmetry_multiplicity
 _atom_site_fract_x
 _atom_site_fract_y
 _atom_site_fract_z
 _atom_site_occupancy
  Li  Li0  1  0.995440  0.980101  0.252450  1
  Li  Li1  1  0.505124  0.487939  0.087674  1
  Li  Li2  1  0.504084  0.480396  0.416750  1
  La  La3  1  0.000002  0.995391  0.915970  1
  La  La4  1  0.499873  0.498392  0.750987  1
  La  La5  1  0.497585  0.503873  0.576849  1
  La  La6  1  0.500273  0.508539  0.919890  1
  La  La7  1  0.499522  0.506747  0.250550  1
  La  La8  1  0.000809  0.006410  0.085645  1
  La  La9  1  0.001250  0.010472  0.417707  1
  La  La10  1  0.999928  0.007477  0.748063  1
  Ti  Ti11  1  0.500162  0.990735  0.165828  1
  Ti  Ti12  1  0.500127  0.990317  0.497024  1
  Ti  Ti13  1  0.500722  0.997259  0.332067  1
  Ti  Ti14  1  0.499577  0.000694  0.661055  1
  Ti  Ti15  1  0.000258  0.496503  0.004833  1
  Ti  Ti16  1  0.000374  0.496447  0.333724  1
  Ti  Ti17  1  -0.000004  0.491364  0.169409  1
  Ti  Ti18  1  0.999317  0.503001  0.660251  1
  Ti  Ti19  1  0.999445  0.499956  0.498139  1
  Cr  Cr20  1  0.499972  0.000420  0.833463  1
  Cr  Cr21  1  0.500294  0.997837  0.002887  1
  Cr  Cr22  1  0.999975  0.500048  0.833262  1
  O  O23  1  -0.000058  0.404303  0.250108  1
  O  O24  1  0.002403  0.433884  0.582406  1
  O  O25  1  0.001192  0.429800  0.918015  1
  O  O26  1  0.252226  0.258730  0.348558  1
  O  O27  1  0.244916  0.250970  0.013398  1
  O  O28  1  0.253265  0.260173  0.151613  1
  O  O29  1  0.254639  0.259005  0.484603  1
  O  O30  1  0.246326  0.246337  0.818651  1
  O  O31  1  0.254187  0.251657  0.681001  1
  O  O32  1  0.245951  0.757682  0.182531  1
  O  O33  1  0.253120  0.750361  0.510678  1
  O  O34  1  0.246271  0.757436  0.317634  1
  O  O35  1  0.253359  0.746725  0.848007  1
  O  O36  1  0.260039  0.736516  0.657255  1
  O  O37  1  0.242654  0.754004  0.985972  1
  O  O38  1  0.499522  0.906662  0.086231  1
  O  O39  1  0.499312  0.911681  0.415656  1
  O  O40  1  0.499203  0.931395  0.749095  1
  O  O41  1  0.500798  0.081295  0.250715  1
  O  O42  1  0.499761  0.071465  0.583006  1
  O  O43  1  0.501643  0.079734  0.917935  1
  O  O44  1  0.745508  0.260146  0.348763  1
  O  O45  1  0.755025  0.251378  0.013414  1
  O  O46  1  0.745086  0.261398  0.151453  1
  O  O47  1  0.745794  0.251097  0.680914  1
  O  O48  1  0.744801  0.258981  0.484629  1
  O  O49  1  0.751885  0.247950  0.818656  1
  O  O50  1  0.754711  0.759165  0.317441  1
  O  O51  1  0.755270  0.759343  0.182794  1
  O  O52  1  0.738944  0.735968  0.656986  1
  O  O53  1  0.757875  0.753940  0.985825  1
  O  O54  1  0.745831  0.749863  0.510991  1
  O  O55  1  0.748421  0.748442  0.847996  1
  O  O56  1  0.998383  0.580627  0.415813  1
  O  O57  1  0.997982  0.577922  0.084418  1
  O  O58  1  0.998746  0.573747  0.749029  1
