# generated using pymatgen
data_NiH12(BrO6)2
_symmetry_space_group_name_H-M   'P 1'
_cell_length_a   11.54090653
_cell_length_b   11.54090653
_cell_length_c   11.54090653
_cell_angle_alpha   90.00000000
_cell_angle_beta   90.00000000
_cell_angle_gamma   90.00000000
_symmetry_Int_Tables_number   1
_chemical_formula_structural   NiH12(BrO6)2
_chemical_formula_sum   'Ni4 H48 Br8 O48'
_cell_volume   1537.16246460
_cell_formula_units_Z   4
loop_
 _symmetry_equiv_pos_site_id
 _symmetry_equiv_pos_as_xyz
  1  'x, y, z'
loop_
 _atom_site_type_symbol
 _atom_site_label
 _atom_site_symmetry_multiplicity
 _atom_site_fract_x
 _atom_site_fract_y
 _atom_site_fract_z
 _atom_site_occupancy
  Ni  Ni0  1  0.500000  0.500000  0.000000  1
  Ni  Ni1  1  0.500000  0.000000  0.500000  1
  Ni  Ni2  1  0.000000  0.500000  0.500000  1
  Ni  Ni3  1  0.000000  0.000000  0.000000  1
  H  H4  1  0.069940  0.614745  0.212170  1
  H  H5  1  0.930060  0.114745  0.287830  1
  H  H6  1  0.430060  0.385255  0.712170  1
  H  H7  1  0.569940  0.885255  0.787830  1
  H  H8  1  0.212170  0.069940  0.614745  1
  H  H9  1  0.287830  0.930060  0.114745  1
  H  H10  1  0.712170  0.430060  0.385255  1
  H  H11  1  0.787830  0.569940  0.885255  1
  H  H12  1  0.614745  0.212170  0.069940  1
  H  H13  1  0.114745  0.287830  0.930060  1
  H  H14  1  0.385255  0.712170  0.430060  1
  H  H15  1  0.885255  0.787830  0.569940  1
  H  H16  1  0.930060  0.385255  0.787830  1
  H  H17  1  0.069940  0.885255  0.712170  1
  H  H18  1  0.569940  0.614745  0.287830  1
  H  H19  1  0.430060  0.114745  0.212170  1
  H  H20  1  0.787830  0.930060  0.385255  1
  H  H21  1  0.712170  0.069940  0.885255  1
  H  H22  1  0.287830  0.569940  0.614745  1
  H  H23  1  0.212170  0.430060  0.114745  1
  H  H24  1  0.385255  0.787830  0.930060  1
  H  H25  1  0.885255  0.712170  0.069940  1
  H  H26  1  0.614745  0.287830  0.569940  1
  H  H27  1  0.114745  0.212170  0.430060  1
  H  H28  1  0.190875  0.385752  0.877669  1
  H  H29  1  0.809125  0.885752  0.622331  1
  H  H30  1  0.309125  0.614248  0.377669  1
  H  H31  1  0.690875  0.114248  0.122331  1
  H  H32  1  0.877669  0.190875  0.385752  1
  H  H33  1  0.622331  0.809125  0.885752  1
  H  H34  1  0.377669  0.309125  0.614248  1
  H  H35  1  0.122331  0.690875  0.114248  1
  H  H36  1  0.385752  0.877669  0.190875  1
  H  H37  1  0.885752  0.622331  0.809125  1
  H  H38  1  0.614248  0.377669  0.309125  1
  H  H39  1  0.114248  0.122331  0.690875  1
  H  H40  1  0.809125  0.614248  0.122331  1
  H  H41  1  0.190875  0.114248  0.377669  1
  H  H42  1  0.690875  0.385752  0.622331  1
  H  H43  1  0.309125  0.885752  0.877669  1
  H  H44  1  0.122331  0.809125  0.614248  1
  H  H45  1  0.377669  0.190875  0.114248  1
  H  H46  1  0.622331  0.690875  0.385752  1
  H  H47  1  0.877669  0.309125  0.885752  1
  H  H48  1  0.614248  0.122331  0.809125  1
  H  H49  1  0.114248  0.377669  0.190875  1
  H  H50  1  0.385752  0.622331  0.690875  1
  H  H51  1  0.885752  0.877669  0.309125  1
  Br  Br52  1  0.181411  0.818589  0.318589  1
  Br  Br53  1  0.818589  0.318589  0.181411  1
  Br  Br54  1  0.318589  0.181411  0.818589  1
  Br  Br55  1  0.681411  0.681411  0.681411  1
  Br  Br56  1  0.818589  0.181411  0.681411  1
  Br  Br57  1  0.181411  0.681411  0.818589  1
  Br  Br58  1  0.681411  0.818589  0.181411  1
  Br  Br59  1  0.318589  0.318589  0.318589  1
  O  O60  1  0.140363  0.626269  0.165249  1
  O  O61  1  0.859637  0.126269  0.334751  1
  O  O62  1  0.359637  0.373731  0.665249  1
  O  O63  1  0.640363  0.873731  0.834751  1
  O  O64  1  0.165249  0.140363  0.626269  1
  O  O65  1  0.334751  0.859637  0.126269  1
  O  O66  1  0.665249  0.359637  0.373731  1
  O  O67  1  0.834751  0.640363  0.873731  1
  O  O68  1  0.626269  0.165249  0.140363  1
  O  O69  1  0.126269  0.334751  0.859637  1
  O  O70  1  0.373731  0.665249  0.359637  1
  O  O71  1  0.873731  0.834751  0.640363  1
  O  O72  1  0.859637  0.373731  0.834751  1
  O  O73  1  0.140363  0.873731  0.665249  1
  O  O74  1  0.640363  0.626269  0.334751  1
  O  O75  1  0.359637  0.126269  0.165249  1
  O  O76  1  0.834751  0.859637  0.373731  1
  O  O77  1  0.665249  0.140363  0.873731  1
  O  O78  1  0.334751  0.640363  0.626269  1
  O  O79  1  0.165249  0.359637  0.126269  1
  O  O80  1  0.373731  0.834751  0.859637  1
  O  O81  1  0.873731  0.665249  0.140363  1
  O  O82  1  0.626269  0.334751  0.640363  1
  O  O83  1  0.126269  0.165249  0.359637  1
  O  O84  1  0.494048  0.445414  0.853323  1
  O  O85  1  0.505952  0.945414  0.646677  1
  O  O86  1  0.005952  0.554586  0.353323  1
  O  O87  1  0.994048  0.054586  0.146677  1
  O  O88  1  0.853323  0.494048  0.445414  1
  O  O89  1  0.646677  0.505952  0.945414  1
  O  O90  1  0.353323  0.005952  0.554586  1
  O  O91  1  0.146677  0.994048  0.054586  1
  O  O92  1  0.445414  0.853323  0.494048  1
  O  O93  1  0.945414  0.646677  0.505952  1
  O  O94  1  0.554586  0.353323  0.005952  1
  O  O95  1  0.054586  0.146677  0.994048  1
  O  O96  1  0.505952  0.554586  0.146677  1
  O  O97  1  0.494048  0.054586  0.353323  1
  O  O98  1  0.994048  0.445414  0.646677  1
  O  O99  1  0.005952  0.945414  0.853323  1
  O  O100  1  0.146677  0.505952  0.554586  1
  O  O101  1  0.353323  0.494048  0.054586  1
  O  O102  1  0.646677  0.994048  0.445414  1
  O  O103  1  0.853323  0.005952  0.945414  1
  O  O104  1  0.554586  0.146677  0.505952  1
  O  O105  1  0.054586  0.353323  0.494048  1
  O  O106  1  0.445414  0.646677  0.994048  1
  O  O107  1  0.945414  0.853323  0.005952  1
