# generated using pymatgen
data_Zr2N2O
_symmetry_space_group_name_H-M   'P 1'
_cell_length_a   10.32857291
_cell_length_b   5.52936097
_cell_length_c   5.57643360
_cell_angle_alpha   60.66498589
_cell_angle_beta   104.53314261
_cell_angle_gamma   105.07432786
_symmetry_Int_Tables_number   1
_chemical_formula_structural   Zr2N2O
_chemical_formula_sum   'Zr8 N8 O4'
_cell_volume   265.17888204
_cell_formula_units_Z   4
loop_
 _symmetry_equiv_pos_site_id
 _symmetry_equiv_pos_as_xyz
  1  'x, y, z'
loop_
 _atom_site_type_symbol
 _atom_site_label
 _atom_site_symmetry_multiplicity
 _atom_site_fract_x
 _atom_site_fract_y
 _atom_site_fract_z
 _atom_site_occupancy
  Zr  Zr0  1  0.962031  0.307801  0.311890  1
  Zr  Zr1  1  0.537788  0.169571  0.183407  1
  Zr  Zr2  1  0.712785  0.587993  0.557754  1
  Zr  Zr3  1  0.212721  0.079157  0.047228  1
  Zr  Zr4  1  0.787944  0.913013  0.933745  1
  Zr  Zr5  1  0.286918  0.434397  0.420307  1
  Zr  Zr6  1  0.463673  0.799090  0.831377  1
  Zr  Zr7  1  0.037485  0.680347  0.690915  1
  N  N8  1  0.873559  0.915949  0.324661  1
  N  N9  1  0.621589  0.582241  0.171197  1
  N  N10  1  0.874503  0.616131  0.925843  1
  N  N11  1  0.628101  0.887957  0.575348  1
  N  N12  1  0.376780  0.830150  0.132668  1
  N  N13  1  0.124944  0.379053  0.080329  1
  N  N14  1  0.369861  0.422510  0.826801  1
  N  N15  1  0.121380  0.078775  0.673303  1
  O  O16  1  0.875935  0.320478  0.626831  1
  O  O17  1  0.625436  0.187541  0.870860  1
  O  O18  1  0.378816  0.127066  0.435741  1
  O  O19  1  0.127750  0.680782  0.379796  1
