# generated using pymatgen
data_FeCu5S4
_symmetry_space_group_name_H-M   'P 1'
_cell_length_a   3.84362767
_cell_length_b   3.84178755
_cell_length_c   12.79609394
_cell_angle_alpha   98.63278970
_cell_angle_beta   90.00000164
_cell_angle_gamma   120.01583770
_symmetry_Int_Tables_number   1
_chemical_formula_structural   FeCu5S4
_chemical_formula_sum   'Fe1 Cu5 S4'
_cell_volume   161.13431257
_cell_formula_units_Z   1
loop_
 _symmetry_equiv_pos_site_id
 _symmetry_equiv_pos_as_xyz
  1  'x, y, z'
loop_
 _atom_site_type_symbol
 _atom_site_label
 _atom_site_symmetry_multiplicity
 _atom_site_fract_x
 _atom_site_fract_y
 _atom_site_fract_z
 _atom_site_occupancy
  Fe  Fe0  1  0.695097  0.390194  0.084894  1
  Cu  Cu1  1  0.559652  0.119305  0.679017  1
  Cu  Cu2  1  0.169344  0.338686  0.507016  1
  Cu  Cu3  1  0.313782  0.627565  0.942226  1
  Cu  Cu4  1  0.434119  0.868238  0.303265  1
  Cu  Cu5  1  0.939822  0.879645  0.820487  1
  S  S6  1  0.007122  0.014244  0.020946  1
  S  S7  1  0.252751  0.505503  0.758471  1
  S  S8  1  0.753206  0.506414  0.260105  1
  S  S9  1  0.500104  0.000206  0.498571  1
