# generated using pymatgen
data_LiSiBiO4
_symmetry_space_group_name_H-M   'P 1'
_cell_length_a   5.62430780
_cell_length_b   10.33348243
_cell_length_c   6.40243894
_cell_angle_alpha   90.00000000
_cell_angle_beta   90.00000000
_cell_angle_gamma   83.40104541
_symmetry_Int_Tables_number   1
_chemical_formula_structural   LiSiBiO4
_chemical_formula_sum   'Li4 Si4 Bi4 O16'
_cell_volume   369.63611470
_cell_formula_units_Z   4
loop_
 _symmetry_equiv_pos_site_id
 _symmetry_equiv_pos_as_xyz
  1  'x, y, z'
loop_
 _atom_site_type_symbol
 _atom_site_label
 _atom_site_symmetry_multiplicity
 _atom_site_fract_x
 _atom_site_fract_y
 _atom_site_fract_z
 _atom_site_occupancy
  Li  Li0  1  0.149706  0.928120  0.635334  1
  Li  Li1  1  0.350294  0.571880  0.135334  1
  Li  Li2  1  0.649706  0.428120  0.864666  1
  Li  Li3  1  0.850294  0.071880  0.364666  1
  Si  Si4  1  0.266189  0.640782  0.652322  1
  Si  Si5  1  0.233811  0.859218  0.152322  1
  Si  Si6  1  0.766189  0.140782  0.847678  1
  Si  Si7  1  0.733811  0.359218  0.347678  1
  Bi  Bi8  1  0.206760  0.349010  0.613915  1
  Bi  Bi9  1  0.293240  0.150990  0.113915  1
  Bi  Bi10  1  0.706760  0.849010  0.886085  1
  Bi  Bi11  1  0.793240  0.650990  0.386085  1
  O  O12  1  0.021500  0.746853  0.660411  1
  O  O13  1  0.000496  0.777165  0.137578  1
  O  O14  1  0.227176  0.555954  0.433554  1
  O  O15  1  0.295561  0.529713  0.837774  1
  O  O16  1  0.204439  0.970287  0.337774  1
  O  O17  1  0.272824  0.944046  0.933554  1
  O  O18  1  0.521500  0.246853  0.839589  1
  O  O19  1  0.500496  0.277165  0.362422  1
  O  O20  1  0.499504  0.722835  0.637578  1
  O  O21  1  0.478500  0.753147  0.160411  1
  O  O22  1  0.727176  0.055954  0.066446  1
  O  O23  1  0.795561  0.029713  0.662226  1
  O  O24  1  0.704439  0.470287  0.162226  1
  O  O25  1  0.772824  0.444046  0.566446  1
  O  O26  1  0.999504  0.222835  0.862422  1
  O  O27  1  0.978500  0.253147  0.339589  1
