# generated using pymatgen
data_Li2Cr3Ni(SO4)6
_symmetry_space_group_name_H-M   'P 1'
_cell_length_a   9.05026018
_cell_length_b   8.93145414
_cell_length_c   8.96618845
_cell_angle_alpha   55.91626006
_cell_angle_beta   55.42672798
_cell_angle_gamma   55.15093508
_symmetry_Int_Tables_number   1
_chemical_formula_structural   Li2Cr3Ni(SO4)6
_chemical_formula_sum   'Li2 Cr3 Ni1 S6 O24'
_cell_volume   458.86111959
_cell_formula_units_Z   1
loop_
 _symmetry_equiv_pos_site_id
 _symmetry_equiv_pos_as_xyz
  1  'x, y, z'
loop_
 _atom_site_type_symbol
 _atom_site_label
 _atom_site_symmetry_multiplicity
 _atom_site_fract_x
 _atom_site_fract_y
 _atom_site_fract_z
 _atom_site_occupancy
  Li  Li0  1  0.182101  0.425915  0.765815  1
  Li  Li1  1  0.765222  0.183496  0.428051  1
  Cr  Cr2  1  0.356531  0.356734  0.346131  1
  Cr  Cr3  1  0.641385  0.643977  0.645082  1
  Cr  Cr4  1  0.846344  0.849635  0.853390  1
  Ni  Ni5  1  0.162304  0.148048  0.155683  1
  S  S6  1  0.035933  0.747021  0.464480  1
  S  S7  1  0.541060  0.953843  0.256372  1
  S  S8  1  0.251179  0.549347  0.948253  1
  S  S9  1  0.756463  0.464475  0.033358  1
  S  S10  1  0.460770  0.036106  0.755274  1
  S  S11  1  0.951526  0.250493  0.547373  1
  O  O12  1  0.000521  0.955075  0.344588  1
  O  O13  1  0.025995  0.706971  0.658862  1
  O  O14  1  0.353951  0.968594  0.290928  1
  O  O15  1  0.045745  0.684210  0.976543  1
  O  O16  1  0.489789  0.896180  0.693903  1
  O  O17  1  0.232220  0.620592  0.377376  1
  O  O18  1  0.674137  0.979643  0.050250  1
  O  O19  1  0.379279  0.636536  0.752003  1
  O  O20  1  0.296234  0.516546  0.098433  1
  O  O21  1  0.100822  0.294652  0.515505  1
  O  O22  1  0.633994  0.757035  0.382111  1
  O  O23  1  0.280951  0.363091  0.952954  1
  O  O24  1  0.717915  0.656401  0.022550  1
  O  O25  1  0.375215  0.237221  0.629448  1
  O  O26  1  0.889176  0.696663  0.495016  1
  O  O27  1  0.694261  0.491779  0.895900  1
  O  O28  1  0.642108  0.369336  0.232792  1
  O  O29  1  0.339174  0.003139  0.959247  1
  O  O30  1  0.753218  0.381271  0.634859  1
  O  O31  1  0.519879  0.103392  0.299603  1
  O  O32  1  0.965778  0.338219  0.993152  1
  O  O33  1  0.656326  0.023728  0.711383  1
  O  O34  1  0.957650  0.277831  0.362451  1
  O  O35  1  0.975140  0.046000  0.682180  1
