# generated using pymatgen
data_Mn4C15S4O15
_symmetry_space_group_name_H-M   'P 1'
_cell_length_a   9.42196133
_cell_length_b   15.69328435
_cell_length_c   18.42402393
_cell_angle_alpha   90.00000000
_cell_angle_beta   95.91637899
_cell_angle_gamma   90.00000000
_symmetry_Int_Tables_number   1
_chemical_formula_structural   Mn4C15S4O15
_chemical_formula_sum   'Mn16 C60 S16 O60'
_cell_volume   2709.69338355
_cell_formula_units_Z   4
loop_
 _symmetry_equiv_pos_site_id
 _symmetry_equiv_pos_as_xyz
  1  'x, y, z'
loop_
 _atom_site_type_symbol
 _atom_site_label
 _atom_site_symmetry_multiplicity
 _atom_site_fract_x
 _atom_site_fract_y
 _atom_site_fract_z
 _atom_site_occupancy
  Mn  Mn0  1  0.227582  0.387888  0.882738  1
  Mn  Mn1  1  0.772418  0.612112  0.117262  1
  Mn  Mn2  1  0.772418  0.887888  0.617262  1
  Mn  Mn3  1  0.044407  0.444967  0.258068  1
  Mn  Mn4  1  0.730610  0.471359  0.391085  1
  Mn  Mn5  1  0.296243  0.858061  0.309564  1
  Mn  Mn6  1  0.955593  0.944967  0.241932  1
  Mn  Mn7  1  0.227582  0.112112  0.382738  1
  Mn  Mn8  1  0.296243  0.641939  0.809564  1
  Mn  Mn9  1  0.730610  0.028641  0.891085  1
  Mn  Mn10  1  0.955593  0.555033  0.741932  1
  Mn  Mn11  1  0.269390  0.528641  0.608915  1
  Mn  Mn12  1  0.044407  0.055033  0.758068  1
  Mn  Mn13  1  0.703757  0.358061  0.190436  1
  Mn  Mn14  1  0.703757  0.141939  0.690436  1
  Mn  Mn15  1  0.269390  0.971359  0.108915  1
  C  C16  1  0.558326  0.116923  0.620887  1
  C  C17  1  0.211678  0.799874  0.379695  1
  C  C18  1  0.113268  0.947328  0.773694  1
  C  C19  1  0.568630  0.971816  0.910845  1
  C  C20  1  0.771706  0.971395  0.543419  1
  C  C21  1  0.427979  0.401400  0.881192  1
  C  C22  1  0.395326  0.734213  0.781574  1
  C  C23  1  0.775466  0.681680  0.201154  1
  C  C24  1  0.441674  0.883077  0.379113  1
  C  C25  1  0.352776  0.862905  0.102604  1
  C  C26  1  0.216687  0.093009  0.798998  1
  C  C27  1  0.783313  0.906991  0.201002  1
  C  C28  1  0.572021  0.901400  0.618808  1
  C  C29  1  0.647224  0.137095  0.897396  1
  C  C30  1  0.260314  0.297247  0.946972  1
  C  C31  1  0.771706  0.528605  0.043419  1
  C  C32  1  0.028839  0.127995  0.386654  1
  C  C33  1  0.783313  0.593009  0.701002  1
  C  C34  1  0.200717  0.964079  0.012235  1
  C  C35  1  0.228294  0.028605  0.456581  1
  C  C36  1  0.788322  0.299874  0.120305  1
  C  C37  1  0.028839  0.372005  0.886654  1
  C  C38  1  0.799283  0.464079  0.487765  1
  C  C39  1  0.113268  0.552672  0.273694  1
  C  C40  1  0.902096  0.926316  0.332808  1
  C  C41  1  0.825379  0.923935  0.885230  1
  C  C42  1  0.788322  0.200126  0.620305  1
  C  C43  1  0.431370  0.471816  0.589155  1
  C  C44  1  0.228294  0.471395  0.956581  1
  C  C45  1  0.558326  0.383077  0.120887  1
  C  C46  1  0.604674  0.234213  0.718426  1
  C  C47  1  0.739686  0.797247  0.553028  1
  C  C48  1  0.971161  0.627995  0.113346  1
  C  C49  1  0.211678  0.700126  0.879695  1
  C  C50  1  0.572021  0.598600  0.118808  1
  C  C51  1  0.260314  0.202753  0.446972  1
  C  C52  1  0.825379  0.576065  0.385230  1
  C  C53  1  0.431370  0.028184  0.089155  1
  C  C54  1  0.799283  0.035921  0.987765  1
  C  C55  1  0.097904  0.073684  0.667192  1
  C  C56  1  0.775466  0.818320  0.701154  1
  C  C57  1  0.604674  0.265787  0.218426  1
  C  C58  1  0.902096  0.573684  0.832808  1
  C  C59  1  0.224534  0.318320  0.798846  1
  C  C60  1  0.971161  0.872005  0.613346  1
  C  C61  1  0.568630  0.528184  0.410845  1
  C  C62  1  0.647224  0.362905  0.397396  1
  C  C63  1  0.739686  0.702753  0.053028  1
  C  C64  1  0.441674  0.616923  0.879113  1
  C  C65  1  0.174621  0.076065  0.114770  1
  C  C66  1  0.886732  0.052672  0.226306  1
  C  C67  1  0.352776  0.637095  0.602604  1
  C  C68  1  0.097904  0.426316  0.167192  1
  C  C69  1  0.224534  0.181680  0.298846  1
  C  C70  1  0.216687  0.406991  0.298998  1
  C  C71  1  0.427979  0.098600  0.381192  1
  C  C72  1  0.174621  0.423935  0.614770  1
  C  C73  1  0.395326  0.765787  0.281574  1
  C  C74  1  0.886732  0.447328  0.726306  1
  C  C75  1  0.200717  0.535921  0.512235  1
  S  S76  1  0.353464  0.525261  0.735543  1
  S  S77  1  0.183291  0.992535  0.299070  1
  S  S78  1  0.353464  0.974739  0.235543  1
  S  S79  1  0.907923  0.180601  0.773806  1
  S  S80  1  0.816709  0.492535  0.200930  1
  S  S81  1  0.092077  0.819399  0.226194  1
  S  S82  1  0.183291  0.507465  0.799070  1
  S  S83  1  0.646536  0.474739  0.264457  1
  S  S84  1  0.646536  0.025261  0.764457  1
  S  S85  1  0.816709  0.007465  0.700930  1
  S  S86  1  0.092077  0.680601  0.726194  1
  S  S87  1  0.907923  0.319399  0.273806  1
  S  S88  1  0.056740  0.598308  0.637372  1
  S  S89  1  0.943260  0.098308  0.862628  1
  S  S90  1  0.056740  0.901692  0.137372  1
  S  S91  1  0.943260  0.401692  0.362628  1
  O  O92  1  0.845248  0.040468  0.048538  1
  O  O93  1  0.598491  0.203980  0.904262  1
  O  O94  1  0.329457  0.386986  0.325596  1
  O  O95  1  0.867677  0.590080  0.890291  1
  O  O96  1  0.772527  0.474082  0.001521  1
  O  O97  1  0.132323  0.090080  0.609709  1
  O  O98  1  0.550079  0.093291  0.381989  1
  O  O99  1  0.116667  0.358901  0.614454  1
  O  O100  1  0.162645  0.735517  0.926744  1
  O  O101  1  0.530847  0.433420  0.575829  1
  O  O102  1  0.883333  0.641099  0.385546  1
  O  O103  1  0.159905  0.620650  0.285235  1
  O  O104  1  0.774638  0.722103  0.253305  1
  O  O105  1  0.774638  0.777897  0.753305  1
  O  O106  1  0.280351  0.240062  0.986217  1
  O  O107  1  0.772527  0.025918  0.501521  1
  O  O108  1  0.401509  0.703980  0.595738  1
  O  O109  1  0.670543  0.613014  0.674404  1
  O  O110  1  0.225362  0.277897  0.746695  1
  O  O111  1  0.837355  0.235517  0.573256  1
  O  O112  1  0.154752  0.959532  0.951462  1
  O  O113  1  0.154752  0.540468  0.451462  1
  O  O114  1  0.539411  0.292862  0.734858  1
  O  O115  1  0.840095  0.379350  0.714765  1
  O  O116  1  0.539411  0.207138  0.234858  1
  O  O117  1  0.449921  0.906709  0.618011  1
  O  O118  1  0.532577  0.894910  0.426083  1
  O  O119  1  0.449921  0.593291  0.118011  1
  O  O120  1  0.460589  0.707138  0.265142  1
  O  O121  1  0.467423  0.105090  0.573917  1
  O  O122  1  0.089981  0.640105  0.107069  1
  O  O123  1  0.225362  0.222103  0.246695  1
  O  O124  1  0.883333  0.858901  0.885546  1
  O  O125  1  0.132323  0.409920  0.109709  1
  O  O126  1  0.469153  0.933420  0.924171  1
  O  O127  1  0.910019  0.359895  0.892931  1
  O  O128  1  0.719650  0.740062  0.513783  1
  O  O129  1  0.227473  0.525918  0.998479  1
  O  O130  1  0.469153  0.566580  0.424171  1
  O  O131  1  0.670543  0.886986  0.174404  1
  O  O132  1  0.840095  0.120650  0.214765  1
  O  O133  1  0.719650  0.759938  0.013783  1
  O  O134  1  0.401509  0.796020  0.095738  1
  O  O135  1  0.329457  0.113014  0.825596  1
  O  O136  1  0.910019  0.140105  0.392931  1
  O  O137  1  0.530847  0.066580  0.075829  1
  O  O138  1  0.867677  0.909920  0.390291  1
  O  O139  1  0.598491  0.296020  0.404262  1
  O  O140  1  0.845248  0.459532  0.548538  1
  O  O141  1  0.837355  0.264483  0.073256  1
  O  O142  1  0.532577  0.605090  0.926083  1
  O  O143  1  0.089981  0.859895  0.607069  1
  O  O144  1  0.460589  0.792862  0.765142  1
  O  O145  1  0.162645  0.764483  0.426744  1
  O  O146  1  0.227473  0.974082  0.498479  1
  O  O147  1  0.550079  0.406709  0.881989  1
  O  O148  1  0.280351  0.259938  0.486217  1
  O  O149  1  0.159905  0.879350  0.785235  1
  O  O150  1  0.467423  0.394910  0.073917  1
  O  O151  1  0.116667  0.141099  0.114454  1
