# generated using pymatgen
data_Li11V12(CuO4)12
_symmetry_space_group_name_H-M   'P 1'
_cell_length_a   10.65759672
_cell_length_b   10.22307377
_cell_length_c   10.22364129
_cell_angle_alpha   117.54338732
_cell_angle_beta   102.68632754
_cell_angle_gamma   102.67882270
_symmetry_Int_Tables_number   1
_chemical_formula_structural   Li11V12(CuO4)12
_chemical_formula_sum   'Li11 V12 Cu12 O48'
_cell_volume   894.72244046
_cell_formula_units_Z   1
loop_
 _symmetry_equiv_pos_site_id
 _symmetry_equiv_pos_as_xyz
  1  'x, y, z'
loop_
 _atom_site_type_symbol
 _atom_site_label
 _atom_site_symmetry_multiplicity
 _atom_site_fract_x
 _atom_site_fract_y
 _atom_site_fract_z
 _atom_site_occupancy
  Li  Li0  1  0.499818  0.833369  0.666713  1
  Li  Li1  1  0.749079  0.750353  0.249874  1
  Li  Li2  1  0.744190  0.408312  0.574989  1
  Li  Li3  1  0.749015  0.083383  0.917186  1
  Li  Li4  1  0.000076  0.666641  0.833316  1
  Li  Li5  1  0.500050  0.499961  0.999934  1
  Li  Li6  1  0.250924  0.583124  0.416922  1
  Li  Li7  1  0.250974  0.250063  0.749578  1
  Li  Li8  1  0.255779  0.924788  0.091451  1
  Li  Li9  1  0.999903  0.332990  0.167022  1
  Li  Li10  1  0.000016  0.000365  0.499651  1
  V  V11  1  0.806580  0.774768  0.608562  1
  V  V12  1  0.691937  0.722352  0.888934  1
  V  V13  1  0.807141  0.442189  0.941670  1
  V  V14  1  0.808552  0.108418  0.275097  1
  V  V15  1  0.693218  0.056452  0.559586  1
  V  V16  1  0.307756  0.610309  0.776967  1
  V  V17  1  0.693352  0.393119  0.223482  1
  V  V18  1  0.192642  0.891053  0.724791  1
  V  V19  1  0.306732  0.940451  0.443386  1
  V  V20  1  0.192234  0.225357  0.391919  1
  V  V21  1  0.192940  0.558232  0.057969  1
  V  V22  1  0.307016  0.277269  0.107663  1
  Cu  Cu23  1  0.501189  0.328785  0.661472  1
  Cu  Cu24  1  0.500021  0.166695  0.833294  1
  Cu  Cu25  1  0.498899  0.838675  0.171001  1
  Cu  Cu26  1  0.499881  0.666914  0.333196  1
  Cu  Cu27  1  0.500993  0.494852  0.495912  1
  Cu  Cu28  1  0.000065  0.499582  0.499751  1
  Cu  Cu29  1  0.999936  0.833715  0.166903  1
  Cu  Cu30  1  0.498888  0.004274  0.005318  1
  Cu  Cu31  1  0.000001  0.666600  0.333367  1
  Cu  Cu32  1  0.000005  0.166673  0.833317  1
  Cu  Cu33  1  0.000063  0.333165  0.666268  1
  Cu  Cu34  1  0.999938  0.000256  0.000373  1
  O  O35  1  0.883190  0.966956  0.800486  1
  O  O36  1  0.883480  0.799927  0.966573  1
  O  O37  1  0.863657  0.974237  0.299925  1
  O  O38  1  0.862546  0.308324  0.966392  1
  O  O39  1  0.863140  0.642048  0.633765  1
  O  O40  1  0.863124  0.467083  0.808648  1
  O  O41  1  0.862550  0.799786  0.475041  1
  O  O42  1  0.637518  0.857131  0.865780  1
  O  O43  1  0.883112  0.633764  0.133553  1
  O  O44  1  0.882272  0.301227  0.467916  1
  O  O45  1  0.884962  0.467220  0.299819  1
  O  O46  1  0.383114  0.966709  0.800990  1
  O  O47  1  0.383622  0.802252  0.968996  1
  O  O48  1  0.884944  0.133180  0.633925  1
  O  O49  1  0.616940  0.366677  0.865706  1
  O  O50  1  0.616784  0.698503  0.532764  1
  O  O51  1  0.615915  0.865475  0.365101  1
  O  O52  1  0.616123  0.531217  0.697731  1
  O  O53  1  0.863629  0.133204  0.140911  1
  O  O54  1  0.362471  0.476321  0.800995  1
  O  O55  1  0.641791  0.375371  0.359362  1
  O  O56  1  0.641732  0.192786  0.542138  1
  O  O57  1  0.637128  0.032356  0.693698  1
  O  O58  1  0.637546  0.699012  0.023645  1
  O  O59  1  0.637145  0.526944  0.198931  1
  O  O60  1  0.136948  0.866304  0.858023  1
  O  O61  1  0.362854  0.806422  0.467711  1
  O  O62  1  0.358289  0.957820  0.307074  1
  O  O63  1  0.362416  0.634372  0.643149  1
  O  O64  1  0.362852  0.300998  0.973027  1
  O  O65  1  0.384414  0.467813  0.301602  1
  O  O66  1  0.383871  0.134821  0.634305  1
  O  O67  1  0.378448  0.304784  0.471273  1
  O  O68  1  0.383205  0.634396  0.133606  1
  O  O69  1  0.114967  0.866071  0.366719  1
  O  O70  1  0.621555  0.028839  0.195570  1
  O  O71  1  0.116708  0.533619  0.700295  1
  O  O72  1  0.616044  0.198351  0.032228  1
  O  O73  1  0.116980  0.699709  0.533163  1
  O  O74  1  0.116940  0.366475  0.866369  1
  O  O75  1  0.136398  0.200087  0.525726  1
  O  O76  1  0.136937  0.691313  0.032954  1
  O  O77  1  0.137408  0.533554  0.191623  1
  O  O78  1  0.358290  0.140421  0.124483  1
  O  O79  1  0.137465  0.024998  0.700245  1
  O  O80  1  0.136292  0.359069  0.366712  1
  O  O81  1  0.114963  0.200004  0.032666  1
  O  O82  1  0.117518  0.031880  0.198518  1
