# generated using pymatgen
data_Li2Cu2F5
_symmetry_space_group_name_H-M   'P 1'
_cell_length_a   10.79823996
_cell_length_b   12.20815087
_cell_length_c   3.03509237
_cell_angle_alpha   89.99309056
_cell_angle_beta   89.98665423
_cell_angle_gamma   89.99877845
_symmetry_Int_Tables_number   1
_chemical_formula_structural   Li2Cu2F5
_chemical_formula_sum   'Li8 Cu8 F20'
_cell_volume   400.10571936
_cell_formula_units_Z   4
loop_
 _symmetry_equiv_pos_site_id
 _symmetry_equiv_pos_as_xyz
  1  'x, y, z'
loop_
 _atom_site_type_symbol
 _atom_site_label
 _atom_site_symmetry_multiplicity
 _atom_site_fract_x
 _atom_site_fract_y
 _atom_site_fract_z
 _atom_site_occupancy
  Li  Li0  1  0.035059  0.342084  0.221350  1
  Li  Li1  1  0.216042  0.990327  0.218908  1
  Li  Li2  1  0.283924  0.490330  0.718901  1
  Li  Li3  1  0.464920  0.842091  0.721350  1
  Li  Li4  1  0.535082  0.342106  0.278661  1
  Li  Li5  1  0.716100  0.990339  0.281124  1
  Li  Li6  1  0.783928  0.490325  0.781116  1
  Li  Li7  1  0.964927  0.842116  0.778657  1
  Cu  Cu8  1  0.003728  0.605016  0.296382  1
  Cu  Cu9  1  0.244230  0.727015  0.185718  1
  Cu  Cu10  1  0.255759  0.226994  0.685662  1
  Cu  Cu11  1  0.496273  0.105013  0.796419  1
  Cu  Cu12  1  0.503745  0.604995  0.203653  1
  Cu  Cu13  1  0.744226  0.727009  0.314226  1
  Cu  Cu14  1  0.755793  0.227022  0.814268  1
  Cu  Cu15  1  0.996256  0.104976  0.703719  1
  F  F16  1  0.062346  0.761425  0.284694  1
  F  F17  1  0.082615  0.965761  0.739167  1
  F  F18  1  0.125594  0.165955  0.234941  1
  F  F19  1  0.168035  0.365806  0.713402  1
  F  F20  1  0.186411  0.570201  0.205915  1
  F  F21  1  0.313590  0.070224  0.705895  1
  F  F22  1  0.331982  0.865826  0.213413  1
  F  F23  1  0.374419  0.665938  0.735006  1
  F  F24  1  0.417420  0.465791  0.239133  1
  F  F25  1  0.437625  0.261408  0.784700  1
  F  F26  1  0.562357  0.761432  0.215291  1
  F  F27  1  0.582545  0.965816  0.760891  1
  F  F28  1  0.625581  0.165941  0.264898  1
  F  F29  1  0.668015  0.365832  0.786594  1
  F  F30  1  0.686438  0.570206  0.294093  1
  F  F31  1  0.813540  0.070218  0.794067  1
  F  F32  1  0.831987  0.865821  0.286598  1
  F  F33  1  0.874418  0.665935  0.764956  1
  F  F34  1  0.917454  0.465832  0.260890  1
  F  F35  1  0.937635  0.261465  0.715342  1
