# generated using pymatgen
data_Li2Fe(PO3)4
_symmetry_space_group_name_H-M   'P 1'
_cell_length_a   7.14896934
_cell_length_b   7.56636058
_cell_length_c   5.01109963
_cell_angle_alpha   82.96386971
_cell_angle_beta   109.10532105
_cell_angle_gamma   114.90127481
_symmetry_Int_Tables_number   1
_chemical_formula_structural   Li2Fe(PO3)4
_chemical_formula_sum   'Li2 Fe1 P4 O12'
_cell_volume   232.28029156
_cell_formula_units_Z   1
loop_
 _symmetry_equiv_pos_site_id
 _symmetry_equiv_pos_as_xyz
  1  'x, y, z'
loop_
 _atom_site_type_symbol
 _atom_site_label
 _atom_site_symmetry_multiplicity
 _atom_site_fract_x
 _atom_site_fract_y
 _atom_site_fract_z
 _atom_site_occupancy
  Li  Li0  1  0.247532  0.448996  0.984232  1
  Li  Li1  1  0.752468  0.551004  0.015768  1
  Fe  Fe2  1  0.000000  0.000000  0.000000  1
  P  P3  1  0.191010  0.784667  0.558258  1
  P  P4  1  0.594756  0.781124  0.434554  1
  P  P5  1  0.405244  0.218876  0.565446  1
  P  P6  1  0.808990  0.215333  0.441742  1
  O  O7  1  0.124947  0.643918  0.776651  1
  O  O8  1  0.319019  0.003197  0.701468  1
  O  O9  1  0.981773  0.209068  0.713163  1
  O  O10  1  0.368872  0.755848  0.462395  1
  O  O11  1  0.249448  0.212463  0.271625  1
  O  O12  1  0.451312  0.365650  0.775207  1
  O  O13  1  0.548688  0.634350  0.224793  1
  O  O14  1  0.750552  0.787537  0.728375  1
  O  O15  1  0.631128  0.244152  0.537605  1
  O  O16  1  0.018227  0.790932  0.286837  1
  O  O17  1  0.680981  0.996803  0.298532  1
  O  O18  1  0.875053  0.356082  0.223349  1
