# generated using pymatgen
data_K7(Bi3O8)3
_symmetry_space_group_name_H-M   'P 1'
_cell_length_a   8.56437631
_cell_length_b   9.57766585
_cell_length_c   9.57835290
_cell_angle_alpha   66.42670130
_cell_angle_beta   90.00000000
_cell_angle_gamma   63.44213342
_symmetry_Int_Tables_number   1
_chemical_formula_structural   K7(Bi3O8)3
_chemical_formula_sum   'K7 Bi9 O24'
_cell_volume   628.62472058
_cell_formula_units_Z   1
loop_
 _symmetry_equiv_pos_site_id
 _symmetry_equiv_pos_as_xyz
  1  'x, y, z'
loop_
 _atom_site_type_symbol
 _atom_site_label
 _atom_site_symmetry_multiplicity
 _atom_site_fract_x
 _atom_site_fract_y
 _atom_site_fract_z
 _atom_site_occupancy
  K  K0  1  0.062500  0.375000  0.750000  1
  K  K1  1  0.187183  0.125634  0.251359  1
  K  K2  1  0.687589  0.124821  0.247764  1
  K  K3  1  0.437411  0.625179  0.252236  1
  K  K4  1  0.314275  0.871450  0.750012  1
  K  K5  1  0.810725  0.878550  0.749988  1
  K  K6  1  0.937817  0.624366  0.248641  1
  Bi  Bi7  1  0.002123  0.998654  0.000833  1
  Bi  Bi8  1  0.374392  0.249418  0.499433  1
  Bi  Bi9  1  0.499222  0.998654  0.000833  1
  Bi  Bi10  1  0.248810  0.500582  0.000567  1
  Bi  Bi11  1  0.122877  0.751346  0.499167  1
  Bi  Bi12  1  0.562500  0.375000  0.750000  1
  Bi  Bi13  1  0.876190  0.249418  0.499433  1
  Bi  Bi14  1  0.625778  0.751346  0.499167  1
  Bi  Bi15  1  0.750608  0.500582  0.000567  1
  O  O16  1  0.002366  0.996754  0.506620  1
  O  O17  1  0.244707  0.010585  0.993662  1
  O  O18  1  0.002364  0.495273  0.995075  1
  O  O19  1  0.122636  0.254727  0.504925  1
  O  O20  1  0.500879  0.996754  0.506620  1
  O  O21  1  0.275142  0.490412  0.518953  1
  O  O22  1  0.122634  0.753246  0.993380  1
  O  O23  1  0.317927  0.375000  0.250000  1
  O  O24  1  0.390554  0.259588  0.981047  1
  O  O25  1  0.062500  0.875000  0.250000  1
  O  O26  1  0.218383  0.605204  0.750200  1
  O  O27  1  0.448586  0.144796  0.749800  1
  O  O28  1  0.620168  0.259665  0.519792  1
  O  O29  1  0.504832  0.490335  0.980208  1
  O  O30  1  0.389278  0.721444  0.518671  1
  O  O31  1  0.735722  0.028556  0.981329  1
  O  O32  1  0.676414  0.605204  0.750200  1
  O  O33  1  0.849858  0.259588  0.981047  1
  O  O34  1  0.906617  0.144796  0.749800  1
  O  O35  1  0.807073  0.375000  0.250000  1
  O  O36  1  0.734446  0.490412  0.518953  1
  O  O37  1  0.624121  0.753246  0.993380  1
  O  O38  1  0.562500  0.875000  0.250000  1
  O  O39  1  0.880293  0.739415  0.506338  1
