# generated using pymatgen
data_Na3NiAsCO7
_symmetry_space_group_name_H-M   'P 1'
_cell_length_a   9.09044293
_cell_length_b   6.80946336
_cell_length_c   5.21784997
_cell_angle_alpha   90.00000000
_cell_angle_beta   88.85385130
_cell_angle_gamma   90.00000000
_symmetry_Int_Tables_number   1
_chemical_formula_structural   Na3NiAsCO7
_chemical_formula_sum   'Na6 Ni2 As2 C2 O14'
_cell_volume   322.92570733
_cell_formula_units_Z   2
loop_
 _symmetry_equiv_pos_site_id
 _symmetry_equiv_pos_as_xyz
  1  'x, y, z'
loop_
 _atom_site_type_symbol
 _atom_site_label
 _atom_site_symmetry_multiplicity
 _atom_site_fract_x
 _atom_site_fract_y
 _atom_site_fract_z
 _atom_site_occupancy
  Na  Na0  1  0.080252  0.250000  0.761327  1
  Na  Na1  1  0.257305  0.003258  0.247748  1
  Na  Na2  1  0.257305  0.496742  0.247748  1
  Na  Na3  1  0.742695  0.503258  0.752252  1
  Na  Na4  1  0.742695  0.996742  0.752252  1
  Na  Na5  1  0.919748  0.750000  0.238673  1
  Ni  Ni6  1  0.343891  0.750000  0.787510  1
  Ni  Ni7  1  0.656109  0.250000  0.212490  1
  As  As8  1  0.417749  0.250000  0.703028  1
  As  As9  1  0.582252  0.750000  0.296972  1
  C  C10  1  0.062095  0.750000  0.730574  1
  C  C11  1  0.937905  0.250000  0.269426  1
  O  O12  1  0.079470  0.250000  0.286216  1
  O  O13  1  0.123881  0.750000  0.953649  1
  O  O14  1  0.146482  0.750000  0.526643  1
  O  O15  1  0.307060  0.053103  0.785717  1
  O  O16  1  0.307060  0.446897  0.785717  1
  O  O17  1  0.446283  0.250000  0.373863  1
  O  O18  1  0.414158  0.750000  0.157001  1
  O  O19  1  0.585842  0.250000  0.842999  1
  O  O20  1  0.553717  0.750000  0.626137  1
  O  O21  1  0.692940  0.553103  0.214283  1
  O  O22  1  0.692940  0.946897  0.214283  1
  O  O23  1  0.853518  0.250000  0.473357  1
  O  O24  1  0.876119  0.250000  0.046351  1
  O  O25  1  0.920530  0.750000  0.713784  1
