# generated using pymatgen
data_Rb2PH3SeO8
_symmetry_space_group_name_H-M   'P 1'
_cell_length_a   7.74502865
_cell_length_b   7.80396890
_cell_length_c   7.92292285
_cell_angle_alpha   90.00000000
_cell_angle_beta   100.88678765
_cell_angle_gamma   90.00000000
_symmetry_Int_Tables_number   1
_chemical_formula_structural   Rb2PH3SeO8
_chemical_formula_sum   'Rb4 P2 H6 Se2 O16'
_cell_volume   470.25831907
_cell_formula_units_Z   2
loop_
 _symmetry_equiv_pos_site_id
 _symmetry_equiv_pos_as_xyz
  1  'x, y, z'
loop_
 _atom_site_type_symbol
 _atom_site_label
 _atom_site_symmetry_multiplicity
 _atom_site_fract_x
 _atom_site_fract_y
 _atom_site_fract_z
 _atom_site_occupancy
  Rb  Rb0  1  0.077446  0.564272  0.454889  1
  Rb  Rb1  1  0.297244  0.934680  0.882326  1
  Rb  Rb2  1  0.577446  0.435728  0.954889  1
  Rb  Rb3  1  0.797244  0.065320  0.382326  1
  P  P4  1  0.276996  0.057511  0.418143  1
  P  P5  1  0.776996  0.942489  0.918143  1
  H  H6  1  0.179393  0.237927  0.191630  1
  H  H7  1  0.407027  0.850737  0.290788  1
  H  H8  1  0.439380  0.272684  0.554165  1
  H  H9  1  0.679393  0.762073  0.691630  1
  H  H10  1  0.907027  0.149263  0.790788  1
  H  H11  1  0.939380  0.727316  0.054165  1
  Se  Se12  1  0.075515  0.436777  0.922547  1
  Se  Se13  1  0.575515  0.563223  0.422547  1
  O  O14  1  0.198955  0.576117  0.840298  1
  O  O15  1  0.170934  0.927073  0.491654  1
  O  O16  1  0.162851  0.205721  0.319250  1
  O  O17  1  0.206376  0.281036  0.026013  1
  O  O18  1  0.412736  0.144884  0.569190  1
  O  O19  1  0.388115  0.982257  0.285830  1
  O  O20  1  0.466094  0.468488  0.561445  1
  O  O21  1  0.430538  0.656964  0.264610  1
  O  O22  1  0.662851  0.794279  0.819250  1
  O  O23  1  0.706376  0.718964  0.526013  1
  O  O24  1  0.698955  0.423883  0.340298  1
  O  O25  1  0.670934  0.072927  0.991654  1
  O  O26  1  0.888115  0.017743  0.785830  1
  O  O27  1  0.930538  0.343036  0.764610  1
  O  O28  1  0.912736  0.855116  0.069190  1
  O  O29  1  0.966094  0.531513  0.061445  1
