# generated using pymatgen
data_UTi22Fe18PbO76
_symmetry_space_group_name_H-M   'P 1'
_cell_length_a   9.44803265
_cell_length_b   9.45981988
_cell_length_c   18.90591255
_cell_angle_alpha   67.32673590
_cell_angle_beta   68.57702927
_cell_angle_gamma   68.69458347
_symmetry_Int_Tables_number   1
_chemical_formula_structural   UTi22Fe18PbO76
_chemical_formula_sum   'U1 Ti22 Fe18 Pb1 O76'
_cell_volume   1401.87804661
_cell_formula_units_Z   1
loop_
 _symmetry_equiv_pos_site_id
 _symmetry_equiv_pos_as_xyz
  1  'x, y, z'
loop_
 _atom_site_type_symbol
 _atom_site_label
 _atom_site_symmetry_multiplicity
 _atom_site_fract_x
 _atom_site_fract_y
 _atom_site_fract_z
 _atom_site_occupancy
  U  U0  1  0.506935  0.498318  0.748290  1
  Ti  Ti1  1  0.188382  0.316678  0.344980  1
  Ti  Ti2  1  0.299257  0.716880  0.080275  1
  Ti  Ti3  1  0.490089  0.062600  0.328866  1
  Ti  Ti4  1  0.278073  0.871566  0.357239  1
  Ti  Ti5  1  0.623206  0.491320  0.039480  1
  Ti  Ti6  1  0.356783  0.513419  0.460775  1
  Ti  Ti7  1  0.707820  0.157020  0.160624  1
  Ti  Ti8  1  0.154050  0.346562  0.846204  1
  Ti  Ti9  1  0.305372  0.717078  0.567789  1
  Ti  Ti10  1  0.489286  0.930617  0.179331  1
  Ti  Ti11  1  0.467976  0.065775  0.830919  1
  Ti  Ti12  1  0.688927  0.266929  0.426666  1
  Ti  Ti13  1  0.854900  0.696248  0.140733  1
  Ti  Ti14  1  0.290719  0.848895  0.840634  1
  Ti  Ti15  1  0.628158  0.486772  0.539248  1
  Ti  Ti16  1  0.925062  0.359180  0.260727  1
  Ti  Ti17  1  0.338406  0.531851  0.961536  1
  Ti  Ti18  1  0.703825  0.135729  0.660532  1
  Ti  Ti19  1  0.522438  0.918275  0.674219  1
  Ti  Ti20  1  0.666181  0.284028  0.930167  1
  Ti  Ti21  1  0.862260  0.682300  0.651219  1
  Ti  Ti22  1  0.930599  0.362460  0.762967  1
  Fe  Fe23  1  0.320420  0.125136  0.020381  1
  Fe  Fe24  1  0.305209  0.306052  0.153068  1
  Fe  Fe25  1  0.209682  0.704349  0.276108  1
  Fe  Fe26  1  0.336640  0.122476  0.518385  1
  Fe  Fe27  1  0.302519  0.299931  0.651561  1
  Fe  Fe28  1  0.604591  0.621403  0.306949  1
  Fe  Fe29  1  0.658202  0.874245  0.489039  1
  Fe  Fe30  1  0.862174  0.573644  0.371527  1
  Fe  Fe31  1  0.944488  0.263115  0.500411  1
  Fe  Fe32  1  0.010009  0.928909  0.141832  1
  Fe  Fe33  1  0.893137  0.972902  0.324981  1
  Fe  Fe34  1  0.978056  0.662123  0.463189  1
  Fe  Fe35  1  0.702832  0.688818  0.848299  1
  Fe  Fe36  1  0.643802  0.878593  0.989597  1
  Fe  Fe37  1  0.937046  0.283021  0.998887  1
  Fe  Fe38  1  0.044107  0.918846  0.644838  1
  Fe  Fe39  1  0.871484  0.988688  0.821400  1
  Fe  Fe40  1  0.978648  0.645033  0.936932  1
  Pb  Pb41  1  0.992488  0.964498  0.973701  1
  O  O42  1  0.240617  0.209680  0.107798  1
  O  O43  1  0.062315  0.731116  0.110120  1
  O  O44  1  0.145285  0.357855  0.243857  1
  O  O45  1  0.016296  0.851002  0.248027  1
  O  O46  1  0.252130  0.071577  0.352877  1
  O  O47  1  0.096675  0.536085  0.349199  1
  O  O48  1  0.166300  0.229492  0.459549  1
  O  O49  1  0.382548  0.483355  0.068175  1
  O  O50  1  0.223924  0.935451  0.068635  1
  O  O51  1  0.080741  0.830291  0.379007  1
  O  O52  1  0.487599  0.132768  0.186002  1
  O  O53  1  0.305229  0.645629  0.181089  1
  O  O54  1  0.159383  0.516842  0.493849  1
  O  O55  1  0.395420  0.284780  0.311260  1
  O  O56  1  0.236360  0.206707  0.605485  1
  O  O57  1  0.074159  0.728338  0.619899  1
  O  O58  1  0.488066  0.009634  0.430748  1
  O  O59  1  0.299558  0.894879  0.242340  1
  O  O60  1  0.146466  0.362262  0.740234  1
  O  O61  1  0.717425  0.249371  0.025387  1
  O  O62  1  0.531290  0.703798  0.035032  1
  O  O63  1  0.376119  0.618607  0.349164  1
  O  O64  1  0.979171  0.867320  0.748733  1
  O  O65  1  0.628292  0.372844  0.141711  1
  O  O66  1  0.261034  0.053613  0.845756  1
  O  O67  1  0.083958  0.539034  0.853544  1
  O  O68  1  0.467234  0.296497  0.462455  1
  O  O69  1  0.301114  0.748579  0.465985  1
  O  O70  1  0.700862  0.074281  0.269802  1
  O  O71  1  0.504150  0.978753  0.073344  1
  O  O72  1  0.161057  0.235932  0.955765  1
  O  O73  1  0.391046  0.478452  0.569563  1
  O  O74  1  0.249805  0.920566  0.574836  1
  O  O75  1  0.620900  0.724945  0.191284  1
  O  O76  1  0.064304  0.846114  0.876838  1
  O  O77  1  0.836065  0.497479  0.998485  1
  O  O78  1  0.483271  0.136787  0.684506  1
  O  O79  1  0.353312  0.605531  0.689523  1
  O  O80  1  0.697961  0.386489  0.319062  1
  O  O81  1  0.507730  0.858768  0.312615  1
  O  O82  1  0.142304  0.525926  0.990139  1
  O  O83  1  0.924328  0.159463  0.110007  1
  O  O84  1  0.387466  0.304661  0.807560  1
  O  O85  1  0.761657  0.064247  0.420914  1
  O  O86  1  0.619287  0.527062  0.427027  1
  O  O87  1  0.836662  0.769158  0.032862  1
  O  O88  1  0.474546  0.019976  0.930929  1
  O  O89  1  0.326825  0.894905  0.732796  1
  O  O90  1  0.716598  0.251523  0.531270  1
  O  O91  1  0.539030  0.696219  0.538086  1
  O  O92  1  0.907330  0.483570  0.159715  1
  O  O93  1  0.792260  0.937132  0.144377  1
  O  O94  1  0.379463  0.608237  0.845170  1
  O  O95  1  0.964340  0.158930  0.268598  1
  O  O96  1  0.629834  0.379819  0.648207  1
  O  O97  1  0.458570  0.299585  0.961844  1
  O  O98  1  0.294858  0.747652  0.957072  1
  O  O99  1  0.833996  0.618411  0.270247  1
  O  O100  1  0.683366  0.089982  0.768731  1
  O  O101  1  0.519386  0.979434  0.570722  1
  O  O102  1  0.926310  0.323901  0.386794  1
  O  O103  1  0.808573  0.776519  0.400415  1
  O  O104  1  0.619427  0.691206  0.688835  1
  O  O105  1  0.850781  0.488276  0.495541  1
  O  O106  1  0.675671  0.382125  0.808358  1
  O  O107  1  0.527446  0.855218  0.813863  1
  O  O108  1  0.926989  0.129764  0.609836  1
  O  O109  1  0.755561  0.070030  0.921515  1
  O  O110  1  0.612326  0.518780  0.927551  1
  O  O111  1  0.833919  0.758976  0.543580  1
  O  O112  1  0.920323  0.476159  0.657591  1
  O  O113  1  0.746737  0.925974  0.657255  1
  O  O114  1  0.956523  0.164290  0.768107  1
  O  O115  1  0.841216  0.607426  0.765170  1
  O  O116  1  0.936549  0.303669  0.881777  1
  O  O117  1  0.780336  0.794516  0.893844  1
