# generated using pymatgen
data_LiFePO4
_symmetry_space_group_name_H-M   'P 1'
_cell_length_a   10.02581850
_cell_length_b   10.02581839
_cell_length_c   24.09161781
_cell_angle_alpha   90.00000000
_cell_angle_beta   90.00000000
_cell_angle_gamma   120.00000149
_symmetry_Int_Tables_number   1
_chemical_formula_structural   LiFePO4
_chemical_formula_sum   'Li24 Fe24 P24 O96'
_cell_volume   2097.18267592
_cell_formula_units_Z   24
loop_
 _symmetry_equiv_pos_site_id
 _symmetry_equiv_pos_as_xyz
  1  'x, y, z'
loop_
 _atom_site_type_symbol
 _atom_site_label
 _atom_site_symmetry_multiplicity
 _atom_site_fract_x
 _atom_site_fract_y
 _atom_site_fract_z
 _atom_site_occupancy
  Li  Li0  1  0.021825  0.970851  0.694902  1
  Li  Li1  1  0.030508  0.581602  0.034649  1
  Li  Li2  1  0.061387  0.464389  0.193994  1
  Li  Li3  1  0.039960  0.476848  0.848795  1
  Li  Li4  1  0.403002  0.938613  0.860660  1
  Li  Li5  1  0.436888  0.960040  0.515462  1
  Li  Li6  1  0.029149  0.050973  0.028235  1
  Li  Li7  1  0.050973  0.021825  0.861569  1
  Li  Li8  1  0.551094  0.969492  0.701316  1
  Li  Li9  1  0.418398  0.448906  0.367983  1
  Li  Li10  1  0.523152  0.563112  0.182128  1
  Li  Li11  1  0.535611  0.596998  0.527327  1
  Li  Li12  1  0.464389  0.403002  0.027327  1
  Li  Li13  1  0.476848  0.436888  0.682128  1
  Li  Li14  1  0.581602  0.551094  0.867983  1
  Li  Li15  1  0.448906  0.030508  0.201316  1
  Li  Li16  1  0.949027  0.978175  0.361569  1
  Li  Li17  1  0.970851  0.949027  0.528235  1
  Li  Li18  1  0.563112  0.039960  0.015462  1
  Li  Li19  1  0.596998  0.061387  0.360660  1
  Li  Li20  1  0.960040  0.523152  0.348795  1
  Li  Li21  1  0.938613  0.535611  0.693994  1
  Li  Li22  1  0.969492  0.418398  0.534649  1
  Li  Li23  1  0.978175  0.029149  0.194902  1
  Fe  Fe24  1  0.105938  0.823286  0.272581  1
  Fe  Fe25  1  0.081902  0.759350  0.919815  1
  Fe  Fe26  1  0.124360  0.756439  0.595294  1
  Fe  Fe27  1  0.310327  0.663867  0.754745  1
  Fe  Fe28  1  0.336133  0.646460  0.088078  1
  Fe  Fe29  1  0.353540  0.689673  0.421411  1
  Fe  Fe30  1  0.176714  0.282652  0.605914  1
  Fe  Fe31  1  0.243561  0.367921  0.928628  1
  Fe  Fe32  1  0.240650  0.322552  0.253148  1
  Fe  Fe33  1  0.632079  0.875640  0.261961  1
  Fe  Fe34  1  0.677448  0.918098  0.586481  1
  Fe  Fe35  1  0.282652  0.105938  0.439247  1
  Fe  Fe36  1  0.717348  0.894062  0.939247  1
  Fe  Fe37  1  0.322552  0.081902  0.086481  1
  Fe  Fe38  1  0.367921  0.124360  0.761961  1
  Fe  Fe39  1  0.759350  0.677448  0.753148  1
  Fe  Fe40  1  0.756439  0.632079  0.428628  1
  Fe  Fe41  1  0.823286  0.717348  0.105914  1
  Fe  Fe42  1  0.646460  0.310327  0.921411  1
  Fe  Fe43  1  0.663867  0.353540  0.588078  1
  Fe  Fe44  1  0.689673  0.336133  0.254745  1
  Fe  Fe45  1  0.875640  0.243561  0.095294  1
  Fe  Fe46  1  0.918098  0.240650  0.419815  1
  Fe  Fe47  1  0.894062  0.176714  0.772581  1
  P  P48  1  0.091821  0.785329  0.789430  1
  P  P49  1  0.081577  0.753182  0.467858  1
  P  P50  1  0.132080  0.771208  0.140603  1
  P  P51  1  0.283312  0.644665  0.294249  1
  P  P52  1  0.361353  0.716688  0.960916  1
  P  P53  1  0.355335  0.638647  0.627582  1
  P  P54  1  0.228792  0.360872  0.473936  1
  P  P55  1  0.214671  0.306492  0.122764  1
  P  P56  1  0.246818  0.328395  0.801191  1
  P  P57  1  0.639128  0.867920  0.807269  1
  P  P58  1  0.671605  0.918423  0.134524  1
  P  P59  1  0.693508  0.908179  0.456097  1
  P  P60  1  0.306492  0.091821  0.956097  1
  P  P61  1  0.328395  0.081577  0.634524  1
  P  P62  1  0.360872  0.132080  0.307269  1
  P  P63  1  0.753182  0.671605  0.301191  1
  P  P64  1  0.785329  0.693508  0.622764  1
  P  P65  1  0.771208  0.639128  0.973936  1
  P  P66  1  0.644665  0.361353  0.127582  1
  P  P67  1  0.638647  0.283312  0.460916  1
  P  P68  1  0.716688  0.355335  0.794249  1
  P  P69  1  0.867920  0.228792  0.640603  1
  P  P70  1  0.918423  0.246818  0.967858  1
  P  P71  1  0.908179  0.214671  0.289430  1
  O  O72  1  0.043199  0.773181  0.087690  1
  O  O73  1  0.088201  0.912311  0.472501  1
  O  O74  1  0.018069  0.682858  0.841302  1
  O  O75  1  0.143855  0.985419  0.930175  1
  O  O76  1  0.034194  0.758503  0.191761  1
  O  O77  1  0.014511  0.661922  0.522283  1
  O  O78  1  0.239935  0.934263  0.808597  1
  O  O79  1  0.135838  0.655849  0.304616  1
  O  O80  1  0.120369  0.688244  0.746152  1
  O  O81  1  0.315663  0.973665  0.585588  1
  O  O82  1  0.292540  0.922129  0.141994  1
  O  O83  1  0.160031  0.632445  0.136620  1
  O  O84  1  0.250278  0.788294  0.460135  1
  O  O85  1  0.193017  0.605330  0.611413  1
  O  O86  1  0.077871  0.370411  0.475327  1
  O  O87  1  0.277086  0.748454  0.913009  1
  O  O88  1  0.026335  0.341997  0.918921  1
  O  O89  1  0.065737  0.305671  0.141930  1
  O  O90  1  0.014581  0.158436  0.263508  1
  O  O91  1  0.087689  0.175890  0.805835  1
  O  O92  1  0.260394  0.674427  0.014196  1
  O  O93  1  0.251546  0.528631  0.246342  1
  O  O94  1  0.325573  0.585966  0.347529  1
  O  O95  1  0.211706  0.461984  0.793469  1
  O  O96  1  0.414034  0.739606  0.680863  1
  O  O97  1  0.412313  0.806983  0.278080  1
  O  O98  1  0.472415  0.839969  0.803286  1
  O  O99  1  0.311756  0.432124  0.079486  1
  O  O100  1  0.344151  0.479988  0.637950  1
  O  O101  1  0.367555  0.527585  0.469953  1
  O  O102  1  0.241497  0.275691  0.525094  1
  O  O103  1  0.394670  0.587687  0.944746  1
  O  O104  1  0.471369  0.722914  0.579676  1
  O  O105  1  0.520012  0.864162  0.971283  1
  O  O106  1  0.567876  0.879631  0.412819  1
  O  O107  1  0.158436  0.143855  0.096841  1
  O  O108  1  0.226819  0.270017  0.421024  1
  O  O109  1  0.317142  0.335211  0.174636  1
  O  O110  1  0.175890  0.088201  0.639168  1
  O  O111  1  0.338078  0.352589  0.855616  1
  O  O112  1  0.538016  0.749722  0.126802  1
  O  O113  1  0.305671  0.239935  0.975263  1
  O  O114  1  0.647411  0.985489  0.188949  1
  O  O115  1  0.341997  0.315663  0.752255  1
  O  O116  1  0.370411  0.292540  0.308660  1
  O  O117  1  0.664789  0.981931  0.507969  1
  O  O118  1  0.724309  0.965806  0.858428  1
  O  O119  1  0.270017  0.043199  0.254357  1
  O  O120  1  0.729983  0.956801  0.754357  1
  O  O121  1  0.275691  0.034194  0.358428  1
  O  O122  1  0.335211  0.018069  0.007969  1
  O  O123  1  0.629589  0.707460  0.808660  1
  O  O124  1  0.658003  0.684337  0.252255  1
  O  O125  1  0.352589  0.014511  0.688949  1
  O  O126  1  0.694329  0.760065  0.475263  1
  O  O127  1  0.461984  0.250278  0.626802  1
  O  O128  1  0.661922  0.647411  0.355616  1
  O  O129  1  0.824110  0.911799  0.139168  1
  O  O130  1  0.682858  0.664789  0.674636  1
  O  O131  1  0.773181  0.729983  0.921024  1
  O  O132  1  0.841564  0.856145  0.596841  1
  O  O133  1  0.432124  0.120369  0.912819  1
  O  O134  1  0.479988  0.135838  0.471283  1
  O  O135  1  0.528631  0.277086  0.079676  1
  O  O136  1  0.605330  0.412313  0.444746  1
  O  O137  1  0.758503  0.724309  0.025094  1
  O  O138  1  0.632445  0.472415  0.969953  1
  O  O139  1  0.655849  0.520012  0.137950  1
  O  O140  1  0.688244  0.567876  0.579486  1
  O  O141  1  0.527585  0.160031  0.303287  1
  O  O142  1  0.587687  0.193017  0.778080  1
  O  O143  1  0.585966  0.260394  0.180863  1
  O  O144  1  0.788294  0.538016  0.293469  1
  O  O145  1  0.674427  0.414034  0.847529  1
  O  O146  1  0.748454  0.471369  0.746342  1
  O  O147  1  0.739606  0.325573  0.514196  1
  O  O148  1  0.912311  0.824110  0.305835  1
  O  O149  1  0.985419  0.841564  0.763508  1
  O  O150  1  0.934263  0.694329  0.641930  1
  O  O151  1  0.973665  0.658003  0.418921  1
  O  O152  1  0.722914  0.251546  0.413009  1
  O  O153  1  0.922129  0.629589  0.975327  1
  O  O154  1  0.806983  0.394670  0.111413  1
  O  O155  1  0.749722  0.211706  0.960135  1
  O  O156  1  0.839969  0.367555  0.636620  1
  O  O157  1  0.707460  0.077871  0.641994  1
  O  O158  1  0.684337  0.026335  0.085588  1
  O  O159  1  0.879631  0.311756  0.246152  1
  O  O160  1  0.864162  0.344151  0.804616  1
  O  O161  1  0.760065  0.065737  0.308597  1
  O  O162  1  0.985489  0.338078  0.022283  1
  O  O163  1  0.965806  0.241497  0.691761  1
  O  O164  1  0.856145  0.014581  0.430175  1
  O  O165  1  0.981931  0.317142  0.341302  1
  O  O166  1  0.911799  0.087689  0.972501  1
  O  O167  1  0.956801  0.226819  0.587690  1
