# generated using pymatgen
data_NaCoH2C3O7
_symmetry_space_group_name_H-M   'P 1'
_cell_length_a   5.92345340
_cell_length_b   15.79550740
_cell_length_c   7.06575402
_cell_angle_alpha   90.00000000
_cell_angle_beta   100.03424358
_cell_angle_gamma   90.00000000
_symmetry_Int_Tables_number   1
_chemical_formula_structural   NaCoH2C3O7
_chemical_formula_sum   'Na4 Co4 H8 C12 O28'
_cell_volume   650.98755029
_cell_formula_units_Z   4
loop_
 _symmetry_equiv_pos_site_id
 _symmetry_equiv_pos_as_xyz
  1  'x, y, z'
loop_
 _atom_site_type_symbol
 _atom_site_label
 _atom_site_symmetry_multiplicity
 _atom_site_fract_x
 _atom_site_fract_y
 _atom_site_fract_z
 _atom_site_occupancy
  Na  Na0  1  0.032734  0.683291  0.692406  1
  Na  Na1  1  0.032734  0.816709  0.192406  1
  Na  Na2  1  0.967266  0.183291  0.807594  1
  Na  Na3  1  0.967266  0.316709  0.307594  1
  Co  Co4  1  0.227950  0.899539  0.782904  1
  Co  Co5  1  0.227950  0.600461  0.282904  1
  Co  Co6  1  0.772050  0.399539  0.717096  1
  Co  Co7  1  0.772050  0.100461  0.217096  1
  H  H8  1  0.324960  0.528330  0.637787  1
  H  H9  1  0.452075  0.619151  0.641297  1
  H  H10  1  0.324960  0.971670  0.137787  1
  H  H11  1  0.547925  0.119151  0.858703  1
  H  H12  1  0.452075  0.880849  0.141297  1
  H  H13  1  0.675040  0.028330  0.862213  1
  H  H14  1  0.547925  0.380849  0.358703  1
  H  H15  1  0.675040  0.471670  0.362213  1
  C  C16  1  0.005334  0.036055  0.574166  1
  C  C17  1  0.005334  0.463945  0.074166  1
  C  C18  1  0.297592  0.350744  0.714449  1
  C  C19  1  0.297592  0.149256  0.214449  1
  C  C20  1  0.445455  0.268850  0.746680  1
  C  C21  1  0.445455  0.231150  0.246680  1
  C  C22  1  0.554545  0.768850  0.753320  1
  C  C23  1  0.554545  0.731150  0.253320  1
  C  C24  1  0.702408  0.850744  0.785551  1
  C  C25  1  0.702408  0.649256  0.285551  1
  C  C26  1  0.994666  0.536055  0.925834  1
  C  C27  1  0.994666  0.963945  0.425834  1
  O  O28  1  0.099700  0.603903  0.982534  1
  O  O29  1  0.082387  0.340558  0.675340  1
  O  O30  1  0.117123  0.023171  0.741729  1
  O  O31  1  0.099700  0.896097  0.482534  1
  O  O32  1  0.082387  0.159442  0.175340  1
  O  O33  1  0.117123  0.476829  0.241729  1
  O  O34  1  0.343634  0.777389  0.765777  1
  O  O35  1  0.351892  0.200725  0.785081  1
  O  O36  1  0.310508  0.586889  0.586237  1
  O  O37  1  0.407746  0.420281  0.729349  1
  O  O38  1  0.343634  0.722611  0.265777  1
  O  O39  1  0.351892  0.299275  0.285081  1
  O  O40  1  0.310508  0.913111  0.086237  1
  O  O41  1  0.407746  0.079719  0.229349  1
  O  O42  1  0.592254  0.920281  0.770651  1
  O  O43  1  0.689492  0.086889  0.913763  1
  O  O44  1  0.648108  0.700725  0.714919  1
  O  O45  1  0.656366  0.277389  0.734223  1
  O  O46  1  0.592254  0.579719  0.270651  1
  O  O47  1  0.689492  0.413111  0.413763  1
  O  O48  1  0.648108  0.799275  0.214919  1
  O  O49  1  0.656366  0.222611  0.234223  1
  O  O50  1  0.882877  0.523171  0.758271  1
  O  O51  1  0.917613  0.840558  0.824660  1
  O  O52  1  0.900300  0.103903  0.517466  1
  O  O53  1  0.882877  0.976829  0.258271  1
  O  O54  1  0.917613  0.659442  0.324660  1
  O  O55  1  0.900300  0.396097  0.017466  1
