# generated using pymatgen
data_NaZnP2HClO7
_symmetry_space_group_name_H-M   'P 1'
_cell_length_a   8.01979988
_cell_length_b   8.01979988
_cell_length_c   22.60642946
_cell_angle_alpha   90.00000000
_cell_angle_beta   90.00000000
_cell_angle_gamma   90.00000000
_symmetry_Int_Tables_number   1
_chemical_formula_structural   NaZnP2HClO7
_chemical_formula_sum   'Na8 Zn8 P16 H8 Cl8 O56'
_cell_volume   1453.98202141
_cell_formula_units_Z   8
loop_
 _symmetry_equiv_pos_site_id
 _symmetry_equiv_pos_as_xyz
  1  'x, y, z'
loop_
 _atom_site_type_symbol
 _atom_site_label
 _atom_site_symmetry_multiplicity
 _atom_site_fract_x
 _atom_site_fract_y
 _atom_site_fract_z
 _atom_site_occupancy
  Na  Na0  1  0.145238  0.854762  0.750000  1
  Na  Na1  1  0.854762  0.145238  0.250000  1
  Na  Na2  1  0.354762  0.354762  0.500000  1
  Na  Na3  1  0.645238  0.645238  0.000000  1
  Na  Na4  1  0.849372  0.150628  0.750000  1
  Na  Na5  1  0.150628  0.849372  0.250000  1
  Na  Na6  1  0.650628  0.650628  0.500000  1
  Na  Na7  1  0.349372  0.349372  0.000000  1
  Zn  Zn8  1  0.001321  0.508697  0.629697  1
  Zn  Zn9  1  0.998679  0.491303  0.129697  1
  Zn  Zn10  1  0.008697  0.498679  0.379697  1
  Zn  Zn11  1  0.991303  0.501321  0.879697  1
  Zn  Zn12  1  0.491303  0.998679  0.870303  1
  Zn  Zn13  1  0.508697  0.001321  0.370303  1
  Zn  Zn14  1  0.498679  0.008697  0.620303  1
  Zn  Zn15  1  0.501321  0.991303  0.120303  1
  P  P16  1  0.374110  0.640193  0.642951  1
  P  P17  1  0.625890  0.359807  0.142951  1
  P  P18  1  0.140193  0.125890  0.392951  1
  P  P19  1  0.859807  0.874110  0.892951  1
  P  P20  1  0.359807  0.625890  0.857049  1
  P  P21  1  0.640193  0.374110  0.357049  1
  P  P22  1  0.125890  0.140193  0.607049  1
  P  P23  1  0.874110  0.859807  0.107049  1
  P  P24  1  0.863202  0.874492  0.608915  1
  P  P25  1  0.136798  0.125508  0.108915  1
  P  P26  1  0.374492  0.636798  0.358915  1
  P  P27  1  0.625508  0.363202  0.858915  1
  P  P28  1  0.125508  0.136798  0.891085  1
  P  P29  1  0.874492  0.863202  0.391085  1
  P  P30  1  0.636798  0.374492  0.641085  1
  P  P31  1  0.363202  0.625508  0.141085  1
  H  H32  1  0.285729  0.838502  0.469822  1
  H  H33  1  0.714271  0.161498  0.969822  1
  H  H34  1  0.338502  0.214271  0.219822  1
  H  H35  1  0.661498  0.785729  0.719822  1
  H  H36  1  0.161498  0.714271  0.030178  1
  H  H37  1  0.838502  0.285729  0.530178  1
  H  H38  1  0.214271  0.338502  0.780178  1
  H  H39  1  0.785729  0.661498  0.280178  1
  Cl  Cl40  1  0.184569  0.783078  0.510525  1
  Cl  Cl41  1  0.815431  0.216922  0.010525  1
  Cl  Cl42  1  0.283078  0.315431  0.260525  1
  Cl  Cl43  1  0.716922  0.684569  0.760525  1
  Cl  Cl44  1  0.216922  0.815431  0.989475  1
  Cl  Cl45  1  0.783078  0.184569  0.489475  1
  Cl  Cl46  1  0.315431  0.283078  0.739475  1
  Cl  Cl47  1  0.684569  0.716922  0.239475  1
  O  O48  1  0.871146  0.897557  0.675711  1
  O  O49  1  0.128854  0.102443  0.175711  1
  O  O50  1  0.397557  0.628854  0.425711  1
  O  O51  1  0.602443  0.371146  0.925711  1
  O  O52  1  0.102443  0.128854  0.824289  1
  O  O53  1  0.897557  0.871146  0.324289  1
  O  O54  1  0.628854  0.397557  0.574289  1
  O  O55  1  0.371146  0.602443  0.074289  1
  O  O56  1  0.390407  0.614741  0.574705  1
  O  O57  1  0.609593  0.385259  0.074705  1
  O  O58  1  0.114741  0.109593  0.324705  1
  O  O59  1  0.885259  0.890407  0.824705  1
  O  O60  1  0.385259  0.609593  0.925295  1
  O  O61  1  0.614741  0.390407  0.425295  1
  O  O62  1  0.109593  0.114741  0.675295  1
  O  O63  1  0.890407  0.885259  0.175295  1
  O  O64  1  0.991762  0.011930  0.579784  1
  O  O65  1  0.008238  0.988070  0.079784  1
  O  O66  1  0.511930  0.508238  0.329784  1
  O  O67  1  0.488070  0.491762  0.829784  1
  O  O68  1  0.988070  0.008238  0.920216  1
  O  O69  1  0.011930  0.991762  0.420216  1
  O  O70  1  0.508238  0.511930  0.670216  1
  O  O71  1  0.491762  0.488070  0.170216  1
  O  O72  1  0.425133  0.812744  0.666750  1
  O  O73  1  0.574867  0.187256  0.166750  1
  O  O74  1  0.312744  0.074867  0.416750  1
  O  O75  1  0.687256  0.925133  0.916750  1
  O  O76  1  0.187256  0.574867  0.833250  1
  O  O77  1  0.812744  0.425133  0.333250  1
  O  O78  1  0.074867  0.312744  0.583250  1
  O  O79  1  0.925133  0.687256  0.083250  1
  O  O80  1  0.807266  0.411807  0.669758  1
  O  O81  1  0.192734  0.588193  0.169758  1
  O  O82  1  0.911807  0.692734  0.419758  1
  O  O83  1  0.088193  0.307266  0.919758  1
  O  O84  1  0.588193  0.192734  0.830242  1
  O  O85  1  0.411807  0.807266  0.330242  1
  O  O86  1  0.692734  0.911807  0.580242  1
  O  O87  1  0.307266  0.088193  0.080242  1
  O  O88  1  0.200832  0.599824  0.668240  1
  O  O89  1  0.799168  0.400176  0.168240  1
  O  O90  1  0.099824  0.299168  0.418240  1
  O  O91  1  0.900176  0.700832  0.918240  1
  O  O92  1  0.400176  0.799168  0.831760  1
  O  O93  1  0.599824  0.200832  0.331760  1
  O  O94  1  0.299168  0.099824  0.581760  1
  O  O95  1  0.700832  0.900176  0.081760  1
  O  O96  1  0.919641  0.703343  0.585287  1
  O  O97  1  0.080359  0.296657  0.085287  1
  O  O98  1  0.203343  0.580359  0.335287  1
  O  O99  1  0.796657  0.419641  0.835287  1
  O  O100  1  0.296657  0.080359  0.914713  1
  O  O101  1  0.703343  0.919641  0.414713  1
  O  O102  1  0.580359  0.203343  0.664713  1
  O  O103  1  0.419641  0.796657  0.164713  1
