# generated using pymatgen
data_Li5Mn3Cr(PO4)4
_symmetry_space_group_name_H-M   'P 1'
_cell_length_a   4.88127172
_cell_length_b   6.38985463
_cell_length_c   10.58932786
_cell_angle_alpha   87.76060187
_cell_angle_beta   91.61019372
_cell_angle_gamma   89.69723987
_symmetry_Int_Tables_number   1
_chemical_formula_structural   Li5Mn3Cr(PO4)4
_chemical_formula_sum   'Li5 Mn3 Cr1 P4 O16'
_cell_volume   329.89836601
_cell_formula_units_Z   1
loop_
 _symmetry_equiv_pos_site_id
 _symmetry_equiv_pos_as_xyz
  1  'x, y, z'
loop_
 _atom_site_type_symbol
 _atom_site_label
 _atom_site_symmetry_multiplicity
 _atom_site_fract_x
 _atom_site_fract_y
 _atom_site_fract_z
 _atom_site_occupancy
  Li  Li0  1  0.003355  0.010070  0.999144  1
  Li  Li1  1  0.998186  0.494638  0.996362  1
  Li  Li2  1  0.374681  0.453284  0.639709  1
  Li  Li3  1  0.533678  0.026318  0.494960  1
  Li  Li4  1  0.615015  0.525963  0.378907  1
  Mn  Mn5  1  0.062250  0.769040  0.280658  1
  Mn  Mn6  1  0.470428  0.774773  0.789308  1
  Mn  Mn7  1  0.541333  0.231436  0.203164  1
  Cr  Cr8  1  0.900541  0.232067  0.715592  1
  P  P9  1  0.115443  0.254662  0.401174  1
  P  P10  1  0.414035  0.255076  0.909697  1
  P  P11  1  0.597965  0.747328  0.097664  1
  P  P12  1  0.891389  0.741155  0.593970  1
  O  O13  1  0.222921  0.239041  0.538799  1
  O  O14  1  0.205955  0.736445  0.612343  1
  O  O15  1  0.248175  0.064122  0.332449  1
  O  O16  1  0.236008  0.455919  0.333011  1
  O  O17  1  0.290272  0.055952  0.848671  1
  O  O18  1  0.306428  0.453432  0.831290  1
  O  O19  1  0.282523  0.760541  0.098805  1
  O  O20  1  0.277598  0.263963  0.043045  1
  O  O21  1  0.716685  0.737187  0.963533  1
  O  O22  1  0.727798  0.247045  0.926845  1
  O  O23  1  0.714053  0.554805  0.180237  1
  O  O24  1  0.736656  0.941075  0.161357  1
  O  O25  1  0.752304  0.548547  0.657378  1
  O  O26  1  0.752615  0.932064  0.654582  1
  O  O27  1  0.798495  0.250962  0.386726  1
  O  O28  1  0.807626  0.756994  0.448770  1
