# generated using pymatgen
data_TeP2H16N2O13
_symmetry_space_group_name_H-M   'P 1'
_cell_length_a   11.90574561
_cell_length_b   8.65712301
_cell_length_c   7.57169955
_cell_angle_alpha   65.29190197
_cell_angle_beta   90.65142354
_cell_angle_gamma   75.94425367
_symmetry_Int_Tables_number   1
_chemical_formula_structural   TeP2H16N2O13
_chemical_formula_sum   'Te2 P4 H32 N4 O26'
_cell_volume   682.07162200
_cell_formula_units_Z   2
loop_
 _symmetry_equiv_pos_site_id
 _symmetry_equiv_pos_as_xyz
  1  'x, y, z'
loop_
 _atom_site_type_symbol
 _atom_site_label
 _atom_site_symmetry_multiplicity
 _atom_site_fract_x
 _atom_site_fract_y
 _atom_site_fract_z
 _atom_site_occupancy
  Te  Te0  1  0.833194  0.784082  0.818793  1
  Te  Te1  1  0.166806  0.215918  0.181207  1
  P  P2  1  0.593399  0.297652  0.959334  1
  P  P3  1  0.406601  0.702348  0.040666  1
  P  P4  1  0.610765  0.416085  0.279816  1
  P  P5  1  0.389235  0.583915  0.720184  1
  H  H6  1  0.742166  0.011380  0.943360  1
  H  H7  1  0.257834  0.988620  0.056640  1
  H  H8  1  0.953277  0.343419  0.080639  1
  H  H9  1  0.046723  0.656581  0.919361  1
  H  H10  1  0.745012  0.088267  0.555111  1
  H  H11  1  0.254988  0.911733  0.444889  1
  H  H12  1  0.792303  0.547263  0.123196  1
  H  H13  1  0.207697  0.452737  0.876804  1
  H  H14  1  0.617341  0.793146  0.823676  1
  H  H15  1  0.382659  0.206854  0.176324  1
  H  H16  1  0.858396  0.572117  0.659858  1
  H  H17  1  0.141604  0.427883  0.340142  1
  H  H18  1  0.782530  0.443353  0.515427  1
  H  H19  1  0.217470  0.556647  0.484573  1
  H  H20  1  0.780243  0.344796  0.743319  1
  H  H21  1  0.219757  0.655204  0.256681  1
  H  H22  1  0.622434  0.743669  0.310365  1
  H  H23  1  0.377566  0.256331  0.689635  1
  H  H24  1  0.499347  0.187958  0.596816  1
  H  H25  1  0.500653  0.812042  0.403184  1
  H  H26  1  0.626915  0.827655  0.477715  1
  H  H27  1  0.373085  0.172345  0.522285  1
  H  H28  1  0.562745  0.965194  0.241336  1
  H  H29  1  0.437255  0.034806  0.758664  1
  H  H30  1  0.967462  0.981854  0.256982  1
  H  H31  1  0.032538  0.018146  0.743018  1
  H  H32  1  0.969931  0.223488  0.721599  1
  H  H33  1  0.030069  0.776512  0.278402  1
  H  H34  1  0.927129  0.803254  0.418834  1
  H  H35  1  0.072871  0.196746  0.581166  1
  H  H36  1  0.888425  0.878315  0.173743  1
  H  H37  1  0.111575  0.121685  0.826257  1
  N  N38  1  0.420947  0.162494  0.644444  1
  N  N39  1  0.579053  0.837506  0.355556  1
  N  N40  1  0.047363  0.137325  0.720251  1
  N  N41  1  0.952637  0.862675  0.279749  1
  O  O42  1  0.776428  0.878478  0.005730  1
  O  O43  1  0.223572  0.121522  0.994270  1
  O  O44  1  0.992865  0.773867  0.895553  1
  O  O45  1  0.007135  0.226133  0.104447  1
  O  O46  1  0.827308  0.013289  0.610615  1
  O  O47  1  0.172692  0.986711  0.389385  1
  O  O48  1  0.148489  0.452232  0.969599  1
  O  O49  1  0.851511  0.547768  0.030401  1
  O  O50  1  0.672943  0.805636  0.724626  1
  O  O51  1  0.327057  0.194364  0.275374  1
  O  O52  1  0.889239  0.677042  0.644760  1
  O  O53  1  0.110761  0.322958  0.355240  1
  O  O54  1  0.371669  0.596549  0.925179  1
  O  O55  1  0.628331  0.403451  0.074821  1
  O  O56  1  0.523049  0.463971  0.758311  1
  O  O57  1  0.476951  0.536029  0.241689  1
  O  O58  1  0.704400  0.215846  0.901311  1
  O  O59  1  0.295600  0.784154  0.098689  1
  O  O60  1  0.515567  0.185394  0.064487  1
  O  O61  1  0.484433  0.814606  0.935513  1
  O  O62  1  0.383544  0.758739  0.554016  1
  O  O63  1  0.616456  0.241261  0.445984  1
  O  O64  1  0.307455  0.478746  0.706472  1
  O  O65  1  0.692545  0.521254  0.293528  1
  O  O66  1  0.827014  0.409239  0.644198  1
  O  O67  1  0.172986  0.590761  0.355802  1
