# generated using pymatgen
data_GdAsO4
_symmetry_space_group_name_H-M   'P 1'
_cell_length_a   4.84904217
_cell_length_b   7.19941362
_cell_length_c   4.84867984
_cell_angle_alpha   90.00000000
_cell_angle_beta   96.81200108
_cell_angle_gamma   90.00000000
_symmetry_Int_Tables_number   1
_chemical_formula_structural   GdAsO4
_chemical_formula_sum   'Gd2 As2 O8'
_cell_volume   168.07375448
_cell_formula_units_Z   2
loop_
 _symmetry_equiv_pos_site_id
 _symmetry_equiv_pos_as_xyz
  1  'x, y, z'
loop_
 _atom_site_type_symbol
 _atom_site_label
 _atom_site_symmetry_multiplicity
 _atom_site_fract_x
 _atom_site_fract_y
 _atom_site_fract_z
 _atom_site_occupancy
  Gd  Gd0  1  0.135562  0.250000  0.617747  1
  Gd  Gd1  1  0.864438  0.750000  0.382253  1
  As  As2  1  0.356991  0.750000  0.872965  1
  As  As3  1  0.643009  0.250000  0.127035  1
  O  O4  1  0.186019  0.565906  0.701114  1
  O  O5  1  0.186019  0.934094  0.701114  1
  O  O6  1  0.332905  0.750000  0.221977  1
  O  O7  1  0.295024  0.250000  0.156548  1
  O  O8  1  0.704976  0.750000  0.843452  1
  O  O9  1  0.667095  0.250000  0.778023  1
  O  O10  1  0.813981  0.065906  0.298886  1
  O  O11  1  0.813981  0.434094  0.298886  1
