# generated using pymatgen
data_Na3VH11IO13
_symmetry_space_group_name_H-M   'P 1'
_cell_length_a   13.69218179
_cell_length_b   8.65972422
_cell_length_c   6.96994542
_cell_angle_alpha   85.40983656
_cell_angle_beta   90.61413057
_cell_angle_gamma   65.15699975
_symmetry_Int_Tables_number   1
_chemical_formula_structural   Na3VH11IO13
_chemical_formula_sum   'Na6 V2 H22 I2 O26'
_cell_volume   746.65014130
_cell_formula_units_Z   2
loop_
 _symmetry_equiv_pos_site_id
 _symmetry_equiv_pos_as_xyz
  1  'x, y, z'
loop_
 _atom_site_type_symbol
 _atom_site_label
 _atom_site_symmetry_multiplicity
 _atom_site_fract_x
 _atom_site_fract_y
 _atom_site_fract_z
 _atom_site_occupancy
  Na  Na0  1  0.763904  0.540064  0.966161  1
  Na  Na1  1  0.236096  0.459936  0.033839  1
  Na  Na2  1  0.895928  0.407087  0.581220  1
  Na  Na3  1  0.104072  0.592913  0.418780  1
  Na  Na4  1  0.422982  0.263078  0.547030  1
  Na  Na5  1  0.577018  0.736922  0.452970  1
  V  V6  1  0.500183  0.179180  0.057248  1
  V  V7  1  0.499817  0.820820  0.942752  1
  H  H8  1  0.555893  0.442101  0.847427  1
  H  H9  1  0.444107  0.557899  0.152573  1
  H  H10  1  0.858740  0.286394  0.128171  1
  H  H11  1  0.141260  0.713606  0.871829  1
  H  H12  1  0.187778  0.181842  0.884064  1
  H  H13  1  0.812222  0.818158  0.115936  1
  H  H14  1  0.822591  0.286631  0.212304  1
  H  H15  1  0.177409  0.713369  0.787696  1
  H  H16  1  0.916568  0.970073  0.899312  1
  H  H17  1  0.083432  0.029927  0.100688  1
  H  H18  1  0.646241  0.897806  0.098072  1
  H  H19  1  0.353759  0.102194  0.901928  1
  H  H20  1  0.655967  0.285426  0.952000  1
  H  H21  1  0.344033  0.714574  0.048000  1
  H  H22  1  0.365625  0.556932  0.577361  1
  H  H23  1  0.634375  0.443068  0.422639  1
  H  H24  1  0.989724  0.349483  0.928838  1
  H  H25  1  0.010276  0.650517  0.071162  1
  H  H26  1  0.506004  0.990711  0.554892  1
  H  H27  1  0.493996  0.009289  0.445108  1
  H  H28  1  0.634151  0.437029  0.531126  1
  H  H29  1  0.365849  0.562971  0.468874  1
  I  I30  1  0.240104  0.099547  0.214201  1
  I  I31  1  0.759896  0.900453  0.785799  1
  O  O32  1  0.391186  0.289403  0.890595  1
  O  O33  1  0.608814  0.710597  0.109405  1
  O  O34  1  0.069328  0.225709  0.323393  1
  O  O35  1  0.930672  0.774291  0.676607  1
  O  O36  1  0.162702  0.260170  0.986904  1
  O  O37  1  0.837298  0.739830  0.013096  1
  O  O38  1  0.468346  0.028920  0.181657  1
  O  O39  1  0.531654  0.971080  0.818343  1
  O  O40  1  0.337701  0.000204  0.931962  1
  O  O41  1  0.662299  -0.000204  0.068038  1
  O  O42  1  0.259129  0.277146  0.318444  1
  O  O43  1  0.740871  0.722854  0.681556  1
  O  O44  1  0.493993  0.316962  0.224381  1
  O  O45  1  0.506007  0.683038  0.775619  1
  O  O46  1  0.594137  0.314645  0.862917  1
  O  O47  1  0.405863  0.685355  0.137083  1
  O  O48  1  0.924437  0.339925  0.888657  1
  O  O49  1  0.075563  0.660075  0.111343  1
  O  O50  1  0.794539  0.063769  0.398577  1
  O  O51  1  0.205461  0.936231  0.601423  1
  O  O52  1  0.045978  0.370491  0.396608  1
  O  O53  1  0.954022  0.629509  0.603392  1
  O  O54  1  0.135291  0.045582  0.689949  1
  O  O55  1  0.864709  0.954418  0.310051  1
  O  O56  1  0.840521  0.041752  0.864877  1
  O  O57  1  0.159479  0.958248  0.135123  1
