# generated using pymatgen
data_V2OF5
_symmetry_space_group_name_H-M   'P 1'
_cell_length_a   5.23736244
_cell_length_b   13.52627724
_cell_length_c   5.23736244
_cell_angle_alpha   90.00000418
_cell_angle_beta   120.00001133
_cell_angle_gamma   89.99999582
_symmetry_Int_Tables_number   1
_chemical_formula_structural   V2OF5
_chemical_formula_sum   'V6 O3 F15'
_cell_volume   321.31731179
_cell_formula_units_Z   3
loop_
 _symmetry_equiv_pos_site_id
 _symmetry_equiv_pos_as_xyz
  1  'x, y, z'
loop_
 _atom_site_type_symbol
 _atom_site_label
 _atom_site_symmetry_multiplicity
 _atom_site_fract_x
 _atom_site_fract_y
 _atom_site_fract_z
 _atom_site_occupancy
  V  V0  1  0.002023  0.495936  0.026193  1
  V  V1  1  0.975829  0.004064  0.973807  1
  V  V2  1  0.640474  0.829270  0.309162  1
  V  V3  1  0.331311  0.670730  0.690838  1
  V  V4  1  0.692859  0.337397  0.335356  1
  V  V5  1  0.357504  0.162603  0.664644  1
  O  O6  1  0.421714  0.750000  0.000000  1
  O  O7  1  0.911619  0.416667  0.244952  1
  O  O8  1  0.666667  0.083333  0.755048  1
  F  F9  1  0.999709  0.750108  0.405216  1
  F  F10  1  0.333624  0.416559  0.072174  1
  F  F11  1  0.071883  0.083226  0.333042  1
  F  F12  1  0.316345  0.919779  0.249263  1
  F  F13  1  0.266250  0.586446  0.350322  1
  F  F14  1  0.601038  0.250000  1.000000  1
  F  F15  1  0.016988  0.246887  0.599584  1
  F  F16  1  0.732295  0.916667  0.065628  1
  F  F17  1  0.067083  0.580221  0.750737  1
  F  F18  1  0.417404  0.253113  0.400416  1
  F  F19  1  0.594493  0.749892  0.594784  1
  F  F20  1  0.261451  0.083441  0.927826  1
  F  F21  1  0.738840  0.416774  0.666958  1
  F  F22  1  0.915930  0.913554  0.649678  1
  F  F23  1  0.666667  0.583333  0.934372  1
