# generated using pymatgen
data_Li5V3P8O29
_symmetry_space_group_name_H-M   'P 1'
_cell_length_a   9.79179141
_cell_length_b   9.75761210
_cell_length_c   14.05964684
_cell_angle_alpha   90.23771938
_cell_angle_beta   90.54505672
_cell_angle_gamma   60.36219142
_symmetry_Int_Tables_number   1
_chemical_formula_structural   Li5V3P8O29
_chemical_formula_sum   'Li10 V6 P16 O58'
_cell_volume   1167.52046088
_cell_formula_units_Z   2
loop_
 _symmetry_equiv_pos_site_id
 _symmetry_equiv_pos_as_xyz
  1  'x, y, z'
loop_
 _atom_site_type_symbol
 _atom_site_label
 _atom_site_symmetry_multiplicity
 _atom_site_fract_x
 _atom_site_fract_y
 _atom_site_fract_z
 _atom_site_occupancy
  Li  Li0  1  0.773195  0.905438  0.561494  1
  Li  Li1  1  0.914236  0.316767  0.564373  1
  Li  Li2  1  0.771043  0.331118  0.055731  1
  Li  Li3  1  0.337675  0.894832  0.056749  1
  Li  Li4  1  0.682027  0.231195  0.439743  1
  Li  Li5  1  0.325218  0.770846  0.561804  1
  Li  Li6  1  0.678352  0.087596  0.936093  1
  Li  Li7  1  0.317946  0.346664  0.108568  1
  Li  Li8  1  0.093750  0.677761  0.439829  1
  Li  Li9  1  0.042950  0.941204  0.994325  1
  V  V10  1  0.570679  0.434420  0.249401  1
  V  V11  1  0.429043  0.566958  0.753991  1
  V  V12  1  0.566484  0.997804  0.748273  1
  V  V13  1  0.427853  0.999367  0.252592  1
  V  V14  1  0.994323  0.572048  0.246660  1
  V  V15  1  0.003202  0.431990  0.755704  1
  P  P16  1  0.916101  0.779153  0.841544  1
  P  P17  1  0.768169  0.915893  0.338885  1
  P  P18  1  0.917310  0.318069  0.345801  1
  P  P19  1  0.662461  0.672281  0.128193  1
  P  P20  1  0.666540  0.661174  0.630039  1
  P  P21  1  0.770822  0.317089  0.839705  1
  P  P22  1  0.677672  0.233219  0.656830  1
  P  P23  1  0.313613  0.914024  0.844514  1
  P  P24  1  0.679736  0.091373  0.154896  1
  P  P25  1  0.319755  0.766528  0.343779  1
  P  P26  1  0.222289  0.687798  0.160575  1
  P  P27  1  0.336765  0.333836  0.370146  1
  P  P28  1  0.339518  0.329199  0.872367  1
  P  P29  1  0.086026  0.681314  0.657863  1
  P  P30  1  0.227769  0.086959  0.661884  1
  P  P31  1  0.085586  0.221794  0.161101  1
  O  O32  1  0.001297  0.755631  0.566023  1
  O  O33  1  0.916118  0.750998  0.339841  1
  O  O34  1  0.762557  0.012880  0.065485  1
  O  O35  1  0.742919  0.918473  0.832861  1
  O  O36  1  0.919123  0.621129  0.833923  1
  O  O37  1  0.804024  0.679902  0.172034  1
  O  O38  1  0.907330  0.477215  0.319271  1
  O  O39  1  0.990640  0.210764  0.080877  1
  O  O40  1  0.911895  0.345382  0.837200  1
  O  O41  1  0.671513  0.811512  0.667664  1
  O  O42  1  0.618379  0.903856  0.318245  1
  O  O43  1  0.815165  0.511217  0.669729  1
  O  O44  1  0.643750  0.682235  0.022889  1
  O  O45  1  0.655046  0.662541  0.523956  1
  O  O46  1  0.671898  0.516677  0.167389  1
  O  O47  1  0.469380  0.911645  0.832278  1
  O  O48  1  0.508304  0.819243  0.172538  1
  O  O49  1  0.751299  0.334340  0.336746  1
  O  O50  1  0.790014  0.210053  0.748005  1
  O  O51  1  0.755404  0.247360  0.568374  1
  O  O52  1  0.769570  0.232200  0.928559  1
  O  O53  1  0.616240  0.475261  0.826216  1
  O  O54  1  0.515556  0.664746  0.674247  1
  O  O55  1  0.656096  0.262062  0.159660  1
  O  O56  1  0.478775  0.618381  0.323217  1
  O  O57  1  0.339553  0.914479  0.335489  1
  O  O58  1  0.787038  0.005656  0.248355  1
  O  O59  1  0.753317  0.004172  0.429567  1
  O  O60  1  0.238571  0.989201  0.578606  1
  O  O61  1  0.663261  0.082629  0.655741  1
  O  O62  1  0.519068  0.380907  0.677041  1
  O  O63  1  0.339454  0.743451  0.828753  1
  O  O64  1  0.489551  0.328647  0.330327  1
  O  O65  1  0.373166  0.525541  0.168268  1
  O  O66  1  0.212966  0.792523  0.080809  1
  O  O67  1  0.247720  0.756594  0.435141  1
  O  O68  1  0.202784  0.783489  0.258860  1
  O  O69  1  0.254176  0.659598  0.659238  1
  O  O70  1  0.493881  0.185334  0.836194  1
  O  O71  1  0.517560  0.102608  0.169294  1
  O  O72  1  0.335737  0.481569  0.826826  1
  O  O73  1  0.343851  0.338888  0.978605  1
  O  O74  1  0.344115  0.320072  0.475433  1
  O  O75  1  0.188263  0.483692  0.331084  1
  O  O76  1  0.380385  0.096487  0.679666  1
  O  O77  1  0.338424  0.183826  0.320157  1
  O  O78  1  0.081271  0.657784  0.162270  1
  O  O79  1  0.995333  0.797501  0.743746  1
  O  O80  1  0.993893  0.806949  0.923774  1
  O  O81  1  0.093784  0.522499  0.677845  1
  O  O82  1  0.195532  0.325050  0.830464  1
  O  O83  1  0.100877  0.372185  0.167156  1
  O  O84  1  0.256990  0.076938  0.160020  1
  O  O85  1  0.229996  0.976363  0.936648  1
  O  O86  1  0.200249  0.012378  0.758246  1
  O  O87  1  0.083810  0.254941  0.661663  1
  O  O88  1  0.991834  0.254158  0.439249  1
  O  O89  1  0.016936  0.200457  0.260736  1
