# generated using pymatgen
data_Li2FePCO7
_symmetry_space_group_name_H-M   'P 1'
_cell_length_a   9.37369777
_cell_length_b   10.19769890
_cell_length_c   6.49902042
_cell_angle_alpha   90.05989103
_cell_angle_beta   90.06880853
_cell_angle_gamma   62.46891583
_symmetry_Int_Tables_number   1
_chemical_formula_structural   Li2FePCO7
_chemical_formula_sum   'Li8 Fe4 P4 C4 O28'
_cell_volume   550.89247931
_cell_formula_units_Z   4
loop_
 _symmetry_equiv_pos_site_id
 _symmetry_equiv_pos_as_xyz
  1  'x, y, z'
loop_
 _atom_site_type_symbol
 _atom_site_label
 _atom_site_symmetry_multiplicity
 _atom_site_fract_x
 _atom_site_fract_y
 _atom_site_fract_z
 _atom_site_occupancy
  Li  Li0  1  0.901893  0.434743  0.744191  1
  Li  Li1  1  0.906011  0.930411  0.756569  1
  Li  Li2  1  0.721481  0.266322  0.963246  1
  Li  Li3  1  0.722149  0.765961  0.540161  1
  Li  Li4  1  0.281825  0.231159  0.044878  1
  Li  Li5  1  0.283726  0.730034  0.463327  1
  Li  Li6  1  0.098452  0.065830  0.259673  1
  Li  Li7  1  0.095776  0.569214  0.244264  1
  Fe  Fe8  1  0.671423  0.064507  0.254376  1
  Fe  Fe9  1  0.669971  0.565425  0.247367  1
  Fe  Fe10  1  0.331370  0.433012  0.748234  1
  Fe  Fe11  1  0.329975  0.935893  0.754374  1
  P  P12  1  0.582194  0.072437  0.752463  1
  P  P13  1  0.580512  0.573378  0.748736  1
  P  P14  1  0.420910  0.425419  0.249700  1
  P  P15  1  0.421274  0.926760  0.254161  1
  C  C16  1  0.958388  0.367911  0.236357  1
  C  C17  1  0.959668  0.868813  0.270865  1
  C  C18  1  0.041160  0.133076  0.769297  1
  C  C19  1  0.044186  0.630879  0.732013  1
  O  O20  1  0.925769  0.008393  0.253222  1
  O  O21  1  0.926200  0.507135  0.254726  1
  O  O22  1  0.899645  0.239116  0.786208  1
  O  O23  1  0.831475  0.345383  0.235903  1
  O  O24  1  0.902844  0.737266  0.715009  1
  O  O25  1  0.834193  0.844203  0.269364  1
  O  O26  1  0.701658  0.051054  0.932616  1
  O  O27  1  0.679396  0.069663  0.559396  1
  O  O28  1  0.678224  0.570665  0.941937  1
  O  O29  1  0.699601  0.552351  0.568716  1
  O  O30  1  0.578554  0.281322  0.215158  1
  O  O31  1  0.537733  0.443222  0.766661  1
  O  O32  1  0.578495  0.782577  0.290862  1
  O  O33  1  0.538561  0.942793  0.733869  1
  O  O34  1  0.462209  0.058295  0.237223  1
  O  O35  1  0.425488  0.217146  0.787830  1
  O  O36  1  0.462036  0.556997  0.264525  1
  O  O37  1  0.424022  0.718500  0.714528  1
  O  O38  1  0.325415  0.427271  0.443807  1
  O  O39  1  0.301323  0.444258  0.070811  1
  O  O40  1  0.326436  0.927190  0.059472  1
  O  O41  1  0.301060  0.947560  0.432686  1
  O  O42  1  0.167737  0.156218  0.770870  1
  O  O43  1  0.099709  0.261332  0.219032  1
  O  O44  1  0.170986  0.653578  0.731307  1
  O  O45  1  0.101814  0.763371  0.288669  1
  O  O46  1  0.076117  0.491824  0.751042  1
  O  O47  1  0.074272  0.993639  0.749985  1
