# generated using pymatgen
data_Al2P2H8C2NO8F
_symmetry_space_group_name_H-M   'P 1'
_cell_length_a   9.54393858
_cell_length_b   12.89089937
_cell_length_c   8.68955750
_cell_angle_alpha   90.00000000
_cell_angle_beta   112.95496322
_cell_angle_gamma   90.00000000
_symmetry_Int_Tables_number   1
_chemical_formula_structural   Al2P2H8C2NO8F
_chemical_formula_sum   'Al8 P8 H32 C8 N4 O32 F4'
_cell_volume   984.41754213
_cell_formula_units_Z   4
loop_
 _symmetry_equiv_pos_site_id
 _symmetry_equiv_pos_as_xyz
  1  'x, y, z'
loop_
 _atom_site_type_symbol
 _atom_site_label
 _atom_site_symmetry_multiplicity
 _atom_site_fract_x
 _atom_site_fract_y
 _atom_site_fract_z
 _atom_site_occupancy
  Al  Al0  1  0.434812  0.401575  0.909492  1
  Al  Al1  1  0.565188  0.901575  0.590508  1
  Al  Al2  1  0.565188  0.598425  0.090508  1
  Al  Al3  1  0.434812  0.098425  0.409492  1
  Al  Al4  1  0.128279  0.117347  0.680748  1
  Al  Al5  1  0.871721  0.617347  0.819252  1
  Al  Al6  1  0.871721  0.882653  0.319252  1
  Al  Al7  1  0.128279  0.382653  0.180748  1
  P  P8  1  0.217100  0.549547  0.981125  1
  P  P9  1  0.782900  0.049547  0.518875  1
  P  P10  1  0.782900  0.450453  0.018875  1
  P  P11  1  0.217100  0.950453  0.481125  1
  P  P12  1  0.293616  0.287439  0.545233  1
  P  P13  1  0.706384  0.787439  0.954767  1
  P  P14  1  0.706384  0.712561  0.454767  1
  P  P15  1  0.293616  0.212561  0.045233  1
  H  H16  1  0.309438  0.741781  0.589704  1
  H  H17  1  0.690562  0.241781  0.910296  1
  H  H18  1  0.690562  0.258219  0.410296  1
  H  H19  1  0.309438  0.758219  0.089704  1
  H  H20  1  0.336988  0.643099  0.727208  1
  H  H21  1  0.663012  0.143099  0.772792  1
  H  H22  1  0.663012  0.356901  0.272792  1
  H  H23  1  0.336988  0.856901  0.227208  1
  H  H24  1  0.372690  0.642245  0.408015  1
  H  H25  1  0.627310  0.142245  0.091985  1
  H  H26  1  0.627310  0.357755  0.591985  1
  H  H27  1  0.372690  0.857755  0.908015  1
  H  H28  1  0.059708  0.688474  0.562344  1
  H  H29  1  0.940292  0.188474  0.937656  1
  H  H30  1  0.940292  0.311526  0.437656  1
  H  H31  1  0.059708  0.811526  0.062344  1
  H  H32  1  0.325094  0.525593  0.489488  1
  H  H33  1  0.674906  0.025593  0.010512  1
  H  H34  1  0.674906  0.474407  0.510512  1
  H  H35  1  0.325094  0.974407  0.989488  1
  H  H36  1  0.092288  0.634442  0.389164  1
  H  H37  1  0.907712  0.134442  0.110836  1
  H  H38  1  0.907712  0.365558  0.610836  1
  H  H39  1  0.092288  0.865558  0.889164  1
  H  H40  1  0.496484  0.593186  0.608075  1
  H  H41  1  0.503516  0.093186  0.891925  1
  H  H42  1  0.503516  0.406814  0.391925  1
  H  H43  1  0.496484  0.906814  0.108075  1
  H  H44  1  0.117035  0.555678  0.567872  1
  H  H45  1  0.882965  0.055678  0.932128  1
  H  H46  1  0.882965  0.444322  0.432128  1
  H  H47  1  0.117035  0.944322  0.067872  1
  C  C48  1  0.128142  0.634038  0.525230  1
  C  C49  1  0.871858  0.134038  0.974770  1
  C  C50  1  0.871858  0.365962  0.474770  1
  C  C51  1  0.128142  0.865962  0.025230  1
  C  C52  1  0.378667  0.601789  0.520681  1
  C  C53  1  0.621333  0.101789  0.979319  1
  C  C54  1  0.621333  0.398211  0.479319  1
  C  C55  1  0.378667  0.898211  0.020681  1
  N  N56  1  0.292521  0.661971  0.601491  1
  N  N57  1  0.707479  0.161971  0.898509  1
  N  N58  1  0.707479  0.338029  0.398509  1
  N  N59  1  0.292521  0.838029  0.101491  1
  O  O60  1  0.380044  0.355841  0.695960  1
  O  O61  1  0.619956  0.855841  0.804040  1
  O  O62  1  0.619956  0.644159  0.304040  1
  O  O63  1  0.380044  0.144159  0.195960  1
  O  O64  1  0.405684  0.219764  0.503064  1
  O  O65  1  0.594316  0.719764  0.996936  1
  O  O66  1  0.594316  0.780236  0.496936  1
  O  O67  1  0.405684  0.280236  0.003064  1
  O  O68  1  0.171987  0.220540  0.575903  1
  O  O69  1  0.828013  0.720540  0.924097  1
  O  O70  1  0.828013  0.779460  0.424097  1
  O  O71  1  0.171987  0.279460  0.075903  1
  O  O72  1  0.242471  0.463050  0.872652  1
  O  O73  1  0.757529  0.963050  0.627348  1
  O  O74  1  0.757529  0.536950  0.127348  1
  O  O75  1  0.242471  0.036950  0.372652  1
  O  O76  1  0.349337  0.629917  0.038828  1
  O  O77  1  0.650663  0.129917  0.461172  1
  O  O78  1  0.650663  0.370083  0.961172  1
  O  O79  1  0.349337  0.870083  0.538828  1
  O  O80  1  0.070588  0.611970  0.879959  1
  O  O81  1  0.929412  0.111970  0.620041  1
  O  O82  1  0.929412  0.388030  0.120041  1
  O  O83  1  0.070588  0.888030  0.379959  1
  O  O84  1  0.195482  0.502014  0.135905  1
  O  O85  1  0.804518  0.002014  0.364095  1
  O  O86  1  0.804518  0.497986  0.864095  1
  O  O87  1  0.195482  0.997986  0.635905  1
  O  O88  1  0.205545  0.361134  0.397255  1
  O  O89  1  0.794455  0.861134  0.102745  1
  O  O90  1  0.794455  0.638866  0.602745  1
  O  O91  1  0.205545  0.138866  0.897255  1
  F  F92  1  0.490421  0.537652  0.869592  1
  F  F93  1  0.509579  0.037652  0.630408  1
  F  F94  1  0.509579  0.462348  0.130408  1
  F  F95  1  0.490421  0.962348  0.369592  1
