# generated using pymatgen
data_LiFeSiO4
_symmetry_space_group_name_H-M   'P 1'
_cell_length_a   8.71253142
_cell_length_b   8.71255361
_cell_length_c   8.09886205
_cell_angle_alpha   89.99872672
_cell_angle_beta   90.00093055
_cell_angle_gamma   120.00064827
_symmetry_Int_Tables_number   1
_chemical_formula_structural   LiFeSiO4
_chemical_formula_sum   'Li6 Fe6 Si6 O24'
_cell_volume   532.40437667
_cell_formula_units_Z   6
loop_
 _symmetry_equiv_pos_site_id
 _symmetry_equiv_pos_as_xyz
  1  'x, y, z'
loop_
 _atom_site_type_symbol
 _atom_site_label
 _atom_site_symmetry_multiplicity
 _atom_site_fract_x
 _atom_site_fract_y
 _atom_site_fract_z
 _atom_site_occupancy
  Li  Li0  1  0.333327  0.666662  0.263641  1
  Li  Li1  1  0.333318  0.666675  0.715460  1
  Li  Li2  1  0.999990  0.999985  0.113013  1
  Li  Li3  1  0.999991  0.999993  0.613010  1
  Li  Li4  1  0.666660  0.333337  0.763651  1
  Li  Li5  1  0.666647  0.333329  0.215466  1
  Fe  Fe6  1  0.029330  0.688153  0.403252  1
  Fe  Fe7  1  0.311837  0.341171  0.403263  1
  Fe  Fe8  1  0.658812  0.970669  0.403263  1
  Fe  Fe9  1  0.341177  0.029332  0.903259  1
  Fe  Fe10  1  0.688144  0.658824  0.903251  1
  Fe  Fe11  1  0.970672  0.311847  0.903255  1
  Si  Si12  1  0.039889  0.685247  0.017651  1
  Si  Si13  1  0.314732  0.354634  0.017660  1
  Si  Si14  1  0.645363  0.960103  0.017668  1
  Si  Si15  1  0.354641  0.039904  0.517659  1
  Si  Si16  1  0.685250  0.645361  0.517654  1
  Si  Si17  1  0.960083  0.314729  0.517666  1
  O  O18  1  0.136554  0.909624  0.515962  1
  O  O19  1  0.146070  0.730973  0.195736  1
  O  O20  1  0.092537  0.529313  0.497305  1
  O  O21  1  0.194948  0.779065  0.874015  1
  O  O22  1  0.220944  0.415889  0.874033  1
  O  O23  1  0.436763  0.907487  0.497322  1
  O  O24  1  0.090375  0.226945  0.515993  1
  O  O25  1  0.269034  0.415094  0.195735  1
  O  O26  1  0.584888  0.853935  0.195739  1
  O  O27  1  0.470699  0.563230  0.497295  1
  O  O28  1  0.226934  0.136552  0.015979  1
  O  O29  1  0.584115  0.805059  0.874028  1
  O  O30  1  0.415888  0.194957  0.374024  1
  O  O31  1  0.773052  0.863426  0.515971  1
  O  O32  1  0.529300  0.436764  0.997300  1
  O  O33  1  0.415087  0.146076  0.695738  1
  O  O34  1  0.730955  0.584892  0.695735  1
  O  O35  1  0.909620  0.773054  0.015964  1
  O  O36  1  0.563226  0.092532  0.997305  1
  O  O37  1  0.779059  0.584110  0.374018  1
  O  O38  1  0.805051  0.220943  0.374036  1
  O  O39  1  0.907480  0.470707  0.997305  1
  O  O40  1  0.853927  0.269041  0.695735  1
  O  O41  1  0.863435  0.090378  0.015986  1
