# generated using pymatgen
data_Sr15Pd5O24
_symmetry_space_group_name_H-M   'P 1'
_cell_length_a   6.91871366
_cell_length_b   6.91871366
_cell_length_c   13.82475929
_cell_angle_alpha   90.18374216
_cell_angle_beta   90.18374216
_cell_angle_gamma   90.15242337
_symmetry_Int_Tables_number   1
_chemical_formula_structural   Sr15Pd5O24
_chemical_formula_sum   'Sr15 Pd5 O24'
_cell_volume   661.76268797
_cell_formula_units_Z   1
loop_
 _symmetry_equiv_pos_site_id
 _symmetry_equiv_pos_as_xyz
  1  'x, y, z'
loop_
 _atom_site_type_symbol
 _atom_site_label
 _atom_site_symmetry_multiplicity
 _atom_site_fract_x
 _atom_site_fract_y
 _atom_site_fract_z
 _atom_site_occupancy
  Sr  Sr0  1  0.120268  0.750603  0.191286  1
  Sr  Sr1  1  0.107723  0.749559  0.695083  1
  Sr  Sr2  1  0.250707  0.619736  0.441856  1
  Sr  Sr3  1  0.249314  0.619354  0.938682  1
  Sr  Sr4  1  0.617740  0.878119  0.119581  1
  Sr  Sr5  1  0.621881  0.882260  0.630419  1
  Sr  Sr6  1  0.249468  0.249203  0.125241  1
  Sr  Sr7  1  0.749346  0.750654  0.375000  1
  Sr  Sr8  1  0.250797  0.250532  0.624759  1
  Sr  Sr9  1  0.390860  0.109140  0.875000  1
  Sr  Sr10  1  0.381682  0.118318  0.375000  1
  Sr  Sr11  1  0.749397  0.379732  0.558714  1
  Sr  Sr12  1  0.750441  0.392277  0.054917  1
  Sr  Sr13  1  0.880264  0.249293  0.308144  1
  Sr  Sr14  1  0.880646  0.250686  0.811318  1
  Pd  Pd15  1  0.998906  0.999318  0.999045  1
  Pd  Pd16  1  0.500682  0.501094  0.750955  1
  Pd  Pd17  1  0.500130  0.499820  0.249518  1
  Pd  Pd18  1  0.751160  0.748840  0.875000  1
  Pd  Pd19  1  0.000180  0.999870  0.500482  1
  O  O20  1  0.058113  0.925945  0.356803  1
  O  O21  1  0.048250  0.922247  0.857712  1
  O  O22  1  0.283797  0.941309  0.036070  1
  O  O23  1  0.286393  0.941834  0.536936  1
  O  O24  1  0.441400  0.786405  0.285913  1
  O  O25  1  0.451869  0.784170  0.790136  1
  O  O26  1  0.072299  0.285782  0.470604  1
  O  O27  1  0.214219  0.427701  0.279396  1
  O  O28  1  0.215692  0.426236  0.778901  1
  O  O29  1  0.073764  0.284308  0.971099  1
  O  O30  1  0.424546  0.557328  0.106978  1
  O  O31  1  0.429210  0.559207  0.607745  1
  O  O32  1  0.574055  0.441887  0.393197  1
  O  O33  1  0.577753  0.451750  0.892288  1
  O  O34  1  0.783431  0.579404  0.728766  1
  O  O35  1  0.787178  0.573905  0.218843  1
  O  O36  1  0.926095  0.712822  0.531157  1
  O  O37  1  0.920596  0.716569  0.021234  1
  O  O38  1  0.558166  0.213607  0.213064  1
  O  O39  1  0.558691  0.216203  0.713930  1
  O  O40  1  0.715830  0.048131  0.959864  1
  O  O41  1  0.713595  0.058600  0.464087  1
  O  O42  1  0.942672  0.075454  0.643022  1
  O  O43  1  0.940793  0.070790  0.142255  1
