# generated using pymatgen
data_SrCaI4
_symmetry_space_group_name_H-M   'P 1'
_cell_length_a   10.10833390
_cell_length_b   10.90240812
_cell_length_c   9.83182778
_cell_angle_alpha   90.00000000
_cell_angle_beta   110.54489378
_cell_angle_gamma   90.00000000
_symmetry_Int_Tables_number   1
_chemical_formula_structural   SrCaI4
_chemical_formula_sum   'Sr4 Ca4 I16'
_cell_volume   1014.60388770
_cell_formula_units_Z   4
loop_
 _symmetry_equiv_pos_site_id
 _symmetry_equiv_pos_as_xyz
  1  'x, y, z'
loop_
 _atom_site_type_symbol
 _atom_site_label
 _atom_site_symmetry_multiplicity
 _atom_site_fract_x
 _atom_site_fract_y
 _atom_site_fract_z
 _atom_site_occupancy
  Sr  Sr0  1  0.154414  0.215888  0.146661  1
  Sr  Sr1  1  0.345586  0.715888  0.353339  1
  Sr  Sr2  1  0.654414  0.284112  0.646661  1
  Sr  Sr3  1  0.845586  0.784112  0.853339  1
  Ca  Ca4  1  0.212660  0.546460  0.712163  1
  Ca  Ca5  1  0.287340  0.046460  0.787837  1
  Ca  Ca6  1  0.712660  0.953540  0.212163  1
  Ca  Ca7  1  0.787340  0.453540  0.287837  1
  I  I8  1  0.885779  0.507666  0.635207  1
  I  I9  1  0.987423  0.059726  0.806534  1
  I  I10  1  0.195387  0.813534  0.596677  1
  I  I11  1  0.169900  0.665130  0.991063  1
  I  I12  1  0.330100  0.165130  0.508937  1
  I  I13  1  0.304613  0.313534  0.903323  1
  I  I14  1  0.512577  0.559726  0.693466  1
  I  I15  1  0.614221  0.007666  0.864793  1
  I  I16  1  0.385779  0.992334  0.135207  1
  I  I17  1  0.487423  0.440274  0.306534  1
  I  I18  1  0.695387  0.686466  0.096677  1
  I  I19  1  0.669900  0.834870  0.491063  1
  I  I20  1  0.830100  0.334870  0.008937  1
  I  I21  1  0.804613  0.186466  0.403323  1
  I  I22  1  0.012577  0.940274  0.193466  1
  I  I23  1  0.114221  0.492334  0.364793  1
