# generated using pymatgen
data_Li4Ni5Sn(PO4)6
_symmetry_space_group_name_H-M   'P 1'
_cell_length_a   8.42950971
_cell_length_b   8.84285660
_cell_length_c   8.83493409
_cell_angle_alpha   60.05265665
_cell_angle_beta   58.98271927
_cell_angle_gamma   58.95993263
_symmetry_Int_Tables_number   1
_chemical_formula_structural   Li4Ni5Sn(PO4)6
_chemical_formula_sum   'Li4 Ni5 Sn1 P6 O24'
_cell_volume   458.47910260
_cell_formula_units_Z   1
loop_
 _symmetry_equiv_pos_site_id
 _symmetry_equiv_pos_as_xyz
  1  'x, y, z'
loop_
 _atom_site_type_symbol
 _atom_site_label
 _atom_site_symmetry_multiplicity
 _atom_site_fract_x
 _atom_site_fract_y
 _atom_site_fract_z
 _atom_site_occupancy
  Li  Li0  1  0.248354  0.856017  0.640907  1
  Li  Li1  1  0.777750  0.154062  0.361676  1
  Li  Li2  1  0.778810  0.703270  0.149289  1
  Li  Li3  1  0.782604  0.367117  0.701028  1
  Ni  Ni4  1  0.017912  0.997293  0.996049  1
  Ni  Ni5  1  0.063082  0.645937  0.647662  1
  Ni  Ni6  1  0.489513  0.500671  0.501389  1
  Ni  Ni7  1  0.436247  0.852672  0.853479  1
  Ni  Ni8  1  0.943604  0.351250  0.350795  1
  Sn  Sn9  1  0.553862  0.151109  0.148888  1
  P  P10  1  0.243436  0.256911  0.558756  1
  P  P11  1  0.243374  0.945209  0.250151  1
  P  P12  1  0.241568  0.558529  0.946447  1
  P  P13  1  0.746186  0.457367  0.046533  1
  P  P14  1  0.760432  0.044014  0.747953  1
  P  P15  1  0.731124  0.751970  0.460098  1
  O  O16  1  0.058204  0.103843  0.313890  1
  O  O17  1  0.056720  0.521403  0.104590  1
  O  O18  1  0.058547  0.322419  0.517351  1
  O  O19  1  0.224562  0.091856  0.743728  1
  O  O20  1  0.436925  0.189160  0.397831  1
  O  O21  1  0.274239  0.408401  0.568454  1
  O  O22  1  0.226471  0.925233  0.096170  1
  O  O23  1  0.275657  0.759965  0.413029  1
  O  O24  1  0.559687  0.598385  0.007784  1
  O  O25  1  0.278717  0.572365  0.748869  1
  O  O26  1  0.774930  0.244372  0.085596  1
  O  O27  1  0.590000  0.984956  0.820524  1
  O  O28  1  0.436066  0.985724  0.178538  1
  O  O29  1  0.218507  0.754333  0.924697  1
  O  O30  1  0.720363  0.445051  0.243577  1
  O  O31  1  0.433335  0.398130  0.981984  1
  O  O32  1  0.727739  0.238853  0.588880  1
  O  O33  1  0.773264  0.089494  0.897995  1
  O  O34  1  0.722345  0.587419  0.441526  1
  O  O35  1  0.528756  0.826283  0.596975  1
  O  O36  1  0.767508  0.898249  0.249694  1
  O  O37  1  0.902304  0.702342  0.508150  1
  O  O38  1  0.934826  0.484114  0.894248  1
  O  O39  1  0.962473  0.897253  0.691816  1
