# generated using pymatgen
data_RbUP2H8O11
_symmetry_space_group_name_H-M   'P 1'
_cell_length_a   8.82398991
_cell_length_b   10.67825875
_cell_length_c   13.23502879
_cell_angle_alpha   90.00000000
_cell_angle_beta   106.82190765
_cell_angle_gamma   90.00000000
_symmetry_Int_Tables_number   1
_chemical_formula_structural   RbUP2H8O11
_chemical_formula_sum   'Rb4 U4 P8 H32 O44'
_cell_volume   1193.70514996
_cell_formula_units_Z   4
loop_
 _symmetry_equiv_pos_site_id
 _symmetry_equiv_pos_as_xyz
  1  'x, y, z'
loop_
 _atom_site_type_symbol
 _atom_site_label
 _atom_site_symmetry_multiplicity
 _atom_site_fract_x
 _atom_site_fract_y
 _atom_site_fract_z
 _atom_site_occupancy
  Rb  Rb0  1  0.886911  0.549935  0.177769  1
  Rb  Rb1  1  0.386911  0.950065  0.677769  1
  Rb  Rb2  1  0.113089  0.450065  0.822231  1
  Rb  Rb3  1  0.613089  0.049935  0.322231  1
  U  U4  1  0.302770  0.699155  0.349661  1
  U  U5  1  0.802770  0.800845  0.849661  1
  U  U6  1  0.697230  0.300845  0.650339  1
  U  U7  1  0.197230  0.199155  0.150339  1
  P  P8  1  0.068679  0.870887  0.114690  1
  P  P9  1  0.568679  0.629113  0.614690  1
  P  P10  1  0.931321  0.129113  0.885310  1
  P  P11  1  0.431321  0.370887  0.385310  1
  P  P12  1  0.319603  0.524281  0.105792  1
  P  P13  1  0.819603  0.975719  0.605792  1
  P  P14  1  0.680397  0.475719  0.894208  1
  P  P15  1  0.180397  0.024281  0.394208  1
  H  H16  1  0.615317  0.835783  0.135250  1
  H  H17  1  0.115317  0.664217  0.635250  1
  H  H18  1  0.384683  0.164217  0.864750  1
  H  H19  1  0.884683  0.335783  0.364750  1
  H  H20  1  0.597687  0.855636  0.014246  1
  H  H21  1  0.097687  0.644364  0.514246  1
  H  H22  1  0.402313  0.144364  0.985754  1
  H  H23  1  0.902313  0.355636  0.485754  1
  H  H24  1  0.737799  0.762379  0.315086  1
  H  H25  1  0.237799  0.737621  0.815086  1
  H  H26  1  0.262201  0.237621  0.684914  1
  H  H27  1  0.762201  0.262379  0.184914  1
  H  H28  1  0.872326  0.824641  0.277140  1
  H  H29  1  0.372326  0.675359  0.777140  1
  H  H30  1  0.127674  0.175359  0.722860  1
  H  H31  1  0.627674  0.324641  0.222860  1
  H  H32  1  0.835789  0.614838  0.446392  1
  H  H33  1  0.335789  0.885162  0.946392  1
  H  H34  1  0.164211  0.385162  0.553608  1
  H  H35  1  0.664211  0.114838  0.053608  1
  H  H36  1  0.667933  0.562364  0.379976  1
  H  H37  1  0.167933  0.937636  0.879976  1
  H  H38  1  0.332067  0.437636  0.620024  1
  H  H39  1  0.832067  0.062364  0.120024  1
  H  H40  1  0.204569  0.853861  0.080566  1
  H  H41  1  0.704569  0.646139  0.580566  1
  H  H42  1  0.795431  0.146139  0.919434  1
  H  H43  1  0.295431  0.353861  0.419434  1
  H  H44  1  0.482692  0.514887  0.157726  1
  H  H45  1  0.982692  0.985113  0.657726  1
  H  H46  1  0.517308  0.485113  0.842274  1
  H  H47  1  0.017308  0.014887  0.342274  1
  O  O48  1  0.459313  0.783197  0.315122  1
  O  O49  1  0.959313  0.716803  0.815122  1
  O  O50  1  0.540687  0.216803  0.684878  1
  O  O51  1  0.040687  0.283197  0.184878  1
  O  O52  1  0.142626  0.612188  0.379273  1
  O  O53  1  0.642626  0.887812  0.879273  1
  O  O54  1  0.857374  0.387812  0.620727  1
  O  O55  1  0.357374  0.112188  0.120727  1
  O  O56  1  0.241358  0.590212  0.181738  1
  O  O57  1  0.741358  0.909788  0.681738  1
  O  O58  1  0.758642  0.409788  0.818262  1
  O  O59  1  0.258642  0.090212  0.318262  1
  O  O60  1  0.096331  0.805003  0.222474  1
  O  O61  1  0.596331  0.694997  0.722474  1
  O  O62  1  0.903669  0.194997  0.777526  1
  O  O63  1  0.403669  0.305003  0.277526  1
  O  O64  1  0.428860  0.689103  0.531719  1
  O  O65  1  0.928860  0.810897  0.031719  1
  O  O66  1  0.571140  0.310897  0.468281  1
  O  O67  1  0.071140  0.189103  0.968281  1
  O  O68  1  0.245825  0.890426  0.420221  1
  O  O69  1  0.745825  0.609574  0.920221  1
  O  O70  1  0.754175  0.109574  0.579779  1
  O  O71  1  0.254175  0.390426  0.079779  1
  O  O72  1  0.291567  0.595136  0.001187  1
  O  O73  1  0.791567  0.904864  0.501187  1
  O  O74  1  0.708433  0.404864  0.998813  1
  O  O75  1  0.208433  0.095136  0.498813  1
  O  O76  1  0.458189  0.512763  0.373431  1
  O  O77  1  0.958189  0.987237  0.873431  1
  O  O78  1  0.541811  0.487237  0.626569  1
  O  O79  1  0.041811  0.012763  0.126569  1
  O  O80  1  0.538072  0.835703  0.063856  1
  O  O81  1  0.038072  0.664297  0.563856  1
  O  O82  1  0.461928  0.164297  0.936144  1
  O  O83  1  0.961928  0.335703  0.436144  1
  O  O84  1  0.758448  0.827887  0.267403  1
  O  O85  1  0.258448  0.672113  0.767403  1
  O  O86  1  0.241552  0.172113  0.732597  1
  O  O87  1  0.741552  0.327887  0.232597  1
  O  O88  1  0.764852  0.604231  0.374359  1
  O  O89  1  0.264852  0.895769  0.874359  1
  O  O90  1  0.235148  0.395769  0.625641  1
  O  O91  1  0.735148  0.104231  0.125641  1
