# generated using pymatgen
data_La2(GeO3)3
_symmetry_space_group_name_H-M   'P 1'
_cell_length_a   7.80835820
_cell_length_b   8.90980046
_cell_length_c   8.97469012
_cell_angle_alpha   37.86657223
_cell_angle_beta   108.76746984
_cell_angle_gamma   107.93278312
_symmetry_Int_Tables_number   1
_chemical_formula_structural   La2(GeO3)3
_chemical_formula_sum   'La4 Ge6 O18'
_cell_volume   361.31642937
_cell_formula_units_Z   2
loop_
 _symmetry_equiv_pos_site_id
 _symmetry_equiv_pos_as_xyz
  1  'x, y, z'
loop_
 _atom_site_type_symbol
 _atom_site_label
 _atom_site_symmetry_multiplicity
 _atom_site_fract_x
 _atom_site_fract_y
 _atom_site_fract_z
 _atom_site_occupancy
  La  La0  1  0.800258  0.914359  0.866185  1
  La  La1  1  0.199742  0.085641  0.133815  1
  La  La2  1  0.819701  0.224874  0.192884  1
  La  La3  1  0.180299  0.775126  0.807116  1
  Ge  Ge4  1  0.488206  0.235997  0.762642  1
  Ge  Ge5  1  0.511794  0.764003  0.237358  1
  Ge  Ge6  1  0.926722  0.573907  0.572543  1
  Ge  Ge7  1  0.073278  0.426093  0.427457  1
  Ge  Ge8  1  0.518376  0.677375  0.662077  1
  Ge  Ge9  1  0.481624  0.322625  0.337923  1
  O  O10  1  0.005492  0.289838  0.709083  1
  O  O11  1  0.994508  0.710162  0.290917  1
  O  O12  1  0.676085  0.032970  0.011868  1
  O  O13  1  0.323915  0.967030  0.988132  1
  O  O14  1  0.672985  0.515098  0.531045  1
  O  O15  1  0.327015  0.484902  0.468955  1
  O  O16  1  0.486567  0.353387  0.870521  1
  O  O17  1  0.513433  0.646613  0.129479  1
  O  O18  1  0.323762  0.775958  0.610196  1
  O  O19  1  0.676238  0.224042  0.389804  1
  O  O20  1  0.988826  0.420926  0.879939  1
  O  O21  1  0.011174  0.579074  0.120061  1
  O  O22  1  0.534142  0.883093  0.349778  1
  O  O23  1  0.465858  0.116907  0.650222  1
  O  O24  1  0.027399  0.116599  0.578189  1
  O  O25  1  0.972601  0.883401  0.421811  1
  O  O26  1  0.722059  0.683598  0.812104  1
  O  O27  1  0.277941  0.316402  0.187896  1
