# generated using pymatgen
data_Li3MnV(PO4)3
_symmetry_space_group_name_H-M   'P 1'
_cell_length_a   9.86210451
_cell_length_b   9.86210504
_cell_length_c   9.77312357
_cell_angle_alpha   87.11581276
_cell_angle_beta   92.88418642
_cell_angle_gamma   95.62879081
_symmetry_Int_Tables_number   1
_chemical_formula_structural   Li3MnV(PO4)3
_chemical_formula_sum   'Li12 Mn4 V4 P12 O48'
_cell_volume   943.77794477
_cell_formula_units_Z   4
loop_
 _symmetry_equiv_pos_site_id
 _symmetry_equiv_pos_as_xyz
  1  'x, y, z'
loop_
 _atom_site_type_symbol
 _atom_site_label
 _atom_site_symmetry_multiplicity
 _atom_site_fract_x
 _atom_site_fract_y
 _atom_site_fract_z
 _atom_site_occupancy
  Li  Li0  1  0.011740  0.506887  0.241309  1
  Li  Li1  1  0.988436  0.254018  0.387545  1
  Li  Li2  1  0.215391  0.565001  0.466024  1
  Li  Li3  1  0.230699  0.733375  0.177701  1
  Li  Li4  1  0.254018  0.988436  0.612455  1
  Li  Li5  1  0.368570  0.747943  0.803151  1
  Li  Li6  1  0.506887  0.011740  0.758691  1
  Li  Li7  1  0.565001  0.215391  0.533976  1
  Li  Li8  1  0.701321  0.925314  0.975608  1
  Li  Li9  1  0.733375  0.230699  0.822299  1
  Li  Li10  1  0.747943  0.368570  0.196849  1
  Li  Li11  1  0.925314  0.701321  0.024392  1
  Mn  Mn12  1  0.243236  0.243236  1.000000  1
  Mn  Mn13  1  0.738865  0.974057  0.277697  1
  Mn  Mn14  1  0.756038  0.756038  0.500000  1
  Mn  Mn15  1  0.974057  0.738865  0.722303  1
  V  V16  1  0.026950  0.251390  0.780273  1
  V  V17  1  0.251390  0.026950  0.219727  1
  V  V18  1  0.469737  0.469737  1.000000  1
  V  V19  1  0.533320  0.533320  0.500000  1
  P  P20  1  0.054118  0.816056  0.406136  1
  P  P21  1  0.172314  0.946847  0.903892  1
  P  P22  1  0.159715  0.549512  0.927824  1
  P  P23  1  0.319484  0.340953  0.301430  1
  P  P24  1  0.340953  0.319484  0.698570  1
  P  P25  1  0.442804  0.837846  0.426244  1
  P  P26  1  0.549512  0.159715  0.072176  1
  P  P27  1  0.650271  0.685401  0.801179  1
  P  P28  1  0.685401  0.650271  0.198821  1
  P  P29  1  0.837846  0.442804  0.573756  1
  P  P30  1  0.816056  0.054118  0.593864  1
  P  P31  1  0.946847  0.172314  0.096108  1
  O  O32  1  0.031067  0.871008  0.869541  1
  O  O33  1  0.091827  0.822265  0.560862  1
  O  O34  1  0.126378  0.620442  0.790612  1
  O  O35  1  0.111448  0.953803  0.338237  1
  O  O36  1  0.104945  0.692274  0.340635  1
  O  O37  1  0.119319  0.393442  0.921636  1
  O  O38  1  0.100208  0.604442  0.054115  1
  O  O39  1  0.106878  0.159208  0.124576  1
  O  O40  1  0.159208  0.106878  0.875424  1
  O  O41  1  0.184738  0.312111  0.672397  1
  O  O42  1  0.204110  0.911833  0.058161  1
  O  O43  1  0.193569  0.402730  0.348708  1
  O  O44  1  0.286269  0.914912  0.813676  1
  O  O45  1  0.323348  0.577874  0.944482  1
  O  O46  1  0.312111  0.184738  0.327603  1
  O  O47  1  0.328734  0.375336  0.138065  1
  O  O48  1  0.368566  0.878517  0.288847  1
  O  O49  1  0.403002  0.906777  0.552327  1
  O  O50  1  0.375336  0.328734  0.861935  1
  O  O51  1  0.396811  0.457160  0.632744  1
  O  O52  1  0.408588  0.677455  0.443374  1
  O  O53  1  0.402730  0.193569  0.651292  1
  O  O54  1  0.393442  0.119319  0.078364  1
  O  O55  1  0.457160  0.396811  0.367256  1
  O  O56  1  0.574506  0.805110  0.840803  1
  O  O57  1  0.546467  0.583300  0.138638  1
  O  O58  1  0.583300  0.546467  0.861362  1
  O  O59  1  0.600048  0.874013  0.410163  1
  O  O60  1  0.627672  0.671078  0.639901  1
  O  O61  1  0.604442  0.100208  0.945885  1
  O  O62  1  0.577874  0.323348  0.055518  1
  O  O63  1  0.620442  0.126378  0.209388  1
  O  O64  1  0.671078  0.627672  0.360099  1
  O  O65  1  0.698332  0.801846  0.151494  1
  O  O66  1  0.677455  0.408588  0.556626  1
  O  O67  1  0.692274  0.104945  0.659365  1
  O  O68  1  0.801846  0.698332  0.848506  1
  O  O69  1  0.816529  0.894896  0.624680  1
  O  O70  1  0.805110  0.574506  0.159197  1
  O  O71  1  0.822265  0.091827  0.439138  1
  O  O72  1  0.874013  0.600048  0.589837  1
  O  O73  1  0.894896  0.816529  0.375320  1
  O  O74  1  0.878517  0.368566  0.711153  1
  O  O75  1  0.911833  0.204110  0.941839  1
  O  O76  1  0.906777  0.403002  0.447673  1
  O  O77  1  0.871008  0.031067  0.130459  1
  O  O78  1  0.914912  0.286269  0.186324  1
  O  O79  1  0.953803  0.111448  0.661763  1
