# generated using pymatgen
data_Na2Ti3Cr(PO4)6
_symmetry_space_group_name_H-M   'P 1'
_cell_length_a   8.91152990
_cell_length_b   8.91152990
_cell_length_c   8.91152979
_cell_angle_alpha   57.09796516
_cell_angle_beta   57.09796517
_cell_angle_gamma   57.09796734
_symmetry_Int_Tables_number   1
_chemical_formula_structural   Na2Ti3Cr(PO4)6
_chemical_formula_sum   'Na2 Ti3 Cr1 P6 O24'
_cell_volume   466.95875342
_cell_formula_units_Z   1
loop_
 _symmetry_equiv_pos_site_id
 _symmetry_equiv_pos_as_xyz
  1  'x, y, z'
loop_
 _atom_site_type_symbol
 _atom_site_label
 _atom_site_symmetry_multiplicity
 _atom_site_fract_x
 _atom_site_fract_y
 _atom_site_fract_z
 _atom_site_occupancy
  Na  Na0  1  0.001264  0.001264  0.001264  1
  Na  Na1  1  0.500170  0.500170  0.500170  1
  Ti  Ti2  1  0.352870  0.352870  0.352870  1
  Ti  Ti3  1  0.647003  0.647003  0.647003  1
  Ti  Ti4  1  0.856016  0.856016  0.856016  1
  Cr  Cr5  1  0.144257  0.144257  0.144257  1
  P  P6  1  0.034615  0.753769  0.461794  1
  P  P7  1  0.536747  0.964640  0.248978  1
  P  P8  1  0.248978  0.536747  0.964640  1
  P  P9  1  0.753769  0.461794  0.034615  1
  P  P10  1  0.461794  0.034615  0.753769  1
  P  P11  1  0.964640  0.248978  0.536747  1
  O  O12  1  -0.000407  0.801635  0.622740  1
  O  O13  1  0.090839  0.905023  0.263517  1
  O  O14  1  0.095883  0.733758  0.906829  1
  O  O15  1  0.488591  0.850711  0.748245  1
  O  O16  1  0.201165  0.559756  0.463582  1
  O  O17  1  0.533080  0.800478  0.445155  1
  O  O18  1  0.253840  0.511537  0.148588  1
  O  O19  1  0.991509  0.202124  0.379700  1
  O  O20  1  0.202124  0.379700  0.991509  1
  O  O21  1  0.733758  0.906829  0.095883  1
  O  O22  1  0.148588  0.253840  0.511537  1
  O  O23  1  0.445155  0.533080  0.800478  1
  O  O24  1  0.559756  0.463582  0.201165  1
  O  O25  1  0.850711  0.748245  0.488591  1
  O  O26  1  0.263517  0.090839  0.905023  1
  O  O27  1  0.801635  0.622740  -0.000407  1
  O  O28  1  0.748245  0.488591  0.850711  1
  O  O29  1  0.463582  0.201165  0.559756  1
  O  O30  1  0.800478  0.445155  0.533080  1
  O  O31  1  0.511537  0.148588  0.253840  1
  O  O32  1  0.379700  0.991509  0.202124  1
  O  O33  1  0.622740  -0.000407  0.801635  1
  O  O34  1  0.905023  0.263517  0.090839  1
  O  O35  1  0.906829  0.095883  0.733758  1
