# generated using pymatgen
data_Mn4O7F
_symmetry_space_group_name_H-M   'P 1'
_cell_length_a   6.96997066
_cell_length_b   7.12298046
_cell_length_c   6.65657778
_cell_angle_alpha   64.70086417
_cell_angle_beta   65.57761509
_cell_angle_gamma   101.87119496
_symmetry_Int_Tables_number   1
_chemical_formula_structural   Mn4O7F
_chemical_formula_sum   'Mn8 O14 F2'
_cell_volume   240.91333645
_cell_formula_units_Z   2
loop_
 _symmetry_equiv_pos_site_id
 _symmetry_equiv_pos_as_xyz
  1  'x, y, z'
loop_
 _atom_site_type_symbol
 _atom_site_label
 _atom_site_symmetry_multiplicity
 _atom_site_fract_x
 _atom_site_fract_y
 _atom_site_fract_z
 _atom_site_occupancy
  Mn  Mn0  1  0.299539  0.448633  0.250376  1
  Mn  Mn1  1  0.196883  0.050417  0.751763  1
  Mn  Mn2  1  0.193272  0.552149  0.770182  1
  Mn  Mn3  1  0.299923  0.949031  0.249655  1
  Mn  Mn4  1  0.698621  0.052166  0.748236  1
  Mn  Mn5  1  0.794951  0.445521  0.256595  1
  Mn  Mn6  1  0.801540  0.952105  0.243438  1
  Mn  Mn7  1  0.713506  0.572381  0.729772  1
  O  O8  1  0.632239  0.015857  0.078773  1
  O  O9  1  0.129852  0.523516  0.083106  1
  O  O10  1  0.037727  0.144677  0.576187  1
  O  O11  1  0.101821  0.210712  0.925129  1
  O  O12  1  0.460988  0.344620  0.421246  1
  O  O13  1  0.727124  0.119685  0.419897  1
  O  O14  1  0.268344  0.878403  0.585667  1
  O  O15  1  0.776878  0.385803  0.574919  1
  O  O16  1  0.896997  0.789591  0.080056  1
  O  O17  1  0.538960  0.651394  0.575326  1
  O  O18  1  0.603981  0.714054  0.914351  1
  O  O19  1  0.962979  0.856596  0.416852  1
  O  O20  1  0.864277  0.476706  0.924661  1
  O  O21  1  0.363861  0.970797  0.923908  1
  F  F22  1  0.420351  0.300077  0.044961  1
  F  F23  1  0.215384  0.595112  0.454945  1
