# generated using pymatgen
data_Li6Mn5Fe(BO3)6
_symmetry_space_group_name_H-M   'P 1'
_cell_length_a   8.28061964
_cell_length_b   8.27603271
_cell_length_c   12.72996876
_cell_angle_alpha   90.06702626
_cell_angle_beta   90.10156024
_cell_angle_gamma   120.04178820
_symmetry_Int_Tables_number   1
_chemical_formula_structural   Li6Mn5Fe(BO3)6
_chemical_formula_sum   'Li12 Mn10 Fe2 B12 O36'
_cell_volume   755.19319272
_cell_formula_units_Z   2
loop_
 _symmetry_equiv_pos_site_id
 _symmetry_equiv_pos_as_xyz
  1  'x, y, z'
loop_
 _atom_site_type_symbol
 _atom_site_label
 _atom_site_symmetry_multiplicity
 _atom_site_fract_x
 _atom_site_fract_y
 _atom_site_fract_z
 _atom_site_occupancy
  Li  Li0  1  0.283907  0.982504  0.125026  1
  Li  Li1  1  0.284078  0.982399  0.875108  1
  Li  Li2  1  0.283910  0.982295  0.624760  1
  Li  Li3  1  0.283771  0.982324  0.375195  1
  Li  Li4  1  0.017160  0.301223  0.125000  1
  Li  Li5  1  0.016658  0.301353  0.375171  1
  Li  Li6  1  0.016828  0.301622  0.625102  1
  Li  Li7  1  0.017194  0.300849  0.874839  1
  Li  Li8  1  0.698330  0.715921  0.374821  1
  Li  Li9  1  0.698126  0.715271  0.625119  1
  Li  Li10  1  0.698788  0.716119  0.124968  1
  Li  Li11  1  0.698616  0.715414  0.874823  1
  Mn  Mn12  1  0.371099  0.359282  0.000020  1
  Mn  Mn13  1  0.372154  0.360122  0.499911  1
  Mn  Mn14  1  0.371198  0.359307  0.249963  1
  Mn  Mn15  1  0.372174  0.360213  0.749819  1
  Mn  Mn16  1  0.640451  0.011565  0.999958  1
  Mn  Mn17  1  0.640807  0.011885  0.251336  1
  Mn  Mn18  1  0.640147  0.012030  0.748659  1
  Mn  Mn19  1  0.987951  0.627535  0.501196  1
  Mn  Mn20  1  0.987855  0.628885  0.998780  1
  Mn  Mn21  1  0.988293  0.628762  0.249953  1
  Fe  Fe22  1  0.640576  0.007106  0.500202  1
  Fe  Fe23  1  0.991969  0.632031  0.751006  1
  B  B24  1  0.000047  0.000149  0.999875  1
  B  B25  1  0.000120  0.999943  0.250034  1
  B  B26  1  -0.000096  0.002416  0.500071  1
  B  B27  1  0.998184  0.997676  0.749916  1
  B  B28  1  0.332385  0.666722  0.873731  1
  B  B29  1  0.333267  0.666721  0.124964  1
  B  B30  1  0.334069  0.667337  0.376175  1
  B  B31  1  0.333420  0.667733  0.624930  1
  B  B32  1  0.666813  0.333360  0.124986  1
  B  B33  1  0.666509  0.332062  0.375847  1
  B  B34  1  0.668067  0.333402  0.625190  1
  B  B35  1  0.667940  0.334160  0.874194  1
  O  O36  1  0.115289  0.921675  0.250010  1
  O  O37  1  0.115268  0.921956  0.999773  1
  O  O38  1  0.111459  0.920599  0.500034  1
  O  O39  1  0.111635  0.917019  0.749142  1
  O  O40  1  0.138503  0.580715  0.872131  1
  O  O41  1  0.139811  0.580614  0.124515  1
  O  O42  1  0.140667  0.581680  0.375549  1
  O  O43  1  0.140241  0.582607  0.627350  1
  O  O44  1  0.078384  0.193737  0.999905  1
  O  O45  1  0.079922  0.195747  0.500081  1
  O  O46  1  0.079521  0.191312  0.749901  1
  O  O47  1  0.078391  0.193505  0.250076  1
  O  O48  1  0.440067  0.860026  0.874444  1
  O  O49  1  0.441643  0.861230  0.622345  1
  O  O50  1  0.440772  0.860226  0.125343  1
  O  O51  1  0.442001  0.860928  0.377434  1
  O  O52  1  0.417873  0.559004  0.875039  1
  O  O53  1  0.419310  0.559377  0.125005  1
  O  O54  1  0.418586  0.559598  0.625222  1
  O  O55  1  0.419647  0.559641  0.375008  1
  O  O56  1  0.473188  0.251074  0.125016  1
  O  O57  1  0.474244  0.252170  0.624800  1
  O  O58  1  0.472911  0.250782  0.375314  1
  O  O59  1  0.474202  0.252192  0.874893  1
  O  O60  1  0.806567  0.884859  0.999942  1
  O  O61  1  0.806635  0.884708  0.250157  1
  O  O62  1  0.805367  0.889402  0.500128  1
  O  O63  1  0.804784  0.884116  0.749982  1
  O  O64  1  0.778154  0.527077  0.124769  1
  O  O65  1  0.778188  0.526033  0.375187  1
  O  O66  1  0.780377  0.527337  0.626731  1
  O  O67  1  0.780191  0.527636  0.873534  1
  O  O68  1  0.747574  0.219887  0.376692  1
  O  O69  1  0.748864  0.221915  0.125198  1
  O  O70  1  0.747978  0.220137  0.624047  1
  O  O71  1  0.749025  0.221785  0.874659  1
