# generated using pymatgen
data_Mn2OF3
_symmetry_space_group_name_H-M   'P 1'
_cell_length_a   5.81530476
_cell_length_b   10.22330424
_cell_length_c   5.81168104
_cell_angle_alpha   82.18627646
_cell_angle_beta   65.88759210
_cell_angle_gamma   101.46410202
_symmetry_Int_Tables_number   1
_chemical_formula_structural   Mn2OF3
_chemical_formula_sum   'Mn8 O4 F12'
_cell_volume   299.82976359
_cell_formula_units_Z   4
loop_
 _symmetry_equiv_pos_site_id
 _symmetry_equiv_pos_as_xyz
  1  'x, y, z'
loop_
 _atom_site_type_symbol
 _atom_site_label
 _atom_site_symmetry_multiplicity
 _atom_site_fract_x
 _atom_site_fract_y
 _atom_site_fract_z
 _atom_site_occupancy
  Mn  Mn0  1  0.968396  0.982510  0.985371  1
  Mn  Mn1  1  0.129343  0.249815  0.370751  1
  Mn  Mn2  1  0.371011  0.751149  0.127087  1
  Mn  Mn3  1  0.531152  0.018743  0.510949  1
  Mn  Mn4  1  0.749021  0.499939  0.251571  1
  Mn  Mn5  1  0.247898  0.500683  0.750327  1
  Mn  Mn6  1  0.618300  0.249528  0.880710  1
  Mn  Mn7  1  0.880586  0.750723  0.616831  1
  O  O8  1  0.504090  0.338195  0.167758  1
  O  O9  1  0.996015  0.661199  0.331375  1
  O  O10  1  0.751604  0.164768  0.586398  1
  O  O11  1  0.749224  0.836393  0.909691  1
  F  F12  1  0.046353  0.397636  0.152061  1
  F  F13  1  0.203530  0.141743  0.070251  1
  F  F14  1  0.025414  0.352207  0.672644  1
  F  F15  1  0.291918  0.857784  0.431446  1
  F  F16  1  0.453807  0.603599  0.348750  1
  F  F17  1  0.692755  0.100834  0.101692  1
  F  F18  1  0.203251  0.101930  0.597043  1
  F  F19  1  0.546054  0.396096  0.652583  1
  F  F20  1  0.803141  0.898647  0.393860  1
  F  F21  1  0.297719  0.901035  0.901449  1
  F  F22  1  0.474703  0.648303  0.825895  1
  F  F23  1  0.948911  0.603421  0.850542  1
