# generated using pymatgen
data_Sr(IO3)2
_symmetry_space_group_name_H-M   'P 1'
_cell_length_a   6.19671052
_cell_length_b   5.44760812
_cell_length_c   10.60791313
_cell_angle_alpha   90.00000000
_cell_angle_beta   90.56266230
_cell_angle_gamma   90.00000000
_symmetry_Int_Tables_number   1
_chemical_formula_structural   Sr(IO3)2
_chemical_formula_sum   'Sr2 I4 O12'
_cell_volume   358.07671455
_cell_formula_units_Z   2
loop_
 _symmetry_equiv_pos_site_id
 _symmetry_equiv_pos_as_xyz
  1  'x, y, z'
loop_
 _atom_site_type_symbol
 _atom_site_label
 _atom_site_symmetry_multiplicity
 _atom_site_fract_x
 _atom_site_fract_y
 _atom_site_fract_z
 _atom_site_occupancy
  Sr  Sr0  1  0.224404  0.403273  0.742096  1
  Sr  Sr1  1  0.775596  0.903273  0.257904  1
  I  I2  1  0.275234  0.505531  0.395318  1
  I  I3  1  0.270079  0.013604  0.072730  1
  I  I4  1  0.729921  0.513604  0.927270  1
  I  I5  1  0.724766  0.005531  0.604682  1
  O  O6  1  0.015003  0.161792  0.114376  1
  O  O7  1  0.132673  0.688216  0.275985  1
  O  O8  1  0.147318  0.616468  0.538959  1
  O  O9  1  0.353601  0.193979  0.936011  1
  O  O10  1  0.463944  0.161400  0.595656  1
  O  O11  1  0.551894  0.646485  0.806653  1
  O  O12  1  0.448106  0.146485  0.193347  1
  O  O13  1  0.536056  0.661400  0.404344  1
  O  O14  1  0.646399  0.693979  0.063989  1
  O  O15  1  0.852682  0.116468  0.461041  1
  O  O16  1  0.867327  0.188216  0.724015  1
  O  O17  1  0.984997  0.661792  0.885624  1
