# generated using pymatgen
data_Li4Ti3V2Co3O16
_symmetry_space_group_name_H-M   'P 1'
_cell_length_a   5.91325061
_cell_length_b   5.91291648
_cell_length_c   9.63186684
_cell_angle_alpha   90.36661357
_cell_angle_beta   90.21299420
_cell_angle_gamma   119.78290626
_symmetry_Int_Tables_number   1
_chemical_formula_structural   Li4Ti3V2Co3O16
_chemical_formula_sum   'Li4 Ti3 V2 Co3 O16'
_cell_volume   292.27551572
_cell_formula_units_Z   1
loop_
 _symmetry_equiv_pos_site_id
 _symmetry_equiv_pos_as_xyz
  1  'x, y, z'
loop_
 _atom_site_type_symbol
 _atom_site_label
 _atom_site_symmetry_multiplicity
 _atom_site_fract_x
 _atom_site_fract_y
 _atom_site_fract_z
 _atom_site_occupancy
  Li  Li0  1  0.338160  0.671816  0.904338  1
  Li  Li1  1  0.988761  0.992581  0.986126  1
  Li  Li2  1  0.001172  0.004151  0.494061  1
  Li  Li3  1  0.667939  0.325844  0.403506  1
  Ti  Ti4  1  0.181720  0.831039  0.223517  1
  Ti  Ti5  1  0.200540  0.345204  0.220665  1
  Ti  Ti6  1  0.365399  0.186366  0.736146  1
  V  V7  1  0.336392  0.668556  0.501240  1
  V  V8  1  0.706956  0.349874  0.988559  1
  Co  Co9  1  0.653953  0.825098  0.206721  1
  Co  Co10  1  0.831540  0.662113  0.707212  1
  Co  Co11  1  0.829183  0.175040  0.709297  1
  O  O12  1  0.181030  0.826888  0.584688  1
  O  O13  1  0.034740  0.516479  0.333752  1
  O  O14  1  0.319506  0.656790  0.105988  1
  O  O15  1  0.991845  0.997267  0.300994  1
  O  O16  1  0.013024  0.010864  0.794008  1
  O  O17  1  0.183480  0.360395  0.584704  1
  O  O18  1  0.465913  0.954241  0.342505  1
  O  O19  1  0.468541  0.503676  0.345802  1
  O  O20  1  0.328083  0.162847  0.102278  1
  O  O21  1  0.649030  0.828182  0.580483  1
  O  O22  1  0.509686  0.478577  0.849677  1
  O  O23  1  0.504745  0.039783  0.856637  1
  O  O24  1  0.646667  0.322897  0.606260  1
  O  O25  1  0.821662  0.649039  0.090837  1
  O  O26  1  0.955541  0.477762  0.859119  1
  O  O27  1  0.824792  0.176932  0.088721  1
