# generated using pymatgen
data_Mg16Si8HO32
_symmetry_space_group_name_H-M   'P 1'
_cell_length_a   8.21003506
_cell_length_b   8.23272223
_cell_length_c   8.21056333
_cell_angle_alpha   89.56546999
_cell_angle_beta   90.11013165
_cell_angle_gamma   90.14453695
_symmetry_Int_Tables_number   1
_chemical_formula_structural   Mg16Si8HO32
_chemical_formula_sum   'Mg16 Si8 H1 O32'
_cell_volume   554.94094723
_cell_formula_units_Z   1
loop_
 _symmetry_equiv_pos_site_id
 _symmetry_equiv_pos_as_xyz
  1  'x, y, z'
loop_
 _atom_site_type_symbol
 _atom_site_label
 _atom_site_symmetry_multiplicity
 _atom_site_fract_x
 _atom_site_fract_y
 _atom_site_fract_z
 _atom_site_occupancy
  Mg  Mg0  1  0.633916  0.623027  0.622207  1
  Mg  Mg1  1  0.375490  0.876260  0.127116  1
  Mg  Mg2  1  0.874839  0.125006  0.374669  1
  Mg  Mg3  1  0.121994  0.373218  0.874344  1
  Mg  Mg4  1  0.625653  0.124170  0.125264  1
  Mg  Mg5  1  0.379885  0.349067  0.608699  1
  Mg  Mg6  1  0.874059  0.625387  0.876241  1
  Mg  Mg7  1  0.123908  0.875651  0.373063  1
  Mg  Mg8  1  0.123380  0.625221  0.126336  1
  Mg  Mg9  1  0.872698  0.876307  0.624148  1
  Mg  Mg10  1  0.374837  0.126254  0.876799  1
  Mg  Mg11  1  0.628343  0.375835  0.373123  1
  Mg  Mg12  1  0.121036  0.126947  0.624757  1
  Mg  Mg13  1  0.875717  0.374851  0.125166  1
  Mg  Mg14  1  0.375944  0.621408  0.368490  1
  Mg  Mg15  1  0.626266  0.876080  0.875548  1
  Si  Si16  1  0.999150  0.000426  0.000728  1
  Si  Si17  1  0.750413  0.249926  0.750091  1
  Si  Si18  1  0.002037  0.500062  0.500372  1
  Si  Si19  1  0.750255  0.750269  0.249913  1
  Si  Si20  1  0.500732  0.995602  0.499472  1
  Si  Si21  1  0.249395  0.249431  0.248082  1
  Si  Si22  1  0.502746  0.502515  0.002058  1
  Si  Si23  1  0.236926  0.767139  0.761041  1
  H  H24  1  0.366890  0.548353  0.748205  1
  O  O25  1  0.370112  0.368406  0.365867  1
  O  O26  1  0.629733  0.132241  0.868626  1
  O  O27  1  0.128067  0.873564  0.629612  1
  O  O28  1  0.867897  0.631004  0.131895  1
  O  O29  1  0.122205  0.619574  0.382756  1
  O  O30  1  0.881769  0.881450  0.880909  1
  O  O31  1  0.618469  0.380536  0.118063  1
  O  O32  1  0.380255  0.110311  0.619368  1
  O  O33  1  0.368053  0.873908  0.872013  1
  O  O34  1  0.630146  0.630646  0.369355  1
  O  O35  1  0.131722  0.369636  0.129555  1
  O  O36  1  0.867901  0.131804  0.631252  1
  O  O37  1  0.119238  0.118689  0.880810  1
  O  O38  1  0.882752  0.381644  0.381836  1
  O  O39  1  0.618054  0.876988  0.619676  1
  O  O40  1  0.381066  0.619083  0.117100  1
  O  O41  1  0.868549  0.369377  0.868445  1
  O  O42  1  0.131855  0.131498  0.368899  1
  O  O43  1  0.630615  0.868741  0.131218  1
  O  O44  1  0.362862  0.629292  0.652601  1
  O  O45  1  0.618586  0.620189  0.879339  1
  O  O46  1  0.380580  0.875593  0.383796  1
  O  O47  1  0.123523  0.381587  0.618960  1
  O  O48  1  0.881199  0.118987  0.118779  1
  O  O49  1  0.868436  0.868672  0.368943  1
  O  O50  1  0.128479  0.634343  0.871563  1
  O  O51  1  0.630421  0.368914  0.629868  1
  O  O52  1  0.369033  0.132540  0.130240  1
  O  O53  1  0.617603  0.118045  0.381975  1
  O  O54  1  0.380985  0.392342  0.871747  1
  O  O55  1  0.119201  0.881158  0.118611  1
  O  O56  1  0.884396  0.618695  0.619191  1
