# generated using pymatgen
data_LiFeF3
_symmetry_space_group_name_H-M   'P 1'
_cell_length_a   5.21001033
_cell_length_b   5.23563124
_cell_length_c   7.66011687
_cell_angle_alpha   89.98194006
_cell_angle_beta   89.86488992
_cell_angle_gamma   59.76844011
_symmetry_Int_Tables_number   1
_chemical_formula_structural   LiFeF3
_chemical_formula_sum   'Li3 Fe3 F9'
_cell_volume   180.53197614
_cell_formula_units_Z   3
loop_
 _symmetry_equiv_pos_site_id
 _symmetry_equiv_pos_as_xyz
  1  'x, y, z'
loop_
 _atom_site_type_symbol
 _atom_site_label
 _atom_site_symmetry_multiplicity
 _atom_site_fract_x
 _atom_site_fract_y
 _atom_site_fract_z
 _atom_site_occupancy
  Li  Li0  1  0.001487  0.006957  0.661428  1
  Li  Li1  1  0.996917  0.995646  0.344030  1
  Li  Li2  1  0.331221  0.329859  0.260554  1
  Fe  Fe3  1  0.667488  0.662268  0.346174  1
  Fe  Fe4  1  0.001608  0.998705  0.994416  1
  Fe  Fe5  1  0.336989  0.333726  0.674128  1
  F  F6  1  0.665115  0.016241  0.486130  1
  F  F7  1  0.986689  0.695736  0.189425  1
  F  F8  1  0.319098  0.979123  0.192798  1
  F  F9  1  0.315834  0.657424  0.489178  1
  F  F10  1  0.038528  0.693510  0.815411  1
  F  F11  1  0.695256  0.309274  0.190748  1
  F  F12  1  0.688541  0.277470  0.818380  1
  F  F13  1  0.012415  0.320031  0.485655  1
  F  F14  1  0.279408  0.044446  0.818463  1
