# generated using pymatgen
data_HS2IO8
_symmetry_space_group_name_H-M   'P 1'
_cell_length_a   11.95346950
_cell_length_b   6.36838035
_cell_length_c   9.77857342
_cell_angle_alpha   90.00000000
_cell_angle_beta   106.67379900
_cell_angle_gamma   90.00000000
_symmetry_Int_Tables_number   1
_chemical_formula_structural   HS2IO8
_chemical_formula_sum   'H4 S8 I4 O32'
_cell_volume   713.08785196
_cell_formula_units_Z   4
loop_
 _symmetry_equiv_pos_site_id
 _symmetry_equiv_pos_as_xyz
  1  'x, y, z'
loop_
 _atom_site_type_symbol
 _atom_site_label
 _atom_site_symmetry_multiplicity
 _atom_site_fract_x
 _atom_site_fract_y
 _atom_site_fract_z
 _atom_site_occupancy
  H  H0  1  0.407163  0.804137  0.677081  1
  H  H1  1  0.407163  0.695863  0.177081  1
  H  H2  1  0.592837  0.304137  0.822919  1
  H  H3  1  0.592837  0.195863  0.322919  1
  S  S4  1  0.107710  0.891216  0.680081  1
  S  S5  1  0.107710  0.608784  0.180081  1
  S  S6  1  0.384577  0.474206  0.626578  1
  S  S7  1  0.384577  0.025794  0.126578  1
  S  S8  1  0.615423  0.974206  0.873422  1
  S  S9  1  0.615423  0.525794  0.373422  1
  S  S10  1  0.892290  0.391216  0.819919  1
  S  S11  1  0.892290  0.108784  0.319919  1
  I  I12  1  0.164216  0.410915  0.742772  1
  I  I13  1  0.164216  0.089085  0.242772  1
  I  I14  1  0.835784  0.910915  0.757228  1
  I  I15  1  0.835784  0.589085  0.257228  1
  O  O16  1  0.028930  0.989559  0.757116  1
  O  O17  1  0.052008  0.787156  0.547925  1
  O  O18  1  0.028930  0.510441  0.257116  1
  O  O19  1  0.180357  0.719406  0.793257  1
  O  O20  1  0.052008  0.712844  0.047925  1
  O  O21  1  0.196558  0.051488  0.675322  1
  O  O22  1  0.180357  0.780594  0.293257  1
  O  O23  1  0.196558  0.448512  0.175322  1
  O  O24  1  0.338497  0.423518  0.762113  1
  O  O25  1  0.317702  0.363256  0.503821  1
  O  O26  1  0.358466  0.713085  0.597454  1
  O  O27  1  0.338497  0.076482  0.262113  1
  O  O28  1  0.490601  0.940792  0.818372  1
  O  O29  1  0.317702  0.136744  0.003821  1
  O  O30  1  0.358466  0.786915  0.097454  1
  O  O31  1  0.509399  0.440792  0.681628  1
  O  O32  1  0.490601  0.559208  0.318372  1
  O  O33  1  0.641534  0.213085  0.902546  1
  O  O34  1  0.682298  0.863256  0.996179  1
  O  O35  1  0.509399  0.059208  0.181628  1
  O  O36  1  0.661503  0.923518  0.737887  1
  O  O37  1  0.641534  0.286915  0.402546  1
  O  O38  1  0.682298  0.636744  0.496179  1
  O  O39  1  0.661503  0.576482  0.237887  1
  O  O40  1  0.803442  0.551488  0.824678  1
  O  O41  1  0.819643  0.219406  0.706743  1
  O  O42  1  0.803442  0.948512  0.324678  1
  O  O43  1  0.947992  0.287156  0.952075  1
  O  O44  1  0.819643  0.280594  0.206743  1
  O  O45  1  0.971070  0.489559  0.742884  1
  O  O46  1  0.947992  0.212844  0.452075  1
  O  O47  1  0.971070  0.010441  0.242884  1
