# generated using pymatgen
data_CaH12(IO6)2
_symmetry_space_group_name_H-M   'P 1'
_cell_length_a   12.00941785
_cell_length_b   8.17091585
_cell_length_c   6.37582311
_cell_angle_alpha   66.99529662
_cell_angle_beta   74.49518578
_cell_angle_gamma   83.94599161
_symmetry_Int_Tables_number   1
_chemical_formula_structural   CaH12(IO6)2
_chemical_formula_sum   'Ca2 H24 I4 O24'
_cell_volume   554.93232349
_cell_formula_units_Z   2
loop_
 _symmetry_equiv_pos_site_id
 _symmetry_equiv_pos_as_xyz
  1  'x, y, z'
loop_
 _atom_site_type_symbol
 _atom_site_label
 _atom_site_symmetry_multiplicity
 _atom_site_fract_x
 _atom_site_fract_y
 _atom_site_fract_z
 _atom_site_occupancy
  Ca  Ca0  1  0.499243  0.498191  0.067310  1
  Ca  Ca1  1  0.000167  0.000538  0.815134  1
  H  H2  1  0.759683  0.951824  0.168502  1
  H  H3  1  0.442808  0.897311  0.908968  1
  H  H4  1  0.081015  0.868672  0.272237  1
  H  H5  1  0.446162  0.847813  0.691807  1
  H  H6  1  0.799019  0.766767  0.149505  1
  H  H7  1  0.975212  0.752731  0.328603  1
  H  H8  1  0.474323  0.748723  0.325836  1
  H  H9  1  0.300652  0.736880  0.166330  1
  H  H10  1  0.949165  0.649946  0.789916  1
  H  H11  1  0.581575  0.638822  0.390309  1
  H  H12  1  0.942368  0.602996  0.055660  1
  H  H13  1  0.260035  0.552484  0.372163  1
  H  H14  1  0.738050  0.447112  0.184332  1
  H  H15  1  0.057735  0.397123  0.595076  1
  H  H16  1  0.416552  0.364600  0.607498  1
  H  H17  1  0.054943  0.343519  0.387635  1
  H  H18  1  0.699678  0.261594  0.203347  1
  H  H19  1  0.522564  0.250703  0.556576  1
  H  H20  1  0.025247  0.246146  0.053410  1
  H  H21  1  0.200661  0.232351  0.714605  1
  H  H22  1  0.555802  0.151024  0.984153  1
  H  H23  1  0.918769  0.131042  0.225092  1
  H  H24  1  0.555014  0.098286  0.249029  1
  H  H25  1  0.241613  0.049530  0.882911  1
  I  I26  1  0.719474  0.967416  0.657156  1
  I  I27  1  0.220123  0.529562  0.877130  1
  I  I28  1  0.778850  0.469786  0.626792  1
  I  I29  1  0.280585  0.031087  0.345765  1
  O  O30  1  0.312206  0.969033  0.086323  1
  O  O31  1  0.131421  0.951379  0.467976  1
  O  O32  1  0.803285  0.896856  0.054203  1
  O  O33  1  0.354329  0.839586  0.524264  1
  O  O34  1  0.488020  0.829830  0.815785  1
  O  O35  1  0.043755  0.807970  0.201490  1
  O  O36  1  0.544120  0.692875  0.258206  1
  O  O37  1  0.989583  0.669664  0.895803  1
  O  O38  1  0.855209  0.657201  0.617179  1
  O  O39  1  0.303762  0.606295  0.202761  1
  O  O40  1  0.630828  0.554456  0.670533  1
  O  O41  1  0.808145  0.534224  0.305245  1
  O  O42  1  0.188844  0.467529  0.649469  1
  O  O43  1  0.368452  0.446021  0.854969  1
  O  O44  1  0.695926  0.391842  0.111935  1
  O  O45  1  0.145516  0.338974  0.130245  1
  O  O46  1  0.012219  0.326827  0.552684  1
  O  O47  1  0.455476  0.308205  0.494494  1
  O  O48  1  0.956624  0.188686  0.055146  1
  O  O49  1  0.511654  0.168398  0.131023  1
  O  O50  1  0.645020  0.158324  0.719402  1
  O  O51  1  0.197299  0.101783  0.757724  1
  O  O52  1  0.867984  0.050453  0.548946  1
  O  O53  1  0.686960  0.028774  0.368473  1
