# generated using pymatgen
data_Li5VO4F
_symmetry_space_group_name_H-M   'P 1'
_cell_length_a   5.35557956
_cell_length_b   5.35557956
_cell_length_c   9.60579602
_cell_angle_alpha   77.17777188
_cell_angle_beta   102.82222812
_cell_angle_gamma   65.47635589
_symmetry_Int_Tables_number   1
_chemical_formula_structural   Li5VO4F
_chemical_formula_sum   'Li10 V2 O8 F2'
_cell_volume   228.58329219
_cell_formula_units_Z   2
loop_
 _symmetry_equiv_pos_site_id
 _symmetry_equiv_pos_as_xyz
  1  'x, y, z'
loop_
 _atom_site_type_symbol
 _atom_site_label
 _atom_site_symmetry_multiplicity
 _atom_site_fract_x
 _atom_site_fract_y
 _atom_site_fract_z
 _atom_site_occupancy
  Li  Li0  1  0.271089  0.903964  0.561894  1
  Li  Li1  1  0.501641  0.762592  0.945308  1
  Li  Li2  1  0.424384  0.414113  0.747249  1
  Li  Li3  1  0.096036  0.728911  0.061894  1
  Li  Li4  1  0.237408  0.498359  0.445308  1
  Li  Li5  1  0.758796  0.505265  0.556684  1
  Li  Li6  1  0.902902  0.284358  0.933962  1
  Li  Li7  1  0.585887  0.575616  0.247249  1
  Li  Li8  1  0.494735  0.241204  0.056684  1
  Li  Li9  1  0.715642  0.097098  0.433962  1
  V  V10  1  0.865754  0.818813  0.729898  1
  V  V11  1  0.181187  0.134246  0.229898  1
  O  O12  1  0.199456  0.620924  0.893433  1
  O  O13  1  0.021476  0.700765  0.583394  1
  O  O14  1  0.379076  0.800544  0.393433  1
  O  O15  1  0.299235  0.978524  0.083394  1
  O  O16  1  0.632411  0.647549  0.753712  1
  O  O17  1  0.352451  0.367589  0.253712  1
  O  O18  1  0.624316  0.202065  0.613218  1
  O  O19  1  0.797935  0.375684  0.113218  1
  F  F20  1  0.695441  0.037259  0.931248  1
  F  F21  1  0.962741  0.304559  0.431248  1
