# generated using pymatgen
data_LiVFeP2(HO5)2
_symmetry_space_group_name_H-M   'P 1'
_cell_length_a   14.50610102
_cell_length_b   7.36368565
_cell_length_c   5.21020834
_cell_angle_alpha   74.54616585
_cell_angle_beta   85.85410764
_cell_angle_gamma   91.92338798
_symmetry_Int_Tables_number   1
_chemical_formula_structural   LiVFeP2(HO5)2
_chemical_formula_sum   'Li3 V3 Fe3 P6 H6 O30'
_cell_volume   534.21213517
_cell_formula_units_Z   3
loop_
 _symmetry_equiv_pos_site_id
 _symmetry_equiv_pos_as_xyz
  1  'x, y, z'
loop_
 _atom_site_type_symbol
 _atom_site_label
 _atom_site_symmetry_multiplicity
 _atom_site_fract_x
 _atom_site_fract_y
 _atom_site_fract_z
 _atom_site_occupancy
  Li  Li0  1  0.187416  0.036708  0.741314  1
  Li  Li1  1  0.478501  0.630465  0.592436  1
  Li  Li2  1  0.812878  0.964483  0.259375  1
  V  V3  1  0.166460  0.660003  0.338071  1
  V  V4  1  0.499193  0.006068  0.996474  1
  V  V5  1  0.833683  0.338418  0.662573  1
  Fe  Fe6  1  0.999827  0.999480  0.000833  1
  Fe  Fe7  1  0.333259  0.333163  0.666941  1
  Fe  Fe8  1  0.666414  0.662492  0.334066  1
  P  P9  1  0.042723  0.266024  0.406512  1
  P  P10  1  0.291750  0.066555  0.256316  1
  P  P11  1  0.374486  0.599947  0.077769  1
  P  P12  1  0.623907  0.398989  0.926501  1
  P  P13  1  0.708496  0.938518  0.742789  1
  P  P14  1  0.957357  0.732785  0.594693  1
  H  H15  1  0.096145  0.744668  0.902661  1
  H  H16  1  0.231413  0.564308  0.782930  1
  H  H17  1  0.435320  0.102397  0.551175  1
  H  H18  1  0.569610  0.920365  0.431959  1
  H  H19  1  0.770289  0.427095  0.218720  1
  H  H20  1  0.903835  0.255157  0.099114  1
  O  O21  1  0.058160  0.130959  0.232764  1
  O  O22  1  0.073261  0.181528  0.688159  1
  O  O23  1  0.062201  0.686084  0.587095  1
  O  O24  1  0.101556  0.453245  0.270990  1
  O  O25  1  0.265371  0.144542  0.966935  1
  O  O26  1  0.110522  0.825748  0.020533  1
  O  O27  1  0.230895  0.506960  0.631808  1
  O  O28  1  0.274862  0.204239  0.429548  1
  O  O29  1  0.395673  0.015303  0.258082  1
  O  O30  1  0.228401  0.888281  0.400518  1
  O  O31  1  0.270810  0.651253  0.076126  1
  O  O32  1  0.391832  0.462937  0.903622  1
  O  O33  1  0.435428  0.159495  0.702526  1
  O  O34  1  0.401286  0.521820  0.366703  1
  O  O35  1  0.438183  0.778436  0.933661  1
  O  O36  1  0.564632  0.212991  0.063634  1
  O  O37  1  0.592608  0.484750  0.645879  1
  O  O38  1  0.555555  0.839336  0.313678  1
  O  O39  1  0.609623  0.536475  0.097173  1
  O  O40  1  0.728012  0.350045  0.917198  1
  O  O41  1  0.771470  0.115810  0.593715  1
  O  O42  1  0.603716  0.984231  0.740347  1
  O  O43  1  0.725532  0.799109  0.571937  1
  O  O44  1  0.772571  0.487867  0.366060  1
  O  O45  1  0.889472  0.173444  0.982113  1
  O  O46  1  0.734644  0.864063  0.031054  1
  O  O47  1  0.898439  0.546429  0.730037  1
  O  O48  1  0.938212  0.312454  0.414402  1
  O  O49  1  0.926879  0.817576  0.312782  1
  O  O50  1  0.942037  0.868763  0.767208  1
