# generated using pymatgen
data_Li2MnV(P2O7)2
_symmetry_space_group_name_H-M   'P 1'
_cell_length_a   9.73260354
_cell_length_b   8.31238506
_cell_length_c   7.15444541
_cell_angle_alpha   90.00000000
_cell_angle_beta   69.15100753
_cell_angle_gamma   90.00000000
_symmetry_Int_Tables_number   1
_chemical_formula_structural   Li2MnV(P2O7)2
_chemical_formula_sum   'Li4 Mn2 V2 P8 O28'
_cell_volume   540.90381618
_cell_formula_units_Z   2
loop_
 _symmetry_equiv_pos_site_id
 _symmetry_equiv_pos_as_xyz
  1  'x, y, z'
loop_
 _atom_site_type_symbol
 _atom_site_label
 _atom_site_symmetry_multiplicity
 _atom_site_fract_x
 _atom_site_fract_y
 _atom_site_fract_z
 _atom_site_occupancy
  Li  Li0  1  0.247261  0.360358  0.326700  1
  Li  Li1  1  0.252739  0.860358  0.673300  1
  Li  Li2  1  0.749862  0.359971  0.325699  1
  Li  Li3  1  0.750138  0.859971  0.674301  1
  Mn  Mn4  1  0.759155  0.998159  0.270774  1
  Mn  Mn5  1  0.740845  0.498159  0.729226  1
  V  V6  1  0.256421  0.000029  0.272159  1
  V  V7  1  0.243579  0.500029  0.727841  1
  P  P8  1  0.062841  0.783335  0.086084  1
  P  P9  1  0.059910  0.679709  0.477849  1
  P  P10  1  0.440090  0.179709  0.522151  1
  P  P11  1  0.563659  0.787231  0.090287  1
  P  P12  1  0.437159  0.283335  0.913916  1
  P  P13  1  0.559988  0.679139  0.482330  1
  P  P14  1  0.940012  0.179139  0.517670  1
  P  P15  1  0.936341  0.287231  0.909713  1
  O  O16  1  0.077997  0.652605  0.246746  1
  O  O17  1  0.156211  0.932270  0.083996  1
  O  O18  1  0.105942  0.173549  0.396250  1
  O  O19  1  0.129585  0.842570  0.492726  1
  O  O20  1  0.148357  0.539056  0.516074  1
  O  O21  1  0.099588  0.327853  0.845780  1
  O  O22  1  0.125479  0.695625  0.885926  1
  O  O23  1  0.374522  0.195625  0.114074  1
  O  O24  1  0.400412  0.827853  0.154220  1
  O  O25  1  0.351643  0.039056  0.483926  1
  O  O26  1  0.370415  0.342570  0.507274  1
  O  O27  1  0.394058  0.673549  0.603750  1
  O  O28  1  0.343789  0.432270  0.916004  1
  O  O29  1  0.422003  0.152605  0.753254  1
  O  O30  1  0.578554  0.655331  0.250179  1
  O  O31  1  0.656467  0.937727  0.092666  1
  O  O32  1  0.604111  0.177745  0.394028  1
  O  O33  1  0.624019  0.840709  0.505632  1
  O  O34  1  0.645464  0.534514  0.521506  1
  O  O35  1  0.599873  0.323154  0.858295  1
  O  O36  1  0.620669  0.704941  0.888750  1
  O  O37  1  0.879331  0.204941  0.111250  1
  O  O38  1  0.900127  0.823154  0.141705  1
  O  O39  1  0.854536  0.034514  0.478494  1
  O  O40  1  0.875981  0.340709  0.494368  1
  O  O41  1  0.895889  0.677745  0.605972  1
  O  O42  1  0.843533  0.437727  0.907334  1
  O  O43  1  0.921446  0.155331  0.749821  1
