# generated using pymatgen
data_YBO3
_symmetry_space_group_name_H-M   'P 1'
_cell_length_a   4.12407727
_cell_length_b   3.96768154
_cell_length_c   8.67174697
_cell_angle_alpha   90.00031693
_cell_angle_beta   90.00003130
_cell_angle_gamma   121.31463181
_symmetry_Int_Tables_number   1
_chemical_formula_structural   YBO3
_chemical_formula_sum   'Y2 B2 O6'
_cell_volume   121.22547321
_cell_formula_units_Z   2
loop_
 _symmetry_equiv_pos_site_id
 _symmetry_equiv_pos_as_xyz
  1  'x, y, z'
loop_
 _atom_site_type_symbol
 _atom_site_label
 _atom_site_symmetry_multiplicity
 _atom_site_fract_x
 _atom_site_fract_y
 _atom_site_fract_z
 _atom_site_occupancy
  Y  Y0  1  0.052264  0.000034  0.999999  1
  Y  Y1  1  0.052240  0.000010  0.500000  1
  B  B2  1  0.501873  0.743266  0.250001  1
  B  B3  1  0.758619  0.256732  0.750002  1
  O  O4  1  0.335119  0.659373  0.104150  1
  O  O5  1  0.335127  0.659369  0.395853  1
  O  O6  1  0.893022  0.934811  0.250005  1
  O  O7  1  0.675771  0.340649  0.604153  1
  O  O8  1  0.675775  0.340663  0.895839  1
  O  O9  1  0.958189  0.065192  0.750000  1
