# generated using pymatgen
data_Fe3O5F
_symmetry_space_group_name_H-M   'P 1'
_cell_length_a   4.63893759
_cell_length_b   4.63893759
_cell_length_c   9.01166222
_cell_angle_alpha   90.69080360
_cell_angle_beta   89.30919640
_cell_angle_gamma   92.66159868
_symmetry_Int_Tables_number   1
_chemical_formula_structural   Fe3O5F
_chemical_formula_sum   'Fe6 O10 F2'
_cell_volume   193.69252881
_cell_formula_units_Z   2
loop_
 _symmetry_equiv_pos_site_id
 _symmetry_equiv_pos_as_xyz
  1  'x, y, z'
loop_
 _atom_site_type_symbol
 _atom_site_label
 _atom_site_symmetry_multiplicity
 _atom_site_fract_x
 _atom_site_fract_y
 _atom_site_fract_z
 _atom_site_occupancy
  Fe  Fe0  1  0.004211  0.995789  0.008289  1
  Fe  Fe1  1  0.995789  0.004211  0.325044  1
  Fe  Fe2  1  0.000000  0.000000  0.666667  1
  Fe  Fe3  1  0.500000  0.500000  0.166667  1
  Fe  Fe4  1  0.474066  0.525934  0.833977  1
  Fe  Fe5  1  0.525934  0.474066  0.499356  1
  O  O6  1  0.193716  0.806284  0.170942  1
  O  O7  1  0.178582  0.821418  0.835693  1
  O  O8  1  0.300297  0.314687  0.000026  1
  O  O9  1  0.314687  0.300297  0.333308  1
  O  O10  1  0.305166  0.305166  0.666667  1
  O  O11  1  0.685313  0.699703  0.000026  1
  O  O12  1  0.699703  0.685313  0.333308  1
  O  O13  1  0.694834  0.694834  0.666667  1
  O  O14  1  0.806284  0.193716  0.162391  1
  O  O15  1  0.821418  0.178582  0.497640  1
  F  F16  1  0.205483  0.794517  0.498842  1
  F  F17  1  0.794517  0.205483  0.834491  1
