# generated using pymatgen
data_Na6B4Sb2PO16
_symmetry_space_group_name_H-M   'P 1'
_cell_length_a   10.05324161
_cell_length_b   10.05324180
_cell_length_c   10.05324161
_cell_angle_alpha   60.00000284
_cell_angle_beta   120.00000021
_cell_angle_gamma   119.99999716
_symmetry_Int_Tables_number   1
_chemical_formula_structural   Na6B4Sb2PO16
_chemical_formula_sum   'Na12 B8 Sb4 P2 O32'
_cell_volume   718.46131458
_cell_formula_units_Z   2
loop_
 _symmetry_equiv_pos_site_id
 _symmetry_equiv_pos_as_xyz
  1  'x, y, z'
loop_
 _atom_site_type_symbol
 _atom_site_label
 _atom_site_symmetry_multiplicity
 _atom_site_fract_x
 _atom_site_fract_y
 _atom_site_fract_z
 _atom_site_occupancy
  Na  Na0  1  0.673826  0.923826  0.826174  1
  Na  Na1  1  0.923826  0.673826  0.576174  1
  Na  Na2  1  0.923826  0.673826  0.173826  1
  Na  Na3  1  0.673826  0.923826  0.423826  1
  Na  Na4  1  0.923826  0.076174  0.173826  1
  Na  Na5  1  0.673826  0.326174  0.423826  1
  Na  Na6  1  0.076174  0.326174  0.826174  1
  Na  Na7  1  0.076174  0.923826  0.826174  1
  Na  Na8  1  0.326174  0.673826  0.576174  1
  Na  Na9  1  0.326174  0.076174  0.576174  1
  Na  Na10  1  0.076174  0.326174  0.423826  1
  Na  Na11  1  0.326174  0.076174  0.173826  1
  B  B12  1  0.715359  0.646076  0.784641  1
  B  B13  1  0.715359  0.284641  0.784641  1
  B  B14  1  0.284641  0.715359  0.853924  1
  B  B15  1  0.353924  0.284641  0.784641  1
  B  B16  1  0.646076  0.715359  0.215359  1
  B  B17  1  0.715359  0.284641  0.146076  1
  B  B18  1  0.284641  0.353924  0.215359  1
  B  B19  1  0.284641  0.715359  0.215359  1
  Sb  Sb20  1  0.500000  0.500000  0.500000  1
  Sb  Sb21  1  0.500000  0.000000  0.000000  1
  Sb  Sb22  1  0.500000  0.500000  0.000000  1
  Sb  Sb23  1  0.000000  0.500000  0.000000  1
  P  P24  1  0.875000  0.125000  0.625000  1
  P  P25  1  0.125000  0.875000  0.375000  1
  O  O26  1  0.865159  0.308215  0.907977  1
  O  O27  1  0.938349  0.061651  0.815045  1
  O  O28  1  0.865159  0.648966  0.808215  1
  O  O29  1  0.691785  0.648966  0.907977  1
  O  O30  1  0.938349  0.061651  0.561651  1
  O  O31  1  0.938349  0.315045  0.561651  1
  O  O32  1  0.592023  0.134841  0.808215  1
  O  O33  1  0.691785  0.407977  0.634841  1
  O  O34  1  0.684955  0.061651  0.561651  1
  O  O35  1  0.351034  0.134841  0.907977  1
  O  O36  1  0.407977  0.691785  0.851034  1
  O  O37  1  0.592023  0.648966  0.634841  1
  O  O38  1  0.351034  0.407977  0.808215  1
  O  O39  1  0.308215  0.865159  0.851034  1
  O  O40  1  0.865159  0.407977  0.148966  1
  O  O41  1  0.648966  0.691785  0.365159  1
  O  O42  1  0.351034  0.308215  0.634841  1
  O  O43  1  0.134841  0.592023  0.851034  1
  O  O44  1  0.691785  0.134841  0.148966  1
  O  O45  1  0.648966  0.592023  0.191785  1
  O  O46  1  0.407977  0.351034  0.365159  1
  O  O47  1  0.592023  0.308215  0.148966  1
  O  O48  1  0.648966  0.865159  0.092023  1
  O  O49  1  0.315045  0.938349  0.438349  1
  O  O50  1  0.308215  0.592023  0.365159  1
  O  O51  1  0.407977  0.865159  0.191785  1
  O  O52  1  0.061651  0.684955  0.438349  1
  O  O53  1  0.061651  0.938349  0.438349  1
  O  O54  1  0.308215  0.351034  0.092023  1
  O  O55  1  0.134841  0.351034  0.191785  1
  O  O56  1  0.061651  0.938349  0.184955  1
  O  O57  1  0.134841  0.691785  0.092023  1
