# generated using pymatgen
data_BaCa2I6
_symmetry_space_group_name_H-M   'P 1'
_cell_length_a   14.35047549
_cell_length_b   8.07106771
_cell_length_c   7.48497640
_cell_angle_alpha   90.00000000
_cell_angle_beta   94.50439576
_cell_angle_gamma   90.00000000
_symmetry_Int_Tables_number   1
_chemical_formula_structural   BaCa2I6
_chemical_formula_sum   'Ba2 Ca4 I12'
_cell_volume   864.25965722
_cell_formula_units_Z   2
loop_
 _symmetry_equiv_pos_site_id
 _symmetry_equiv_pos_as_xyz
  1  'x, y, z'
loop_
 _atom_site_type_symbol
 _atom_site_label
 _atom_site_symmetry_multiplicity
 _atom_site_fract_x
 _atom_site_fract_y
 _atom_site_fract_z
 _atom_site_occupancy
  Ba  Ba0  1  0.000000  0.000000  0.000000  1
  Ba  Ba1  1  0.500000  0.500000  0.500000  1
  Ca  Ca2  1  0.252901  0.396178  0.914835  1
  Ca  Ca3  1  0.247099  0.896178  0.585165  1
  Ca  Ca4  1  0.752901  0.103822  0.414835  1
  Ca  Ca5  1  0.747099  0.603822  0.085165  1
  I  I6  1  0.105210  0.671621  0.787904  1
  I  I7  1  0.104813  0.187646  0.657120  1
  I  I8  1  0.276433  0.600404  0.314354  1
  I  I9  1  0.223567  0.100404  0.185646  1
  I  I10  1  0.395187  0.687646  0.842880  1
  I  I11  1  0.394790  0.171621  0.712096  1
  I  I12  1  0.605210  0.828379  0.287904  1
  I  I13  1  0.604813  0.312354  0.157120  1
  I  I14  1  0.776433  0.899596  0.814354  1
  I  I15  1  0.723567  0.399596  0.685646  1
  I  I16  1  0.895187  0.812354  0.342880  1
  I  I17  1  0.894790  0.328379  0.212096  1
