# generated using pymatgen
data_Sr2CaI6
_symmetry_space_group_name_H-M   'P 1'
_cell_length_a   13.88191407
_cell_length_b   13.88185425
_cell_length_c   7.48515927
_cell_angle_alpha   90.00200360
_cell_angle_beta   90.00000000
_cell_angle_gamma   120.00014490
_symmetry_Int_Tables_number   1
_chemical_formula_structural   Sr2CaI6
_chemical_formula_sum   'Sr6 Ca3 I18'
_cell_volume   1249.18820597
_cell_formula_units_Z   3
loop_
 _symmetry_equiv_pos_site_id
 _symmetry_equiv_pos_as_xyz
  1  'x, y, z'
loop_
 _atom_site_type_symbol
 _atom_site_label
 _atom_site_symmetry_multiplicity
 _atom_site_fract_x
 _atom_site_fract_y
 _atom_site_fract_z
 _atom_site_occupancy
  Sr  Sr0  1  0.000032  0.642732  0.999954  1
  Sr  Sr1  1  -0.000001  0.310147  0.499908  1
  Sr  Sr2  1  0.357301  0.357268  0.000046  1
  Sr  Sr3  1  0.310166  0.000000  0.500000  1
  Sr  Sr4  1  0.689853  0.689853  0.500092  1
  Sr  Sr5  1  0.642763  0.000000  0.000000  1
  Ca  Ca6  1  0.333313  0.666629  0.495735  1
  Ca  Ca7  1  0.000018  0.000000  0.000000  1
  Ca  Ca8  1  0.666684  0.333371  0.504265  1
  I  I9  1  0.090137  0.874591  0.762158  1
  I  I10  1  0.227838  0.774897  0.252856  1
  I  I11  1  0.121627  0.540456  0.742258  1
  I  I12  1  0.418854  0.878347  0.742294  1
  I  I13  1  0.225046  0.452997  0.252594  1
  I  I14  1  0.125372  0.215689  0.762382  1
  I  I15  1  0.547047  0.772163  0.252865  1
  I  I16  1  0.215545  0.125409  0.237842  1
  I  I17  1  0.459485  0.581052  0.742161  1
  I  I18  1  0.784570  0.909989  0.762044  1
  I  I19  1  0.452942  0.225103  0.747144  1
  I  I20  1  0.581171  0.459544  0.257742  1
  I  I21  1  0.540507  0.121653  0.257706  1
  I  I22  1  0.772049  0.547003  0.747406  1
  I  I23  1  0.909684  0.784311  0.237618  1
  I  I24  1  0.774884  0.227837  0.747135  1
  I  I25  1  0.878433  0.418948  0.257839  1
  I  I26  1  0.874580  0.090011  0.237956  1
