# generated using pymatgen
data_V3Cu(PO4)4
_symmetry_space_group_name_H-M   'P 1'
_cell_length_a   4.91528717
_cell_length_b   9.98487967
_cell_length_c   5.91256964
_cell_angle_alpha   90.00000000
_cell_angle_beta   90.00000000
_cell_angle_gamma   91.53557103
_symmetry_Int_Tables_number   1
_chemical_formula_structural   V3Cu(PO4)4
_chemical_formula_sum   'V3 Cu1 P4 O16'
_cell_volume   290.07614105
_cell_formula_units_Z   1
loop_
 _symmetry_equiv_pos_site_id
 _symmetry_equiv_pos_as_xyz
  1  'x, y, z'
loop_
 _atom_site_type_symbol
 _atom_site_label
 _atom_site_symmetry_multiplicity
 _atom_site_fract_x
 _atom_site_fract_y
 _atom_site_fract_z
 _atom_site_occupancy
  V  V0  1  0.479810  0.229441  0.750000  1
  V  V1  1  0.542573  0.780600  0.250000  1
  V  V2  1  0.977358  0.268047  0.250000  1
  Cu  Cu3  1  0.089262  0.710605  0.750000  1
  P  P4  1  0.096666  0.600745  0.250000  1
  P  P5  1  0.404444  0.094500  0.250000  1
  P  P6  1  0.561723  0.902454  0.750000  1
  P  P7  1  0.921439  0.403801  0.750000  1
  O  O8  1  0.140502  0.450251  0.250000  1
  O  O9  1  0.260848  0.673173  0.054083  1
  O  O10  1  0.260848  0.673173  0.445917  1
  O  O11  1  0.224189  0.375582  0.750000  1
  O  O12  1  0.253447  0.883396  0.750000  1
  O  O13  1  0.262367  0.169085  0.047539  1
  O  O14  1  0.262367  0.169085  0.452461  1
  O  O15  1  0.328513  0.944711  0.250000  1
  O  O16  1  0.642955  0.051172  0.750000  1
  O  O17  1  0.692024  0.832381  0.537216  1
  O  O18  1  0.692024  0.832381  0.962784  1
  O  O19  1  0.711566  0.117756  0.250000  1
  O  O20  1  0.793899  0.630478  0.250000  1
  O  O21  1  0.769051  0.327729  0.547686  1
  O  O22  1  0.769051  0.327729  0.952314  1
  O  O23  1  0.863075  0.551727  0.750000  1
