# generated using pymatgen
data_Li4AlCr3O8
_symmetry_space_group_name_H-M   'P 1'
_cell_length_a   5.10927620
_cell_length_b   5.86610650
_cell_length_c   10.57097273
_cell_angle_alpha   106.07405366
_cell_angle_beta   85.42351097
_cell_angle_gamma   73.33287363
_symmetry_Int_Tables_number   1
_chemical_formula_structural   Li4AlCr3O8
_chemical_formula_sum   'Li8 Al2 Cr6 O16'
_cell_volume   287.25677739
_cell_formula_units_Z   2
loop_
 _symmetry_equiv_pos_site_id
 _symmetry_equiv_pos_as_xyz
  1  'x, y, z'
loop_
 _atom_site_type_symbol
 _atom_site_label
 _atom_site_symmetry_multiplicity
 _atom_site_fract_x
 _atom_site_fract_y
 _atom_site_fract_z
 _atom_site_occupancy
  Li  Li0  1  -0.000018  0.124986  0.749787  1
  Li  Li1  1  0.999685  0.999914  0.001063  1
  Li  Li2  1  0.000591  0.248550  0.498847  1
  Li  Li3  1  0.999970  0.375023  0.250004  1
  Li  Li4  1  0.000046  0.624994  0.750202  1
  Li  Li5  1  0.999394  0.501437  0.001145  1
  Li  Li6  1  0.000315  0.750091  0.498930  1
  Li  Li7  1  0.999981  0.875011  0.250011  1
  Al  Al8  1  0.500235  0.812711  0.373200  1
  Al  Al9  1  0.499742  0.937285  0.126801  1
  Cr  Cr10  1  0.499872  0.062341  0.877132  1
  Cr  Cr11  1  0.499807  0.185751  0.623594  1
  Cr  Cr12  1  0.499665  0.310319  0.373266  1
  Cr  Cr13  1  0.500226  0.564243  0.876405  1
  Cr  Cr14  1  0.500261  0.439695  0.126744  1
  Cr  Cr15  1  0.500174  0.687646  0.622869  1
  O  O16  1  0.283033  0.073947  0.306704  1
  O  O17  1  0.720240  0.028789  0.436139  1
  O  O18  1  0.272882  0.336973  0.811083  1
  O  O19  1  0.727353  0.288654  0.940499  1
  O  O20  1  0.720136  0.154086  0.186738  1
  O  O21  1  0.278085  0.204197  0.065186  1
  O  O22  1  0.272655  0.461381  0.559517  1
  O  O23  1  0.727177  0.413006  0.688911  1
  O  O24  1  0.279774  0.595945  0.313270  1
  O  O25  1  0.721875  0.545778  0.434803  1
  O  O26  1  0.272809  0.837040  0.810062  1
  O  O27  1  0.721523  0.792767  0.947709  1
  O  O28  1  0.279773  0.721220  0.063852  1
  O  O29  1  0.278542  0.957226  0.552288  1
  O  O30  1  0.716934  0.676044  0.193307  1
  O  O31  1  0.727266  0.912950  0.689932  1
