# generated using pymatgen
data_CoTe2O5
_symmetry_space_group_name_H-M   'P 1'
_cell_length_a   7.41364899
_cell_length_b   10.76657895
_cell_length_c   6.04212744
_cell_angle_alpha   89.99988955
_cell_angle_beta   90.00054739
_cell_angle_gamma   89.99995041
_symmetry_Int_Tables_number   1
_chemical_formula_structural   CoTe2O5
_chemical_formula_sum   'Co4 Te8 O20'
_cell_volume   482.28041991
_cell_formula_units_Z   4
loop_
 _symmetry_equiv_pos_site_id
 _symmetry_equiv_pos_as_xyz
  1  'x, y, z'
loop_
 _atom_site_type_symbol
 _atom_site_label
 _atom_site_symmetry_multiplicity
 _atom_site_fract_x
 _atom_site_fract_y
 _atom_site_fract_z
 _atom_site_occupancy
  Co  Co0  1  0.000000  0.060749  0.250000  1
  Co  Co1  1  1.000000  0.939241  0.750000  1
  Co  Co2  1  0.500000  0.560759  0.250000  1
  Co  Co3  1  0.500000  0.439241  0.750000  1
  Te  Te4  1  0.136060  0.346931  0.490073  1
  Te  Te5  1  0.136054  0.653081  0.990082  1
  Te  Te6  1  0.363933  0.153068  0.990071  1
  Te  Te7  1  0.363939  0.846923  0.490080  1
  Te  Te8  1  0.636067  0.153068  0.509929  1
  Te  Te9  1  0.636061  0.846924  0.009919  1
  Te  Te10  1  0.863946  0.653080  0.509918  1
  Te  Te11  1  0.863940  0.346931  0.009928  1
  O  O12  1  0.000000  0.441474  0.250000  1
  O  O13  1  -0.000000  0.558533  0.750000  1
  O  O14  1  0.148067  0.063636  0.948724  1
  O  O15  1  0.148061  0.936357  0.448738  1
  O  O16  1  0.191960  0.206505  0.310710  1
  O  O17  1  0.191945  0.793498  0.810712  1
  O  O18  1  0.308044  0.293490  0.810714  1
  O  O19  1  0.308051  0.706508  0.310709  1
  O  O20  1  0.351930  0.436366  0.448724  1
  O  O21  1  0.351944  0.563644  0.948736  1
  O  O22  1  0.499999  0.941470  0.250000  1
  O  O23  1  0.500000  0.058524  0.750000  1
  O  O24  1  0.648069  0.436366  0.051276  1
  O  O25  1  0.648057  0.563643  0.551264  1
  O  O26  1  0.691956  0.293489  0.689286  1
  O  O27  1  0.691950  0.706508  0.189290  1
  O  O28  1  0.808041  0.206505  0.189289  1
  O  O29  1  0.808053  0.793497  0.689289  1
  O  O30  1  0.851934  0.063635  0.551276  1
  O  O31  1  0.851940  0.936356  0.051262  1
