# generated using pymatgen
data_Li4Nb2Co3Sb3O16
_symmetry_space_group_name_H-M   'P 1'
_cell_length_a   6.20707520
_cell_length_b   6.26731110
_cell_length_c   9.90788040
_cell_angle_alpha   90.01664927
_cell_angle_beta   89.26991215
_cell_angle_gamma   120.21077664
_symmetry_Int_Tables_number   1
_chemical_formula_structural   Li4Nb2Co3Sb3O16
_chemical_formula_sum   'Li4 Nb2 Co3 Sb3 O16'
_cell_volume   333.04825228
_cell_formula_units_Z   1
loop_
 _symmetry_equiv_pos_site_id
 _symmetry_equiv_pos_as_xyz
  1  'x, y, z'
loop_
 _atom_site_type_symbol
 _atom_site_label
 _atom_site_symmetry_multiplicity
 _atom_site_fract_x
 _atom_site_fract_y
 _atom_site_fract_z
 _atom_site_occupancy
  Li  Li0  1  0.343379  0.667331  0.896560  1
  Li  Li1  1  0.975009  0.994902  0.984873  1
  Li  Li2  1  0.984033  0.003309  0.501208  1
  Li  Li3  1  0.662256  0.322803  0.407144  1
  Nb  Nb4  1  0.349822  0.671998  0.498167  1
  Nb  Nb5  1  0.696535  0.360131  0.977791  1
  Co  Co6  1  0.666846  0.829460  0.211110  1
  Co  Co7  1  0.830480  0.658092  0.710646  1
  Co  Co8  1  0.834090  0.171510  0.715198  1
  Sb  Sb9  1  0.174068  0.837973  0.217282  1
  Sb  Sb10  1  0.172042  0.344791  0.215408  1
  Sb  Sb11  1  0.343484  0.166891  0.714755  1
  O  O12  1  0.180636  0.837195  0.590820  1
  O  O13  1  0.034018  0.493959  0.353982  1
  O  O14  1  0.341437  0.652038  0.101353  1
  O  O15  1  0.993885  0.025111  0.316553  1
  O  O16  1  0.997941  0.998545  0.798727  1
  O  O17  1  0.189860  0.336744  0.594606  1
  O  O18  1  0.476965  0.950419  0.351164  1
  O  O19  1  0.467669  0.505334  0.341963  1
  O  O20  1  0.329308  0.187522  0.096114  1
  O  O21  1  0.658668  0.818634  0.588948  1
  O  O22  1  0.510027  0.468784  0.840012  1
  O  O23  1  0.501601  0.037313  0.851829  1
  O  O24  1  0.668485  0.325683  0.608495  1
  O  O25  1  0.797488  0.660828  0.078498  1
  O  O26  1  0.964452  0.478207  0.847861  1
  O  O27  1  0.855514  0.194791  0.096772  1
