# generated using pymatgen
data_Li2Zn3(Ge3O8)2
_symmetry_space_group_name_H-M   'P 1'
_cell_length_a   8.32152258
_cell_length_b   8.31675564
_cell_length_c   8.31584565
_cell_angle_alpha   90.00000000
_cell_angle_beta   90.00000000
_cell_angle_gamma   89.74770780
_symmetry_Int_Tables_number   1
_chemical_formula_structural   Li2Zn3(Ge3O8)2
_chemical_formula_sum   'Li4 Zn6 Ge12 O32'
_cell_volume   575.51804750
_cell_formula_units_Z   2
loop_
 _symmetry_equiv_pos_site_id
 _symmetry_equiv_pos_as_xyz
  1  'x, y, z'
loop_
 _atom_site_type_symbol
 _atom_site_label
 _atom_site_symmetry_multiplicity
 _atom_site_fract_x
 _atom_site_fract_y
 _atom_site_fract_z
 _atom_site_occupancy
  Li  Li0  1  0.626149  0.624079  0.623918  1
  Li  Li1  1  0.752489  0.249098  0.750241  1
  Li  Li2  1  0.747511  0.750902  0.250241  1
  Li  Li3  1  0.873851  0.375921  0.123918  1
  Zn  Zn4  1  0.997380  0.000687  0.998006  1
  Zn  Zn5  1  0.998910  0.498323  0.499508  1
  Zn  Zn6  1  0.248327  0.250224  0.251300  1
  Zn  Zn7  1  0.251673  0.749776  0.751300  1
  Zn  Zn8  1  0.502620  0.999313  0.498006  1
  Zn  Zn9  1  0.501090  0.501677  0.999508  1
  Ge  Ge10  1  0.128578  0.117765  0.625143  1
  Ge  Ge11  1  0.117341  0.630735  0.132340  1
  Ge  Ge12  1  0.124142  0.369809  0.878877  1
  Ge  Ge13  1  0.382659  0.369265  0.632340  1
  Ge  Ge14  1  0.375858  0.630191  0.378877  1
  Ge  Ge15  1  0.371422  0.882235  0.125143  1
  Ge  Ge16  1  0.622748  0.127881  0.115516  1
  Ge  Ge17  1  0.628706  0.379997  0.378450  1
  Ge  Ge18  1  0.619932  0.883158  0.873172  1
  Ge  Ge19  1  0.880068  0.116842  0.373172  1
  Ge  Ge20  1  0.871294  0.620003  0.878450  1
  Ge  Ge21  1  0.877252  0.872119  0.615516  1
  O  O22  1  0.128581  0.393623  0.103026  1
  O  O23  1  0.140707  0.362258  0.639478  1
  O  O24  1  0.149106  0.856694  0.111932  1
  O  O25  1  0.105857  0.896257  0.637784  1
  O  O26  1  0.100941  0.137999  0.395889  1
  O  O27  1  0.113509  0.148745  0.854291  1
  O  O28  1  0.146241  0.611799  0.352633  1
  O  O29  1  0.112248  0.612459  0.888827  1
  O  O30  1  0.394143  0.103743  0.137784  1
  O  O31  1  0.387752  0.387541  0.388827  1
  O  O32  1  0.350894  0.143306  0.611932  1
  O  O33  1  0.353759  0.388201  0.852633  1
  O  O34  1  0.359293  0.637742  0.139478  1
  O  O35  1  0.386491  0.851255  0.354291  1
  O  O36  1  0.371419  0.606377  0.603026  1
  O  O37  1  0.399059  0.862001  0.895889  1
  O  O38  1  0.638594  0.141670  0.360103  1
  O  O39  1  0.642035  0.105817  0.897342  1
  O  O40  1  0.621216  0.352949  0.142403  1
  O  O41  1  0.602976  0.369301  0.607313  1
  O  O42  1  0.604458  0.601074  0.370268  1
  O  O43  1  0.647658  0.643703  0.877749  1
  O  O44  1  0.610223  0.889839  0.110959  1
  O  O45  1  0.641991  0.877380  0.648530  1
  O  O46  1  0.858009  0.122620  0.148530  1
  O  O47  1  0.889777  0.110161  0.610959  1
  O  O48  1  0.852342  0.356297  0.377749  1
  O  O49  1  0.895542  0.398926  0.870268  1
  O  O50  1  0.897024  0.630699  0.107313  1
  O  O51  1  0.878784  0.647051  0.642403  1
  O  O52  1  0.857965  0.894183  0.397342  1
  O  O53  1  0.861406  0.858330  0.860103  1
