# generated using pymatgen
data_H6C3N4O3
_symmetry_space_group_name_H-M   'P 1'
_cell_length_a   5.16905501
_cell_length_b   5.16905501
_cell_length_c   24.99739476
_cell_angle_alpha   69.18175755
_cell_angle_beta   110.81824245
_cell_angle_gamma   91.67692212
_symmetry_Int_Tables_number   1
_chemical_formula_structural   H6C3N4O3
_chemical_formula_sum   'H24 C12 N16 O12'
_cell_volume   579.93223274
_cell_formula_units_Z   4
loop_
 _symmetry_equiv_pos_site_id
 _symmetry_equiv_pos_as_xyz
  1  'x, y, z'
loop_
 _atom_site_type_symbol
 _atom_site_label
 _atom_site_symmetry_multiplicity
 _atom_site_fract_x
 _atom_site_fract_y
 _atom_site_fract_z
 _atom_site_occupancy
  H  H0  1  0.739364  0.108542  0.500822  1
  H  H1  1  0.108542  0.739364  0.999178  1
  H  H2  1  0.260636  0.891458  0.499178  1
  H  H3  1  0.891458  0.260636  0.000822  1
  H  H4  1  0.972811  0.292036  0.541879  1
  H  H5  1  0.292036  0.972811  0.958121  1
  H  H6  1  0.027189  0.707964  0.458121  1
  H  H7  1  0.707964  0.027189  0.041879  1
  H  H8  1  0.564031  0.298592  0.629326  1
  H  H9  1  0.298592  0.564031  0.870674  1
  H  H10  1  0.435969  0.701408  0.370674  1
  H  H11  1  0.701408  0.435969  0.129326  1
  H  H12  1  0.837090  0.398170  0.702909  1
  H  H13  1  0.398170  0.837090  0.797091  1
  H  H14  1  0.162910  0.601830  0.297091  1
  H  H15  1  0.601830  0.162910  0.202909  1
  H  H16  1  0.303327  0.811324  0.637016  1
  H  H17  1  0.811324  0.303327  0.862984  1
  H  H18  1  0.696673  0.188676  0.362984  1
  H  H19  1  0.188676  0.696673  0.137016  1
  H  H20  1  0.440468  0.918197  0.701141  1
  H  H21  1  0.918197  0.440468  0.798859  1
  H  H22  1  0.559532  0.081803  0.298859  1
  H  H23  1  0.081803  0.559532  0.201141  1
  C  C24  1  0.628973  0.187577  0.564449  1
  C  C25  1  0.187577  0.628973  0.935551  1
  C  C26  1  0.371027  0.812423  0.435551  1
  C  C27  1  0.812423  0.371027  0.064449  1
  C  C28  1  0.939281  0.444361  0.627136  1
  C  C29  1  0.444361  0.939281  0.872864  1
  C  C30  1  0.060719  0.555639  0.372864  1
  C  C31  1  0.555639  0.060719  0.127136  1
  C  C32  1  0.146831  0.656093  0.706562  1
  C  C33  1  0.656093  0.146831  0.793438  1
  C  C34  1  0.853169  0.343907  0.293438  1
  C  C35  1  0.343907  0.853169  0.206562  1
  N  N36  1  0.790032  0.206563  0.531887  1
  N  N37  1  0.206563  0.790032  0.968113  1
  N  N38  1  0.209968  0.793437  0.468113  1
  N  N39  1  0.793437  0.209968  0.031887  1
  N  N40  1  0.710269  0.304267  0.610297  1
  N  N41  1  0.304267  0.710269  0.889703  1
  N  N42  1  0.289731  0.695733  0.389703  1
  N  N43  1  0.695733  0.289731  0.110297  1
  N  N44  1  0.957620  0.503776  0.678186  1
  N  N45  1  0.503776  0.957620  0.821814  1
  N  N46  1  0.042380  0.496224  0.321814  1
  N  N47  1  0.496224  0.042380  0.178186  1
  N  N48  1  0.311608  0.802903  0.679066  1
  N  N49  1  0.802903  0.311608  0.820934  1
  N  N50  1  0.688392  0.197097  0.320934  1
  N  N51  1  0.197097  0.688392  0.179066  1
  O  O52  1  0.409728  0.071990  0.558007  1
  O  O53  1  0.071990  0.409728  0.941993  1
  O  O54  1  0.590272  0.928010  0.441993  1
  O  O55  1  0.928010  0.590272  0.058007  1
  O  O56  1  0.106829  0.505579  0.600733  1
  O  O57  1  0.505579  0.106829  0.899267  1
  O  O58  1  0.893171  0.494421  0.399267  1
  O  O59  1  0.494421  0.893171  0.100733  1
  O  O60  1  0.150470  0.650969  0.757701  1
  O  O61  1  0.650969  0.150470  0.742299  1
  O  O62  1  0.849530  0.349031  0.242299  1
  O  O63  1  0.349031  0.849530  0.257701  1
