# generated using pymatgen
data_Li2MnFe(BO3)2
_symmetry_space_group_name_H-M   'P 1'
_cell_length_a   8.25522897
_cell_length_b   14.29695665
_cell_length_c   3.16563150
_cell_angle_alpha   90.00000000
_cell_angle_beta   90.00000000
_cell_angle_gamma   89.97627629
_symmetry_Int_Tables_number   1
_chemical_formula_structural   Li2MnFe(BO3)2
_chemical_formula_sum   'Li6 Mn3 Fe3 B6 O18'
_cell_volume   373.62252024
_cell_formula_units_Z   3
loop_
 _symmetry_equiv_pos_site_id
 _symmetry_equiv_pos_as_xyz
  1  'x, y, z'
loop_
 _atom_site_type_symbol
 _atom_site_label
 _atom_site_symmetry_multiplicity
 _atom_site_fract_x
 _atom_site_fract_y
 _atom_site_fract_z
 _atom_site_occupancy
  Li  Li0  1  0.292816  0.989826  0.500000  1
  Li  Li1  1  0.339312  0.359198  0.500000  1
  Li  Li2  1  0.365495  0.650749  0.500000  1
  Li  Li3  1  0.793214  0.493075  0.500000  1
  Li  Li4  1  0.841926  0.856320  0.500000  1
  Li  Li5  1  0.867109  0.150693  0.500000  1
  Mn  Mn6  1  0.191354  0.179822  0.000000  1
  Mn  Mn7  1  0.634346  0.005201  0.000000  1
  Mn  Mn8  1  0.674294  0.314366  0.000000  1
  Fe  Fe9  1  0.136438  0.504897  0.000000  1
  Fe  Fe10  1  0.175663  0.816135  0.000000  1
  Fe  Fe11  1  0.687747  0.679555  0.000000  1
  B  B12  1  0.000278  0.666795  0.500000  1
  B  B13  1  0.999495  0.998770  0.000000  1
  B  B14  1  0.001104  0.334535  0.500000  1
  B  B15  1  0.499858  0.166678  0.500000  1
  B  B16  1  0.500153  0.501141  0.000000  1
  B  B17  1  0.499209  0.832176  0.500000  1
  O  O18  1  0.011817  0.431497  0.500000  1
  O  O19  1  0.019212  0.763566  0.500000  1
  O  O20  1  0.136326  0.608879  0.500000  1
  O  O21  1  0.140775  0.280521  0.500000  1
  O  O22  1  0.153331  0.958373  0.000000  1
  O  O23  1  0.347827  0.124578  0.500000  1
  O  O24  1  0.347546  0.789975  0.500000  1
  O  O25  1  0.361282  0.445468  0.000000  1
  O  O26  1  0.485389  0.598053  0.000000  1
  O  O27  1  0.510804  0.929050  0.500000  1
  O  O28  1  0.512869  0.263742  0.500000  1
  O  O29  1  0.638713  0.111681  0.500000  1
  O  O30  1  0.639020  0.777910  0.500000  1
  O  O31  1  0.653050  0.460423  0.000000  1
  O  O32  1  0.845655  0.627809  0.500000  1
  O  O33  1  0.850764  0.291011  0.500000  1
  O  O34  1  0.863273  0.941717  0.000000  1
  O  O35  1  0.982535  0.095810  0.000000  1
