# generated using pymatgen
data_Li8Ti6Mn7O30
_symmetry_space_group_name_H-M   'P 1'
_cell_length_a   5.00849306
_cell_length_b   5.00850878
_cell_length_c   23.66133305
_cell_angle_alpha   89.99952949
_cell_angle_beta   89.99992545
_cell_angle_gamma   59.99953542
_symmetry_Int_Tables_number   1
_chemical_formula_structural   Li8Ti6Mn7O30
_chemical_formula_sum   'Li8 Ti6 Mn7 O30'
_cell_volume   514.02391259
_cell_formula_units_Z   1
loop_
 _symmetry_equiv_pos_site_id
 _symmetry_equiv_pos_as_xyz
  1  'x, y, z'
loop_
 _atom_site_type_symbol
 _atom_site_label
 _atom_site_symmetry_multiplicity
 _atom_site_fract_x
 _atom_site_fract_y
 _atom_site_fract_z
 _atom_site_occupancy
  Li  Li0  1  0.999965  0.000014  0.079825  1
  Li  Li1  1  0.000008  0.999997  0.374155  1
  Li  Li2  1  0.000005  0.999996  0.627400  1
  Li  Li3  1  0.999998  0.000013  0.917694  1
  Li  Li4  1  0.333334  0.333330  0.527813  1
  Li  Li5  1  0.333343  0.333333  0.795410  1
  Li  Li6  1  0.666672  0.666656  0.206581  1
  Li  Li7  1  0.666668  0.666657  0.472859  1
  Ti  Ti8  1  0.333330  0.333332  0.411257  1
  Ti  Ti9  1  0.666638  0.666680  0.108126  1
  Ti  Ti10  1  0.666664  0.666666  0.589756  1
  Ti  Ti11  1  0.999979  0.000000  0.199729  1
  Ti  Ti12  1  0.999998  0.999995  0.500567  1
  Ti  Ti13  1  0.000017  0.000018  0.802821  1
  Mn  Mn14  1  0.333337  0.333332  0.292807  1
  Mn  Mn15  1  0.333325  0.333338  0.006412  1
  Mn  Mn16  1  0.333343  0.333345  0.893656  1
  Mn  Mn17  1  0.666654  0.666676  0.990514  1
  Mn  Mn18  1  0.666668  0.666661  0.707776  1
  Mn  Mn19  1  0.333335  0.333333  0.695256  1
  Mn  Mn20  1  0.666670  0.666666  0.305681  1
  O  O21  1  0.933694  0.736924  0.151697  1
  O  O22  1  0.331816  0.961404  0.549378  1
  O  O23  1  0.019467  0.612597  0.345686  1
  O  O24  1  0.013591  0.651797  0.745822  1
  O  O25  1  0.354380  0.027683  0.952048  1
  O  O26  1  0.263987  0.668222  0.849583  1
  O  O27  1  0.293196  0.669010  0.450378  1
  O  O28  1  0.630974  0.980802  0.654291  1
  O  O29  1  0.347280  0.666618  0.254655  1
  O  O30  1  0.975435  0.379490  0.044429  1
  O  O31  1  0.379466  0.645080  0.044429  1
  O  O32  1  0.668227  0.067828  0.849587  1
  O  O33  1  0.388231  0.630971  0.654290  1
  O  O34  1  0.666635  0.986091  0.254655  1
  O  O35  1  0.037782  0.293187  0.450374  1
  O  O36  1  0.961402  0.706778  0.549378  1
  O  O37  1  0.334608  0.013590  0.745824  1
  O  O38  1  0.612607  0.367932  0.345686  1
  O  O39  1  0.329355  0.933714  0.151699  1
  O  O40  1  0.617939  0.354391  0.952050  1
  O  O41  1  0.027657  0.617955  0.952047  1
  O  O42  1  0.651805  0.334611  0.745823  1
  O  O43  1  0.367948  0.019454  0.345687  1
  O  O44  1  0.706776  0.331829  0.549375  1
  O  O45  1  0.736904  0.329371  0.151696  1
  O  O46  1  0.645048  0.975456  0.044430  1
  O  O47  1  0.986103  0.347270  0.254656  1
  O  O48  1  0.980802  0.388225  0.654290  1
  O  O49  1  0.669018  0.037781  0.450377  1
  O  O50  1  0.067818  0.263995  0.849584  1
