# generated using pymatgen
data_Zr2N2O
_symmetry_space_group_name_H-M   'P 1'
_cell_length_a   8.89195739
_cell_length_b   8.87131987
_cell_length_c   8.85125480
_cell_angle_alpha   109.32674502
_cell_angle_beta   109.33021017
_cell_angle_gamma   109.58615852
_symmetry_Int_Tables_number   1
_chemical_formula_structural   Zr2N2O
_chemical_formula_sum   'Zr16 N16 O8'
_cell_volume   538.61334396
_cell_formula_units_Z   8
loop_
 _symmetry_equiv_pos_site_id
 _symmetry_equiv_pos_as_xyz
  1  'x, y, z'
loop_
 _atom_site_type_symbol
 _atom_site_label
 _atom_site_symmetry_multiplicity
 _atom_site_fract_x
 _atom_site_fract_y
 _atom_site_fract_z
 _atom_site_occupancy
  Zr  Zr0  1  0.500130  0.999845  0.987651  1
  Zr  Zr1  1  0.748411  0.293054  0.535159  1
  Zr  Zr2  1  0.216428  0.961536  0.248763  1
  Zr  Zr3  1  0.719105  0.471220  0.247664  1
  Zr  Zr4  1  0.242446  0.210923  0.953779  1
  Zr  Zr5  1  0.010229  0.510235  0.006396  1
  Zr  Zr6  1  0.535047  0.749545  0.293747  1
  Zr  Zr7  1  0.997110  0.996714  0.505430  1
  Zr  Zr8  1  0.502245  0.499749  0.509599  1
  Zr  Zr9  1  0.970476  0.259388  0.212843  1
  Zr  Zr10  1  0.461401  0.256593  0.717988  1
  Zr  Zr11  1  0.028689  0.739231  0.777490  1
  Zr  Zr12  1  0.752436  0.782790  0.034188  1
  Zr  Zr13  1  0.789794  0.033793  0.760231  1
  Zr  Zr14  1  0.281138  0.534171  0.745751  1
  Zr  Zr15  1  0.251724  0.706623  0.466248  1
  N  N16  1  0.728352  0.990443  0.959940  1
  N  N17  1  0.513630  0.237664  0.967479  1
  N  N18  1  0.770269  0.542257  0.528025  1
  N  N19  1  0.769322  0.730807  0.262471  1
  N  N20  1  0.464141  0.224487  0.455286  1
  N  N21  1  0.049294  0.275554  0.013932  1
  N  N22  1  0.957517  0.731890  0.991051  1
  N  N23  1  0.963960  0.508325  0.237954  1
  N  N24  1  0.275424  0.742490  0.226423  1
  N  N25  1  0.537053  0.772478  0.543077  1
  N  N26  1  0.227425  0.452381  0.466065  1
  N  N27  1  0.546009  0.534445  0.775893  1
  N  N28  1  0.988086  0.955211  0.726342  1
  N  N29  1  0.225277  0.267484  0.734282  1
  N  N30  1  0.030152  0.484007  0.758186  1
  N  N31  1  0.266605  0.778801  0.730511  1
  O  O32  1  0.764265  0.037917  0.488093  1
  O  O33  1  0.274950  0.012054  0.047595  1
  O  O34  1  0.735264  0.220400  0.274923  1
  O  O35  1  0.450975  0.466982  0.223824  1
  O  O36  1  0.227494  0.960891  0.503721  1
  O  O37  1  0.725814  0.255702  0.767901  1
  O  O38  1  0.014346  0.047479  0.277255  1
  O  O39  1  0.487568  0.764443  0.036842  1
