# generated using pymatgen
data_Li4MnV3(P2O7)4
_symmetry_space_group_name_H-M   'P 1'
_cell_length_a   4.97970041
_cell_length_b   8.40865223
_cell_length_c   26.78349146
_cell_angle_alpha   90.00000000
_cell_angle_beta   88.63337584
_cell_angle_gamma   90.00000000
_symmetry_Int_Tables_number   1
_chemical_formula_structural   Li4MnV3(P2O7)4
_chemical_formula_sum   'Li8 Mn2 V6 P16 O56'
_cell_volume   1121.17458717
_cell_formula_units_Z   2
loop_
 _symmetry_equiv_pos_site_id
 _symmetry_equiv_pos_as_xyz
  1  'x, y, z'
loop_
 _atom_site_type_symbol
 _atom_site_label
 _atom_site_symmetry_multiplicity
 _atom_site_fract_x
 _atom_site_fract_y
 _atom_site_fract_z
 _atom_site_occupancy
  Li  Li0  1  0.159681  0.362618  0.329991  1
  Li  Li1  1  0.158188  0.357674  0.831945  1
  Li  Li2  1  0.340408  0.860458  0.418383  1
  Li  Li3  1  0.337827  0.862315  0.917073  1
  Li  Li4  1  0.662173  0.362315  0.082927  1
  Li  Li5  1  0.659592  0.360458  0.581617  1
  Li  Li6  1  0.841812  0.857674  0.168055  1
  Li  Li7  1  0.840319  0.862618  0.670009  1
  Mn  Mn8  1  0.149226  0.000035  0.816288  1
  Mn  Mn9  1  0.850774  0.500035  0.183712  1
  V  V10  1  0.149031  -0.000056  0.318163  1
  V  V11  1  0.351424  0.499547  0.432040  1
  V  V12  1  0.349664  0.497087  0.931953  1
  V  V13  1  0.650336  0.997087  0.068047  1
  V  V14  1  0.648576  -0.000453  0.567960  1
  V  V15  1  0.850969  0.499944  0.681837  1
  P  P16  1  0.138761  0.179491  0.129373  1
  P  P17  1  0.172455  0.783683  0.021747  1
  P  P18  1  0.138781  0.181282  0.630676  1
  P  P19  1  0.171005  0.784987  0.521896  1
  P  P20  1  0.331588  0.281005  0.228677  1
  P  P21  1  0.359787  0.679491  0.119324  1
  P  P22  1  0.331666  0.289524  0.727938  1
  P  P23  1  0.361105  0.680744  0.619572  1
  P  P24  1  0.638895  0.180744  0.380428  1
  P  P25  1  0.668334  0.789524  0.272062  1
  P  P26  1  0.640213  0.179491  0.880676  1
  P  P27  1  0.668412  0.781005  0.771323  1
  P  P28  1  0.828995  0.284987  0.478104  1
  P  P29  1  0.861219  0.681282  0.369324  1
  P  P30  1  0.827545  0.283682  0.978253  1
  P  P31  1  0.861239  0.679491  0.870627  1
  O  O32  1  0.002941  0.843290  0.373060  1
  O  O33  1  0.054563  0.541983  0.379005  1
  O  O34  1  0.103646  0.682845  0.151154  1
  O  O35  1  0.997575  0.839515  0.876699  1
  O  O36  1  0.051982  0.537192  0.880019  1
  O  O37  1  0.152936  0.427051  0.231225  1
  O  O38  1  0.097170  0.676499  0.650839  1
  O  O39  1  0.117755  0.326557  0.462521  1
  O  O40  1  0.216975  0.155431  0.187381  1
  O  O41  1  0.143853  0.435444  0.727106  1
  O  O42  1  0.191927  0.697990  0.471750  1
  O  O43  1  0.118334  0.330265  0.963545  1
  O  O44  1  0.274802  0.653905  0.061658  1
  O  O45  1  0.222033  0.155734  0.688388  1
  O  O46  1  0.193311  0.695177  0.971715  1
  O  O47  1  0.306643  0.188877  0.278176  1
  O  O48  1  0.358876  0.930494  0.021466  1
  O  O49  1  0.280137  0.653987  0.561821  1
  O  O50  1  0.380821  0.830446  0.289342  1
  O  O51  1  0.317722  0.208325  0.778328  1
  O  O52  1  0.407744  0.169261  0.098753  1
  O  O53  1  0.358050  0.931238  0.521652  1
  O  O54  1  0.380626  0.817384  0.785315  1
  O  O55  1  0.401160  0.176968  0.598851  1
  O  O56  1  0.445869  0.041244  0.370916  1
  O  O57  1  0.509275  0.841752  0.121412  1
  O  O58  1  0.497198  0.342609  0.376597  1
  O  O59  1  0.453802  0.039811  0.871580  1
  O  O60  1  0.546198  0.539811  0.128420  1
  O  O61  1  0.502802  0.842609  0.623403  1
  O  O62  1  0.490725  0.341752  0.878588  1
  O  O63  1  0.554131  0.541244  0.629084  1
  O  O64  1  0.598840  0.676968  0.401149  1
  O  O65  1  0.619374  0.317384  0.214685  1
  O  O66  1  0.641950  0.431238  0.478348  1
  O  O67  1  0.592256  0.669261  0.901247  1
  O  O68  1  0.682278  0.708325  0.221672  1
  O  O69  1  0.619179  0.330446  0.710658  1
  O  O70  1  0.719863  0.153987  0.438179  1
  O  O71  1  0.641124  0.430494  0.978533  1
  O  O72  1  0.693357  0.688877  0.721824  1
  O  O73  1  0.806689  0.195177  0.028285  1
  O  O74  1  0.777967  0.655734  0.311612  1
  O  O75  1  0.725198  0.153905  0.938342  1
  O  O76  1  0.881666  0.830265  0.036455  1
  O  O77  1  0.808073  0.197990  0.528250  1
  O  O78  1  0.856147  0.935444  0.272894  1
  O  O79  1  0.783025  0.655431  0.812619  1
  O  O80  1  0.882244  0.826557  0.537479  1
  O  O81  1  0.902830  0.176499  0.349162  1
  O  O82  1  0.847064  0.927051  0.768775  1
  O  O83  1  0.948018  0.037192  0.119981  1
  O  O84  1  0.002425  0.339515  0.123301  1
  O  O85  1  0.896354  0.182845  0.848846  1
  O  O86  1  0.945437  0.041983  0.620995  1
  O  O87  1  0.997059  0.343290  0.626940  1
