# generated using pymatgen
data_Cr3Sb(PO4)6
_symmetry_space_group_name_H-M   'P 1'
_cell_length_a   8.81707041
_cell_length_b   8.81707114
_cell_length_c   8.81707104
_cell_angle_alpha   58.27678374
_cell_angle_beta   58.27678557
_cell_angle_gamma   58.27678324
_symmetry_Int_Tables_number   1
_chemical_formula_structural   Cr3Sb(PO4)6
_chemical_formula_sum   'Cr3 Sb1 P6 O24'
_cell_volume   465.55326334
_cell_formula_units_Z   1
loop_
 _symmetry_equiv_pos_site_id
 _symmetry_equiv_pos_as_xyz
  1  'x, y, z'
loop_
 _atom_site_type_symbol
 _atom_site_label
 _atom_site_symmetry_multiplicity
 _atom_site_fract_x
 _atom_site_fract_y
 _atom_site_fract_z
 _atom_site_occupancy
  Cr  Cr0  1  0.143129  0.143129  0.143129  1
  Cr  Cr1  1  0.356140  0.356140  0.356140  1
  Cr  Cr2  1  0.642092  0.642092  0.642092  1
  Sb  Sb3  1  0.857100  0.857100  0.857100  1
  P  P4  1  0.036135  0.749132  0.460741  1
  P  P5  1  0.460741  0.036135  0.749132  1
  P  P6  1  0.749132  0.460741  0.036135  1
  P  P7  1  0.252613  0.531918  0.965953  1
  P  P8  1  0.531918  0.965953  0.252613  1
  P  P9  1  0.965953  0.252613  0.531918  1
  O  O10  1  0.137180  0.279813  0.506404  1
  O  O11  1  0.279813  0.506404  0.137180  1
  O  O12  1  0.063630  0.922599  0.280051  1
  O  O13  1  0.506404  0.137180  0.279813  1
  O  O14  1  0.217971  0.575952  0.434078  1
  O  O15  1  0.018735  0.771718  0.634499  1
  O  O16  1  0.280051  0.063630  0.922599  1
  O  O17  1  0.434078  0.217971  0.575952  1
  O  O18  1  0.575952  0.434078  0.217971  1
  O  O19  1  0.218267  0.365367  0.991873  1
  O  O20  1  0.077103  0.719113  0.943256  1
  O  O21  1  0.365367  0.991873  0.218267  1
  O  O22  1  0.634499  0.018735  0.771718  1
  O  O23  1  0.922599  0.280051  0.063630  1
  O  O24  1  0.771718  0.634499  0.018735  1
  O  O25  1  0.424797  0.560195  0.784783  1
  O  O26  1  0.560195  0.784783  0.424797  1
  O  O27  1  0.719113  0.943256  0.077103  1
  O  O28  1  0.991873  0.218267  0.365367  1
  O  O29  1  0.784783  0.424797  0.560195  1
  O  O30  1  0.492937  0.862694  0.722031  1
  O  O31  1  0.943256  0.077103  0.719113  1
  O  O32  1  0.722031  0.492937  0.862694  1
  O  O33  1  0.862694  0.722031  0.492937  1
