# generated using pymatgen
data_Li3V3P8O29
_symmetry_space_group_name_H-M   'P 1'
_cell_length_a   9.74868276
_cell_length_b   9.75999958
_cell_length_c   14.11162529
_cell_angle_alpha   90.07107453
_cell_angle_beta   90.12457580
_cell_angle_gamma   60.04369156
_symmetry_Int_Tables_number   1
_chemical_formula_structural   Li3V3P8O29
_chemical_formula_sum   'Li6 V6 P16 O58'
_cell_volume   1163.30449838
_cell_formula_units_Z   2
loop_
 _symmetry_equiv_pos_site_id
 _symmetry_equiv_pos_as_xyz
  1  'x, y, z'
loop_
 _atom_site_type_symbol
 _atom_site_label
 _atom_site_symmetry_multiplicity
 _atom_site_fract_x
 _atom_site_fract_y
 _atom_site_fract_z
 _atom_site_occupancy
  Li  Li0  1  0.773912  0.911398  0.556014  1
  Li  Li1  1  0.912332  0.314408  0.557071  1
  Li  Li2  1  0.765054  0.330982  0.060162  1
  Li  Li3  1  0.330620  0.903366  0.060223  1
  Li  Li4  1  0.314645  0.774559  0.557245  1
  Li  Li5  1  0.986607  0.969503  0.003915  1
  V  V6  1  0.566113  0.433293  0.253519  1
  V  V7  1  0.433112  0.563915  0.752058  1
  V  V8  1  0.564844  0.001753  0.753628  1
  V  V9  1  0.435163  0.002112  0.251477  1
  V  V10  1  0.996045  0.569679  0.245855  1
  V  V11  1  0.002543  0.436087  0.754072  1
  P  P12  1  0.916978  0.777010  0.843799  1
  P  P13  1  0.773491  0.912037  0.341426  1
  P  P14  1  0.914754  0.317276  0.343113  1
  P  P15  1  0.664372  0.665561  0.128464  1
  P  P16  1  0.666402  0.667107  0.630502  1
  P  P17  1  0.773580  0.313843  0.842893  1
  P  P18  1  0.685574  0.227775  0.659366  1
  P  P19  1  0.312932  0.913005  0.843142  1
  P  P20  1  0.691922  0.085859  0.157668  1
  P  P21  1  0.316839  0.772039  0.342652  1
  P  P22  1  0.224991  0.689730  0.160055  1
  P  P23  1  0.329188  0.336780  0.369525  1
  P  P24  1  0.334406  0.332998  0.871042  1
  P  P25  1  0.085057  0.686222  0.657720  1
  P  P26  1  0.227732  0.087246  0.659857  1
  P  P27  1  0.084763  0.224270  0.159403  1
  O  O28  1  0.993408  0.768133  0.572289  1
  O  O29  1  0.916103  0.742570  0.331054  1
  O  O30  1  0.788102  0.005418  0.073178  1
  O  O31  1  0.742647  0.913402  0.831009  1
  O  O32  1  0.916255  0.617756  0.829135  1
  O  O33  1  0.811543  0.668864  0.173527  1
  O  O34  1  0.905201  0.477693  0.321026  1
  O  O35  1  0.992326  0.215985  0.077584  1
  O  O36  1  0.914539  0.344005  0.830527  1
  O  O37  1  0.665321  0.817908  0.672377  1
  O  O38  1  0.619394  0.903169  0.319877  1
  O  O39  1  0.817019  0.518632  0.673787  1
  O  O40  1  0.665201  0.660635  0.023086  1
  O  O41  1  0.666130  0.666197  0.525196  1
  O  O42  1  0.671596  0.511744  0.170304  1
  O  O43  1  0.473452  0.909131  0.826374  1
  O  O44  1  0.511495  0.814881  0.168064  1
  O  O45  1  0.744197  0.342350  0.331465  1
  O  O46  1  0.788556  0.202347  0.755601  1
  O  O47  1  0.770648  0.237427  0.575599  1
  O  O48  1  0.777635  0.238401  0.934763  1
  O  O49  1  0.617083  0.473669  0.825402  1
  O  O50  1  0.516347  0.665829  0.672305  1
  O  O51  1  0.655820  0.260970  0.163049  1
  O  O52  1  0.478767  0.619162  0.321689  1
  O  O53  1  0.343453  0.915296  0.330662  1
  O  O54  1  0.790642  0.008028  0.254631  1
  O  O55  1  0.760669  0.990148  0.433158  1
  O  O56  1  0.236560  0.992862  0.576002  1
  O  O57  1  0.660366  0.082602  0.660381  1
  O  O58  1  0.524063  0.380928  0.677930  1
  O  O59  1  0.342537  0.742266  0.829960  1
  O  O60  1  0.476935  0.339995  0.323660  1
  O  O61  1  0.383295  0.532946  0.171929  1
  O  O62  1  0.214553  0.790241  0.077661  1
  O  O63  1  0.250381  0.762313  0.434723  1
  O  O64  1  0.202159  0.789879  0.256620  1
  O  O65  1  0.256490  0.659650  0.659964  1
  O  O66  1  0.483280  0.185393  0.825255  1
  O  O67  1  0.534211  0.084037  0.171530  1
  O  O68  1  0.332549  0.481954  0.824969  1
  O  O69  1  0.335720  0.332192  0.975458  1
  O  O70  1  0.333892  0.331722  0.473984  1
  O  O71  1  0.181858  0.478126  0.322429  1
  O  O72  1  0.381671  0.094136  0.678856  1
  O  O73  1  0.339088  0.183195  0.322292  1
  O  O74  1  0.086189  0.655329  0.163822  1
  O  O75  1  0.004319  0.792238  0.751033  1
  O  O76  1  0.993642  0.790904  0.930302  1
  O  O77  1  0.093670  0.524925  0.678082  1
  O  O78  1  0.186632  0.331354  0.825354  1
  O  O79  1  0.085055  0.382186  0.170424  1
  O  O80  1  0.258231  0.083286  0.159842  1
  O  O81  1  0.238021  0.983213  0.935278  1
  O  O82  1  0.201692  0.009693  0.755845  1
  O  O83  1  0.083177  0.257925  0.661071  1
  O  O84  1  0.989749  0.248615  0.435048  1
  O  O85  1  0.011417  0.201008  0.257189  1
