# generated using pymatgen
data_Li6MnFe5(BO3)6
_symmetry_space_group_name_H-M   'P 1'
_cell_length_a   8.24476534
_cell_length_b   8.24601867
_cell_length_c   12.55723063
_cell_angle_alpha   89.95520622
_cell_angle_beta   90.21496457
_cell_angle_gamma   120.01402317
_symmetry_Int_Tables_number   1
_chemical_formula_structural   Li6MnFe5(BO3)6
_chemical_formula_sum   'Li12 Mn2 Fe10 B12 O36'
_cell_volume   739.23466754
_cell_formula_units_Z   2
loop_
 _symmetry_equiv_pos_site_id
 _symmetry_equiv_pos_as_xyz
  1  'x, y, z'
loop_
 _atom_site_type_symbol
 _atom_site_label
 _atom_site_symmetry_multiplicity
 _atom_site_fract_x
 _atom_site_fract_y
 _atom_site_fract_z
 _atom_site_occupancy
  Li  Li0  1  0.285973  0.984256  0.125239  1
  Li  Li1  1  0.286862  0.985074  0.874281  1
  Li  Li2  1  0.285589  0.984684  0.624835  1
  Li  Li3  1  0.285017  0.984461  0.375581  1
  Li  Li4  1  0.016017  0.301506  0.125609  1
  Li  Li5  1  0.015909  0.301975  0.375513  1
  Li  Li6  1  0.014515  0.301056  0.624943  1
  Li  Li7  1  0.015091  0.300988  0.874689  1
  Li  Li8  1  0.699270  0.713184  0.375807  1
  Li  Li9  1  0.698735  0.713851  0.625113  1
  Li  Li10  1  0.697851  0.712632  0.124044  1
  Li  Li11  1  0.698935  0.714199  0.874730  1
  Mn  Mn12  1  0.373240  0.361069  0.249755  1
  Mn  Mn13  1  0.638893  0.012296  0.000351  1
  Fe  Fe14  1  0.366318  0.359016  0.998121  1
  Fe  Fe15  1  0.368804  0.361366  0.500594  1
  Fe  Fe16  1  0.366643  0.359701  0.749093  1
  Fe  Fe17  1  0.639435  0.007558  0.500819  1
  Fe  Fe18  1  0.640544  0.006483  0.252074  1
  Fe  Fe19  1  0.638259  0.007603  0.749159  1
  Fe  Fe20  1  0.992775  0.632729  0.500557  1
  Fe  Fe21  1  0.993188  0.633873  0.000085  1
  Fe  Fe22  1  0.992658  0.633712  0.250130  1
  Fe  Fe23  1  0.992846  0.632956  0.750320  1
  B  B24  1  0.000491  0.998360  0.999762  1
  B  B25  1  0.997778  -0.000337  0.250237  1
  B  B26  1  0.000053  0.000214  0.500251  1
  B  B27  1  0.999814  -0.000091  0.749754  1
  B  B28  1  0.332746  0.666019  0.873074  1
  B  B29  1  0.332280  0.666575  0.124965  1
  B  B30  1  0.333523  0.668081  0.376821  1
  B  B31  1  0.332734  0.666747  0.624861  1
  B  B32  1  0.667916  0.333626  0.125033  1
  B  B33  1  0.668154  0.332908  0.376436  1
  B  B34  1  0.666444  0.333109  0.624962  1
  B  B35  1  0.667362  0.334765  0.873485  1
  O  O36  1  0.109282  0.916337  0.249675  1
  O  O37  1  0.113246  0.916464  0.999203  1
  O  O38  1  0.109082  0.914636  0.499742  1
  O  O39  1  0.109609  0.915311  0.749454  1
  O  O40  1  0.138457  0.579483  0.874946  1
  O  O41  1  0.137765  0.580018  0.125106  1
  O  O42  1  0.139007  0.580639  0.375077  1
  O  O43  1  0.138226  0.579379  0.625180  1
  O  O44  1  0.084162  0.192895  0.999815  1
  O  O45  1  0.085510  0.194258  0.501389  1
  O  O46  1  0.084760  0.194335  0.750582  1
  O  O47  1  0.079830  0.192897  0.250558  1
  O  O48  1  0.440052  0.860343  0.871267  1
  O  O49  1  0.439689  0.860906  0.623277  1
  O  O50  1  0.439860  0.860229  0.127575  1
  O  O51  1  0.440685  0.861894  0.375696  1
  O  O52  1  0.419491  0.558660  0.874330  1
  O  O53  1  0.418536  0.558786  0.122166  1
  O  O54  1  0.419803  0.559529  0.626324  1
  O  O55  1  0.420502  0.560594  0.378421  1
  O  O56  1  0.473591  0.252833  0.122732  1
  O  O57  1  0.472255  0.254278  0.625043  1
  O  O58  1  0.473727  0.253384  0.376325  1
  O  O59  1  0.473263  0.254741  0.873393  1
  O  O60  1  0.807058  0.886866  0.000214  1
  O  O61  1  0.803225  0.886823  0.250272  1
  O  O62  1  0.805698  0.890774  0.499604  1
  O  O63  1  0.805755  0.890744  0.749042  1
  O  O64  1  0.782009  0.527540  0.124708  1
  O  O65  1  0.782170  0.527149  0.375287  1
  O  O66  1  0.781755  0.527148  0.625092  1
  O  O67  1  0.782735  0.528575  0.874993  1
  O  O68  1  0.746964  0.218139  0.376644  1
  O  O69  1  0.747723  0.219500  0.127621  1
  O  O70  1  0.745047  0.217741  0.624873  1
  O  O71  1  0.746806  0.219965  0.873291  1
