# generated using pymatgen
data_Ba3V2P6(HO4)6
_symmetry_space_group_name_H-M   'P 1'
_cell_length_a   9.54150329
_cell_length_b   13.57491042
_cell_length_c   9.52511745
_cell_angle_alpha   110.53784943
_cell_angle_beta   60.05796911
_cell_angle_gamma   110.41758824
_symmetry_Int_Tables_number   1
_chemical_formula_structural   Ba3V2P6(HO4)6
_chemical_formula_sum   'Ba6 V4 P12 H12 O48'
_cell_volume   977.90496747
_cell_formula_units_Z   2
loop_
 _symmetry_equiv_pos_site_id
 _symmetry_equiv_pos_as_xyz
  1  'x, y, z'
loop_
 _atom_site_type_symbol
 _atom_site_label
 _atom_site_symmetry_multiplicity
 _atom_site_fract_x
 _atom_site_fract_y
 _atom_site_fract_z
 _atom_site_occupancy
  Ba  Ba0  1  0.160997  0.249945  0.339410  1
  Ba  Ba1  1  0.249997  0.750008  0.839524  1
  Ba  Ba2  1  0.661084  0.749954  0.249531  1
  Ba  Ba3  1  0.338999  0.250054  0.750453  1
  Ba  Ba4  1  0.750013  0.249999  0.160408  1
  Ba  Ba5  1  0.838950  0.750063  0.660666  1
  V  V6  1  0.249962  0.749949  0.249994  1
  V  V7  1  0.999994  0.000008  0.999998  1
  V  V8  1  0.499995  0.500005  0.500000  1
  V  V9  1  0.749961  0.249945  0.750000  1
  P  P10  1  0.046738  0.904178  0.255386  1
  P  P11  1  0.255552  0.904164  0.601983  1
  P  P12  1  0.244451  0.595829  0.453395  1
  P  P13  1  0.601571  0.903482  0.046402  1
  P  P14  1  0.101583  0.403481  0.755509  1
  P  P15  1  0.546709  0.404169  0.102050  1
  P  P16  1  0.453271  0.595826  0.897949  1
  P  P17  1  0.898392  0.596502  0.244505  1
  P  P18  1  0.755569  0.404165  0.546590  1
  P  P19  1  0.398378  0.096502  0.953646  1
  P  P20  1  0.744438  0.095831  0.397984  1
  P  P21  1  0.953299  0.095818  0.744597  1
  H  H22  1  0.065384  0.442283  0.390753  1
  H  H23  1  0.014089  0.558027  0.934675  1
  H  H24  1  0.109191  0.057928  0.434941  1
  H  H25  1  0.609192  0.557930  0.013795  1
  H  H26  1  0.565394  0.942286  0.486138  1
  H  H27  1  0.485927  0.941950  0.890729  1
  H  H28  1  0.514086  0.058028  0.109263  1
  H  H29  1  0.390842  0.442049  0.986190  1
  H  H30  1  0.434612  0.057701  0.513852  1
  H  H31  1  0.890844  0.942052  0.565026  1
  H  H32  1  0.985932  0.441949  0.065289  1
  H  H33  1  0.934613  0.557701  0.609237  1
  O  O34  1  0.000473  0.897550  0.116572  1
  O  O35  1  0.189166  0.844424  0.173156  1
  O  O36  1  0.019420  0.655623  0.325883  1
  O  O37  1  0.310807  0.655554  0.017873  1
  O  O38  1  0.173296  0.844745  0.481985  1
  O  O39  1  0.116719  0.897826  0.780272  1
  O  O40  1  0.098302  0.640715  0.604373  1
  O  O41  1  0.181898  0.471653  0.386957  1
  O  O42  1  0.326699  0.655229  0.310534  1
  O  O43  1  0.480527  0.844339  0.189651  1
  O  O44  1  0.097229  0.527878  0.817789  1
  O  O45  1  0.396043  0.359664  0.061815  1
  O  O46  1  0.401689  0.859309  0.561984  1
  O  O47  1  0.112929  0.028274  0.317982  1
  O  O48  1  0.383280  0.602198  0.499194  1
  O  O49  1  0.778380  0.895956  0.000549  1
  O  O50  1  0.103946  0.140350  0.598225  1
  O  O51  1  0.060766  0.359143  0.902771  1
  O  O52  1  0.402765  0.972120  0.887158  1
  O  O53  1  0.278347  0.395939  0.617037  1
  O  O54  1  0.681907  0.971655  0.402799  1
  O  O55  1  0.612935  0.528267  0.097343  1
  O  O56  1  0.439229  0.140882  0.104397  1
  O  O57  1  0.500481  0.397550  0.280475  1
  O  O58  1  0.499534  0.602464  0.719511  1
  O  O59  1  0.560782  0.859143  0.895588  1
  O  O60  1  0.387076  0.471732  0.902656  1
  O  O61  1  0.318098  0.028351  0.597194  1
  O  O62  1  0.721618  0.604068  0.382975  1
  O  O63  1  0.597242  0.027880  0.112858  1
  O  O64  1  0.896035  0.859676  0.401801  1
  O  O65  1  0.939221  0.640881  0.097245  1
  O  O66  1  0.221611  0.104052  0.999461  1
  O  O67  1  0.616720  0.397822  0.500845  1
  O  O68  1  0.887071  0.971732  0.682008  1
  O  O69  1  0.598319  0.140712  0.438041  1
  O  O70  1  0.603970  0.640360  0.938181  1
  O  O71  1  0.902764  0.472117  0.182188  1
  O  O72  1  0.673291  0.344738  0.689483  1
  O  O73  1  0.519426  0.155628  0.810310  1
  O  O74  1  0.818105  0.528346  0.613060  1
  O  O75  1  0.901691  0.359303  0.395648  1
  O  O76  1  0.883281  0.102195  0.219734  1
  O  O77  1  0.826716  0.155238  0.518014  1
  O  O78  1  0.689184  0.344408  0.982083  1
  O  O79  1  0.810786  0.155553  0.826881  1
  O  O80  1  0.980498  0.344330  0.674146  1
  O  O81  1  0.999519  0.102465  0.883441  1
