# generated using pymatgen
data_Na6CuP4(H13O15)2
_symmetry_space_group_name_H-M   'P 1'
_cell_length_a   7.78151235
_cell_length_b   9.29594563
_cell_length_c   13.78394581
_cell_angle_alpha   90.71833251
_cell_angle_beta   93.87782673
_cell_angle_gamma   115.45036935
_symmetry_Int_Tables_number   1
_chemical_formula_structural   Na6CuP4(H13O15)2
_chemical_formula_sum   'Na6 Cu1 P4 H26 O30'
_cell_volume   897.30417410
_cell_formula_units_Z   1
loop_
 _symmetry_equiv_pos_site_id
 _symmetry_equiv_pos_as_xyz
  1  'x, y, z'
loop_
 _atom_site_type_symbol
 _atom_site_label
 _atom_site_symmetry_multiplicity
 _atom_site_fract_x
 _atom_site_fract_y
 _atom_site_fract_z
 _atom_site_occupancy
  Na  Na0  1  0.112590  0.628886  0.893452  1
  Na  Na1  1  0.887410  0.371114  0.106548  1
  Na  Na2  1  0.407135  0.864712  0.731791  1
  Na  Na3  1  0.592865  0.135288  0.268209  1
  Na  Na4  1  0.271220  0.525373  0.498010  1
  Na  Na5  1  0.728780  0.474627  0.501990  1
  Cu  Cu6  1  0.000000  0.000000  0.000000  1
  P  P7  1  0.193586  0.242756  0.848601  1
  P  P8  1  0.806414  0.757244  0.151399  1
  P  P9  1  0.969422  0.908870  0.762931  1
  P  P10  1  0.030578  0.091130  0.237069  1
  H  H11  1  0.567295  0.861375  0.008316  1
  H  H12  1  0.432705  0.138625  0.991684  1
  H  H13  1  0.689476  0.450109  0.906542  1
  H  H14  1  0.310524  0.549891  0.093458  1
  H  H15  1  0.737466  0.848151  0.864114  1
  H  H16  1  0.262534  0.151849  0.135886  1
  H  H17  1  0.391865  0.567228  0.817778  1
  H  H18  1  0.608135  0.432772  0.182222  1
  H  H19  1  0.051214  0.367630  0.692745  1
  H  H20  1  0.948786  0.632370  0.307255  1
  H  H21  1  0.009888  0.636056  0.642467  1
  H  H22  1  0.990112  0.363944  0.357533  1
  H  H23  1  0.630563  0.685697  0.596519  1
  H  H24  1  0.369437  0.314303  0.403481  1
  H  H25  1  0.523532  0.266820  0.773233  1
  H  H26  1  0.476468  0.733180  0.226767  1
  H  H27  1  0.532597  0.206440  0.740462  1
  H  H28  1  0.467403  0.793560  0.259538  1
  H  H29  1  0.770606  0.203033  0.714504  1
  H  H30  1  0.229394  0.796967  0.285496  1
  H  H31  1  0.247050  0.973504  0.303936  1
  H  H32  1  0.752950  0.026496  0.696064  1
  H  H33  1  0.021217  0.753615  0.560167  1
  H  H34  1  0.978783  0.246385  0.439833  1
  H  H35  1  0.505811  0.893205  0.980390  1
  H  H36  1  0.494189  0.106795  0.019610  1
  O  O37  1  0.090165  0.104022  0.764807  1
  O  O38  1  0.909835  0.895978  0.235193  1
  O  O39  1  0.204965  0.165861  0.943641  1
  O  O40  1  0.795035  0.834139  0.056359  1
  O  O41  1  0.364208  0.372834  0.813791  1
  O  O42  1  0.635792  0.627166  0.186209  1
  O  O43  1  0.045560  0.331406  0.866545  1
  O  O44  1  0.954440  0.668594  0.133455  1
  O  O45  1  0.876119  0.878934  0.869477  1
  O  O46  1  0.123881  0.121066  0.130523  1
  O  O47  1  0.104597  0.832023  0.766665  1
  O  O48  1  0.895403  0.167977  0.233335  1
  O  O49  1  0.811386  0.865883  0.685131  1
  O  O50  1  0.188614  0.134117  0.314869  1
  O  O51  1  0.365222  0.908286  0.558491  1
  O  O52  1  0.634778  0.091714  0.441509  1
  O  O53  1  0.899329  0.246241  0.924581  1
  O  O54  1  0.100671  0.753759  0.075419  1
  O  O55  1  0.377718  0.667590  0.821929  1
  O  O56  1  0.622282  0.332410  0.178071  1
  O  O57  1  0.014700  0.648459  0.571980  1
  O  O58  1  0.985300  0.351541  0.428020  1
  O  O59  1  0.587970  0.655275  0.527127  1
  O  O60  1  0.412030  0.344725  0.472873  1
  O  O61  1  0.939091  0.389193  0.694990  1
  O  O62  1  0.060909  0.610807  0.305010  1
  O  O63  1  0.336193  0.821714  0.484686  1
  O  O64  1  0.663807  0.178286  0.515314  1
  O  O65  1  0.685418  0.086017  0.720750  1
  O  O66  1  0.314582  0.913983  0.279250  1
