# generated using pymatgen
data_AgBiO3
_symmetry_space_group_name_H-M   'P 1'
_cell_length_a   6.77349709
_cell_length_b   6.77279339
_cell_length_c   3.52090404
_cell_angle_alpha   90.07072290
_cell_angle_beta   90.06968999
_cell_angle_gamma   73.02767985
_symmetry_Int_Tables_number   1
_chemical_formula_structural   AgBiO3
_chemical_formula_sum   'Ag2 Bi2 O6'
_cell_volume   154.48804088
_cell_formula_units_Z   2
loop_
 _symmetry_equiv_pos_site_id
 _symmetry_equiv_pos_as_xyz
  1  'x, y, z'
loop_
 _atom_site_type_symbol
 _atom_site_label
 _atom_site_symmetry_multiplicity
 _atom_site_fract_x
 _atom_site_fract_y
 _atom_site_fract_z
 _atom_site_occupancy
  Ag  Ag0  1  0.499244  0.499351  0.500698  1
  Ag  Ag1  1  0.999586  0.999815  0.500851  1
  Bi  Bi2  1  0.999410  0.499968  0.000615  1
  Bi  Bi3  1  0.499401  0.000072  0.000559  1
  O  O4  1  0.187605  0.546102  0.501169  1
  O  O5  1  0.453316  0.811947  0.500388  1
  O  O6  1  0.856548  0.857023  0.001670  1
  O  O7  1  0.142495  0.142961  0.999934  1
  O  O8  1  0.811084  0.453957  0.500457  1
  O  O9  1  0.545479  0.188485  0.501099  1
