# generated using pymatgen
data_Li4AlCr3O8
_symmetry_space_group_name_H-M   'P 1'
_cell_length_a   5.11086617
_cell_length_b   7.76086522
_cell_length_c   7.75934191
_cell_angle_alpha   81.85897312
_cell_angle_beta   71.00920023
_cell_angle_gamma   83.83847801
_symmetry_Int_Tables_number   1
_chemical_formula_structural   Li4AlCr3O8
_chemical_formula_sum   'Li8 Al2 Cr6 O16'
_cell_volume   287.47035185
_cell_formula_units_Z   2
loop_
 _symmetry_equiv_pos_site_id
 _symmetry_equiv_pos_as_xyz
  1  'x, y, z'
loop_
 _atom_site_type_symbol
 _atom_site_label
 _atom_site_symmetry_multiplicity
 _atom_site_fract_x
 _atom_site_fract_y
 _atom_site_fract_z
 _atom_site_occupancy
  Li  Li0  1  0.000114  0.000029  0.999621  1
  Li  Li1  1  0.999688  0.250572  0.250711  1
  Li  Li2  1  0.000323  0.624431  0.124289  1
  Li  Li3  1  0.999818  0.126601  0.624800  1
  Li  Li4  1  0.999660  0.499043  0.501511  1
  Li  Li5  1  -0.000113  0.874974  0.375386  1
  Li  Li6  1  0.000343  0.375961  0.873494  1
  Li  Li7  1  0.000182  0.748400  0.750199  1
  Al  Al8  1  0.500135  0.313777  0.563714  1
  Al  Al9  1  0.499857  0.561227  0.811282  1
  Cr  Cr10  1  0.500156  0.063829  0.313785  1
  Cr  Cr11  1  0.500004  0.437489  0.187494  1
  Cr  Cr12  1  0.499844  0.811175  0.061217  1
  Cr  Cr13  1  0.500062  0.684573  0.440278  1
  Cr  Cr14  1  0.499944  0.190433  0.934722  1
  Cr  Cr15  1  0.499995  0.937494  0.687490  1
  O  O16  1  0.273189  0.031132  0.150657  1
  O  O17  1  0.727482  0.220057  0.097696  1
  O  O18  1  0.278293  0.411826  0.019270  1
  O  O19  1  0.721613  0.103362  0.477461  1
  O  O20  1  0.279406  0.282664  0.408631  1
  O  O21  1  0.272499  0.654943  0.277314  1
  O  O22  1  0.721728  0.463162  0.355728  1
  O  O23  1  0.278661  0.161216  0.768431  1
  O  O24  1  0.284097  0.523340  0.655429  1
  O  O25  1  0.726825  0.843880  0.224348  1
  O  O26  1  0.715925  0.351675  0.719554  1
  O  O27  1  0.272715  0.904424  0.526554  1
  O  O28  1  0.721370  0.713778  0.606576  1
  O  O29  1  0.278373  0.771625  0.897550  1
  O  O30  1  0.720564  0.592329  0.966368  1
  O  O31  1  0.727245  0.970575  0.848444  1
