# generated using pymatgen
data_Li2VO2F
_symmetry_space_group_name_H-M   'P 1'
_cell_length_a   3.03909782
_cell_length_b   10.32173876
_cell_length_c   7.89493123
_cell_angle_alpha   72.58006419
_cell_angle_beta   101.17208348
_cell_angle_gamma   89.83706964
_symmetry_Int_Tables_number   1
_chemical_formula_structural   Li2VO2F
_chemical_formula_sum   'Li8 V4 O8 F4'
_cell_volume   231.32774158
_cell_formula_units_Z   4
loop_
 _symmetry_equiv_pos_site_id
 _symmetry_equiv_pos_as_xyz
  1  'x, y, z'
loop_
 _atom_site_type_symbol
 _atom_site_label
 _atom_site_symmetry_multiplicity
 _atom_site_fract_x
 _atom_site_fract_y
 _atom_site_fract_z
 _atom_site_occupancy
  Li  Li0  1  0.419939  0.119979  0.839909  1
  Li  Li1  1  0.080003  0.128539  0.159378  1
  Li  Li2  1  0.061006  0.646461  0.122116  1
  Li  Li3  1  0.430299  0.627976  0.860192  1
  Li  Li4  1  0.925566  0.365417  0.851917  1
  Li  Li5  1  0.561165  0.883557  0.121659  1
  Li  Li6  1  0.580005  0.383098  0.158453  1
  Li  Li7  1  0.932720  0.850734  0.868322  1
  V  V8  1  0.252518  0.371989  0.500513  1
  V  V9  1  0.252100  0.882781  0.506877  1
  V  V10  1  0.752758  0.127680  0.497969  1
  V  V11  1  0.745011  0.610916  0.517004  1
  O  O12  1  0.342805  0.011096  0.648055  1
  O  O13  1  0.334689  0.502395  0.658239  1
  O  O14  1  0.161664  0.246073  0.346574  1
  O  O15  1  0.817366  0.255068  0.652888  1
  O  O16  1  0.803332  0.757307  0.631829  1
  O  O17  1  0.692985  0.492131  0.357718  1
  O  O18  1  0.688732  0.995786  0.347299  1
  O  O19  1  0.499157  0.750586  0.000004  1
  F  F20  1  0.163597  0.740718  0.349863  1
  F  F21  1  0.000860  0.010007  0.000699  1
  F  F22  1  0.001508  0.490324  0.001220  1
  F  F23  1  0.500133  0.249382  0.001304  1
