# generated using pymatgen
data_LiAgF3
_symmetry_space_group_name_H-M   'P 1'
_cell_length_a   5.46738291
_cell_length_b   5.94080790
_cell_length_c   5.46738342
_cell_angle_alpha   62.60290756
_cell_angle_beta   60.00000303
_cell_angle_gamma   62.60290102
_symmetry_Int_Tables_number   1
_chemical_formula_structural   LiAgF3
_chemical_formula_sum   'Li2 Ag2 F6'
_cell_volume   130.28656030
_cell_formula_units_Z   2
loop_
 _symmetry_equiv_pos_site_id
 _symmetry_equiv_pos_as_xyz
  1  'x, y, z'
loop_
 _atom_site_type_symbol
 _atom_site_label
 _atom_site_symmetry_multiplicity
 _atom_site_fract_x
 _atom_site_fract_y
 _atom_site_fract_z
 _atom_site_occupancy
  Li  Li0  1  0.800409  0.598773  0.800409  1
  Li  Li1  1  0.300409  0.098773  0.300409  1
  Ag  Ag2  1  0.512993  0.461020  0.512993  1
  Ag  Ag3  1  0.012993  0.961020  0.012993  1
  F  F4  1  0.937353  0.243932  0.594964  1
  F  F5  1  0.437353  0.743932  0.723751  1
  F  F6  1  0.723751  0.743932  0.094964  1
  F  F7  1  0.594964  0.243932  0.223751  1
  F  F8  1  0.223751  0.243932  0.937353  1
  F  F9  1  0.094964  0.743932  0.437353  1
