# generated using pymatgen
data_Li7(SbS)2
_symmetry_space_group_name_H-M   'P 1'
_cell_length_a   10.37921669
_cell_length_b   8.94165611
_cell_length_c   5.73488624
_cell_angle_alpha   76.46698910
_cell_angle_beta   90.16328494
_cell_angle_gamma   119.89946029
_symmetry_Int_Tables_number   1
_chemical_formula_structural   Li7(SbS)2
_chemical_formula_sum   'Li14 Sb4 S4'
_cell_volume   444.48118276
_cell_formula_units_Z   2
loop_
 _symmetry_equiv_pos_site_id
 _symmetry_equiv_pos_as_xyz
  1  'x, y, z'
loop_
 _atom_site_type_symbol
 _atom_site_label
 _atom_site_symmetry_multiplicity
 _atom_site_fract_x
 _atom_site_fract_y
 _atom_site_fract_z
 _atom_site_occupancy
  Li  Li0  1  0.123868  0.695178  0.440506  1
  Li  Li1  1  0.208004  0.947377  0.907625  1
  Li  Li2  1  0.124765  0.181433  0.448430  1
  Li  Li3  1  0.129887  0.203613  0.933038  1
  Li  Li4  1  0.436640  0.560453  0.640342  1
  Li  Li5  1  0.472761  0.827956  0.203375  1
  Li  Li6  1  0.330816  0.074663  0.403598  1
  Li  Li7  1  0.669184  0.925337  0.596402  1
  Li  Li8  1  0.527239  0.172044  0.796625  1
  Li  Li9  1  0.563360  0.439547  0.359658  1
  Li  Li10  1  0.870113  0.796387  0.066962  1
  Li  Li11  1  0.875235  0.818567  0.551570  1
  Li  Li12  1  0.791996  0.052623  0.092375  1
  Li  Li13  1  0.876132  0.304822  0.559494  1
  Sb  Sb14  1  0.125440  0.495342  0.107483  1
  Sb  Sb15  1  0.363244  0.800155  0.742718  1
  Sb  Sb16  1  0.636756  0.199845  0.257282  1
  Sb  Sb17  1  0.874560  0.504658  0.892517  1
  S  S18  1  0.093689  0.945774  0.264859  1
  S  S19  1  0.342089  0.259299  0.661283  1
  S  S20  1  0.657911  0.740701  0.338717  1
  S  S21  1  0.906311  0.054226  0.735141  1
