# generated using pymatgen
data_Li3Fe2P2(CO7)2
_symmetry_space_group_name_H-M   'P 1'
_cell_length_a   9.44364456
_cell_length_b   8.27949367
_cell_length_c   8.26249050
_cell_angle_alpha   76.78580626
_cell_angle_beta   72.73203229
_cell_angle_gamma   106.58364631
_symmetry_Int_Tables_number   1
_chemical_formula_structural   Li3Fe2P2(CO7)2
_chemical_formula_sum   'Li6 Fe4 P4 C4 O28'
_cell_volume   555.52618761
_cell_formula_units_Z   2
loop_
 _symmetry_equiv_pos_site_id
 _symmetry_equiv_pos_as_xyz
  1  'x, y, z'
loop_
 _atom_site_type_symbol
 _atom_site_label
 _atom_site_symmetry_multiplicity
 _atom_site_fract_x
 _atom_site_fract_y
 _atom_site_fract_z
 _atom_site_occupancy
  Li  Li0  1  0.894360  0.192332  0.068864  1
  Li  Li1  1  0.896230  0.693485  0.560377  1
  Li  Li2  1  0.718819  0.753234  0.283020  1
  Li  Li3  1  0.281181  0.246766  0.716980  1
  Li  Li4  1  0.105640  0.807668  0.931136  1
  Li  Li5  1  0.103770  0.306515  0.439623  1
  Fe  Fe6  1  0.666172  0.808138  0.934397  1
  Fe  Fe7  1  0.671000  0.305427  0.442989  1
  Fe  Fe8  1  0.333828  0.191862  0.065603  1
  Fe  Fe9  1  0.329000  0.694573  0.557011  1
  P  P10  1  0.576063  0.547557  0.692759  1
  P  P11  1  0.579526  0.050323  0.200250  1
  P  P12  1  0.423937  0.452443  0.307241  1
  P  P13  1  0.420474  0.949677  0.799750  1
  C  C14  1  0.959138  0.505221  0.247238  1
  C  C15  1  0.960222  0.006280  0.756507  1
  C  C16  1  0.039778  0.993720  0.243493  1
  C  C17  1  0.040862  0.494779  0.752762  1
  O  O18  1  0.925702  0.863688  0.892332  1
  O  O19  1  0.929605  0.363667  0.379569  1
  O  O20  1  0.900084  0.875178  0.338693  1
  O  O21  1  0.831521  0.529959  0.231787  1
  O  O22  1  0.904740  0.384503  0.864667  1
  O  O23  1  0.837294  0.021163  0.722251  1
  O  O24  1  0.692445  0.967711  0.099673  1
  O  O25  1  0.689032  0.171920  0.268589  1
  O  O26  1  0.676304  0.658385  0.776209  1
  O  O27  1  0.696901  0.481773  0.580108  1
  O  O28  1  0.579903  0.608529  0.168305  1
  O  O29  1  0.527370  0.164044  0.071139  1
  O  O30  1  0.531587  0.669915  0.557734  1
  O  O31  1  0.574536  0.094780  0.647816  1
  O  O32  1  0.425464  0.905220  0.352184  1
  O  O33  1  0.468413  0.330085  0.442266  1
  O  O34  1  0.472630  0.835956  0.928860  1
  O  O35  1  0.420097  0.391471  0.831695  1
  O  O36  1  0.303099  0.518227  0.419892  1
  O  O37  1  0.323696  0.341615  0.223791  1
  O  O38  1  0.310968  0.828082  0.731411  1
  O  O39  1  0.307555  0.032289  0.900327  1
  O  O40  1  0.162706  0.978837  0.277749  1
  O  O41  1  0.095260  0.615497  0.135333  1
  O  O42  1  0.168479  0.470041  0.768213  1
  O  O43  1  0.099916  0.124822  0.661307  1
  O  O44  1  0.070395  0.636333  0.620431  1
  O  O45  1  0.074298  0.136312  0.107668  1
