# generated using pymatgen
data_LiMnOF2
_symmetry_space_group_name_H-M   'P 1'
_cell_length_a   5.25280202
_cell_length_b   8.90124221
_cell_length_c   9.55367183
_cell_angle_alpha   94.38722221
_cell_angle_beta   90.00000000
_cell_angle_gamma   90.00000000
_symmetry_Int_Tables_number   1
_chemical_formula_structural   LiMnOF2
_chemical_formula_sum   'Li8 Mn8 O8 F16'
_cell_volume   445.38701198
_cell_formula_units_Z   8
loop_
 _symmetry_equiv_pos_site_id
 _symmetry_equiv_pos_as_xyz
  1  'x, y, z'
loop_
 _atom_site_type_symbol
 _atom_site_label
 _atom_site_symmetry_multiplicity
 _atom_site_fract_x
 _atom_site_fract_y
 _atom_site_fract_z
 _atom_site_occupancy
  Li  Li0  1  0.169552  0.173142  0.997407  1
  Li  Li1  1  0.157444  0.838565  0.787365  1
  Li  Li2  1  0.342556  0.338565  0.287365  1
  Li  Li3  1  0.330448  0.673142  0.497407  1
  Li  Li4  1  0.666062  0.353728  0.994968  1
  Li  Li5  1  0.657944  0.658015  0.800275  1
  Li  Li6  1  0.842056  0.158015  0.300275  1
  Li  Li7  1  0.833938  0.853728  0.494968  1
  Mn  Mn8  1  0.168675  0.483803  0.809855  1
  Mn  Mn9  1  0.210873  0.146482  0.577669  1
  Mn  Mn10  1  0.289127  0.646482  0.077669  1
  Mn  Mn11  1  0.331325  0.983803  0.309855  1
  Mn  Mn12  1  0.649680  0.016571  0.802644  1
  Mn  Mn13  1  0.647735  0.332213  0.567949  1
  Mn  Mn14  1  0.852265  0.832213  0.067949  1
  Mn  Mn15  1  0.850320  0.516571  0.302644  1
  O  O16  1  0.063612  0.010698  0.434353  1
  O  O17  1  0.018457  0.684107  0.939997  1
  O  O18  1  0.153327  0.826528  0.175609  1
  O  O19  1  0.141453  0.496483  0.202879  1
  O  O20  1  0.358547  0.996483  0.702879  1
  O  O21  1  0.346673  0.326528  0.675609  1
  O  O22  1  0.481544  0.184107  0.439997  1
  O  O23  1  0.436388  0.510698  0.934353  1
  F  F24  1  0.000338  0.339406  0.923910  1
  F  F25  1  0.179316  0.150071  0.198852  1
  F  F26  1  0.320684  0.650071  0.698852  1
  F  F27  1  0.499662  0.839406  0.423910  1
  F  F28  1  0.512204  0.166462  0.939987  1
  F  F29  1  0.539040  0.507085  0.427429  1
  F  F30  1  0.550485  0.828550  0.939812  1
  F  F31  1  0.636264  0.661611  0.172665  1
  F  F32  1  0.682160  0.340198  0.196161  1
  F  F33  1  0.660330  0.986282  0.198995  1
  F  F34  1  0.839670  0.486282  0.698995  1
  F  F35  1  0.817840  0.840198  0.696161  1
  F  F36  1  0.863736  0.161611  0.672665  1
  F  F37  1  0.949515  0.328550  0.439812  1
  F  F38  1  0.960960  0.007085  0.927429  1
  F  F39  1  0.987796  0.666462  0.439987  1
