# generated using pymatgen
data_LiV2F9
_symmetry_space_group_name_H-M   'P 1'
_cell_length_a   5.03422352
_cell_length_b   8.91914971
_cell_length_c   10.03997383
_cell_angle_alpha   123.22867798
_cell_angle_beta   107.67902181
_cell_angle_gamma   93.05925390
_symmetry_Int_Tables_number   1
_chemical_formula_structural   LiV2F9
_chemical_formula_sum   'Li2 V4 F18'
_cell_volume   345.35322077
_cell_formula_units_Z   2
loop_
 _symmetry_equiv_pos_site_id
 _symmetry_equiv_pos_as_xyz
  1  'x, y, z'
loop_
 _atom_site_type_symbol
 _atom_site_label
 _atom_site_symmetry_multiplicity
 _atom_site_fract_x
 _atom_site_fract_y
 _atom_site_fract_z
 _atom_site_occupancy
  Li  Li0  1  0.347509  0.253464  0.388460  1
  Li  Li1  1  0.652796  0.746790  0.611779  1
  V  V2  1  0.058427  0.499578  0.744019  1
  V  V3  1  0.380008  0.121963  0.787074  1
  V  V4  1  0.619462  0.877902  0.212952  1
  V  V5  1  0.941817  0.500527  0.256000  1
  F  F6  1  0.026343  0.973454  0.689998  1
  F  F7  1  0.055866  0.314012  0.270045  1
  F  F8  1  0.250067  0.683832  0.459770  1
  F  F9  1  0.204106  0.308271  0.778014  1
  F  F10  1  0.304000  0.471709  0.635161  1
  F  F11  1  0.113330  0.464352  0.114496  1
  F  F12  1  0.427811  0.864148  0.327573  1
  F  F13  1  0.422809  0.699483  0.973202  1
  F  F14  1  0.559493  0.953814  0.803119  1
  F  F15  1  0.440354  0.046280  0.197109  1
  F  F16  1  0.577228  0.300523  0.026796  1
  F  F17  1  0.571858  0.135862  0.672568  1
  F  F18  1  0.886760  0.535616  0.885410  1
  F  F19  1  0.696255  0.528379  0.364849  1
  F  F20  1  0.795851  0.691753  0.222091  1
  F  F21  1  0.750348  0.316100  0.540272  1
  F  F22  1  0.944388  0.686061  0.729897  1
  F  F23  1  0.973112  0.026126  0.309348  1
