# generated using pymatgen
data_Li9Mn7(PO4)12
_symmetry_space_group_name_H-M   'P 1'
_cell_length_a   8.56187628
_cell_length_b   8.72317532
_cell_length_c   12.00272922
_cell_angle_alpha   89.57971127
_cell_angle_beta   89.93409037
_cell_angle_gamma   90.12320624
_symmetry_Int_Tables_number   1
_chemical_formula_structural   Li9Mn7(PO4)12
_chemical_formula_sum   'Li9 Mn7 P12 O48'
_cell_volume   896.41801009
_cell_formula_units_Z   1
loop_
 _symmetry_equiv_pos_site_id
 _symmetry_equiv_pos_as_xyz
  1  'x, y, z'
loop_
 _atom_site_type_symbol
 _atom_site_label
 _atom_site_symmetry_multiplicity
 _atom_site_fract_x
 _atom_site_fract_y
 _atom_site_fract_z
 _atom_site_occupancy
  Li  Li0  1  0.217170  0.723313  0.182420  1
  Li  Li1  1  0.215562  0.780752  0.818597  1
  Li  Li2  1  0.285572  0.221206  0.316371  1
  Li  Li3  1  0.287478  0.279059  0.679399  1
  Li  Li4  1  0.715709  0.716005  0.324031  1
  Li  Li5  1  0.720876  0.761804  0.680741  1
  Li  Li6  1  0.750081  0.461438  0.615024  1
  Li  Li7  1  0.783528  0.222226  0.182032  1
  Li  Li8  1  0.783276  0.283284  0.808797  1
  Mn  Mn9  1  0.248607  0.963986  0.611272  1
  Mn  Mn10  1  0.245596  0.535661  0.387336  1
  Mn  Mn11  1  0.249862  0.036080  0.113782  1
  Mn  Mn12  1  0.251184  0.466413  0.885790  1
  Mn  Mn13  1  0.747024  0.534978  0.114942  1
  Mn  Mn14  1  0.748330  0.962489  0.885012  1
  Mn  Mn15  1  0.754434  0.037685  0.387820  1
  P  P16  1  0.104861  0.395821  0.147465  1
  P  P17  1  0.103950  0.107072  0.853428  1
  P  P18  1  0.392201  0.611992  0.646488  1
  P  P19  1  0.395746  0.893240  0.354649  1
  P  P20  1  0.606829  0.102091  0.648415  1
  P  P21  1  0.602673  0.393017  0.354662  1
  P  P22  1  0.895142  0.606340  0.860576  1
  P  P23  1  0.893061  0.892850  0.146296  1
  P  P24  1  0.035497  0.250998  0.500684  1
  P  P25  1  0.466245  0.746812  0.000096  1
  P  P26  1  0.535590  0.249131  0.998177  1
  P  P27  1  0.965796  0.752520  0.501090  1
  O  O28  1  0.061569  0.649354  0.421877  1
  O  O29  1  0.060731  0.865995  0.571508  1
  O  O30  1  0.073699  0.894895  0.156162  1
  O  O31  1  0.078138  0.610575  0.850503  1
  O  O32  1  0.150670  0.158677  0.578566  1
  O  O33  1  0.149201  0.335443  0.417130  1
  O  O34  1  0.156812  0.439372  0.029042  1
  O  O35  1  0.153792  0.061462  0.970248  1
  O  O36  1  0.155169  0.234797  0.181423  1
  O  O37  1  0.156718  0.272185  0.820678  1
  O  O38  1  0.175419  0.518257  0.226718  1
  O  O39  1  0.177281  0.988865  0.772520  1
  O  O40  1  0.322360  0.011801  0.274099  1
  O  O41  1  0.311518  0.490077  0.725682  1
  O  O42  1  0.324919  0.772480  0.676489  1
  O  O43  1  0.343466  0.728922  0.322808  1
  O  O44  1  0.343417  0.560374  0.528361  1
  O  O45  1  0.346949  0.938233  0.472351  1
  O  O46  1  0.358449  0.830499  0.080425  1
  O  O47  1  0.359700  0.660654  0.914653  1
  O  O48  1  0.424076  0.095368  0.656531  1
  O  O49  1  0.421813  0.396147  0.337633  1
  O  O50  1  0.442266  0.142032  0.074306  1
  O  O51  1  0.440900  0.357095  0.922783  1
  O  O52  1  0.559932  0.638208  0.075491  1
  O  O53  1  0.559524  0.857886  0.925140  1
  O  O54  1  0.565866  0.612347  0.659040  1
  O  O55  1  0.576556  0.895419  0.343732  1
  O  O56  1  0.647247  0.338033  0.078260  1
  O  O57  1  0.645828  0.160631  0.917372  1
  O  O58  1  0.655740  0.055334  0.529298  1
  O  O59  1  0.655586  0.441759  0.466469  1
  O  O60  1  0.653761  0.227167  0.320388  1
  O  O61  1  0.654121  0.260496  0.681837  1
  O  O62  1  0.675524  0.510270  0.268600  1
  O  O63  1  0.677040  0.973575  0.726494  1
  O  O64  1  0.821230  0.014125  0.226211  1
  O  O65  1  0.824025  0.491125  0.783999  1
  O  O66  1  0.838104  0.730028  0.181226  1
  O  O67  1  0.846055  0.773646  0.825567  1
  O  O68  1  0.852699  0.576138  0.982665  1
  O  O69  1  0.842817  0.939716  0.028678  1
  O  O70  1  0.861491  0.665770  0.579938  1
  O  O71  1  0.857879  0.840728  0.416162  1
  O  O72  1  0.922580  0.104412  0.841608  1
  O  O73  1  0.923455  0.397236  0.157971  1
  O  O74  1  0.946931  0.140391  0.421941  1
  O  O75  1  0.945101  0.353737  0.574026  1
