# generated using pymatgen
data_SrH6C2S2N2O3
_symmetry_space_group_name_H-M   'P 1'
_cell_length_a   9.54118523
_cell_length_b   7.16382123
_cell_length_c   13.52453390
_cell_angle_alpha   90.00000000
_cell_angle_beta   94.24374466
_cell_angle_gamma   90.00000000
_symmetry_Int_Tables_number   1
_chemical_formula_structural   SrH6C2S2N2O3
_chemical_formula_sum   'Sr4 H24 C8 S8 N8 O12'
_cell_volume   921.88557691
_cell_formula_units_Z   4
loop_
 _symmetry_equiv_pos_site_id
 _symmetry_equiv_pos_as_xyz
  1  'x, y, z'
loop_
 _atom_site_type_symbol
 _atom_site_label
 _atom_site_symmetry_multiplicity
 _atom_site_fract_x
 _atom_site_fract_y
 _atom_site_fract_z
 _atom_site_occupancy
  Sr  Sr0  1  0.108655  0.753053  0.451493  1
  Sr  Sr1  1  0.608655  0.746947  0.951493  1
  Sr  Sr2  1  0.891345  0.246947  0.548507  1
  Sr  Sr3  1  0.391345  0.253053  0.048507  1
  H  H4  1  0.947764  0.990371  0.269812  1
  H  H5  1  0.447764  0.509629  0.769812  1
  H  H6  1  0.052236  0.009629  0.730188  1
  H  H7  1  0.552236  0.490371  0.230188  1
  H  H8  1  0.857393  0.816517  0.295938  1
  H  H9  1  0.357393  0.683483  0.795938  1
  H  H10  1  0.142607  0.183483  0.704062  1
  H  H11  1  0.642607  0.316517  0.204062  1
  H  H12  1  0.357650  0.786661  0.307822  1
  H  H13  1  0.857650  0.713339  0.807822  1
  H  H14  1  0.642350  0.213339  0.692178  1
  H  H15  1  0.142350  0.286661  0.192178  1
  H  H16  1  0.217399  0.819163  0.240735  1
  H  H17  1  0.717399  0.680837  0.740735  1
  H  H18  1  0.782601  0.180837  0.759265  1
  H  H19  1  0.282601  0.319163  0.259265  1
  H  H20  1  0.355960  0.935016  0.592349  1
  H  H21  1  0.855960  0.564984  0.092349  1
  H  H22  1  0.644040  0.064984  0.407651  1
  H  H23  1  0.144040  0.435016  0.907651  1
  H  H24  1  0.417554  0.736007  0.574711  1
  H  H25  1  0.917554  0.763993  0.074711  1
  H  H26  1  0.582446  0.263993  0.425289  1
  H  H27  1  0.082446  0.236007  0.925289  1
  C  C28  1  0.920404  0.396306  0.307086  1
  C  C29  1  0.420404  0.103694  0.807086  1
  C  C30  1  0.079596  0.603694  0.692914  1
  C  C31  1  0.579596  0.896306  0.192914  1
  C  C32  1  0.218482  0.237904  0.457071  1
  C  C33  1  0.718482  0.262096  0.957071  1
  C  C34  1  0.781518  0.762096  0.542929  1
  C  C35  1  0.281518  0.737904  0.042929  1
  S  S36  1  0.895638  0.293381  0.199264  1
  S  S37  1  0.395638  0.206619  0.699264  1
  S  S38  1  0.104362  0.706619  0.800736  1
  S  S39  1  0.604362  0.793381  0.300736  1
  S  S40  1  0.332087  0.399092  0.434894  1
  S  S41  1  0.832087  0.100908  0.934894  1
  S  S42  1  0.667913  0.600908  0.565106  1
  S  S43  1  0.167913  0.899092  0.065106  1
  N  N44  1  0.940097  0.467669  0.386412  1
  N  N45  1  0.440097  0.032331  0.886412  1
  N  N46  1  0.059903  0.532331  0.613588  1
  N  N47  1  0.559903  0.967669  0.113588  1
  N  N48  1  0.133353  0.122194  0.473355  1
  N  N49  1  0.633353  0.377806  0.973355  1
  N  N50  1  0.866647  0.877806  0.526645  1
  N  N51  1  0.366647  0.622194  0.026645  1
  O  O52  1  0.954074  0.864729  0.299099  1
  O  O53  1  0.454074  0.635271  0.799099  1
  O  O54  1  0.045926  0.135271  0.700901  1
  O  O55  1  0.545926  0.364729  0.200901  1
  O  O56  1  0.257066  0.814229  0.309841  1
  O  O57  1  0.757066  0.685771  0.809841  1
  O  O58  1  0.742934  0.185771  0.690159  1
  O  O59  1  0.242934  0.314229  0.190159  1
  O  O60  1  0.336176  0.816121  0.557958  1
  O  O61  1  0.836176  0.683879  0.057958  1
  O  O62  1  0.663824  0.183879  0.442042  1
  O  O63  1  0.163824  0.316121  0.942042  1
