# generated using pymatgen
data_Li4Mn3F10
_symmetry_space_group_name_H-M   'P 1'
_cell_length_a   5.41154523
_cell_length_b   27.09654284
_cell_length_c   5.41589034
_cell_angle_alpha   90.00000000
_cell_angle_beta   90.00000000
_cell_angle_gamma   90.00000000
_symmetry_Int_Tables_number   1
_chemical_formula_structural   Li4Mn3F10
_chemical_formula_sum   'Li16 Mn12 F40'
_cell_volume   794.15456941
_cell_formula_units_Z   4
loop_
 _symmetry_equiv_pos_site_id
 _symmetry_equiv_pos_as_xyz
  1  'x, y, z'
loop_
 _atom_site_type_symbol
 _atom_site_label
 _atom_site_symmetry_multiplicity
 _atom_site_fract_x
 _atom_site_fract_y
 _atom_site_fract_z
 _atom_site_occupancy
  Li  Li0  1  0.985605  0.425493  0.489617  1
  Li  Li1  1  0.985605  0.925493  0.010383  1
  Li  Li2  1  0.036790  0.279806  0.534043  1
  Li  Li3  1  0.036790  0.779806  0.965957  1
  Li  Li4  1  0.463210  0.279806  0.034043  1
  Li  Li5  1  0.463210  0.779806  0.465957  1
  Li  Li6  1  0.514395  0.925493  0.510383  1
  Li  Li7  1  0.514395  0.425493  0.989617  1
  Li  Li8  1  0.485605  0.574507  0.010383  1
  Li  Li9  1  0.485605  0.074507  0.489617  1
  Li  Li10  1  0.536790  0.220194  0.534043  1
  Li  Li11  1  0.536790  0.720194  0.965957  1
  Li  Li12  1  0.963210  0.220194  0.034043  1
  Li  Li13  1  0.963210  0.720194  0.465957  1
  Li  Li14  1  0.014395  0.074507  0.989617  1
  Li  Li15  1  0.014395  0.574507  0.510383  1
  Mn  Mn16  1  0.000000  0.000000  0.500000  1
  Mn  Mn17  1  0.000000  0.500000  0.000000  1
  Mn  Mn18  1  0.003621  0.148536  0.504218  1
  Mn  Mn19  1  0.003621  0.648536  0.995782  1
  Mn  Mn20  1  0.496379  0.648536  0.495782  1
  Mn  Mn21  1  0.496379  0.148536  0.004218  1
  Mn  Mn22  1  0.500000  0.500000  0.500000  1
  Mn  Mn23  1  0.500000  0.000000  0.000000  1
  Mn  Mn24  1  0.503621  0.351464  0.504218  1
  Mn  Mn25  1  0.503621  0.851464  0.995782  1
  Mn  Mn26  1  0.996379  0.351464  0.004218  1
  Mn  Mn27  1  0.996379  0.851464  0.495782  1
  F  F28  1  0.126250  0.278631  0.901724  1
  F  F29  1  0.126250  0.778631  0.598276  1
  F  F30  1  0.139788  0.074339  0.606986  1
  F  F31  1  0.139788  0.574339  0.893014  1
  F  F32  1  0.161195  0.477204  0.665411  1
  F  F33  1  0.161195  0.977204  0.834589  1
  F  F34  1  0.156616  0.172911  0.840533  1
  F  F35  1  0.156616  0.672911  0.659467  1
  F  F36  1  0.159807  0.373894  0.667371  1
  F  F37  1  0.159807  0.873894  0.832629  1
  F  F38  1  0.340193  0.873894  0.332629  1
  F  F39  1  0.340193  0.373894  0.167371  1
  F  F40  1  0.343384  0.172911  0.340533  1
  F  F41  1  0.343384  0.672911  0.159467  1
  F  F42  1  0.338805  0.477204  0.165411  1
  F  F43  1  0.338805  0.977204  0.334589  1
  F  F44  1  0.360212  0.574339  0.393014  1
  F  F45  1  0.360212  0.074339  0.106986  1
  F  F46  1  0.373750  0.278631  0.401724  1
  F  F47  1  0.373750  0.778631  0.098276  1
  F  F48  1  0.626250  0.221369  0.901724  1
  F  F49  1  0.626250  0.721369  0.598276  1
  F  F50  1  0.639788  0.925661  0.893014  1
  F  F51  1  0.639788  0.425661  0.606986  1
  F  F52  1  0.661196  0.022796  0.665411  1
  F  F53  1  0.661196  0.522796  0.834589  1
  F  F54  1  0.656616  0.327089  0.840533  1
  F  F55  1  0.656616  0.827089  0.659467  1
  F  F56  1  0.659807  0.626106  0.832629  1
  F  F57  1  0.659807  0.126106  0.667371  1
  F  F58  1  0.840193  0.626106  0.332629  1
  F  F59  1  0.840193  0.126106  0.167371  1
  F  F60  1  0.843384  0.327089  0.340533  1
  F  F61  1  0.843384  0.827089  0.159467  1
  F  F62  1  0.838804  0.022796  0.165411  1
  F  F63  1  0.838804  0.522796  0.334589  1
  F  F64  1  0.860212  0.425661  0.106986  1
  F  F65  1  0.860212  0.925661  0.393014  1
  F  F66  1  0.873750  0.221369  0.401724  1
  F  F67  1  0.873750  0.721369  0.098276  1
