# generated using pymatgen
data_SmH8S3N3O10
_symmetry_space_group_name_H-M   'P 1'
_cell_length_a   6.88543108
_cell_length_b   9.61747763
_cell_length_c   9.52340715
_cell_angle_alpha   67.57314317
_cell_angle_beta   74.50078523
_cell_angle_gamma   81.72745544
_symmetry_Int_Tables_number   1
_chemical_formula_structural   SmH8S3N3O10
_chemical_formula_sum   'Sm2 H16 S6 N6 O20'
_cell_volume   561.12499731
_cell_formula_units_Z   2
loop_
 _symmetry_equiv_pos_site_id
 _symmetry_equiv_pos_as_xyz
  1  'x, y, z'
loop_
 _atom_site_type_symbol
 _atom_site_label
 _atom_site_symmetry_multiplicity
 _atom_site_fract_x
 _atom_site_fract_y
 _atom_site_fract_z
 _atom_site_occupancy
  Sm  Sm0  1  0.129350  0.183934  0.078304  1
  Sm  Sm1  1  0.870650  0.816066  0.921696  1
  H  H2  1  0.013312  0.724106  0.380984  1
  H  H3  1  0.153693  0.126583  0.412833  1
  H  H4  1  0.203803  0.318774  0.487373  1
  H  H5  1  0.337241  0.021127  0.357171  1
  H  H6  1  0.379924  0.551191  0.248407  1
  H  H7  1  0.390260  0.682854  0.322082  1
  H  H8  1  0.542845  0.271083  0.378096  1
  H  H9  1  0.582296  0.307529  0.186444  1
  H  H10  1  0.417704  0.692471  0.813556  1
  H  H11  1  0.457155  0.728917  0.621904  1
  H  H12  1  0.609740  0.317146  0.677918  1
  H  H13  1  0.620076  0.448809  0.751593  1
  H  H14  1  0.662759  0.978873  0.642829  1
  H  H15  1  0.796196  0.681226  0.512627  1
  H  H16  1  0.846307  0.873417  0.587167  1
  H  H17  1  0.986688  0.275894  0.619016  1
  S  S18  1  0.308230  0.784499  0.089859  1
  S  S19  1  0.247792  0.114202  0.690612  1
  S  S20  1  0.219442  0.562975  0.757745  1
  S  S21  1  0.780558  0.437025  0.242255  1
  S  S22  1  0.752208  0.885798  0.309388  1
  S  S23  1  0.691770  0.215501  0.910141  1
  N  N24  1  0.116736  0.231494  0.564507  1
  N  N25  1  0.315873  0.651934  0.259446  1
  N  N26  1  0.568704  0.354821  0.269058  1
  N  N27  1  0.431296  0.645179  0.730942  1
  N  N28  1  0.684127  0.348066  0.740554  1
  N  N29  1  0.883265  0.768506  0.435492  1
  O  O30  1  0.170322  0.729459  0.030916  1
  O  O31  1  0.230763  0.097835  0.323581  1
  O  O32  1  0.044474  0.670856  0.772115  1
  O  O33  1  0.229667  0.918560  0.129602  1
  O  O34  1  0.493427  0.192003  0.021597  1
  O  O35  1  0.247092  0.522986  0.621646  1
  O  O36  1  0.221192  0.161625  0.824670  1
  O  O37  1  0.165595  0.965917  0.739198  1
  O  O38  1  0.210214  0.435907  0.907092  1
  O  O39  1  0.456601  0.123821  0.597650  1
  O  O40  1  0.543399  0.876179  0.402350  1
  O  O41  1  0.789786  0.564093  0.092908  1
  O  O42  1  0.834405  0.034083  0.260802  1
  O  O43  1  0.778808  0.838375  0.175330  1
  O  O44  1  0.752908  0.477014  0.378354  1
  O  O45  1  0.506573  0.807997  0.978403  1
  O  O46  1  0.770333  0.081440  0.870398  1
  O  O47  1  0.955526  0.329144  0.227885  1
  O  O48  1  0.769237  0.902165  0.676419  1
  O  O49  1  0.829678  0.270541  0.969084  1
