# generated using pymatgen
data_Bi3Ir3O11
_symmetry_space_group_name_H-M   'P 1'
_cell_length_a   9.49239641
_cell_length_b   9.49239641
_cell_length_c   9.49239641
_cell_angle_alpha   90.00000000
_cell_angle_beta   90.00000000
_cell_angle_gamma   90.00000000
_symmetry_Int_Tables_number   1
_chemical_formula_structural   Bi3Ir3O11
_chemical_formula_sum   'Bi12 Ir12 O44'
_cell_volume   855.31797528
_cell_formula_units_Z   4
loop_
 _symmetry_equiv_pos_site_id
 _symmetry_equiv_pos_as_xyz
  1  'x, y, z'
loop_
 _atom_site_type_symbol
 _atom_site_label
 _atom_site_symmetry_multiplicity
 _atom_site_fract_x
 _atom_site_fract_y
 _atom_site_fract_z
 _atom_site_occupancy
  Bi  Bi0  1  0.000000  0.000000  0.500000  1
  Bi  Bi1  1  0.000000  0.500000  0.000000  1
  Bi  Bi2  1  0.117471  0.117471  0.117471  1
  Bi  Bi3  1  0.117471  0.382529  0.382529  1
  Bi  Bi4  1  0.382529  0.117471  0.382529  1
  Bi  Bi5  1  0.382529  0.382529  0.117471  1
  Bi  Bi6  1  0.500000  0.500000  0.500000  1
  Bi  Bi7  1  0.500000  0.000000  0.000000  1
  Bi  Bi8  1  0.617471  0.617471  0.882529  1
  Bi  Bi9  1  0.617471  0.882529  0.617471  1
  Bi  Bi10  1  0.882529  0.617471  0.617471  1
  Bi  Bi11  1  0.882529  0.882529  0.882529  1
  Ir  Ir12  1  0.091412  0.750000  0.250000  1
  Ir  Ir13  1  0.250000  0.091412  0.750000  1
  Ir  Ir14  1  0.250000  0.750000  0.591412  1
  Ir  Ir15  1  0.250000  0.750000  0.908588  1
  Ir  Ir16  1  0.250000  0.408588  0.750000  1
  Ir  Ir17  1  0.408588  0.750000  0.250000  1
  Ir  Ir18  1  0.591412  0.250000  0.750000  1
  Ir  Ir19  1  0.750000  0.250000  0.091412  1
  Ir  Ir20  1  0.750000  0.250000  0.408588  1
  Ir  Ir21  1  0.750000  0.591412  0.250000  1
  Ir  Ir22  1  0.750000  0.908588  0.250000  1
  Ir  Ir23  1  0.908588  0.250000  0.750000  1
  O  O24  1  0.039949  0.083175  0.744028  1
  O  O25  1  0.039949  0.416825  0.755972  1
  O  O26  1  0.083175  0.744028  0.039949  1
  O  O27  1  0.083175  0.755972  0.460051  1
  O  O28  1  0.110020  0.750000  0.750000  1
  O  O29  1  0.147084  0.147084  0.352916  1
  O  O30  1  0.147084  0.352916  0.147084  1
  O  O31  1  0.255972  0.960051  0.916825  1
  O  O32  1  0.255972  0.539949  0.583175  1
  O  O33  1  0.250000  0.610020  0.250000  1
  O  O34  1  0.250000  0.889980  0.250000  1
  O  O35  1  0.250000  0.250000  0.610020  1
  O  O36  1  0.250000  0.250000  0.889980  1
  O  O37  1  0.244028  0.539949  0.916825  1
  O  O38  1  0.244028  0.960051  0.583175  1
  O  O39  1  0.352916  0.147084  0.147084  1
  O  O40  1  0.352916  0.352916  0.352916  1
  O  O41  1  0.389980  0.750000  0.750000  1
  O  O42  1  0.416825  0.755972  0.039949  1
  O  O43  1  0.416825  0.744028  0.460051  1
  O  O44  1  0.460051  0.083175  0.755972  1
  O  O45  1  0.460051  0.416825  0.744028  1
  O  O46  1  0.539949  0.583175  0.255972  1
  O  O47  1  0.539949  0.916825  0.244028  1
  O  O48  1  0.583175  0.255972  0.539949  1
  O  O49  1  0.583175  0.244028  0.960051  1
  O  O50  1  0.610020  0.250000  0.250000  1
  O  O51  1  0.647084  0.647084  0.647084  1
  O  O52  1  0.647084  0.852916  0.852916  1
  O  O53  1  0.755972  0.039949  0.416825  1
  O  O54  1  0.755972  0.460051  0.083175  1
  O  O55  1  0.750000  0.110020  0.750000  1
  O  O56  1  0.750000  0.389980  0.750000  1
  O  O57  1  0.750000  0.750000  0.110020  1
  O  O58  1  0.750000  0.750000  0.389980  1
  O  O59  1  0.744028  0.039949  0.083175  1
  O  O60  1  0.744028  0.460051  0.416825  1
  O  O61  1  0.852916  0.647084  0.852916  1
  O  O62  1  0.852916  0.852916  0.647084  1
  O  O63  1  0.889980  0.250000  0.250000  1
  O  O64  1  0.916825  0.255972  0.960051  1
  O  O65  1  0.916825  0.244028  0.539949  1
  O  O66  1  0.960051  0.916825  0.255972  1
  O  O67  1  0.960051  0.583175  0.244028  1
