# generated using pymatgen
data_Fe7P12WO48
_symmetry_space_group_name_H-M   'P 1'
_cell_length_a   8.79641649
_cell_length_b   8.79029401
_cell_length_c   12.24194035
_cell_angle_alpha   90.14537695
_cell_angle_beta   89.86247324
_cell_angle_gamma   90.05463436
_symmetry_Int_Tables_number   1
_chemical_formula_structural   Fe7P12WO48
_chemical_formula_sum   'Fe7 P12 W1 O48'
_cell_volume   946.57842271
_cell_formula_units_Z   1
loop_
 _symmetry_equiv_pos_site_id
 _symmetry_equiv_pos_as_xyz
  1  'x, y, z'
loop_
 _atom_site_type_symbol
 _atom_site_label
 _atom_site_symmetry_multiplicity
 _atom_site_fract_x
 _atom_site_fract_y
 _atom_site_fract_z
 _atom_site_occupancy
  Fe  Fe0  1  0.250183  0.964209  0.618681  1
  Fe  Fe1  1  0.250684  0.534087  0.383114  1
  Fe  Fe2  1  0.249533  0.036025  0.119357  1
  Fe  Fe3  1  0.249144  0.465166  0.880949  1
  Fe  Fe4  1  0.751516  0.537188  0.118953  1
  Fe  Fe5  1  0.751803  0.963998  0.880692  1
  Fe  Fe6  1  0.749564  0.035345  0.381050  1
  P  P7  1  0.035297  0.245808  0.498833  1
  P  P8  1  0.106844  0.393489  0.145055  1
  P  P9  1  0.108866  0.106049  0.855566  1
  P  P10  1  0.389060  0.606549  0.644740  1
  P  P11  1  0.391952  0.893744  0.355356  1
  P  P12  1  0.467386  0.750516  0.001326  1
  P  P13  1  0.533955  0.250712  0.001525  1
  P  P14  1  0.607127  0.392398  0.352220  1
  P  P15  1  0.606475  0.104912  0.643773  1
  P  P16  1  0.893453  0.609519  0.856607  1
  P  P17  1  0.891200  0.894313  0.145068  1
  P  P18  1  0.966447  0.751356  0.497184  1
  W  W19  1  0.749291  0.465390  0.615981  1
  O  O20  1  0.062948  0.650813  0.422896  1
  O  O21  1  0.062430  0.841891  0.578582  1
  O  O22  1  0.065629  0.908033  0.148109  1
  O  O23  1  0.064717  0.590677  0.852730  1
  O  O24  1  0.128218  0.149631  0.577702  1
  O  O25  1  0.140499  0.347123  0.432002  1
  O  O26  1  0.170190  0.442748  0.033870  1
  O  O27  1  0.169352  0.057711  0.967901  1
  O  O28  1  0.149333  0.227210  0.167872  1
  O  O29  1  0.151546  0.272774  0.833437  1
  O  O30  1  0.174567  0.499329  0.232073  1
  O  O31  1  0.180671  0.998209  0.770874  1
  O  O32  1  0.320452  0.999696  0.270088  1
  O  O33  1  0.321388  0.502068  0.730765  1
  O  O34  1  0.360632  0.776061  0.665629  1
  O  O35  1  0.349414  0.726370  0.333129  1
  O  O36  1  0.335224  0.558117  0.531289  1
  O  O37  1  0.331887  0.943320  0.468091  1
  O  O38  1  0.361971  0.848987  0.072097  1
  O  O39  1  0.367490  0.648174  0.929608  1
  O  O40  1  0.433016  0.099625  0.649368  1
  O  O41  1  0.434967  0.409816  0.347722  1
  O  O42  1  0.436269  0.150564  0.076685  1
  O  O43  1  0.436464  0.347011  0.923945  1
  O  O44  1  0.565662  0.655295  0.079078  1
  O  O45  1  0.564735  0.849313  0.925019  1
  O  O46  1  0.568855  0.581304  0.650014  1
  O  O47  1  0.565529  0.908378  0.348927  1
  O  O48  1  0.631543  0.352300  0.075066  1
  O  O49  1  0.639693  0.153049  0.930477  1
  O  O50  1  0.666864  0.060279  0.532117  1
  O  O51  1  0.664499  0.435670  0.472057  1
  O  O52  1  0.650569  0.226950  0.331548  1
  O  O53  1  0.655180  0.277819  0.665285  1
  O  O54  1  0.686090  0.503150  0.274480  1
  O  O55  1  0.677350  0.005074  0.731472  1
  O  O56  1  0.821280  0.001457  0.229822  1
  O  O57  1  0.825154  0.503736  0.760930  1
  O  O58  1  0.851188  0.727611  0.167826  1
  O  O59  1  0.849029  0.772755  0.829470  1
  O  O60  1  0.824542  0.554631  0.963400  1
  O  O61  1  0.832033  0.941145  0.032012  1
  O  O62  1  0.857120  0.644733  0.566720  1
  O  O63  1  0.861801  0.850884  0.429182  1
  O  O64  1  0.935085  0.092023  0.852386  1
  O  O65  1  0.933101  0.406248  0.145811  1
  O  O66  1  0.937315  0.151436  0.421922  1
  O  O67  1  0.926734  0.348033  0.572487  1
