# generated using pymatgen
data_Li2FeF4
_symmetry_space_group_name_H-M   'P 1'
_cell_length_a   5.85784855
_cell_length_b   5.87828261
_cell_length_c   5.53026086
_cell_angle_alpha   92.20900198
_cell_angle_beta   88.17383298
_cell_angle_gamma   112.19280052
_symmetry_Int_Tables_number   1
_chemical_formula_structural   Li2FeF4
_chemical_formula_sum   'Li4 Fe2 F8'
_cell_volume   176.16024837
_cell_formula_units_Z   2
loop_
 _symmetry_equiv_pos_site_id
 _symmetry_equiv_pos_as_xyz
  1  'x, y, z'
loop_
 _atom_site_type_symbol
 _atom_site_label
 _atom_site_symmetry_multiplicity
 _atom_site_fract_x
 _atom_site_fract_y
 _atom_site_fract_z
 _atom_site_occupancy
  Li  Li0  1  0.019196  0.017913  0.000022  1
  Li  Li1  1  0.986869  0.992787  0.501222  1
  Li  Li2  1  0.232760  0.773215  0.817455  1
  Li  Li3  1  0.765248  0.224351  0.180460  1
  Fe  Fe4  1  0.381320  0.610966  0.295808  1
  Fe  Fe5  1  0.618241  0.388246  0.704124  1
  F  F6  1  0.189013  0.800356  0.157193  1
  F  F7  1  0.098670  0.281170  0.265044  1
  F  F8  1  0.399745  0.602801  0.670875  1
  F  F9  1  0.706038  0.897528  0.266059  1
  F  F10  1  0.290088  0.106485  0.745400  1
  F  F11  1  0.599711  0.395611  0.328892  1
  F  F12  1  0.904304  0.714141  0.727383  1
  F  F13  1  0.808655  0.193989  0.840060  1
