# generated using pymatgen
data_Li4Cr5(P3O11)2
_symmetry_space_group_name_H-M   'P 1'
_cell_length_a   12.63548660
_cell_length_b   6.91336193
_cell_length_c   10.91090086
_cell_angle_alpha   90.00000000
_cell_angle_beta   105.06308681
_cell_angle_gamma   90.00000000
_symmetry_Int_Tables_number   1
_chemical_formula_structural   Li4Cr5(P3O11)2
_chemical_formula_sum   'Li8 Cr10 P12 O44'
_cell_volume   920.35895021
_cell_formula_units_Z   2
loop_
 _symmetry_equiv_pos_site_id
 _symmetry_equiv_pos_as_xyz
  1  'x, y, z'
loop_
 _atom_site_type_symbol
 _atom_site_label
 _atom_site_symmetry_multiplicity
 _atom_site_fract_x
 _atom_site_fract_y
 _atom_site_fract_z
 _atom_site_occupancy
  Li  Li0  1  0.185135  0.168465  0.552119  1
  Li  Li1  1  0.185135  0.331535  0.052119  1
  Li  Li2  1  0.328785  0.513098  0.896641  1
  Li  Li3  1  0.328785  0.986902  0.396641  1
  Li  Li4  1  0.671215  0.013098  0.603359  1
  Li  Li5  1  0.671215  0.486902  0.103359  1
  Li  Li6  1  0.814865  0.668465  0.947881  1
  Li  Li7  1  0.814865  0.831535  0.447881  1
  Cr  Cr8  1  0.000000  0.500000  0.500000  1
  Cr  Cr9  1  0.126735  0.753163  0.786961  1
  Cr  Cr10  1  0.000000  0.000000  0.000000  1
  Cr  Cr11  1  0.126735  0.746837  0.286961  1
  Cr  Cr12  1  0.338615  0.982687  0.793466  1
  Cr  Cr13  1  0.338615  0.517313  0.293466  1
  Cr  Cr14  1  0.661385  0.482687  0.706534  1
  Cr  Cr15  1  0.661385  0.017313  0.206534  1
  Cr  Cr16  1  0.873265  0.253163  0.713039  1
  Cr  Cr17  1  0.873265  0.246837  0.213039  1
  P  P18  1  0.098704  0.262262  0.770011  1
  P  P19  1  0.098704  0.237738  0.270011  1
  P  P20  1  0.262491  0.614444  0.571922  1
  P  P21  1  0.262491  0.885556  0.071922  1
  P  P22  1  0.417163  0.295624  0.569147  1
  P  P23  1  0.417163  0.204376  0.069147  1
  P  P24  1  0.582837  0.795624  0.930853  1
  P  P25  1  0.582837  0.704376  0.430853  1
  P  P26  1  0.737509  0.114444  0.928078  1
  P  P27  1  0.737509  0.385556  0.428078  1
  P  P28  1  0.901296  0.762262  0.729989  1
  P  P29  1  0.901296  0.737738  0.229988  1
  O  O30  1  0.018708  0.218738  0.854873  1
  O  O31  1  0.009646  0.302865  0.640472  1
  O  O32  1  0.018708  0.281262  0.354873  1
  O  O33  1  0.009646  0.197135  0.140472  1
  O  O34  1  0.172461  0.431142  0.830141  1
  O  O35  1  0.168950  0.091581  0.742135  1
  O  O36  1  0.174806  0.457655  0.545880  1
  O  O37  1  0.260187  0.766919  0.952026  1
  O  O38  1  0.172461  0.068858  0.330141  1
  O  O39  1  0.168950  0.408419  0.242135  1
  O  O40  1  0.254740  0.744834  0.684125  1
  O  O41  1  0.174806  0.042345  0.045880  1
  O  O42  1  0.260187  0.733081  0.452026  1
  O  O43  1  0.393081  0.202170  0.923300  1
  O  O44  1  0.254740  0.755166  0.184125  1
  O  O45  1  0.347281  0.135043  0.605820  1
  O  O46  1  0.379524  0.506200  0.616602  1
  O  O47  1  0.461900  0.781534  0.862413  1
  O  O48  1  0.393081  0.297830  0.423300  1
  O  O49  1  0.347281  0.364957  0.105820  1
  O  O50  1  0.379524  0.993800  0.116602  1
  O  O51  1  0.461900  0.718466  0.362413  1
  O  O52  1  0.538100  0.281534  0.637587  1
  O  O53  1  0.620476  0.006200  0.883398  1
  O  O54  1  0.652719  0.635043  0.894180  1
  O  O55  1  0.606919  0.702170  0.576700  1
  O  O56  1  0.538100  0.218466  0.137587  1
  O  O57  1  0.620476  0.493800  0.383398  1
  O  O58  1  0.652719  0.864957  0.394180  1
  O  O59  1  0.745260  0.244834  0.815875  1
  O  O60  1  0.606919  0.797830  0.076700  1
  O  O61  1  0.739813  0.266919  0.547974  1
  O  O62  1  0.825194  0.957655  0.954120  1
  O  O63  1  0.745260  0.255166  0.315875  1
  O  O64  1  0.831050  0.591581  0.757865  1
  O  O65  1  0.827539  0.931142  0.669859  1
  O  O66  1  0.739813  0.233081  0.047974  1
  O  O67  1  0.825194  0.542345  0.454120  1
  O  O68  1  0.831050  0.908419  0.257865  1
  O  O69  1  0.827539  0.568858  0.169859  1
  O  O70  1  0.990354  0.802865  0.859528  1
  O  O71  1  0.981292  0.718738  0.645127  1
  O  O72  1  0.990354  0.697135  0.359528  1
  O  O73  1  0.981292  0.781262  0.145127  1
