# generated using pymatgen
data_Li7V3P8O29
_symmetry_space_group_name_H-M   'P 1'
_cell_length_a   9.87823893
_cell_length_b   9.87423105
_cell_length_c   13.92386376
_cell_angle_alpha   90.43614692
_cell_angle_beta   90.34101261
_cell_angle_gamma   59.74873998
_symmetry_Int_Tables_number   1
_chemical_formula_structural   Li7V3P8O29
_chemical_formula_sum   'Li14 V6 P16 O58'
_cell_volume   1173.15168922
_cell_formula_units_Z   2
loop_
 _symmetry_equiv_pos_site_id
 _symmetry_equiv_pos_as_xyz
  1  'x, y, z'
loop_
 _atom_site_type_symbol
 _atom_site_label
 _atom_site_symmetry_multiplicity
 _atom_site_fract_x
 _atom_site_fract_y
 _atom_site_fract_z
 _atom_site_occupancy
  Li  Li0  1  0.908826  0.778475  0.063178  1
  Li  Li1  1  0.759681  0.898183  0.559986  1
  Li  Li2  1  0.904522  0.324592  0.556358  1
  Li  Li3  1  0.668806  0.664187  0.885544  1
  Li  Li4  1  0.774177  0.308341  0.062598  1
  Li  Li5  1  0.316706  0.907208  0.062697  1
  Li  Li6  1  0.678432  0.231285  0.435812  1
  Li  Li7  1  0.331239  0.763065  0.559789  1
  Li  Li8  1  0.219040  0.691909  0.939294  1
  Li  Li9  1  0.331433  0.344598  0.614451  1
  Li  Li10  1  0.336219  0.329489  0.115637  1
  Li  Li11  1  0.232014  0.089040  0.434449  1
  Li  Li12  1  0.080609  0.223603  0.940242  1
  Li  Li13  1  0.011137  0.924765  0.485465  1
  V  V14  1  0.564566  0.433057  0.252678  1
  V  V15  1  0.433640  0.568947  0.750586  1
  V  V16  1  0.568128  0.001564  0.752568  1
  V  V17  1  0.439090  0.997676  0.250210  1
  V  V18  1  0.003551  0.565345  0.253655  1
  V  V19  1  0.996176  0.438180  0.746818  1
  P  P20  1  0.908882  0.768992  0.845040  1
  P  P21  1  0.773173  0.915481  0.342380  1
  P  P22  1  0.914558  0.317070  0.343312  1
  P  P23  1  0.673579  0.661294  0.127628  1
  P  P24  1  0.666296  0.670701  0.624255  1
  P  P25  1  0.769376  0.324438  0.843446  1
  P  P26  1  0.681018  0.228378  0.658036  1
  P  P27  1  0.322227  0.913190  0.843250  1
  P  P28  1  0.683128  0.089903  0.158381  1
  P  P29  1  0.312613  0.773709  0.343395  1
  P  P30  1  0.228182  0.678499  0.157549  1
  P  P31  1  0.334488  0.330115  0.374093  1
  P  P32  1  0.327305  0.335074  0.873244  1
  P  P33  1  0.084949  0.690857  0.659393  1
  P  P34  1  0.230445  0.089370  0.655814  1
  P  P35  1  0.090974  0.231679  0.158503  1
  O  O36  1  0.982425  0.794634  0.580114  1
  O  O37  1  0.914816  0.751574  0.335540  1
  O  O38  1  0.768805  0.987938  0.076110  1
  O  O39  1  0.747850  0.916994  0.839646  1
  O  O40  1  0.885028  0.626162  0.824967  1
  O  O41  1  0.822350  0.661946  0.170269  1
  O  O42  1  0.908210  0.474879  0.330746  1
  O  O43  1  0.997602  0.248701  0.068499  1
  O  O44  1  0.923814  0.330509  0.837490  1
  O  O45  1  0.667649  0.819108  0.669942  1
  O  O46  1  0.617740  0.914620  0.331359  1
  O  O47  1  0.815060  0.518204  0.667770  1
  O  O48  1  0.680341  0.660478  0.019703  1
  O  O49  1  0.683310  0.671159  0.518130  1
  O  O50  1  0.670853  0.516964  0.165506  1
  O  O51  1  0.490271  0.883864  0.826054  1
  O  O52  1  0.524888  0.818614  0.164151  1
  O  O53  1  0.752606  0.331542  0.345004  1
  O  O54  1  0.781785  0.216842  0.751522  1
  O  O55  1  0.766810  0.234287  0.569569  1
  O  O56  1  0.758086  0.251588  0.933527  1
  O  O57  1  0.631310  0.493081  0.824631  1
  O  O58  1  0.515244  0.674391  0.658727  1
  O  O59  1  0.665149  0.253338  0.154900  1
  O  O60  1  0.470494  0.622932  0.334700  1
  O  O61  1  0.332262  0.920076  0.335871  1
  O  O62  1  0.780049  0.018261  0.257279  1
  O  O63  1  0.778658  0.995603  0.435719  1
  O  O64  1  0.234889  0.995342  0.568898  1
  O  O65  1  0.669342  0.078005  0.658410  1
  O  O66  1  0.515048  0.370987  0.669230  1
  O  O67  1  0.327085  0.755837  0.844322  1
  O  O68  1  0.488735  0.317467  0.339270  1
  O  O69  1  0.366946  0.510296  0.171929  1
  O  O70  1  0.245595  0.756358  0.069469  1
  O  O71  1  0.220935  0.788236  0.433019  1
  O  O72  1  0.208148  0.788272  0.249614  1
  O  O73  1  0.249963  0.668642  0.655921  1
  O  O74  1  0.469706  0.182783  0.826311  1
  O  O75  1  0.515226  0.111717  0.175856  1
  O  O76  1  0.333960  0.480973  0.841202  1
  O  O77  1  0.321693  0.320438  0.979606  1
  O  O78  1  0.324840  0.336917  0.481809  1
  O  O79  1  0.188647  0.478811  0.327943  1
  O  O80  1  0.378021  0.105798  0.666312  1
  O  O81  1  0.327908  0.182163  0.335463  1
  O  O82  1  0.076506  0.669640  0.156495  1
  O  O83  1  0.013200  0.778116  0.760304  1
  O  O84  1  0.998831  0.748048  0.936342  1
  O  O85  1  0.097985  0.527044  0.665688  1
  O  O86  1  0.177009  0.342716  0.826055  1
  O  O87  1  0.116488  0.372155  0.174001  1
  O  O88  1  0.253861  0.080150  0.157847  1
  O  O89  1  0.248391  0.008486  0.932498  1
  O  O90  1  0.216113  0.006692  0.751536  1
  O  O91  1  0.081863  0.253699  0.654560  1
  O  O92  1  0.007889  0.227816  0.430698  1
  O  O93  1  0.000284  0.213826  0.248159  1
