# generated using pymatgen
data_Dy2Ge2O7
_symmetry_space_group_name_H-M   'P 1'
_cell_length_a   7.08782495
_cell_length_b   7.08782819
_cell_length_c   7.08782694
_cell_angle_alpha   60.00001026
_cell_angle_beta   59.99992080
_cell_angle_gamma   59.99990010
_symmetry_Int_Tables_number   1
_chemical_formula_structural   Dy2Ge2O7
_chemical_formula_sum   'Dy4 Ge4 O14'
_cell_volume   251.78144296
_cell_formula_units_Z   2
loop_
 _symmetry_equiv_pos_site_id
 _symmetry_equiv_pos_as_xyz
  1  'x, y, z'
loop_
 _atom_site_type_symbol
 _atom_site_label
 _atom_site_symmetry_multiplicity
 _atom_site_fract_x
 _atom_site_fract_y
 _atom_site_fract_z
 _atom_site_occupancy
  Dy  Dy0  1  0.000001  0.999999  0.000000  1
  Dy  Dy1  1  0.500000  -0.000001  0.000001  1
  Dy  Dy2  1  0.000000  0.500000  1.000000  1
  Dy  Dy3  1  0.000001  0.999999  0.499999  1
  Ge  Ge4  1  0.499999  0.000001  0.500000  1
  Ge  Ge5  1  0.500000  0.499999  0.000000  1
  Ge  Ge6  1  0.000001  0.500000  0.500000  1
  Ge  Ge7  1  0.500000  0.500000  0.499999  1
  O  O8  1  0.124999  0.125002  0.124999  1
  O  O9  1  0.577960  0.172041  0.172040  1
  O  O10  1  0.577960  0.172038  0.577959  1
  O  O11  1  0.172041  0.172040  0.577961  1
  O  O12  1  0.172038  0.577963  0.172041  1
  O  O13  1  0.577962  0.577958  0.172039  1
  O  O14  1  0.827960  0.422040  0.422041  1
  O  O15  1  0.172039  0.577960  0.577964  1
  O  O16  1  0.422043  0.827960  0.422040  1
  O  O17  1  0.422039  0.422041  0.827958  1
  O  O18  1  0.827958  0.827960  0.422039  1
  O  O19  1  0.827960  0.422040  0.827961  1
  O  O20  1  0.422039  0.827961  0.827958  1
  O  O21  1  0.875000  0.875000  0.875001  1
