# generated using pymatgen
data_Li3Al2VO6
_symmetry_space_group_name_H-M   'P 1'
_cell_length_a   5.88392612
_cell_length_b   10.19680962
_cell_length_c   8.18313264
_cell_angle_alpha   90.00000000
_cell_angle_beta   88.93943667
_cell_angle_gamma   90.00000000
_symmetry_Int_Tables_number   1
_chemical_formula_structural   Li3Al2VO6
_chemical_formula_sum   'Li12 Al8 V4 O24'
_cell_volume   490.88154672
_cell_formula_units_Z   4
loop_
 _symmetry_equiv_pos_site_id
 _symmetry_equiv_pos_as_xyz
  1  'x, y, z'
loop_
 _atom_site_type_symbol
 _atom_site_label
 _atom_site_symmetry_multiplicity
 _atom_site_fract_x
 _atom_site_fract_y
 _atom_site_fract_z
 _atom_site_occupancy
  Li  Li0  1  0.157186  0.994867  0.640278  1
  Li  Li1  1  0.182835  0.655599  0.623169  1
  Li  Li2  1  0.145779  0.998635  0.113628  1
  Li  Li3  1  0.317165  0.155599  0.876831  1
  Li  Li4  1  0.354221  0.498635  0.386372  1
  Li  Li5  1  0.342814  0.494867  0.859722  1
  Li  Li6  1  0.657186  0.505133  0.140278  1
  Li  Li7  1  0.645779  0.501365  0.613628  1
  Li  Li8  1  0.682835  0.844401  0.123169  1
  Li  Li9  1  0.854221  0.001365  0.886372  1
  Li  Li10  1  0.817165  0.344401  0.376831  1
  Li  Li11  1  0.842814  0.005133  0.359722  1
  Al  Al12  1  0.166096  0.334829  0.621941  1
  Al  Al13  1  0.172533  0.663499  0.126165  1
  Al  Al14  1  0.333904  0.834829  0.878059  1
  Al  Al15  1  0.327467  0.163499  0.373835  1
  Al  Al16  1  0.672533  0.836501  0.626165  1
  Al  Al17  1  0.666096  0.165171  0.121941  1
  Al  Al18  1  0.827467  0.336501  0.873835  1
  Al  Al19  1  0.833904  0.665171  0.378059  1
  V  V20  1  0.160858  0.336136  0.126019  1
  V  V21  1  0.339142  0.836136  0.373981  1
  V  V22  1  0.660858  0.163864  0.626019  1
  V  V23  1  0.839142  0.663864  0.873981  1
  O  O24  1  0.136526  0.328484  0.868445  1
  O  O25  1  0.148228  0.679889  0.361686  1
  O  O26  1  0.186861  0.982581  0.877215  1
  O  O27  1  0.195107  0.004460  0.371764  1
  O  O28  1  0.159114  0.312621  0.382177  1
  O  O29  1  0.171690  0.678030  0.888516  1
  O  O30  1  0.328310  0.178030  0.611484  1
  O  O31  1  0.340886  0.812621  0.117823  1
  O  O32  1  0.304893  0.504460  0.128236  1
  O  O33  1  0.313139  0.482581  0.622785  1
  O  O34  1  0.363474  0.828484  0.631555  1
  O  O35  1  0.351772  0.179889  0.138314  1
  O  O36  1  0.648228  0.820111  0.861686  1
  O  O37  1  0.636526  0.171516  0.368445  1
  O  O38  1  0.686861  0.517419  0.377215  1
  O  O39  1  0.695107  0.495540  0.871764  1
  O  O40  1  0.659114  0.187379  0.882177  1
  O  O41  1  0.671690  0.821970  0.388516  1
  O  O42  1  0.828310  0.321970  0.111484  1
  O  O43  1  0.840886  0.687379  0.617823  1
  O  O44  1  0.804893  0.995540  0.628236  1
  O  O45  1  0.813139  0.017419  0.122785  1
  O  O46  1  0.851772  0.320111  0.638314  1
  O  O47  1  0.863474  0.671516  0.131555  1
