# generated using pymatgen
data_Li4MnFe3(BO3)4
_symmetry_space_group_name_H-M   'P 1'
_cell_length_a   5.23734731
_cell_length_b   9.05954696
_cell_length_c   10.41634205
_cell_angle_alpha   90.88259912
_cell_angle_beta   90.86354914
_cell_angle_gamma   89.93556054
_symmetry_Int_Tables_number   1
_chemical_formula_structural   Li4MnFe3(BO3)4
_chemical_formula_sum   'Li8 Mn2 Fe6 B8 O24'
_cell_volume   494.11957233
_cell_formula_units_Z   2
loop_
 _symmetry_equiv_pos_site_id
 _symmetry_equiv_pos_as_xyz
  1  'x, y, z'
loop_
 _atom_site_type_symbol
 _atom_site_label
 _atom_site_symmetry_multiplicity
 _atom_site_fract_x
 _atom_site_fract_y
 _atom_site_fract_z
 _atom_site_occupancy
  Li  Li0  1  0.849548  0.825729  0.667577  1
  Li  Li1  1  0.815011  0.836587  0.167755  1
  Li  Li2  1  0.678934  0.667127  0.416001  1
  Li  Li3  1  0.661413  0.673233  0.916059  1
  Li  Li4  1  0.349258  0.328481  0.666877  1
  Li  Li5  1  0.314866  0.339601  0.168587  1
  Li  Li6  1  0.182542  0.169134  0.416056  1
  Li  Li7  1  0.163362  0.175452  0.916091  1
  Mn  Mn8  1  0.669713  0.002308  0.882438  1
  Mn  Mn9  1  0.322202  0.999734  0.135130  1
  Fe  Fe10  1  0.817514  0.501455  0.132439  1
  Fe  Fe11  1  0.844062  0.161070  0.632058  1
  Fe  Fe12  1  0.677800  0.332916  0.382601  1
  Fe  Fe13  1  0.344385  0.659429  0.633482  1
  Fe  Fe14  1  0.161960  0.831771  0.386622  1
  Fe  Fe15  1  0.164771  0.499862  0.884726  1
  B  B16  1  0.829023  0.171397  0.125548  1
  B  B17  1  0.838358  0.498837  0.625639  1
  B  B18  1  0.664071  0.002317  0.377166  1
  B  B19  1  0.673669  0.336017  0.874352  1
  B  B20  1  0.325019  0.667018  0.127307  1
  B  B21  1  0.337893  0.999061  0.624970  1
  B  B22  1  0.166892  0.502590  0.376225  1
  B  B23  1  0.171943  0.831558  0.874653  1
  O  O24  1  0.904580  0.515372  0.346978  1
  O  O25  1  0.909126  0.820359  0.860883  1
  O  O26  1  0.823452  0.212889  0.843678  1
  O  O27  1  0.803983  0.127169  0.416030  1
  O  O28  1  0.785938  0.867638  0.363305  1
  O  O29  1  0.789383  0.467016  0.916941  1
  O  O30  1  0.722736  0.636451  0.612227  1
  O  O31  1  0.712647  0.035342  0.096769  1
  O  O32  1  0.696555  0.371841  0.596967  1
  O  O33  1  0.681995  0.291706  0.165482  1
  O  O34  1  0.589164  0.679289  0.114063  1
  O  O35  1  0.593867  0.989488  0.662758  1
  O  O36  1  0.403586  0.013376  0.349091  1
  O  O37  1  0.410605  0.328364  0.861131  1
  O  O38  1  0.324674  0.708952  0.844952  1
  O  O39  1  0.305840  0.626711  0.416754  1
  O  O40  1  0.286504  0.367459  0.362103  1
  O  O41  1  0.282613  0.964375  0.916659  1
  O  O42  1  0.206630  0.532816  0.096454  1
  O  O43  1  0.222909  0.137231  0.612466  1
  O  O44  1  0.195986  0.871780  0.597438  1
  O  O45  1  0.180851  0.787294  0.167775  1
  O  O46  1  0.090202  0.185131  0.111220  1
  O  O47  1  0.092567  0.489861  0.665122  1
