# generated using pymatgen
data_Li6MnFe5(BO3)6
_symmetry_space_group_name_H-M   'P 1'
_cell_length_a   8.24169302
_cell_length_b   14.29532031
_cell_length_c   3.13699281
_cell_angle_alpha   90.00000000
_cell_angle_beta   90.00000000
_cell_angle_gamma   90.06228949
_symmetry_Int_Tables_number   1
_chemical_formula_structural   Li6MnFe5(BO3)6
_chemical_formula_sum   'Li6 Mn1 Fe5 B6 O18'
_cell_volume   369.59287641
_cell_formula_units_Z   1
loop_
 _symmetry_equiv_pos_site_id
 _symmetry_equiv_pos_as_xyz
  1  'x, y, z'
loop_
 _atom_site_type_symbol
 _atom_site_label
 _atom_site_symmetry_multiplicity
 _atom_site_fract_x
 _atom_site_fract_y
 _atom_site_fract_z
 _atom_site_occupancy
  Li  Li0  1  0.293711  0.992421  0.500000  1
  Li  Li1  1  0.339992  0.358055  0.500000  1
  Li  Li2  1  0.364872  0.649836  0.500000  1
  Li  Li3  1  0.793365  0.492033  0.500000  1
  Li  Li4  1  0.843083  0.856236  0.500000  1
  Li  Li5  1  0.867121  0.151483  0.500000  1
  Mn  Mn6  1  0.633471  0.005758  0.000000  1
  Fe  Fe7  1  0.135578  0.504158  0.000000  1
  Fe  Fe8  1  0.176574  0.816242  0.000000  1
  Fe  Fe9  1  0.186702  0.179937  0.000000  1
  Fe  Fe10  1  0.676206  0.316357  0.000000  1
  Fe  Fe11  1  0.687645  0.679784  0.000000  1
  B  B12  1  0.000244  0.666555  0.500000  1
  B  B13  1  0.001130  0.998967  0.000000  1
  B  B14  1  0.999878  0.333421  0.500000  1
  B  B15  1  0.499049  0.168650  0.500000  1
  B  B16  1  0.499853  0.499744  0.000000  1
  B  B17  1  0.499190  0.832130  0.500000  1
  O  O18  1  0.011101  0.430488  0.500000  1
  O  O19  1  0.018877  0.763193  0.500000  1
  O  O20  1  0.136199  0.608715  0.500000  1
  O  O21  1  0.139520  0.279337  0.500000  1
  O  O22  1  0.154417  0.957762  0.000000  1
  O  O23  1  0.345895  0.127969  0.500000  1
  O  O24  1  0.348754  0.788441  0.500000  1
  O  O25  1  0.359762  0.445505  0.000000  1
  O  O26  1  0.488008  0.596799  0.000000  1
  O  O27  1  0.508676  0.928851  0.500000  1
  O  O28  1  0.516684  0.265413  0.500000  1
  O  O29  1  0.637314  0.112113  0.500000  1
  O  O30  1  0.640411  0.778868  0.500000  1
  O  O31  1  0.651434  0.457352  0.000000  1
  O  O32  1  0.845315  0.627178  0.500000  1
  O  O33  1  0.848739  0.290650  0.500000  1
  O  O34  1  0.863472  0.943337  0.000000  1
  O  O35  1  0.987757  0.096261  0.000000  1
