# generated using pymatgen
data_Mn2O3F
_symmetry_space_group_name_H-M   'P 1'
_cell_length_a   8.74623773
_cell_length_b   5.49565348
_cell_length_c   5.49565348
_cell_angle_alpha   74.86922034
_cell_angle_beta   87.77982217
_cell_angle_gamma   87.77982217
_symmetry_Int_Tables_number   1
_chemical_formula_structural   Mn2O3F
_chemical_formula_sum   'Mn8 O12 F4'
_cell_volume   254.69442033
_cell_formula_units_Z   4
loop_
 _symmetry_equiv_pos_site_id
 _symmetry_equiv_pos_as_xyz
  1  'x, y, z'
loop_
 _atom_site_type_symbol
 _atom_site_label
 _atom_site_symmetry_multiplicity
 _atom_site_fract_x
 _atom_site_fract_y
 _atom_site_fract_z
 _atom_site_occupancy
  Mn  Mn0  1  0.875545  0.626709  0.623416  1
  Mn  Mn1  1  0.625868  0.857346  0.891861  1
  Mn  Mn2  1  0.749277  0.269690  0.231056  1
  Mn  Mn3  1  0.500000  0.514642  0.485358  1
  Mn  Mn4  1  0.250723  0.768944  0.730310  1
  Mn  Mn5  1  0.374132  0.108140  0.142654  1
  Mn  Mn6  1  0.124455  0.376584  0.373291  1
  Mn  Mn7  1  0.000000  0.972464  0.027536  1
  O  O8  1  0.750028  0.557961  0.939109  1
  O  O9  1  0.474130  0.728009  0.717086  1
  O  O10  1  0.720618  0.474184  0.469005  1
  O  O11  1  0.970308  0.218228  0.226072  1
  O  O12  1  0.221925  0.972748  0.973524  1
  O  O13  1  0.778075  0.026476  0.027252  1
  O  O14  1  0.279382  0.530995  0.525816  1
  O  O15  1  0.525870  0.282914  0.271991  1
  O  O16  1  0.029692  0.773928  0.781772  1
  O  O17  1  0.500000  0.801838  0.198162  1
  O  O18  1  0.249972  0.060891  0.442039  1
  O  O19  1  0.000000  0.687343  0.312657  1
  F  F20  1  0.743985  0.965927  0.546048  1
  F  F21  1  0.500000  0.189824  0.810176  1
  F  F22  1  0.000000  0.280265  0.719735  1
  F  F23  1  0.256015  0.453952  0.034073  1
