# generated using pymatgen
data_Li2TiV5O12
_symmetry_space_group_name_H-M   'P 1'
_cell_length_a   6.91649504
_cell_length_b   6.91649434
_cell_length_c   5.66274130
_cell_angle_alpha   71.39198481
_cell_angle_beta   108.60800845
_cell_angle_gamma   105.86460993
_symmetry_Int_Tables_number   1
_chemical_formula_structural   Li2TiV5O12
_chemical_formula_sum   'Li2 Ti1 V5 O12'
_cell_volume   238.83237494
_cell_formula_units_Z   1
loop_
 _symmetry_equiv_pos_site_id
 _symmetry_equiv_pos_as_xyz
  1  'x, y, z'
loop_
 _atom_site_type_symbol
 _atom_site_label
 _atom_site_symmetry_multiplicity
 _atom_site_fract_x
 _atom_site_fract_y
 _atom_site_fract_z
 _atom_site_occupancy
  Li  Li0  1  0.304747  0.304747  0.250000  1
  Li  Li1  1  0.695980  0.695980  0.750000  1
  Ti  Ti2  1  0.919313  0.919313  0.250000  1
  V  V3  1  0.078473  0.078473  0.750000  1
  V  V4  1  0.176105  0.632733  0.686822  1
  V  V5  1  0.366326  0.834898  0.178111  1
  V  V6  1  0.632733  0.176105  0.813178  1
  V  V7  1  0.834898  0.366326  0.321889  1
  O  O8  1  0.987203  0.807827  0.648093  1
  O  O9  1  0.038194  0.357391  0.701375  1
  O  O10  1  0.185078  0.026843  0.128606  1
  O  O11  1  0.389518  0.692800  0.549573  1
  O  O12  1  0.357391  0.038194  0.798625  1
  O  O13  1  0.294474  0.601435  0.036941  1
  O  O14  1  0.692800  0.389518  0.950427  1
  O  O15  1  0.656601  0.954064  0.220185  1
  O  O16  1  0.601435  0.294474  0.463059  1
  O  O17  1  0.807827  0.987203  0.851907  1
  O  O18  1  0.954064  0.656601  0.279815  1
  O  O19  1  0.026843  0.185078  0.371394  1
