# generated using pymatgen
data_Li5Co2Cu5O12
_symmetry_space_group_name_H-M   'P 1'
_cell_length_a   4.99617290
_cell_length_b   4.99617268
_cell_length_c   9.52181751
_cell_angle_alpha   88.24514992
_cell_angle_beta   91.75485497
_cell_angle_gamma   64.67015616
_symmetry_Int_Tables_number   1
_chemical_formula_structural   Li5Co2Cu5O12
_chemical_formula_sum   'Li5 Co2 Cu5 O12'
_cell_volume   214.47805773
_cell_formula_units_Z   1
loop_
 _symmetry_equiv_pos_site_id
 _symmetry_equiv_pos_as_xyz
  1  'x, y, z'
loop_
 _atom_site_type_symbol
 _atom_site_label
 _atom_site_symmetry_multiplicity
 _atom_site_fract_x
 _atom_site_fract_y
 _atom_site_fract_z
 _atom_site_occupancy
  Li  Li0  1  0.166691  0.659907  0.507666  1
  Li  Li1  1  0.325170  0.848179  0.995124  1
  Li  Li2  1  0.659907  0.166691  0.992334  1
  Li  Li3  1  0.848179  0.325170  0.504876  1
  Li  Li4  1  0.916512  0.916512  0.750000  1
  Co  Co5  1  0.246483  0.246483  0.750000  1
  Co  Co6  1  0.750067  0.750067  0.250000  1
  Cu  Cu7  1  0.080105  0.080105  0.250000  1
  Cu  Cu8  1  0.994589  0.510919  0.998420  1
  Cu  Cu9  1  0.510919  0.994589  0.501580  1
  Cu  Cu10  1  0.419709  0.419709  0.250000  1
  Cu  Cu11  1  0.582488  0.582488  0.750000  1
  O  O12  1  0.984046  0.214744  0.879672  1
  O  O13  1  0.214744  0.984046  0.620328  1
  O  O14  1  0.077249  0.424501  0.346330  1
  O  O15  1  0.424501  0.077249  0.153670  1
  O  O16  1  0.300508  0.517037  0.872042  1
  O  O17  1  0.517037  0.300508  0.627958  1
  O  O18  1  0.482226  0.699724  0.375659  1
  O  O19  1  0.699724  0.482226  0.124341  1
  O  O20  1  0.566815  0.919333  0.849182  1
  O  O21  1  0.919333  0.566815  0.650818  1
  O  O22  1  0.804060  0.008937  0.380178  1
  O  O23  1  0.008937  0.804060  0.119822  1
