# generated using pymatgen
data_H13Se2N3O8
_symmetry_space_group_name_H-M   'P 1'
_cell_length_a   17.32211132
_cell_length_b   6.44978512
_cell_length_c   6.44978512
_cell_angle_alpha   62.70257926
_cell_angle_beta   106.76505467
_cell_angle_gamma   106.76505467
_symmetry_Int_Tables_number   1
_chemical_formula_structural   H13Se2N3O8
_chemical_formula_sum   'H26 Se4 N6 O16'
_cell_volume   602.71549422
_cell_formula_units_Z   2
loop_
 _symmetry_equiv_pos_site_id
 _symmetry_equiv_pos_as_xyz
  1  'x, y, z'
loop_
 _atom_site_type_symbol
 _atom_site_label
 _atom_site_symmetry_multiplicity
 _atom_site_fract_x
 _atom_site_fract_y
 _atom_site_fract_z
 _atom_site_occupancy
  H  H0  1  0.874438  0.741494  0.950250  1
  H  H1  1  0.374438  0.950250  0.741494  1
  H  H2  1  0.993334  0.637800  0.986145  1
  H  H3  1  0.493334  0.986145  0.637800  1
  H  H4  1  0.136441  0.537802  0.188085  1
  H  H5  1  0.636441  0.188085  0.537802  1
  H  H6  1  0.219410  0.448831  0.262617  1
  H  H7  1  0.719410  0.262617  0.448831  1
  H  H8  1  0.656697  0.418065  0.021700  1
  H  H9  1  0.156697  0.021700  0.418065  1
  H  H10  1  0.648131  0.253495  0.871294  1
  H  H11  1  0.148131  0.871294  0.253495  1
  H  H12  1  0.737243  0.453278  0.908740  1
  H  H13  1  0.237243  0.908740  0.453278  1
  H  H14  1  0.653528  0.560588  0.719575  1
  H  H15  1  0.153528  0.719575  0.560588  1
  H  H16  1  0.300073  0.527261  0.014458  1
  H  H17  1  0.800072  0.014458  0.527261  1
  H  H18  1  0.364496  0.491147  0.265021  1
  H  H19  1  0.864496  0.265021  0.491147  1
  H  H20  1  0.084475  0.348673  0.895457  1
  H  H21  1  0.584475  0.895457  0.348673  1
  H  H22  1  0.323537  0.735158  0.121035  1
  H  H23  1  0.823537  0.121035  0.735158  1
  H  H24  1  0.992713  0.024458  0.392220  1
  H  H25  1  0.492713  0.392220  0.024458  1
  Se  Se26  1  0.609998  0.749670  0.102050  1
  Se  Se27  1  0.109998  0.102050  0.749670  1
  Se  Se28  1  0.869390  0.837638  0.255992  1
  Se  Se29  1  0.369390  0.255992  0.837638  1
  N  N30  1  0.976523  0.548248  0.871979  1
  N  N31  1  0.476523  0.871979  0.548248  1
  N  N32  1  0.674390  0.427069  0.877433  1
  N  N33  1  0.174390  0.877433  0.427069  1
  N  N34  1  0.312414  0.554866  0.165627  1
  N  N35  1  0.812414  0.165627  0.554866  1
  O  O36  1  0.511612  0.603832  0.088317  1
  O  O37  1  0.011612  0.088317  0.603832  1
  O  O38  1  0.628231  0.816187  0.364517  1
  O  O39  1  0.128231  0.364517  0.816187  1
  O  O40  1  0.602731  0.018840  0.869688  1
  O  O41  1  0.102731  0.869688  0.018840  1
  O  O42  1  0.662094  0.300457  0.400055  1
  O  O43  1  0.162094  0.400055  0.300457  1
  O  O44  1  0.974717  0.969173  0.252566  1
  O  O45  1  0.474717  0.252566  0.969173  1
  O  O46  1  0.860788  0.645468  0.108796  1
  O  O47  1  0.360788  0.108796  0.645468  1
  O  O48  1  0.823062  0.058304  0.055177  1
  O  O49  1  0.323062  0.055177  0.058304  1
  O  O50  1  0.905193  0.557739  0.771405  1
  O  O51  1  0.405193  0.771405  0.557739  1
