# generated using pymatgen
data_Fe4O5F3
_symmetry_space_group_name_H-M   'P 1'
_cell_length_a   4.73253361
_cell_length_b   9.92335326
_cell_length_c   6.09405585
_cell_angle_alpha   72.11949240
_cell_angle_beta   89.99737638
_cell_angle_gamma   88.40986782
_symmetry_Int_Tables_number   1
_chemical_formula_structural   Fe4O5F3
_chemical_formula_sum   'Fe8 O10 F6'
_cell_volume   272.25361625
_cell_formula_units_Z   2
loop_
 _symmetry_equiv_pos_site_id
 _symmetry_equiv_pos_as_xyz
  1  'x, y, z'
loop_
 _atom_site_type_symbol
 _atom_site_label
 _atom_site_symmetry_multiplicity
 _atom_site_fract_x
 _atom_site_fract_y
 _atom_site_fract_z
 _atom_site_occupancy
  Fe  Fe0  1  0.500000  0.250000  0.625000  1
  Fe  Fe1  1  0.499986  0.749984  0.869825  1
  Fe  Fe2  1  0.500014  0.750016  0.380175  1
  Fe  Fe3  1  0.500000  0.250000  0.125000  1
  Fe  Fe4  1  0.028479  0.018731  0.490659  1
  Fe  Fe5  1  0.971521  0.481269  0.759341  1
  Fe  Fe6  1  0.065730  0.004949  0.997529  1
  Fe  Fe7  1  0.934270  0.495051  0.252471  1
  O  O8  1  0.784161  0.397742  0.551824  1
  O  O9  1  0.784164  0.397764  0.050398  1
  O  O10  1  0.697259  0.158398  0.420811  1
  O  O11  1  0.675262  0.655034  0.172454  1
  O  O12  1  0.682112  0.650779  0.674583  1
  O  O13  1  0.324738  0.844966  0.077546  1
  O  O14  1  0.317888  0.849221  0.575417  1
  O  O15  1  0.302741  0.341602  0.829189  1
  O  O16  1  0.215836  0.102236  0.199602  1
  O  O17  1  0.215839  0.102258  0.698176  1
  F  F18  1  0.827926  0.906603  0.797966  1
  F  F19  1  0.827972  0.906562  0.295493  1
  F  F20  1  0.712948  0.143669  0.928212  1
  F  F21  1  0.287052  0.356331  0.321788  1
  F  F22  1  0.172028  0.593438  0.954507  1
  F  F23  1  0.172074  0.593397  0.452034  1
