# generated using pymatgen
data_Li3VCr3O8
_symmetry_space_group_name_H-M   'P 1'
_cell_length_a   10.36751856
_cell_length_b   10.36751880
_cell_length_c   14.68340717
_cell_angle_alpha   19.23193210
_cell_angle_beta   19.23192732
_cell_angle_gamma   33.14908867
_symmetry_Int_Tables_number   1
_chemical_formula_structural   Li3VCr3O8
_chemical_formula_sum   'Li3 V1 Cr3 O8'
_cell_volume   148.29811039
_cell_formula_units_Z   1
loop_
 _symmetry_equiv_pos_site_id
 _symmetry_equiv_pos_as_xyz
  1  'x, y, z'
loop_
 _atom_site_type_symbol
 _atom_site_label
 _atom_site_symmetry_multiplicity
 _atom_site_fract_x
 _atom_site_fract_y
 _atom_site_fract_z
 _atom_site_occupancy
  Li  Li0  1  0.000000  0.500000  0.500000  1
  Li  Li1  1  0.500000  0.000000  0.500000  1
  Li  Li2  1  0.500000  0.500000  0.500000  1
  V  V3  1  0.000000  0.000000  0.000000  1
  Cr  Cr4  1  0.000000  0.500000  0.000000  1
  Cr  Cr5  1  0.500000  0.000000  0.000000  1
  Cr  Cr6  1  0.500000  0.500000  0.000000  1
  O  O7  1  0.000000  0.000000  0.259218  1
  O  O8  1  0.000000  0.519124  0.248234  1
  O  O9  1  0.519124  0.000000  0.248234  1
  O  O10  1  1.000000  1.000000  0.740782  1
  O  O11  1  0.480876  0.480876  0.286481  1
  O  O12  1  1.000000  0.480876  0.751766  1
  O  O13  1  0.480876  1.000000  0.751766  1
  O  O14  1  0.519124  0.519124  0.713519  1
