# generated using pymatgen
data_Nd4Mo31O56
_symmetry_space_group_name_H-M   'P 1'
_cell_length_a   16.54357553
_cell_length_b   10.78026339
_cell_length_c   12.47256533
_cell_angle_alpha   64.59903633
_cell_angle_beta   48.93991902
_cell_angle_gamma   49.39081379
_symmetry_Int_Tables_number   1
_chemical_formula_structural   Nd4Mo31O56
_chemical_formula_sum   'Nd4 Mo31 O56'
_cell_volume   1273.30981025
_cell_formula_units_Z   1
loop_
 _symmetry_equiv_pos_site_id
 _symmetry_equiv_pos_as_xyz
  1  'x, y, z'
loop_
 _atom_site_type_symbol
 _atom_site_label
 _atom_site_symmetry_multiplicity
 _atom_site_fract_x
 _atom_site_fract_y
 _atom_site_fract_z
 _atom_site_occupancy
  Nd  Nd0  1  0.300241  0.980691  0.495222  1
  Nd  Nd1  1  0.552883  0.470386  0.989046  1
  Nd  Nd2  1  0.798554  0.980805  0.507715  1
  Nd  Nd3  1  0.032809  0.445376  0.014035  1
  Mo  Mo4  1  0.007416  0.010945  0.141420  1
  Mo  Mo5  1  0.024814  0.117205  0.372111  1
  Mo  Mo6  1  0.251109  0.246487  0.147515  1
  Mo  Mo7  1  0.141181  0.622011  0.132387  1
  Mo  Mo8  1  0.015477  0.229814  0.871410  1
  Mo  Mo9  1  0.502475  0.008356  0.144059  1
  Mo  Mo10  1  0.002245  0.599474  0.651421  1
  Mo  Mo11  1  0.255841  0.372892  0.375718  1
  Mo  Mo12  1  0.155717  0.738922  0.353904  1
  Mo  Mo13  1  0.256241  0.333289  0.644433  1
  Mo  Mo14  1  0.526411  0.119747  0.371064  1
  Mo  Mo15  1  0.130300  0.735858  0.627860  1
  Mo  Mo16  1  0.410535  0.506287  0.348616  1
  Mo  Mo17  1  0.386201  0.864589  0.133644  1
  Mo  Mo18  1  0.400123  0.098884  0.856610  1
  Mo  Mo19  1  0.390086  0.459616  0.635535  1
  Mo  Mo20  1  0.756041  0.259832  0.140209  1
  Mo  Mo21  1  0.151656  0.833873  0.855543  1
  Mo  Mo22  1  0.510856  0.237588  0.874961  1
  Mo  Mo23  1  0.506072  0.599433  0.641861  1
  Mo  Mo24  1  0.277465  0.958951  0.869293  1
  Mo  Mo25  1  0.765437  0.369065  0.369049  1
  Mo  Mo26  1  0.656692  0.743546  0.336982  1
  Mo  Mo27  1  0.754639  0.333225  0.644154  1
  Mo  Mo28  1  0.635120  0.740466  0.621600  1
  Mo  Mo29  1  0.898701  0.509992  0.357743  1
  Mo  Mo30  1  0.883088  0.875310  0.130380  1
  Mo  Mo31  1  0.904814  0.094943  0.851994  1
  Mo  Mo32  1  0.893319  0.457321  0.632516  1
  Mo  Mo33  1  0.649467  0.816184  0.870426  1
  Mo  Mo34  1  0.769702  0.963468  0.874808  1
  O  O35  1  0.082044  0.166541  0.991052  1
  O  O36  1  0.221506  0.276240  0.000595  1
  O  O37  1  0.207484  0.075591  0.242398  1
  O  O38  1  0.080016  0.457755  0.248980  1
  O  O39  1  0.316891  0.393046  0.034011  1
  O  O40  1  0.075413  0.425907  0.532006  1
  O  O41  1  0.303937  0.188789  0.289898  1
  O  O42  1  0.187688  0.813576  0.000714  1
  O  O43  1  0.200993  0.015735  0.746542  1
  O  O44  1  0.208818  0.561551  0.254779  1
  O  O45  1  0.059048  0.409558  0.786944  1
  O  O46  1  0.074727  0.953972  0.259069  1
  O  O47  1  0.327588  0.179488  0.494913  1
  O  O48  1  0.577578  0.163297  0.001995  1
  O  O49  1  0.436311  0.343569  0.266627  1
  O  O50  1  0.099299  0.892993  0.482586  1
  O  O51  1  0.337389  0.124943  0.747141  1
  O  O52  1  0.354404  0.676404  0.205505  1
  O  O53  1  0.194221  0.518601  0.749281  1
  O  O54  1  0.732749  0.276750  0.992451  1
  O  O55  1  0.438128  0.313021  0.499063  1
  O  O56  1  0.091687  0.908451  0.717614  1
  O  O57  1  0.067640  0.693275  0.006169  1
  O  O58  1  0.711108  0.081771  0.243370  1
  O  O59  1  0.320392  0.651808  0.502371  1
  O  O60  1  0.576557  0.463081  0.219145  1
  O  O61  1  0.453749  0.256977  0.754797  1
  O  O62  1  0.415870  0.868724  0.261836  1
  O  O63  1  0.333512  0.631678  0.746251  1
  O  O64  1  0.844766  0.377304  0.020955  1
  O  O65  1  0.570977  0.431911  0.533051  1
  O  O66  1  0.808934  0.188658  0.282414  1
  O  O67  1  0.477254  0.776741  0.495982  1
  O  O68  1  0.680169  0.827614  0.992746  1
  O  O69  1  0.697653  0.003119  0.755530  1
  O  O70  1  0.745301  0.564165  0.231710  1
  O  O71  1  0.555915  0.418642  0.788875  1
  O  O72  1  0.573691  0.960252  0.256402  1
  O  O73  1  0.827452  0.171051  0.503078  1
  O  O74  1  0.465997  0.755314  0.746202  1
  O  O75  1  0.955110  0.330462  0.249723  1
  O  O76  1  0.610185  0.887119  0.469212  1
  O  O77  1  0.344943  0.938606  0.979398  1
  O  O78  1  0.825839  0.133949  0.758117  1
  O  O79  1  0.852605  0.686703  0.206762  1
  O  O80  1  0.697793  0.517805  0.746661  1
  O  O81  1  0.935260  0.311381  0.502250  1
  O  O82  1  0.592183  0.906107  0.728229  1
  O  O83  1  0.562630  0.693488  0.985867  1
  O  O84  1  0.819918  0.662218  0.510843  1
  O  O85  1  0.964714  0.250927  0.749939  1
  O  O86  1  0.944821  0.843933  0.249379  1
  O  O87  1  0.832148  0.622875  0.754660  1
  O  O88  1  0.973040  0.770233  0.509246  1
  O  O89  1  0.959741  0.753780  0.754918  1
  O  O90  1  0.848890  0.936246  0.978222  1
