# generated using pymatgen
data_Li2CrFeO4
_symmetry_space_group_name_H-M   'P 1'
_cell_length_a   5.06018409
_cell_length_b   5.87746715
_cell_length_c   5.85261298
_cell_angle_alpha   60.13713380
_cell_angle_beta   90.00277904
_cell_angle_gamma   73.46097721
_symmetry_Int_Tables_number   1
_chemical_formula_structural   Li2CrFeO4
_chemical_formula_sum   'Li4 Cr2 Fe2 O8'
_cell_volume   142.58508558
_cell_formula_units_Z   2
loop_
 _symmetry_equiv_pos_site_id
 _symmetry_equiv_pos_as_xyz
  1  'x, y, z'
loop_
 _atom_site_type_symbol
 _atom_site_label
 _atom_site_symmetry_multiplicity
 _atom_site_fract_x
 _atom_site_fract_y
 _atom_site_fract_z
 _atom_site_occupancy
  Li  Li0  1  0.004658  0.998208  0.000791  1
  Li  Li1  1  0.995378  0.001770  0.498976  1
  Li  Li2  1  0.504600  0.998237  0.251023  1
  Li  Li3  1  0.495377  0.001785  0.749240  1
  Cr  Cr4  1  0.000026  0.500004  0.001946  1
  Cr  Cr5  1  0.499961  0.499984  0.748046  1
  Fe  Fe6  1  0.000028  0.500002  0.498885  1
  Fe  Fe7  1  0.499976  0.500008  0.251114  1
  O  O8  1  0.243706  0.277937  0.365057  1
  O  O9  1  0.238448  0.275159  0.858980  1
  O  O10  1  0.738488  0.275102  0.115905  1
  O  O11  1  0.256292  0.722095  0.384936  1
  O  O12  1  0.261565  0.724825  0.891028  1
  O  O13  1  0.756274  0.722095  0.142959  1
  O  O14  1  0.743704  0.277917  0.607011  1
  O  O15  1  0.761519  0.724872  0.634103  1
