# generated using pymatgen
data_MoH8N2O5F2
_symmetry_space_group_name_H-M   'P 1'
_cell_length_a   8.96720402
_cell_length_b   7.62132876
_cell_length_c   5.95664628
_cell_angle_alpha   90.08920852
_cell_angle_beta   111.00129435
_cell_angle_gamma   96.22983941
_symmetry_Int_Tables_number   1
_chemical_formula_structural   MoH8N2O5F2
_chemical_formula_sum   'Mo2 H16 N4 O10 F4'
_cell_volume   377.44385944
_cell_formula_units_Z   2
loop_
 _symmetry_equiv_pos_site_id
 _symmetry_equiv_pos_as_xyz
  1  'x, y, z'
loop_
 _atom_site_type_symbol
 _atom_site_label
 _atom_site_symmetry_multiplicity
 _atom_site_fract_x
 _atom_site_fract_y
 _atom_site_fract_z
 _atom_site_occupancy
  Mo  Mo0  1  0.742401  0.754257  0.892935  1
  Mo  Mo1  1  0.257599  0.245743  0.107065  1
  H  H2  1  0.478756  0.284859  0.798339  1
  H  H3  1  0.521244  0.715141  0.201661  1
  H  H4  1  0.636107  0.177843  0.798027  1
  H  H5  1  0.363893  0.822157  0.201973  1
  H  H6  1  0.937816  0.338805  0.364721  1
  H  H7  1  0.062184  0.661195  0.635279  1
  H  H8  1  0.609388  0.379116  0.668528  1
  H  H9  1  0.390612  0.620884  0.331472  1
  H  H10  1  0.926282  0.782252  0.475353  1
  H  H11  1  0.073718  0.217748  0.524647  1
  H  H12  1  0.116797  0.862329  0.573998  1
  H  H13  1  0.883203  0.137671  0.426002  1
  H  H14  1  0.369533  0.618177  0.868255  1
  H  H15  1  0.630467  0.381823  0.131745  1
  H  H16  1  0.005202  0.710133  0.223214  1
  H  H17  1  0.994798  0.289867  0.776786  1
  N  N18  1  0.598294  0.302439  0.808115  1
  N  N19  1  0.401706  0.697561  0.191885  1
  N  N20  1  0.039224  0.751191  0.502510  1
  N  N21  1  0.960776  0.248809  0.497490  1
  O  O22  1  0.658110  0.960988  0.697106  1
  O  O23  1  0.341890  0.039012  0.302894  1
  O  O24  1  0.834973  0.972251  0.810929  1
  O  O25  1  0.165027  0.027749  0.189071  1
  O  O26  1  0.951593  0.694008  0.033466  1
  O  O27  1  0.048407  0.305992  0.966534  1
  O  O28  1  0.697387  0.399828  0.023664  1
  O  O29  1  0.302613  0.600172  0.976336  1
  O  O30  1  0.712261  0.793225  0.161823  1
  O  O31  1  0.287739  0.206775  0.838177  1
  F  F32  1  0.493660  0.661986  0.758974  1
  F  F33  1  0.506340  0.338014  0.241026  1
  F  F34  1  0.713477  0.585758  0.621278  1
  F  F35  1  0.286523  0.414242  0.378722  1
