# generated using pymatgen
data_Fe5O7F3
_symmetry_space_group_name_H-M   'P 1'
_cell_length_a   4.67069481
_cell_length_b   4.66050888
_cell_length_c   15.19630438
_cell_angle_alpha   90.21327057
_cell_angle_beta   89.66024324
_cell_angle_gamma   91.59909742
_symmetry_Int_Tables_number   1
_chemical_formula_structural   Fe5O7F3
_chemical_formula_sum   'Fe10 O14 F6'
_cell_volume   330.65360575
_cell_formula_units_Z   2
loop_
 _symmetry_equiv_pos_site_id
 _symmetry_equiv_pos_as_xyz
  1  'x, y, z'
loop_
 _atom_site_type_symbol
 _atom_site_label
 _atom_site_symmetry_multiplicity
 _atom_site_fract_x
 _atom_site_fract_y
 _atom_site_fract_z
 _atom_site_occupancy
  Fe  Fe0  1  0.005317  0.001593  0.000774  1
  Fe  Fe1  1  0.968599  0.982287  0.205224  1
  Fe  Fe2  1  0.031401  0.017713  0.394776  1
  Fe  Fe3  1  0.994683  0.998407  0.599226  1
  Fe  Fe4  1  0.000000  0.000000  0.800000  1
  Fe  Fe5  1  0.537019  0.478568  0.093442  1
  Fe  Fe6  1  0.462981  0.521432  0.506558  1
  Fe  Fe7  1  0.500000  0.500000  0.300000  1
  Fe  Fe8  1  0.525074  0.473606  0.700802  1
  Fe  Fe9  1  0.474926  0.526394  0.899198  1
  O  O10  1  0.200011  0.800025  0.298202  1
  O  O11  1  0.182415  0.826787  0.501603  1
  O  O12  1  0.180782  0.822085  0.900126  1
  O  O13  1  0.304117  0.307549  0.997700  1
  O  O14  1  0.314698  0.329264  0.400754  1
  O  O15  1  0.303984  0.297339  0.604121  1
  O  O16  1  0.306748  0.305723  0.800165  1
  O  O17  1  0.696016  0.702661  0.995879  1
  O  O18  1  0.685302  0.670736  0.199246  1
  O  O19  1  0.695883  0.692451  0.602300  1
  O  O20  1  0.693252  0.694277  0.799835  1
  O  O21  1  0.817585  0.173213  0.098397  1
  O  O22  1  0.799989  0.199975  0.301798  1
  O  O23  1  0.819218  0.177915  0.699874  1
  F  F24  1  0.200245  0.787302  0.101295  1
  F  F25  1  0.202225  0.792773  0.700420  1
  F  F26  1  0.301498  0.285201  0.195736  1
  F  F27  1  0.698502  0.714799  0.404264  1
  F  F28  1  0.799755  0.212698  0.498705  1
  F  F29  1  0.797775  0.207227  0.899580  1
