# generated using pymatgen
data_Cr2PO5
_symmetry_space_group_name_H-M   'P 1'
_cell_length_a   7.22891634
_cell_length_b   5.54283293
_cell_length_c   5.54283293
_cell_angle_alpha   93.48497837
_cell_angle_beta   68.45661370
_cell_angle_gamma   68.45661370
_symmetry_Int_Tables_number   1
_chemical_formula_structural   Cr2PO5
_chemical_formula_sum   'Cr4 P2 O10'
_cell_volume   187.17027656
_cell_formula_units_Z   2
loop_
 _symmetry_equiv_pos_site_id
 _symmetry_equiv_pos_as_xyz
  1  'x, y, z'
loop_
 _atom_site_type_symbol
 _atom_site_label
 _atom_site_symmetry_multiplicity
 _atom_site_fract_x
 _atom_site_fract_y
 _atom_site_fract_z
 _atom_site_occupancy
  Cr  Cr0  1  0.500000  0.000000  0.000000  1
  Cr  Cr1  1  0.500000  0.500000  0.000000  1
  Cr  Cr2  1  0.000000  0.500000  0.000000  1
  Cr  Cr3  1  0.000000  0.500000  0.500000  1
  P  P4  1  0.750000  0.142319  0.357681  1
  P  P5  1  0.250000  0.857681  0.642319  1
  O  O6  1  0.897967  0.296220  0.279367  1
  O  O7  1  0.602033  0.220633  0.203780  1
  O  O8  1  0.872652  0.836525  0.282303  1
  O  O9  1  0.627348  0.217697  0.663475  1
  O  O10  1  0.250000  0.388596  0.111404  1
  O  O11  1  0.750000  0.611404  0.888596  1
  O  O12  1  0.372652  0.782303  0.336525  1
  O  O13  1  0.127348  0.163475  0.717697  1
  O  O14  1  0.397967  0.779367  0.796220  1
  O  O15  1  0.102033  0.703780  0.720633  1
