# generated using pymatgen
data_InBP2H5NO9
_symmetry_space_group_name_H-M   'P 1'
_cell_length_a   5.37612723
_cell_length_b   8.58393237
_cell_length_c   8.51160532
_cell_angle_alpha   92.72540324
_cell_angle_beta   93.26554094
_cell_angle_gamma   80.60451785
_symmetry_Int_Tables_number   1
_chemical_formula_structural   InBP2H5NO9
_chemical_formula_sum   'In2 B2 P4 H10 N2 O18'
_cell_volume   386.60579644
_cell_formula_units_Z   2
loop_
 _symmetry_equiv_pos_site_id
 _symmetry_equiv_pos_as_xyz
  1  'x, y, z'
loop_
 _atom_site_type_symbol
 _atom_site_label
 _atom_site_symmetry_multiplicity
 _atom_site_fract_x
 _atom_site_fract_y
 _atom_site_fract_z
 _atom_site_occupancy
  In  In0  1  0.276953  0.792887  0.317535  1
  In  In1  1  0.723047  0.207113  0.682465  1
  B  B2  1  0.107106  0.436351  0.225315  1
  B  B3  1  0.892894  0.563649  0.774686  1
  P  P4  1  0.195527  0.310394  0.915960  1
  P  P5  1  0.219870  0.189203  0.428947  1
  P  P6  1  0.780130  0.810797  0.571053  1
  P  P7  1  0.804473  0.689606  0.084040  1
  H  H8  1  0.163936  0.823251  0.779740  1
  H  H9  1  0.145590  0.997940  0.882582  1
  H  H10  1  0.356503  0.839234  0.940728  1
  H  H11  1  0.419949  0.468196  0.359797  1
  H  H12  1  0.399402  0.933363  0.776935  1
  H  H13  1  0.600598  0.066637  0.223065  1
  H  H14  1  0.580051  0.531804  0.640203  1
  H  H15  1  0.643497  0.160766  0.059272  1
  H  H16  1  0.854410  0.002060  0.117418  1
  H  H17  1  0.836064  0.176749  0.220260  1
  N  N18  1  0.266547  0.898212  0.845015  1
  N  N19  1  0.733453  0.101788  0.154985  1
  O  O20  1  0.076531  0.153467  0.568442  1
  O  O21  1  0.039479  0.319889  0.331594  1
  O  O22  1  0.130768  0.467871  0.826010  1
  O  O23  1  0.022600  0.786440  0.103470  1
  O  O24  1  0.282807  0.044139  0.313472  1
  O  O25  1  0.248515  0.351149  0.093982  1
  O  O26  1  0.275815  0.535740  0.310134  1
  O  O27  1  0.444942  0.217209  0.861768  1
  O  O28  1  0.466225  0.255254  0.478943  1
  O  O29  1  0.533775  0.744746  0.521057  1
  O  O30  1  0.555058  0.782791  0.138232  1
  O  O31  1  0.724185  0.464260  0.689866  1
  O  O32  1  0.751485  0.648851  0.906018  1
  O  O33  1  0.717193  0.955861  0.686528  1
  O  O34  1  0.977400  0.213560  0.896530  1
  O  O35  1  0.869232  0.532129  0.173990  1
  O  O36  1  0.960521  0.680111  0.668406  1
  O  O37  1  0.923469  0.846533  0.431558  1
