# generated using pymatgen
data_EuSeO4
_symmetry_space_group_name_H-M   'P 1'
_cell_length_a   7.14361783
_cell_length_b   7.36557145
_cell_length_c   6.92240566
_cell_angle_alpha   90.00000000
_cell_angle_beta   103.73190463
_cell_angle_gamma   90.00000000
_symmetry_Int_Tables_number   1
_chemical_formula_structural   EuSeO4
_chemical_formula_sum   'Eu4 Se4 O16'
_cell_volume   353.82412738
_cell_formula_units_Z   4
loop_
 _symmetry_equiv_pos_site_id
 _symmetry_equiv_pos_as_xyz
  1  'x, y, z'
loop_
 _atom_site_type_symbol
 _atom_site_label
 _atom_site_symmetry_multiplicity
 _atom_site_fract_x
 _atom_site_fract_y
 _atom_site_fract_z
 _atom_site_occupancy
  Eu  Eu0  1  0.219270  0.152311  0.402774  1
  Eu  Eu1  1  0.280730  0.652311  0.097226  1
  Eu  Eu2  1  0.719270  0.347689  0.902774  1
  Eu  Eu3  1  0.780730  0.847689  0.597226  1
  Se  Se4  1  0.196951  0.162639  0.883252  1
  Se  Se5  1  0.303049  0.662639  0.616748  1
  Se  Se6  1  0.696951  0.337361  0.383252  1
  Se  Se7  1  0.803049  0.837361  0.116748  1
  O  O8  1  0.022169  0.106849  0.679475  1
  O  O9  1  0.112374  0.344410  0.991902  1
  O  O10  1  0.114892  0.709028  0.717270  1
  O  O11  1  0.257400  0.499833  0.437450  1
  O  O12  1  0.385108  0.209028  0.782730  1
  O  O13  1  0.242600  -0.000167  0.062550  1
  O  O14  1  0.387626  0.844410  0.508098  1
  O  O15  1  0.477831  0.606849  0.820525  1
  O  O16  1  0.522169  0.393151  0.179475  1
  O  O17  1  0.612374  0.155590  0.491902  1
  O  O18  1  0.757400  0.000167  0.937450  1
  O  O19  1  0.614892  0.790972  0.217270  1
  O  O20  1  0.742600  0.500167  0.562550  1
  O  O21  1  0.885108  0.290972  0.282730  1
  O  O22  1  0.887626  0.655590  0.008098  1
  O  O23  1  0.977831  0.893151  0.320525  1
