# generated using pymatgen
data_K2MgH8(CO5)2
_symmetry_space_group_name_H-M   'P 1'
_cell_length_a   11.43541559
_cell_length_b   6.26948416
_cell_length_c   6.94821850
_cell_angle_alpha   90.00000000
_cell_angle_beta   100.42919226
_cell_angle_gamma   90.00000000
_symmetry_Int_Tables_number   1
_chemical_formula_structural   K2MgH8(CO5)2
_chemical_formula_sum   'K4 Mg2 H16 C4 O20'
_cell_volume   489.91696964
_cell_formula_units_Z   2
loop_
 _symmetry_equiv_pos_site_id
 _symmetry_equiv_pos_as_xyz
  1  'x, y, z'
loop_
 _atom_site_type_symbol
 _atom_site_label
 _atom_site_symmetry_multiplicity
 _atom_site_fract_x
 _atom_site_fract_y
 _atom_site_fract_z
 _atom_site_occupancy
  K  K0  1  0.182596  0.148726  0.416023  1
  K  K1  1  0.317404  0.648726  0.083977  1
  K  K2  1  0.682596  0.351274  0.916023  1
  K  K3  1  0.817404  0.851274  0.583977  1
  Mg  Mg4  1  0.000000  0.500000  0.000000  1
  Mg  Mg5  1  0.500000  0.000000  0.500000  1
  H  H6  1  0.076876  0.823798  0.774499  1
  H  H7  1  0.021579  0.800565  0.229963  1
  H  H8  1  0.113403  0.604390  0.689427  1
  H  H9  1  0.137833  0.658414  0.333887  1
  H  H10  1  0.386597  0.104390  0.810573  1
  H  H11  1  0.362167  0.158414  0.166113  1
  H  H12  1  0.423124  0.323798  0.725501  1
  H  H13  1  0.478421  0.300565  0.270037  1
  H  H14  1  0.521579  0.699435  0.729963  1
  H  H15  1  0.576876  0.676202  0.274499  1
  H  H16  1  0.637833  0.841586  0.833887  1
  H  H17  1  0.613403  0.895610  0.189427  1
  H  H18  1  0.862167  0.341586  0.666113  1
  H  H19  1  0.886597  0.395610  0.310573  1
  H  H20  1  0.978421  0.199435  0.770037  1
  H  H21  1  0.923124  0.176202  0.225501  1
  C  C22  1  0.175913  0.150506  0.919276  1
  C  C23  1  0.324087  0.650506  0.580724  1
  C  C24  1  0.675913  0.349494  0.419276  1
  C  C25  1  0.824087  0.849494  0.080724  1
  O  O26  1  0.056530  0.666776  0.766590  1
  O  O27  1  0.099903  0.080754  0.768744  1
  O  O28  1  0.094267  0.716753  0.205169  1
  O  O29  1  0.147615  0.305770  0.025651  1
  O  O30  1  0.219392  0.562771  0.537035  1
  O  O31  1  0.280608  0.062771  0.962965  1
  O  O32  1  0.352385  0.805770  0.474349  1
  O  O33  1  0.400097  0.580754  0.731256  1
  O  O34  1  0.443470  0.166776  0.733410  1
  O  O35  1  0.405733  0.216753  0.294831  1
  O  O36  1  0.594267  0.783247  0.705169  1
  O  O37  1  0.556530  0.833224  0.266590  1
  O  O38  1  0.599903  0.419246  0.268744  1
  O  O39  1  0.647615  0.194230  0.525651  1
  O  O40  1  0.719392  0.937229  0.037035  1
  O  O41  1  0.780608  0.437229  0.462965  1
  O  O42  1  0.852385  0.694230  0.974349  1
  O  O43  1  0.905733  0.283247  0.794831  1
  O  O44  1  0.900097  0.919246  0.231256  1
  O  O45  1  0.943470  0.333224  0.233410  1
