# generated using pymatgen
data_YNiH3SO7
_symmetry_space_group_name_H-M   'P 1'
_cell_length_a   6.97263486
_cell_length_b   7.36852008
_cell_length_c   10.37113545
_cell_angle_alpha   90.00036234
_cell_angle_beta   89.98986455
_cell_angle_gamma   89.99955626
_symmetry_Int_Tables_number   1
_chemical_formula_structural   YNiH3SO7
_chemical_formula_sum   'Y4 Ni4 H12 S4 O28'
_cell_volume   532.84818838
_cell_formula_units_Z   4
loop_
 _symmetry_equiv_pos_site_id
 _symmetry_equiv_pos_as_xyz
  1  'x, y, z'
loop_
 _atom_site_type_symbol
 _atom_site_label
 _atom_site_symmetry_multiplicity
 _atom_site_fract_x
 _atom_site_fract_y
 _atom_site_fract_z
 _atom_site_occupancy
  Y  Y0  1  0.734634  0.250001  0.801097  1
  Y  Y1  1  0.234824  0.249990  0.699266  1
  Y  Y2  1  0.265373  0.749996  0.198902  1
  Y  Y3  1  0.765179  0.750006  0.300737  1
  Ni  Ni4  1  0.499983  0.000011  0.999984  1
  Ni  Ni5  1  0.000003  0.499984  0.500016  1
  Ni  Ni6  1  0.499994  0.499984  0.999987  1
  Ni  Ni7  1  0.999996  0.000027  0.499994  1
  H  H8  1  0.730221  0.249996  0.071984  1
  H  H9  1  0.230794  0.250001  0.427673  1
  H  H10  1  0.269779  0.750003  0.928018  1
  H  H11  1  0.769209  0.750000  0.572326  1
  H  H12  1  0.471160  0.952422  0.760814  1
  H  H13  1  0.971093  0.547579  0.739327  1
  H  H14  1  0.528838  0.452427  0.239188  1
  H  H15  1  0.028911  0.047585  0.260673  1
  H  H16  1  0.528841  0.047577  0.239187  1
  H  H17  1  0.028908  0.452421  0.260675  1
  H  H18  1  0.471162  0.547573  0.760813  1
  H  H19  1  0.971088  0.952416  0.739326  1
  S  S20  1  0.121271  0.249998  0.053012  1
  S  S21  1  0.621172  0.249998  0.446998  1
  S  S22  1  0.878727  0.750003  0.946989  1
  S  S23  1  0.378827  0.750004  0.553004  1
  O  O24  1  0.052034  0.249996  0.915855  1
  O  O25  1  0.552066  0.249995  0.584193  1
  O  O26  1  0.947967  0.750003  0.084145  1
  O  O27  1  0.447934  0.750005  0.415809  1
  O  O28  1  0.959452  0.250007  0.144984  1
  O  O29  1  0.459469  0.250006  0.354921  1
  O  O30  1  0.040547  0.749992  0.855017  1
  O  O31  1  0.540529  0.749992  0.645081  1
  O  O32  1  0.762006  0.915928  0.924788  1
  O  O33  1  0.262081  0.584102  0.575247  1
  O  O34  1  0.238007  0.415912  0.075207  1
  O  O35  1  0.737909  0.084088  0.424745  1
  O  O36  1  0.237993  0.084074  0.075212  1
  O  O37  1  0.737924  0.415897  0.424757  1
  O  O38  1  0.761995  0.584086  0.924792  1
  O  O39  1  0.262089  0.915915  0.575256  1
  O  O40  1  0.624837  0.249998  0.008887  1
  O  O41  1  0.126601  0.250001  0.491736  1
  O  O42  1  0.375167  0.749999  0.991111  1
  O  O43  1  0.873406  0.750001  0.508266  1
  O  O44  1  0.450521  0.066448  0.807740  1
  O  O45  1  0.950300  0.433590  0.692393  1
  O  O46  1  0.549480  0.566447  0.192257  1
  O  O47  1  0.049702  0.933598  0.307610  1
  O  O48  1  0.549478  0.933556  0.192256  1
  O  O49  1  0.049701  0.566407  0.307614  1
  O  O50  1  0.450519  0.433549  0.807739  1
  O  O51  1  0.950298  0.066405  0.692392  1
