# generated using pymatgen
data_Li6V3P8O29
_symmetry_space_group_name_H-M   'P 1'
_cell_length_a   9.79465855
_cell_length_b   9.82863763
_cell_length_c   13.96246253
_cell_angle_alpha   89.95785815
_cell_angle_beta   90.23147179
_cell_angle_gamma   60.12220869
_symmetry_Int_Tables_number   1
_chemical_formula_structural   Li6V3P8O29
_chemical_formula_sum   'Li12 V6 P16 O58'
_cell_volume   1165.47523590
_cell_formula_units_Z   2
loop_
 _symmetry_equiv_pos_site_id
 _symmetry_equiv_pos_as_xyz
  1  'x, y, z'
loop_
 _atom_site_type_symbol
 _atom_site_label
 _atom_site_symmetry_multiplicity
 _atom_site_fract_x
 _atom_site_fract_y
 _atom_site_fract_z
 _atom_site_occupancy
  Li  Li0  1  0.773226  0.909089  0.558049  1
  Li  Li1  1  0.910671  0.316851  0.557762  1
  Li  Li2  1  0.666562  0.669766  0.887095  1
  Li  Li3  1  0.766566  0.326544  0.063882  1
  Li  Li4  1  0.329515  0.900294  0.062186  1
  Li  Li5  1  0.677197  0.229393  0.437636  1
  Li  Li6  1  0.319507  0.771326  0.561791  1
  Li  Li7  1  0.667791  0.096601  0.941071  1
  Li  Li8  1  0.095743  0.675246  0.436823  1
  Li  Li9  1  0.228398  0.094239  0.438407  1
  Li  Li10  1  0.099972  0.230552  0.943118  1
  Li  Li11  1  0.012147  0.929518  0.009539  1
  V  V12  1  0.564379  0.436219  0.249841  1
  V  V13  1  0.429590  0.565176  0.754762  1
  V  V14  1  0.568090  0.001381  0.746972  1
  V  V15  1  0.432318  0.000155  0.249101  1
  V  V16  1  0.997383  0.571513  0.244816  1
  V  V17  1  0.001801  0.437267  0.752007  1
  P  P18  1  0.912261  0.779079  0.841235  1
  P  P19  1  0.769033  0.912285  0.339457  1
  P  P20  1  0.913086  0.321111  0.341042  1
  P  P21  1  0.664523  0.666998  0.127126  1
  P  P22  1  0.665583  0.665524  0.629568  1
  P  P23  1  0.773963  0.316187  0.842628  1
  P  P24  1  0.679817  0.234822  0.657139  1
  P  P25  1  0.317909  0.909359  0.842741  1
  P  P26  1  0.684747  0.088994  0.156211  1
  P  P27  1  0.320829  0.767265  0.344188  1
  P  P28  1  0.224151  0.690940  0.159648  1
  P  P29  1  0.332474  0.333631  0.370167  1
  P  P30  1  0.336788  0.330080  0.873159  1
  P  P31  1  0.085306  0.683985  0.655981  1
  P  P32  1  0.229319  0.088262  0.658212  1
  P  P33  1  0.086219  0.229060  0.157933  1
  O  O34  1  0.997625  0.757071  0.564322  1
  O  O35  1  0.916472  0.748487  0.341049  1
  O  O36  1  0.774505  0.014898  0.066147  1
  O  O37  1  0.739593  0.921824  0.838295  1
  O  O38  1  0.898507  0.627945  0.833048  1
  O  O39  1  0.804090  0.678810  0.170578  1
  O  O40  1  0.906188  0.478036  0.321799  1
  O  O41  1  0.000143  0.224206  0.068600  1
  O  O42  1  0.922519  0.332335  0.845119  1
  O  O43  1  0.673661  0.813156  0.666926  1
  O  O44  1  0.618819  0.901272  0.320447  1
  O  O45  1  0.815906  0.515889  0.674687  1
  O  O46  1  0.662972  0.663689  0.018931  1
  O  O47  1  0.667673  0.658956  0.522997  1
  O  O48  1  0.677122  0.510278  0.165648  1
  O  O49  1  0.482032  0.894233  0.828896  1
  O  O50  1  0.506897  0.810783  0.163804  1
  O  O51  1  0.747474  0.339106  0.342695  1
  O  O52  1  0.792374  0.212747  0.748732  1
  O  O53  1  0.759883  0.243591  0.567192  1
  O  O54  1  0.764359  0.232299  0.930606  1
  O  O55  1  0.627692  0.482229  0.829854  1
  O  O56  1  0.515572  0.668861  0.672855  1
  O  O57  1  0.660390  0.257618  0.163509  1
  O  O58  1  0.481599  0.620742  0.323310  1
  O  O59  1  0.336456  0.916319  0.343268  1
  O  O60  1  0.792560  0.000188  0.249195  1
  O  O61  1  0.753248  0.003159  0.429785  1
  O  O62  1  0.245465  0.997593  0.568215  1
  O  O63  1  0.667313  0.083274  0.657397  1
  O  O64  1  0.520799  0.381268  0.673915  1
  O  O65  1  0.337186  0.746022  0.841473  1
  O  O66  1  0.487324  0.326761  0.329559  1
  O  O67  1  0.381677  0.538277  0.165614  1
  O  O68  1  0.206049  0.798697  0.078159  1
  O  O69  1  0.248624  0.751315  0.435331  1
  O  O70  1  0.204100  0.789035  0.257495  1
  O  O71  1  0.248483  0.670328  0.658991  1
  O  O72  1  0.487707  0.185921  0.832249  1
  O  O73  1  0.529286  0.090043  0.168297  1
  O  O74  1  0.334116  0.479337  0.827918  1
  O  O75  1  0.334609  0.327896  0.979492  1
  O  O76  1  0.339052  0.325481  0.477315  1
  O  O77  1  0.186436  0.487797  0.332091  1
  O  O78  1  0.381204  0.096506  0.678400  1
  O  O79  1  0.324991  0.186875  0.328759  1
  O  O80  1  0.084723  0.659449  0.162938  1
  O  O81  1  0.987950  0.798479  0.743413  1
  O  O82  1  0.998490  0.790305  0.924805  1
  O  O83  1  0.099119  0.523289  0.675529  1
  O  O84  1  0.184953  0.329854  0.830923  1
  O  O85  1  0.093585  0.378639  0.169377  1
  O  O86  1  0.253499  0.081291  0.160238  1
  O  O87  1  0.233442  0.001023  0.931319  1
  O  O88  1  0.209812  0.000031  0.749856  1
  O  O89  1  0.083842  0.252816  0.657231  1
  O  O90  1  0.003666  0.242487  0.431251  1
  O  O91  1  0.000168  0.207642  0.250701  1
