# generated using pymatgen
data_CoP2WO8
_symmetry_space_group_name_H-M   'P 1'
_cell_length_a   10.23980975
_cell_length_b   5.98916956
_cell_length_c   4.95818579
_cell_angle_alpha   90.00000000
_cell_angle_beta   91.82331659
_cell_angle_gamma   90.00000000
_symmetry_Int_Tables_number   1
_chemical_formula_structural   CoP2WO8
_chemical_formula_sum   'Co2 P4 W2 O16'
_cell_volume   303.92144944
_cell_formula_units_Z   2
loop_
 _symmetry_equiv_pos_site_id
 _symmetry_equiv_pos_as_xyz
  1  'x, y, z'
loop_
 _atom_site_type_symbol
 _atom_site_label
 _atom_site_symmetry_multiplicity
 _atom_site_fract_x
 _atom_site_fract_y
 _atom_site_fract_z
 _atom_site_occupancy
  Co  Co0  1  0.279335  0.250000  0.950981  1
  Co  Co1  1  0.720665  0.750000  0.049019  1
  P  P2  1  0.094670  0.250000  0.421050  1
  P  P3  1  0.405592  0.750000  0.907192  1
  P  P4  1  0.594408  0.250000  0.092808  1
  P  P5  1  0.905330  0.750000  0.578950  1
  W  W6  1  0.222026  0.750000  0.461238  1
  W  W7  1  0.777974  0.250000  0.538762  1
  O  O8  1  0.048332  0.750000  0.677684  1
  O  O9  1  0.111953  0.250000  0.724521  1
  O  O10  1  0.169032  0.046458  0.285270  1
  O  O11  1  0.169032  0.453542  0.285270  1
  O  O12  1  0.327245  0.553385  0.755276  1
  O  O13  1  0.327245  0.946615  0.755276  1
  O  O14  1  0.381246  0.750000  0.208879  1
  O  O15  1  0.450877  0.250000  0.151573  1
  O  O16  1  0.549123  0.750000  0.848427  1
  O  O17  1  0.618754  0.250000  0.791121  1
  O  O18  1  0.672755  0.053385  0.244724  1
  O  O19  1  0.672755  0.446615  0.244724  1
  O  O20  1  0.830968  0.546458  0.714730  1
  O  O21  1  0.830968  0.953542  0.714730  1
  O  O22  1  0.888047  0.750000  0.275479  1
  O  O23  1  0.951668  0.250000  0.322316  1
