# generated using pymatgen
data_In(HO)3
_symmetry_space_group_name_H-M   'P 1'
_cell_length_a   7.02440698
_cell_length_b   7.00369559
_cell_length_c   7.05351026
_cell_angle_alpha   111.34406308
_cell_angle_beta   110.35065186
_cell_angle_gamma   106.90121425
_symmetry_Int_Tables_number   1
_chemical_formula_structural   In(HO)3
_chemical_formula_sum   'In4 H12 O12'
_cell_volume   266.19805532
_cell_formula_units_Z   4
loop_
 _symmetry_equiv_pos_site_id
 _symmetry_equiv_pos_as_xyz
  1  'x, y, z'
loop_
 _atom_site_type_symbol
 _atom_site_label
 _atom_site_symmetry_multiplicity
 _atom_site_fract_x
 _atom_site_fract_y
 _atom_site_fract_z
 _atom_site_occupancy
  In  In0  1  0.511522  0.011219  0.007597  1
  In  In1  1  0.002700  0.479813  0.011997  1
  In  In2  1  0.997788  0.002111  0.499938  1
  In  In3  1  0.479350  0.487972  0.475752  1
  H  H4  1  0.821659  0.456677  0.282495  1
  H  H5  1  0.706011  0.165707  0.550929  1
  H  H6  1  0.559139  0.725566  0.167714  1
  H  H7  1  0.899848  0.718748  0.636032  1
  H  H8  1  0.036740  0.324740  0.370161  1
  H  H9  1  0.289483  0.258534  0.966648  1
  H  H10  1  0.716220  0.657385  0.942995  1
  H  H11  1  0.632786  0.948412  0.681557  1
  H  H12  1  0.277505  0.831748  0.455779  1
  H  H13  1  0.349612  0.031003  0.311245  1
  H  H14  1  0.181353  0.509285  0.691868  1
  H  H15  1  0.077200  0.693503  0.791438  1
  O  O16  1  0.832768  0.325763  0.170681  1
  O  O17  1  0.478143  0.153450  0.321615  1
  O  O18  1  0.826428  0.156499  0.669961  1
  O  O19  1  0.309942  0.470511  0.155759  1
  O  O20  1  0.678590  0.840184  0.162308  1
  O  O21  1  0.802413  0.664638  0.470550  1
  O  O22  1  0.163305  0.337830  0.509185  1
  O  O23  1  0.269296  0.107170  0.836528  1
  O  O24  1  0.744986  0.560779  0.822038  1
  O  O25  1  0.157990  0.833969  0.329187  1
  O  O26  1  0.507361  0.833181  0.681016  1
  O  O27  1  0.198862  0.655081  0.849787  1
