# generated using pymatgen
data_Li11Fe(WO4)7
_symmetry_space_group_name_H-M   'P 1'
_cell_length_a   8.30213610
_cell_length_b   8.54673286
_cell_length_c   8.54673286
_cell_angle_alpha   89.80798132
_cell_angle_beta   90.44676613
_cell_angle_gamma   90.44676613
_symmetry_Int_Tables_number   1
_chemical_formula_structural   Li11Fe(WO4)7
_chemical_formula_sum   'Li11 Fe1 W7 O28'
_cell_volume   606.40301350
_cell_formula_units_Z   1
loop_
 _symmetry_equiv_pos_site_id
 _symmetry_equiv_pos_as_xyz
  1  'x, y, z'
loop_
 _atom_site_type_symbol
 _atom_site_label
 _atom_site_symmetry_multiplicity
 _atom_site_fract_x
 _atom_site_fract_y
 _atom_site_fract_z
 _atom_site_occupancy
  Li  Li0  1  0.100345  0.348295  0.643204  1
  Li  Li1  1  0.100345  0.643204  0.348295  1
  Li  Li2  1  0.353865  0.088732  0.648523  1
  Li  Li3  1  0.357105  0.348151  0.911145  1
  Li  Li4  1  0.353865  0.648523  0.088732  1
  Li  Li5  1  0.357105  0.911145  0.348151  1
  Li  Li6  1  0.642343  0.092966  0.349633  1
  Li  Li7  1  0.642343  0.349633  0.092966  1
  Li  Li8  1  0.639597  0.649235  0.905831  1
  Li  Li9  1  0.639597  0.905831  0.649235  1
  Li  Li10  1  0.905781  0.351829  0.351829  1
  Fe  Fe11  1  0.877828  0.630205  0.630205  1
  W  W12  1  -0.000435  0.992371  0.500480  1
  W  W13  1  -0.000435  0.500480  0.992371  1
  W  W14  1  0.361182  0.354958  0.354958  1
  W  W15  1  0.347143  0.644437  0.644437  1
  W  W16  1  0.500581  0.998942  0.998942  1
  W  W17  1  0.636709  0.357000  0.647102  1
  W  W18  1  0.636709  0.647102  0.357000  1
  O  O19  1  0.147407  0.387683  0.387683  1
  O  O20  1  0.128026  0.621848  0.621848  1
  O  O21  1  0.122299  0.118265  0.621184  1
  O  O22  1  0.122299  0.621184  0.118265  1
  O  O23  1  0.124774  0.375027  0.878389  1
  O  O24  1  0.124774  0.878389  0.375027  1
  O  O25  1  0.377016  0.121967  0.874253  1
  O  O26  1  0.377016  0.874253  0.121967  1
  O  O27  1  0.394583  0.398048  0.612013  1
  O  O28  1  0.394583  0.612013  0.398048  1
  O  O29  1  0.384961  0.146468  0.385131  1
  O  O30  1  0.384961  0.385131  0.146468  1
  O  O31  1  0.382254  0.618491  0.851593  1
  O  O32  1  0.382254  0.851593  0.618491  1
  O  O33  1  0.627321  0.148220  0.619633  1
  O  O34  1  0.627321  0.619633  0.148220  1
  O  O35  1  0.615775  0.383557  0.855621  1
  O  O36  1  0.615775  0.855621  0.383557  1
  O  O37  1  0.611045  0.395308  0.395308  1
  O  O38  1  0.629696  0.614672  0.614672  1
  O  O39  1  0.624198  0.123059  0.123059  1
  O  O40  1  0.625190  0.877192  0.877192  1
  O  O41  1  0.874738  0.119915  0.384228  1
  O  O42  1  0.874738  0.384228  0.119915  1
  O  O43  1  0.878634  0.623589  0.856007  1
  O  O44  1  0.878634  0.856007  0.623589  1
  O  O45  1  0.859076  0.403874  0.621723  1
  O  O46  1  0.859076  0.621723  0.403874  1
