# generated using pymatgen
data_AlVO3
_symmetry_space_group_name_H-M   'P 1'
_cell_length_a   5.06389034
_cell_length_b   5.23768514
_cell_length_c   6.97586060
_cell_angle_alpha   89.99984909
_cell_angle_beta   89.99994066
_cell_angle_gamma   89.99955549
_symmetry_Int_Tables_number   1
_chemical_formula_structural   AlVO3
_chemical_formula_sum   'Al4 V4 O12'
_cell_volume   185.02119146
_cell_formula_units_Z   4
loop_
 _symmetry_equiv_pos_site_id
 _symmetry_equiv_pos_as_xyz
  1  'x, y, z'
loop_
 _atom_site_type_symbol
 _atom_site_label
 _atom_site_symmetry_multiplicity
 _atom_site_fract_x
 _atom_site_fract_y
 _atom_site_fract_z
 _atom_site_occupancy
  Al  Al0  1  0.999998  0.500001  0.999999  1
  Al  Al1  1  0.999997  0.500002  0.500002  1
  Al  Al2  1  0.500002  0.999998  0.000000  1
  Al  Al3  1  0.500001  0.999997  0.500000  1
  V  V4  1  0.992655  0.941686  0.749999  1
  V  V5  1  0.507361  0.441703  0.749983  1
  V  V6  1  0.492638  0.558297  0.250009  1
  V  V7  1  0.007352  0.058313  0.250009  1
  O  O8  1  0.111707  0.436581  0.250000  1
  O  O9  1  0.168403  0.174768  0.553964  1
  O  O10  1  0.168406  0.174770  0.946034  1
  O  O11  1  0.331594  0.674770  0.946036  1
  O  O12  1  0.331592  0.674769  0.553969  1
  O  O13  1  0.388283  0.936581  0.249999  1
  O  O14  1  0.611722  0.063413  0.750001  1
  O  O15  1  0.668402  0.325232  0.446032  1
  O  O16  1  0.668404  0.325232  0.053963  1
  O  O17  1  0.831599  0.825234  0.053966  1
  O  O18  1  0.831599  0.825233  0.446036  1
  O  O19  1  0.888284  0.563420  0.750000  1
