# generated using pymatgen
data_Sr3TeO6
_symmetry_space_group_name_H-M   'P 1'
_cell_length_a   6.06038101
_cell_length_b   6.06038102
_cell_length_c   6.06038130
_cell_angle_alpha   59.59511757
_cell_angle_beta   59.59511753
_cell_angle_gamma   59.59510984
_symmetry_Int_Tables_number   1
_chemical_formula_structural   Sr3TeO6
_chemical_formula_sum   'Sr3 Te1 O6'
_cell_volume   155.94432046
_cell_formula_units_Z   1
loop_
 _symmetry_equiv_pos_site_id
 _symmetry_equiv_pos_as_xyz
  1  'x, y, z'
loop_
 _atom_site_type_symbol
 _atom_site_label
 _atom_site_symmetry_multiplicity
 _atom_site_fract_x
 _atom_site_fract_y
 _atom_site_fract_z
 _atom_site_occupancy
  Sr  Sr0  1  0.646602  0.646602  0.646602  1
  Sr  Sr1  1  0.381445  0.381445  0.381445  1
  Sr  Sr2  1  0.881692  0.881692  0.881692  1
  Te  Te3  1  0.152515  0.152515  0.152515  1
  O  O4  1  0.015003  0.847363  0.380574  1
  O  O5  1  0.461793  0.948618  0.284396  1
  O  O6  1  0.284396  0.461793  0.948618  1
  O  O7  1  0.847363  0.380574  0.015003  1
  O  O8  1  0.380574  0.015003  0.847363  1
  O  O9  1  0.948618  0.284396  0.461793  1
