# generated using pymatgen
data_Na3AsH14SO10
_symmetry_space_group_name_H-M   'P 1'
_cell_length_a   6.77473567
_cell_length_b   7.10608064
_cell_length_c   12.74214304
_cell_angle_alpha   90.00000000
_cell_angle_beta   90.00000000
_cell_angle_gamma   94.13453855
_symmetry_Int_Tables_number   1
_chemical_formula_structural   Na3AsH14SO10
_chemical_formula_sum   'Na6 As2 H28 S2 O20'
_cell_volume   611.83348072
_cell_formula_units_Z   2
loop_
 _symmetry_equiv_pos_site_id
 _symmetry_equiv_pos_as_xyz
  1  'x, y, z'
loop_
 _atom_site_type_symbol
 _atom_site_label
 _atom_site_symmetry_multiplicity
 _atom_site_fract_x
 _atom_site_fract_y
 _atom_site_fract_z
 _atom_site_occupancy
  Na  Na0  1  0.800420  0.799796  0.238690  1
  Na  Na1  1  0.199580  0.200204  0.738690  1
  Na  Na2  1  0.797021  0.326146  0.131788  1
  Na  Na3  1  0.202979  0.673854  0.631788  1
  Na  Na4  1  0.776729  0.677419  0.493976  1
  Na  Na5  1  0.223271  0.322581  0.993976  1
  As  As6  1  0.800500  0.806914  0.851077  1
  As  As7  1  0.199500  0.193086  0.351077  1
  H  H8  1  0.644736  0.415799  0.777479  1
  H  H9  1  0.355264  0.584201  0.277479  1
  H  H10  1  0.640008  0.302724  0.670380  1
  H  H11  1  0.359992  0.697276  0.170380  1
  H  H12  1  0.799756  0.054262  0.404184  1
  H  H13  1  0.200244  0.945738  0.904184  1
  H  H14  1  0.568110  0.979353  0.393629  1
  H  H15  1  0.431890  0.020647  0.893629  1
  H  H16  1  0.829326  0.406535  0.912896  1
  H  H17  1  0.170674  0.593465  0.412896  1
  H  H18  1  0.810875  0.183642  0.926122  1
  H  H19  1  0.189125  0.816358  0.426122  1
  H  H20  1  0.579648  0.536637  0.972188  1
  H  H21  1  0.420352  0.463363  0.472188  1
  H  H22  1  0.526510  0.588444  0.089063  1
  H  H23  1  0.473490  0.411556  0.589063  1
  H  H24  1  0.602099  0.427428  0.329702  1
  H  H25  1  0.397901  0.572572  0.829702  1
  H  H26  1  0.637432  0.981230  0.046626  1
  H  H27  1  0.362568  0.018770  0.546626  1
  H  H28  1  0.490219  0.014336  0.144294  1
  H  H29  1  0.509781  0.985664  0.644294  1
  H  H30  1  0.006539  0.688209  0.033211  1
  H  H31  1  0.993461  0.311791  0.533211  1
  H  H32  1  0.104748  0.690000  0.147397  1
  H  H33  1  0.895252  0.310000  0.647397  1
  H  H34  1  0.828316  0.379991  0.346048  1
  H  H35  1  0.171684  0.620009  0.846048  1
  S  S36  1  0.860635  0.890494  0.691103  1
  S  S37  1  0.139365  0.109506  0.191103  1
  O  O38  1  0.679349  0.972756  0.919541  1
  O  O39  1  0.320651  0.027244  0.419541  1
  O  O40  1  0.021156  0.767339  0.914865  1
  O  O41  1  0.978844  0.232661  0.414865  1
  O  O42  1  0.653639  0.594436  0.859106  1
  O  O43  1  0.346361  0.405564  0.359106  1
  O  O44  1  0.613812  0.288323  0.745022  1
  O  O45  1  0.386188  0.711677  0.245022  1
  O  O46  1  0.706337  0.939353  0.394839  1
  O  O47  1  0.293663  0.060647  0.894839  1
  O  O48  1  0.893160  0.301926  0.946233  1
  O  O49  1  0.106840  0.698074  0.446233  1
  O  O50  1  0.524054  0.480840  0.041170  1
  O  O51  1  0.475946  0.519160  0.541170  1
  O  O52  1  0.740972  0.466679  0.308904  1
  O  O53  1  0.259028  0.533321  0.808904  1
  O  O54  1  0.628160  0.996358  0.125317  1
  O  O55  1  0.371840  0.003642  0.625317  1
  O  O56  1  0.000632  0.624651  0.105351  1
  O  O57  1  0.999368  0.375349  0.605351  1
