# generated using pymatgen
data_P2HNF4
_symmetry_space_group_name_H-M   'P 1'
_cell_length_a   8.89514870
_cell_length_b   4.81478876
_cell_length_c   12.19499576
_cell_angle_alpha   90.00000000
_cell_angle_beta   98.25755118
_cell_angle_gamma   90.00000000
_symmetry_Int_Tables_number   1
_chemical_formula_structural   P2HNF4
_chemical_formula_sum   'P8 H4 N4 F16'
_cell_volume   516.87560965
_cell_formula_units_Z   4
loop_
 _symmetry_equiv_pos_site_id
 _symmetry_equiv_pos_as_xyz
  1  'x, y, z'
loop_
 _atom_site_type_symbol
 _atom_site_label
 _atom_site_symmetry_multiplicity
 _atom_site_fract_x
 _atom_site_fract_y
 _atom_site_fract_z
 _atom_site_occupancy
  P  P0  1  0.151810  0.086936  0.848887  1
  P  P1  1  0.056492  0.140748  0.339517  1
  P  P2  1  0.348190  0.586936  0.651113  1
  P  P3  1  0.556492  0.359252  0.839517  1
  P  P4  1  0.443508  0.640748  0.160483  1
  P  P5  1  0.651810  0.413064  0.348887  1
  P  P6  1  0.943508  0.859252  0.660483  1
  P  P7  1  0.848190  0.913064  0.151113  1
  H  H8  1  0.065056  0.196280  0.146759  1
  H  H9  1  0.434944  0.696280  0.353241  1
  H  H10  1  0.565056  0.303720  0.646759  1
  H  H11  1  0.934944  0.803720  0.853241  1
  N  N12  1  0.002950  0.101774  0.201004  1
  N  N13  1  0.502950  0.398226  0.701004  1
  N  N14  1  0.497050  0.601774  0.298996  1
  N  N15  1  0.997050  0.898226  0.798996  1
  F  F16  1  0.083988  0.250482  0.947032  1
  F  F17  1  0.080728  0.474835  0.342570  1
  F  F18  1  0.244855  0.860549  0.930019  1
  F  F19  1  0.255145  0.360549  0.569981  1
  F  F20  1  0.235165  0.069316  0.345667  1
  F  F21  1  0.264835  0.569316  0.154333  1
  F  F22  1  0.416012  0.750482  0.552968  1
  F  F23  1  0.419272  0.974835  0.157430  1
  F  F24  1  0.580728  0.025165  0.842570  1
  F  F25  1  0.583988  0.249518  0.447032  1
  F  F26  1  0.735165  0.430684  0.845667  1
  F  F27  1  0.764835  0.930684  0.654333  1
  F  F28  1  0.744855  0.639451  0.430019  1
  F  F29  1  0.755145  0.139451  0.069981  1
  F  F30  1  0.919272  0.525165  0.657430  1
  F  F31  1  0.916012  0.749518  0.052968  1
