# generated using pymatgen
data_Li2Cr(CO3)2
_symmetry_space_group_name_H-M   'P 1'
_cell_length_a   8.78871023
_cell_length_b   6.11079012
_cell_length_c   5.33525447
_cell_angle_alpha   64.07175664
_cell_angle_beta   72.32735186
_cell_angle_gamma   82.37254779
_symmetry_Int_Tables_number   1
_chemical_formula_structural   Li2Cr(CO3)2
_chemical_formula_sum   'Li4 Cr2 C4 O12'
_cell_volume   245.53161182
_cell_formula_units_Z   2
loop_
 _symmetry_equiv_pos_site_id
 _symmetry_equiv_pos_as_xyz
  1  'x, y, z'
loop_
 _atom_site_type_symbol
 _atom_site_label
 _atom_site_symmetry_multiplicity
 _atom_site_fract_x
 _atom_site_fract_y
 _atom_site_fract_z
 _atom_site_occupancy
  Li  Li0  1  0.636600  0.877219  0.581971  1
  Li  Li1  1  0.135223  0.622051  0.705282  1
  Li  Li2  1  0.865102  0.377366  0.464782  1
  Li  Li3  1  0.363687  0.119193  0.092262  1
  Cr  Cr4  1  0.499731  0.498825  0.273413  1
  Cr  Cr5  1  0.000064  0.998873  0.026020  1
  C  C6  1  0.709342  0.920837  0.977888  1
  C  C7  1  0.208937  0.577139  0.144811  1
  C  C8  1  0.791799  0.421121  0.935380  1
  C  C9  1  0.290513  0.077101  0.604006  1
  O  O10  1  0.801175  0.985446  0.719564  1
  O  O11  1  0.761024  0.910091  0.187101  1
  O  O12  1  0.559580  0.863819  0.034666  1
  O  O13  1  0.058983  0.634148  0.146228  1
  O  O14  1  0.261326  0.588874  0.342031  1
  O  O15  1  0.299973  0.511575  0.951467  1
  O  O16  1  0.701684  0.486726  0.765986  1
  O  O17  1  0.738316  0.409243  0.196680  1
  O  O18  1  0.942015  0.364110  0.845406  1
  O  O19  1  0.440166  0.134331  0.454637  1
  O  O20  1  0.238653  0.087741  0.854088  1
  O  O21  1  0.198843  0.012061  0.501786  1
