# generated using pymatgen
data_LiTi3Nb(PO4)6
_symmetry_space_group_name_H-M   'P 1'
_cell_length_a   8.87309667
_cell_length_b   8.87309751
_cell_length_c   8.87309654
_cell_angle_alpha   58.48188174
_cell_angle_beta   58.48187747
_cell_angle_gamma   58.48188368
_symmetry_Int_Tables_number   1
_chemical_formula_structural   LiTi3Nb(PO4)6
_chemical_formula_sum   'Li1 Ti3 Nb1 P6 O24'
_cell_volume   476.82462151
_cell_formula_units_Z   1
loop_
 _symmetry_equiv_pos_site_id
 _symmetry_equiv_pos_as_xyz
  1  'x, y, z'
loop_
 _atom_site_type_symbol
 _atom_site_label
 _atom_site_symmetry_multiplicity
 _atom_site_fract_x
 _atom_site_fract_y
 _atom_site_fract_z
 _atom_site_occupancy
  Li  Li0  1  0.005367  0.005367  0.005367  1
  Ti  Ti1  1  0.145223  0.145223  0.145223  1
  Ti  Ti2  1  0.360304  0.360304  0.360304  1
  Ti  Ti3  1  0.640330  0.640330  0.640330  1
  Nb  Nb4  1  0.856190  0.856190  0.856190  1
  P  P5  1  0.034575  0.750617  0.456684  1
  P  P6  1  0.456684  0.034575  0.750617  1
  P  P7  1  0.750617  0.456684  0.034575  1
  P  P8  1  0.254945  0.532405  0.967408  1
  P  P9  1  0.532405  0.967408  0.254945  1
  P  P10  1  0.967408  0.254945  0.532405  1
  O  O11  1  0.138668  0.281112  0.503273  1
  O  O12  1  0.281112  0.503273  0.138668  1
  O  O13  1  0.060643  0.923514  0.276098  1
  O  O14  1  0.503273  0.138668  0.281112  1
  O  O15  1  0.214028  0.578052  0.435952  1
  O  O16  1  0.003354  0.786250  0.628153  1
  O  O17  1  0.276098  0.060643  0.923514  1
  O  O18  1  0.435952  0.214028  0.578052  1
  O  O19  1  0.578052  0.435952  0.214028  1
  O  O20  1  0.214518  0.366963  0.997947  1
  O  O21  1  0.080786  0.717797  0.939769  1
  O  O22  1  0.366963  0.997947  0.214518  1
  O  O23  1  0.628153  0.003354  0.786250  1
  O  O24  1  0.923514  0.276098  0.060643  1
  O  O25  1  0.786250  0.628153  0.003354  1
  O  O26  1  0.423828  0.560814  0.787064  1
  O  O27  1  0.560814  0.787064  0.423828  1
  O  O28  1  0.717797  0.939769  0.080786  1
  O  O29  1  0.997947  0.214518  0.366963  1
  O  O30  1  0.787064  0.423828  0.560814  1
  O  O31  1  0.495133  0.862082  0.720154  1
  O  O32  1  0.939769  0.080786  0.717797  1
  O  O33  1  0.720154  0.495133  0.862082  1
  O  O34  1  0.862082  0.720154  0.495133  1
