# generated using pymatgen
data_Tm(ClO4)3
_symmetry_space_group_name_H-M   'P 1'
_cell_length_a   8.20335877
_cell_length_b   9.39222959
_cell_length_c   8.20335862
_cell_angle_alpha   115.89414747
_cell_angle_beta   59.99999943
_cell_angle_gamma   115.89414569
_symmetry_Int_Tables_number   1
_chemical_formula_structural   Tm(ClO4)3
_chemical_formula_sum   'Tm2 Cl6 O24'
_cell_volume   472.68136773
_cell_formula_units_Z   2
loop_
 _symmetry_equiv_pos_site_id
 _symmetry_equiv_pos_as_xyz
  1  'x, y, z'
loop_
 _atom_site_type_symbol
 _atom_site_label
 _atom_site_symmetry_multiplicity
 _atom_site_fract_x
 _atom_site_fract_y
 _atom_site_fract_z
 _atom_site_occupancy
  Tm  Tm0  1  0.058795  0.176384  0.058795  1
  Tm  Tm1  1  0.558795  0.676384  0.558795  1
  Cl  Cl2  1  0.465645  0.500728  0.189969  1
  Cl  Cl3  1  0.189969  0.500728  0.845112  1
  Cl  Cl4  1  0.345112  0.000728  0.689969  1
  Cl  Cl5  1  0.845112  0.500728  0.465645  1
  Cl  Cl6  1  0.965646  0.000728  0.345112  1
  Cl  Cl7  1  0.689969  0.000728  0.965646  1
  O  O8  1  0.075520  0.960087  0.129830  1
  O  O9  1  0.129830  0.960087  0.754737  1
  O  O10  1  0.280239  0.368415  0.201483  1
  O  O11  1  0.998361  0.522089  0.948756  1
  O  O12  1  0.417398  0.652395  0.341633  1
  O  O13  1  0.074973  0.022089  0.448756  1
  O  O14  1  0.386692  0.868415  0.701483  1
  O  O15  1  0.754737  0.960087  0.075520  1
  O  O16  1  0.574973  0.522089  0.998361  1
  O  O17  1  0.254737  0.460087  0.629830  1
  O  O18  1  0.201483  0.368415  0.886692  1
  O  O19  1  0.341633  0.652395  0.893364  1
  O  O20  1  0.575520  0.460087  0.254737  1
  O  O21  1  0.498361  0.022089  0.074973  1
  O  O22  1  0.780239  0.868415  0.386692  1
  O  O23  1  0.701483  0.868415  0.780239  1
  O  O24  1  0.448756  0.022089  0.498361  1
  O  O25  1  0.629830  0.460087  0.575520  1
  O  O26  1  0.393364  0.152395  0.841633  1
  O  O27  1  0.893364  0.652395  0.417398  1
  O  O28  1  0.886692  0.368415  0.280239  1
  O  O29  1  0.948756  0.522089  0.574973  1
  O  O30  1  0.917398  0.152395  0.393364  1
  O  O31  1  0.841633  0.152395  0.917398  1
