# generated using pymatgen
data_Li8Mn3Fe5(BO3)8
_symmetry_space_group_name_H-M   'P 1'
_cell_length_a   6.03397489
_cell_length_b   5.23600674
_cell_length_c   16.16268610
_cell_angle_alpha   90.77558764
_cell_angle_beta   98.14539382
_cell_angle_gamma   88.96823848
_symmetry_Int_Tables_number   1
_chemical_formula_structural   Li8Mn3Fe5(BO3)8
_chemical_formula_sum   'Li8 Mn3 Fe5 B8 O24'
_cell_volume   505.37822889
_cell_formula_units_Z   1
loop_
 _symmetry_equiv_pos_site_id
 _symmetry_equiv_pos_as_xyz
  1  'x, y, z'
loop_
 _atom_site_type_symbol
 _atom_site_label
 _atom_site_symmetry_multiplicity
 _atom_site_fract_x
 _atom_site_fract_y
 _atom_site_fract_z
 _atom_site_occupancy
  Li  Li0  1  0.064437  0.846596  0.610928  1
  Li  Li1  1  0.437942  0.153428  0.891949  1
  Li  Li2  1  0.184394  0.652449  0.138727  1
  Li  Li3  1  0.314053  0.345623  0.360326  1
  Li  Li4  1  0.684106  0.653078  0.640215  1
  Li  Li5  1  0.817073  0.347360  0.861734  1
  Li  Li6  1  0.561791  0.847084  0.109728  1
  Li  Li7  1  0.936454  0.152162  0.390146  1
  Mn  Mn8  1  0.020059  0.169388  0.208446  1
  Mn  Mn9  1  0.524603  0.169404  0.708803  1
  Mn  Mn10  1  0.772986  0.669087  0.458561  1
  Fe  Fe11  1  0.271811  0.672841  0.956941  1
  Fe  Fe12  1  0.222879  0.336061  0.539578  1
  Fe  Fe13  1  0.472331  0.836791  0.289557  1
  Fe  Fe14  1  0.972558  0.829854  0.788334  1
  Fe  Fe15  1  0.720538  0.338369  0.039701  1
  B  B16  1  0.037719  0.325611  0.703660  1
  B  B17  1  0.287394  0.827346  0.452996  1
  B  B18  1  0.465852  0.669040  0.798079  1
  B  B19  1  0.212747  0.171812  0.045932  1
  B  B20  1  0.788961  0.828270  0.953551  1
  B  B21  1  0.535469  0.328989  0.202436  1
  B  B22  1  0.714912  0.171775  0.547240  1
  B  B23  1  0.963999  0.671856  0.296939  1
  O  O24  1  0.012792  0.587142  0.692841  1
  O  O25  1  0.166961  0.182613  0.653948  1
  O  O26  1  0.176724  0.705838  0.511263  1
  O  O27  1  0.329565  0.297320  0.990459  1
  O  O28  1  0.080091  0.787901  0.239547  1
  O  O29  1  0.331292  0.816606  0.845557  1
  O  O30  1  0.077334  0.317624  0.093223  1
  O  O31  1  0.263220  0.086952  0.441540  1
  O  O32  1  0.489434  0.409637  0.810815  1
  O  O33  1  0.237180  0.911346  0.058057  1
  O  O34  1  0.417615  0.680445  0.403964  1
  O  O35  1  0.425501  0.206380  0.260925  1
  O  O36  1  0.578108  0.788359  0.740211  1
  O  O37  1  0.579425  0.321602  0.593207  1
  O  O38  1  0.762736  0.088154  0.941768  1
  O  O39  1  0.511103  0.588290  0.191125  1
  O  O40  1  0.738436  0.911702  0.561313  1
  O  O41  1  0.920122  0.683170  0.904501  1
  O  O42  1  0.665115  0.181646  0.153593  1
  O  O43  1  0.926339  0.204045  0.761692  1
  O  O44  1  0.677098  0.707041  0.011256  1
  O  O45  1  0.831985  0.288068  0.490287  1
  O  O46  1  0.829124  0.821805  0.343189  1
  O  O47  1  0.987636  0.412040  0.311215  1
