# generated using pymatgen
data_Mn6O5F7
_symmetry_space_group_name_H-M   'P 1'
_cell_length_a   7.15261279
_cell_length_b   5.79116015
_cell_length_c   5.71587972
_cell_angle_alpha   76.21632170
_cell_angle_beta   73.87602691
_cell_angle_gamma   74.27945225
_symmetry_Int_Tables_number   1
_chemical_formula_structural   Mn6O5F7
_chemical_formula_sum   'Mn6 O5 F7'
_cell_volume   215.51281617
_cell_formula_units_Z   1
loop_
 _symmetry_equiv_pos_site_id
 _symmetry_equiv_pos_as_xyz
  1  'x, y, z'
loop_
 _atom_site_type_symbol
 _atom_site_label
 _atom_site_symmetry_multiplicity
 _atom_site_fract_x
 _atom_site_fract_y
 _atom_site_fract_z
 _atom_site_occupancy
  Mn  Mn0  1  0.831627  0.661127  0.686794  1
  Mn  Mn1  1  0.668809  0.372285  0.330266  1
  Mn  Mn2  1  0.329499  0.647354  0.653098  1
  Mn  Mn3  1  0.163123  0.332108  0.331455  1
  Mn  Mn4  1  0.510163  0.985821  0.994917  1
  Mn  Mn5  1  0.997452  0.993347  0.007402  1
  O  O6  1  0.624223  0.575065  0.572474  1
  O  O7  1  0.958507  0.247602  0.234393  1
  O  O8  1  0.043644  0.748742  0.769987  1
  O  O9  1  0.371320  0.437836  0.418361  1
  O  O10  1  0.670533  0.671681  0.021397  1
  F  F11  1  0.663143  0.046833  0.641846  1
  F  F12  1  0.338824  0.324228  0.971590  1
  F  F13  1  0.308519  0.871515  0.886020  1
  F  F14  1  0.689570  0.131679  0.114277  1
  F  F15  1  0.331818  0.970864  0.347015  1
  F  F16  1  0.007783  0.289924  0.692198  1
  F  F17  1  0.991445  0.691986  0.326506  1
