# generated using pymatgen
data_Li2Cu3F7
_symmetry_space_group_name_H-M   'P 1'
_cell_length_a   10.19012588
_cell_length_b   10.78692309
_cell_length_c   3.06225112
_cell_angle_alpha   90.00019461
_cell_angle_beta   90.00000174
_cell_angle_gamma   89.93682368
_symmetry_Int_Tables_number   1
_chemical_formula_structural   Li2Cu3F7
_chemical_formula_sum   'Li4 Cu6 F14'
_cell_volume   336.60275736
_cell_formula_units_Z   2
loop_
 _symmetry_equiv_pos_site_id
 _symmetry_equiv_pos_as_xyz
  1  'x, y, z'
loop_
 _atom_site_type_symbol
 _atom_site_label
 _atom_site_symmetry_multiplicity
 _atom_site_fract_x
 _atom_site_fract_y
 _atom_site_fract_z
 _atom_site_occupancy
  Li  Li0  1  0.250074  0.850402  0.500000  1
  Li  Li1  1  0.249980  0.350451  0.500000  1
  Li  Li2  1  0.750047  0.649547  0.500000  1
  Li  Li3  1  0.749890  0.149616  0.500000  1
  Cu  Cu4  1  0.999995  0.499999  -0.000004  1
  Cu  Cu5  1  0.040788  0.134285  0.999997  1
  Cu  Cu6  1  0.459179  0.634235  0.000001  1
  Cu  Cu7  1  0.499999  0.000001  0.999999  1
  Cu  Cu8  1  0.540861  0.365773  0.000001  1
  Cu  Cu9  1  0.959213  0.865719  0.000003  1
  F  F10  1  0.000009  0.000029  0.499999  1
  F  F11  1  0.124260  0.488924  0.500002  1
  F  F12  1  0.120653  0.222095  0.500000  1
  F  F13  1  0.155152  0.835132  1.000000  1
  F  F14  1  0.344761  0.335123  0.000000  1
  F  F15  1  0.379293  0.722146  0.500000  1
  F  F16  1  0.375768  0.988946  0.500001  1
  F  F17  1  0.500001  0.500038  0.500000  1
  F  F18  1  0.624228  0.011057  0.500000  1
  F  F19  1  0.620748  0.277805  0.500000  1
  F  F20  1  0.655198  0.664879  0.000001  1
  F  F21  1  0.844875  0.164861  -0.000000  1
  F  F22  1  0.879299  0.777857  0.500000  1
  F  F23  1  0.875727  0.511079  0.500000  1
