# generated using pymatgen
data_Li2VP2O7
_symmetry_space_group_name_H-M   'P 1'
_cell_length_a   7.97515405
_cell_length_b   13.71476324
_cell_length_c   5.16057856
_cell_angle_alpha   90.00000000
_cell_angle_beta   91.67785217
_cell_angle_gamma   90.00000000
_symmetry_Int_Tables_number   1
_chemical_formula_structural   Li2VP2O7
_chemical_formula_sum   'Li8 V4 P8 O28'
_cell_volume   564.20839820
_cell_formula_units_Z   4
loop_
 _symmetry_equiv_pos_site_id
 _symmetry_equiv_pos_as_xyz
  1  'x, y, z'
loop_
 _atom_site_type_symbol
 _atom_site_label
 _atom_site_symmetry_multiplicity
 _atom_site_fract_x
 _atom_site_fract_y
 _atom_site_fract_z
 _atom_site_occupancy
  Li  Li0  1  0.138157  0.896554  0.182368  1
  Li  Li1  1  0.166805  0.304099  0.734997  1
  Li  Li2  1  0.333195  0.804099  0.765003  1
  Li  Li3  1  0.361843  0.396554  0.317632  1
  Li  Li4  1  0.638157  0.603446  0.682368  1
  Li  Li5  1  0.666805  0.195901  0.234997  1
  Li  Li6  1  0.833195  0.695901  0.265003  1
  Li  Li7  1  0.861843  0.103446  0.817632  1
  V  V8  1  0.265878  0.659965  0.292517  1
  V  V9  1  0.234122  0.159965  0.207483  1
  V  V10  1  0.765878  0.840035  0.792517  1
  V  V11  1  0.734122  0.340035  0.707483  1
  P  P12  1  0.031329  0.677479  0.771274  1
  P  P13  1  0.225302  0.026375  0.702151  1
  P  P14  1  0.274698  0.526375  0.797849  1
  P  P15  1  0.468671  0.177479  0.728726  1
  P  P16  1  0.531329  0.822521  0.271274  1
  P  P17  1  0.725302  0.473625  0.202151  1
  P  P18  1  0.774698  0.973625  0.297849  1
  P  P19  1  0.968671  0.322521  0.228726  1
  O  O20  1  0.075703  0.562688  0.775741  1
  O  O21  1  0.044874  0.711179  0.488310  1
  O  O22  1  0.159715  0.728601  0.953579  1
  O  O23  1  0.148069  0.310442  0.130628  1
  O  O24  1  0.123218  0.102895  0.851613  1
  O  O25  1  0.182792  0.027894  0.408631  1
  O  O26  1  0.223808  0.926912  0.828229  1
  O  O27  1  0.276192  0.426912  0.671771  1
  O  O28  1  0.317208  0.527894  0.091369  1
  O  O29  1  0.376782  0.602895  0.648387  1
  O  O30  1  0.340285  0.228601  0.546421  1
  O  O31  1  0.351931  0.810442  0.369372  1
  O  O32  1  0.455126  0.211179  0.011690  1
  O  O33  1  0.424297  0.062688  0.724259  1
  O  O34  1  0.575703  0.937312  0.275741  1
  O  O35  1  0.544874  0.788821  0.988310  1
  O  O36  1  0.648069  0.189558  0.630628  1
  O  O37  1  0.659715  0.771399  0.453579  1
  O  O38  1  0.623218  0.397105  0.351613  1
  O  O39  1  0.682792  0.472106  0.908631  1
  O  O40  1  0.723808  0.573088  0.328229  1
  O  O41  1  0.776192  0.073088  0.171771  1
  O  O42  1  0.817208  0.972106  0.591369  1
  O  O43  1  0.876782  0.897105  0.148387  1
  O  O44  1  0.851931  0.689558  0.869372  1
  O  O45  1  0.840285  0.271399  0.046421  1
  O  O46  1  0.955126  0.288821  0.511690  1
  O  O47  1  0.924297  0.437312  0.224259  1
