# generated using pymatgen
data_ZnH12C2(N3Cl2)2
_symmetry_space_group_name_H-M   'P 1'
_cell_length_a   7.40080360
_cell_length_b   12.80656528
_cell_length_c   7.22777926
_cell_angle_alpha   93.80043811
_cell_angle_beta   103.12352356
_cell_angle_gamma   82.15466799
_symmetry_Int_Tables_number   1
_chemical_formula_structural   ZnH12C2(N3Cl2)2
_chemical_formula_sum   'Zn2 H24 C4 N12 Cl8'
_cell_volume   660.46276528
_cell_formula_units_Z   2
loop_
 _symmetry_equiv_pos_site_id
 _symmetry_equiv_pos_as_xyz
  1  'x, y, z'
loop_
 _atom_site_type_symbol
 _atom_site_label
 _atom_site_symmetry_multiplicity
 _atom_site_fract_x
 _atom_site_fract_y
 _atom_site_fract_z
 _atom_site_occupancy
  Zn  Zn0  1  0.825064  0.775582  0.957477  1
  Zn  Zn1  1  0.174936  0.224418  0.042523  1
  H  H2  1  0.959350  0.479909  0.244260  1
  H  H3  1  0.040650  0.520091  0.755740  1
  H  H4  1  0.831458  0.607074  0.235832  1
  H  H5  1  0.168542  0.392926  0.764168  1
  H  H6  1  0.514509  0.627010  0.245865  1
  H  H7  1  0.485491  0.372990  0.754135  1
  H  H8  1  0.406771  0.514113  0.262342  1
  H  H9  1  0.593229  0.485887  0.737658  1
  H  H10  1  0.572953  0.353017  0.287181  1
  H  H11  1  0.427047  0.646983  0.712819  1
  H  H12  1  0.810696  0.334263  0.273448  1
  H  H13  1  0.189304  0.665737  0.726552  1
  H  H14  1  0.347807  0.828976  0.373448  1
  H  H15  1  0.652193  0.171024  0.626552  1
  H  H16  1  0.506087  0.878621  0.568984  1
  H  H17  1  0.493913  0.121379  0.431016  1
  H  H18  1  0.400090  0.940575  0.841731  1
  H  H19  1  0.599910  0.059425  0.158269  1
  H  H20  1  0.165406  0.937038  0.849943  1
  H  H21  1  0.834594  0.062962  0.150057  1
  H  H22  1  0.960515  0.871478  0.592522  1
  H  H23  1  0.039485  0.128522  0.407478  1
  H  H24  1  0.041400  0.823893  0.386448  1
  H  H25  1  0.958600  0.176107  0.613552  1
  C  C26  1  0.683589  0.486278  0.256856  1
  C  C27  1  0.316411  0.513722  0.743144  1
  C  C28  1  0.237697  0.880516  0.602560  1
  C  C29  1  0.762303  0.119484  0.397440  1
  N  N30  1  0.836732  0.527504  0.243643  1
  N  N31  1  0.163268  0.472496  0.756357  1
  N  N32  1  0.522164  0.547484  0.254709  1
  N  N33  1  0.477836  0.452516  0.745291  1
  N  N34  1  0.690940  0.382559  0.275184  1
  N  N35  1  0.309060  0.617441  0.724816  1
  N  N36  1  0.374828  0.860698  0.508277  1
  N  N37  1  0.625172  0.139302  0.491723  1
  N  N38  1  0.270160  0.922584  0.778528  1
  N  N39  1  0.729840  0.077416  0.221472  1
  N  N40  1  0.066054  0.856227  0.521153  1
  N  N41  1  0.933946  0.143773  0.478847  1
  Cl  Cl42  1  0.761496  0.645622  0.722021  1
  Cl  Cl43  1  0.238504  0.354378  0.277979  1
  Cl  Cl44  1  0.129184  0.730555  0.111366  1
  Cl  Cl45  1  0.870816  0.269445  0.888634  1
  Cl  Cl46  1  0.775471  0.935091  0.813775  1
  Cl  Cl47  1  0.224529  0.064909  0.186225  1
  Cl  Cl48  1  0.644735  0.787920  0.177533  1
  Cl  Cl49  1  0.355265  0.212080  0.822467  1
