# generated using pymatgen
data_Co2O3F
_symmetry_space_group_name_H-M   'P 1'
_cell_length_a   6.71370655
_cell_length_b   5.26402579
_cell_length_c   5.26402579
_cell_angle_alpha   74.07328767
_cell_angle_beta   73.99472164
_cell_angle_gamma   73.99472164
_symmetry_Int_Tables_number   1
_chemical_formula_structural   Co2O3F
_chemical_formula_sum   'Co6 O9 F3'
_cell_volume   167.88444088
_cell_formula_units_Z   3
loop_
 _symmetry_equiv_pos_site_id
 _symmetry_equiv_pos_as_xyz
  1  'x, y, z'
loop_
 _atom_site_type_symbol
 _atom_site_label
 _atom_site_symmetry_multiplicity
 _atom_site_fract_x
 _atom_site_fract_y
 _atom_site_fract_z
 _atom_site_occupancy
  Co  Co0  1  0.834630  0.667262  0.666935  1
  Co  Co1  1  0.334071  0.689078  0.641890  1
  Co  Co2  1  0.665929  0.358110  0.310922  1
  Co  Co3  1  0.165370  0.333065  0.332738  1
  Co  Co4  1  0.500000  0.986286  0.013714  1
  Co  Co5  1  0.000000  0.973217  0.026783  1
  O  O6  1  0.630880  0.578024  0.552610  1
  O  O7  1  0.295255  0.891607  0.903652  1
  O  O8  1  0.962328  0.227059  0.240819  1
  O  O9  1  0.369120  0.447390  0.421976  1
  O  O10  1  0.037672  0.759181  0.772941  1
  O  O11  1  0.704745  0.096348  0.108393  1
  O  O12  1  0.332718  0.974468  0.357492  1
  O  O13  1  0.667282  0.642508  0.025532  1
  O  O14  1  0.000000  0.682980  0.317020  1
  F  F15  1  0.344348  0.364604  0.945470  1
  F  F16  1  0.655652  0.054530  0.635396  1
  F  F17  1  0.000000  0.274284  0.725716  1
