# generated using pymatgen
data_LiV2(PO4)3
_symmetry_space_group_name_H-M   'P 1'
_cell_length_a   6.13050965
_cell_length_b   10.67112330
_cell_length_c   8.01009771
_cell_angle_alpha   59.28291789
_cell_angle_beta   90.00885320
_cell_angle_gamma   106.67314026
_symmetry_Int_Tables_number   1
_chemical_formula_structural   LiV2(PO4)3
_chemical_formula_sum   'Li2 V4 P6 O24'
_cell_volume   424.68293221
_cell_formula_units_Z   2
loop_
 _symmetry_equiv_pos_site_id
 _symmetry_equiv_pos_as_xyz
  1  'x, y, z'
loop_
 _atom_site_type_symbol
 _atom_site_label
 _atom_site_symmetry_multiplicity
 _atom_site_fract_x
 _atom_site_fract_y
 _atom_site_fract_z
 _atom_site_occupancy
  Li  Li0  1  0.501790  0.001150  0.996086  1
  Li  Li1  1  0.500810  0.996764  0.499712  1
  V  V2  1  0.702665  0.731937  0.170867  1
  V  V3  1  0.030088  0.731938  0.671131  1
  V  V4  1  0.971490  0.269840  0.327293  1
  V  V5  1  0.298765  0.269229  0.826676  1
  P  P6  1  0.145763  0.647236  0.125514  1
  P  P7  1  0.503014  0.647103  0.625531  1
  P  P8  1  0.498363  0.353862  0.372586  1
  P  P9  1  0.856009  0.353628  0.873355  1
  P  P10  1  0.950135  0.000729  0.248610  1
  P  P11  1  0.050290  0.000522  0.749005  1
  O  O12  1  0.771706  0.943764  0.144373  1
  O  O13  1  0.038128  0.867124  0.393709  1
  O  O14  1  0.172085  0.943043  0.645259  1
  O  O15  1  0.401177  0.750256  0.082618  1
  O  O16  1  0.828187  0.867530  0.892782  1
  O  O17  1  0.074763  0.655918  0.932930  1
  O  O18  1  0.009042  0.719109  0.194207  1
  O  O19  1  0.350343  0.750268  0.583861  1
  O  O20  1  0.582188  0.657437  0.431760  1
  O  O21  1  0.710496  0.718278  0.695790  1
  O  O22  1  0.617386  0.524801  0.215750  1
  O  O23  1  0.094245  0.476500  0.284097  1
  O  O24  1  0.908461  0.524893  0.716501  1
  O  O25  1  0.384042  0.476316  0.781691  1
  O  O26  1  0.291420  0.282575  0.302009  1
  O  O27  1  0.417346  0.344769  0.565279  1
  O  O28  1  0.651574  0.250827  0.416721  1
  O  O29  1  0.991859  0.282712  0.802496  1
  O  O30  1  0.927313  0.344900  0.066210  1
  O  O31  1  0.171081  0.134167  0.103662  1
  O  O32  1  0.600380  0.250638  0.916834  1
  O  O33  1  0.828156  0.057654  0.353021  1
  O  O34  1  0.963418  0.134788  0.603940  1
  O  O35  1  0.229878  0.057595  0.852343  1
