# generated using pymatgen
data_Li3VSiBO7
_symmetry_space_group_name_H-M   'P 1'
_cell_length_a   8.38068723
_cell_length_b   6.44619677
_cell_length_c   5.05099706
_cell_angle_alpha   90.00000000
_cell_angle_beta   86.43716459
_cell_angle_gamma   90.00000000
_symmetry_Int_Tables_number   1
_chemical_formula_structural   Li3VSiBO7
_chemical_formula_sum   'Li6 V2 Si2 B2 O14'
_cell_volume   272.34544181
_cell_formula_units_Z   2
loop_
 _symmetry_equiv_pos_site_id
 _symmetry_equiv_pos_as_xyz
  1  'x, y, z'
loop_
 _atom_site_type_symbol
 _atom_site_label
 _atom_site_symmetry_multiplicity
 _atom_site_fract_x
 _atom_site_fract_y
 _atom_site_fract_z
 _atom_site_occupancy
  Li  Li0  1  0.101063  0.250000  0.744720  1
  Li  Li1  1  0.236840  0.999580  0.231753  1
  Li  Li2  1  0.236840  0.500420  0.231753  1
  Li  Li3  1  0.763160  0.499580  0.768247  1
  Li  Li4  1  0.763160  0.000420  0.768247  1
  Li  Li5  1  0.898937  0.750000  0.255280  1
  V  V6  1  0.327644  0.750000  0.796571  1
  V  V7  1  0.672356  0.250000  0.203429  1
  Si  Si8  1  0.424915  0.250000  0.719375  1
  Si  Si9  1  0.575085  0.750000  0.280624  1
  B  B10  1  0.038426  0.750000  0.736220  1
  B  B11  1  0.961574  0.250000  0.263780  1
  O  O12  1  0.111895  0.250000  0.342178  1
  O  O13  1  0.089803  0.750000  0.992937  1
  O  O14  1  0.171108  0.750000  0.543022  1
  O  O15  1  0.310347  0.054780  0.814646  1
  O  O16  1  0.310347  0.445220  0.814646  1
  O  O17  1  0.469220  0.250000  0.398223  1
  O  O18  1  0.401557  0.750000  0.142984  1
  O  O19  1  0.598443  0.250000  0.857016  1
  O  O20  1  0.530780  0.750000  0.601777  1
  O  O21  1  0.689653  0.554780  0.185354  1
  O  O22  1  0.689653  0.945220  0.185354  1
  O  O23  1  0.828892  0.250000  0.456978  1
  O  O24  1  0.910197  0.250000  0.007063  1
  O  O25  1  0.888105  0.750000  0.657822  1
