# generated using pymatgen
data_Na2VBPO7
_symmetry_space_group_name_H-M   'P 1'
_cell_length_a   9.16356626
_cell_length_b   6.51227803
_cell_length_c   5.43455992
_cell_angle_alpha   90.00000000
_cell_angle_beta   87.20278513
_cell_angle_gamma   90.00000000
_symmetry_Int_Tables_number   1
_chemical_formula_structural   Na2VBPO7
_chemical_formula_sum   'Na4 V2 B2 P2 O14'
_cell_volume   323.92470636
_cell_formula_units_Z   2
loop_
 _symmetry_equiv_pos_site_id
 _symmetry_equiv_pos_as_xyz
  1  'x, y, z'
loop_
 _atom_site_type_symbol
 _atom_site_label
 _atom_site_symmetry_multiplicity
 _atom_site_fract_x
 _atom_site_fract_y
 _atom_site_fract_z
 _atom_site_occupancy
  Na  Na0  1  0.209483  0.995951  0.232859  1
  Na  Na1  1  0.209483  0.504049  0.232859  1
  Na  Na2  1  0.790517  0.495951  0.767141  1
  Na  Na3  1  0.790517  0.004049  0.767141  1
  V  V4  1  0.341802  0.750000  0.776834  1
  V  V5  1  0.658198  0.250000  0.223165  1
  B  B6  1  0.078637  0.750000  0.734488  1
  B  B7  1  0.921363  0.250000  0.265512  1
  P  P8  1  0.438579  0.250000  0.735887  1
  P  P9  1  0.561421  0.750000  0.264113  1
  O  O10  1  0.059185  0.250000  0.314775  1
  O  O11  1  0.147915  0.750000  0.956823  1
  O  O12  1  0.201484  0.750000  0.546082  1
  O  O13  1  0.345828  0.058509  0.806004  1
  O  O14  1  0.345828  0.441491  0.806004  1
  O  O15  1  0.420453  0.750000  0.115477  1
  O  O16  1  0.482874  0.250000  0.455947  1
  O  O17  1  0.517126  0.750000  0.544053  1
  O  O18  1  0.579547  0.250000  0.884523  1
  O  O19  1  0.654172  0.558509  0.193996  1
  O  O20  1  0.654172  0.941491  0.193996  1
  O  O21  1  0.798516  0.250000  0.453918  1
  O  O22  1  0.852085  0.250000  0.043177  1
  O  O23  1  0.940815  0.750000  0.685225  1
