# generated using pymatgen
data_Hf2N2O
_symmetry_space_group_name_H-M   'P 1'
_cell_length_a   8.73482932
_cell_length_b   8.74401584
_cell_length_c   8.69246439
_cell_angle_alpha   109.39131805
_cell_angle_beta   109.22487922
_cell_angle_gamma   109.61262289
_symmetry_Int_Tables_number   1
_chemical_formula_structural   Hf2N2O
_chemical_formula_sum   'Hf16 N16 O8'
_cell_volume   512.23517793
_cell_formula_units_Z   8
loop_
 _symmetry_equiv_pos_site_id
 _symmetry_equiv_pos_as_xyz
  1  'x, y, z'
loop_
 _atom_site_type_symbol
 _atom_site_label
 _atom_site_symmetry_multiplicity
 _atom_site_fract_x
 _atom_site_fract_y
 _atom_site_fract_z
 _atom_site_occupancy
  Hf  Hf0  1  0.500342  0.997380  0.999694  1
  Hf  Hf1  1  0.751080  0.285592  0.537926  1
  Hf  Hf2  1  0.713559  0.463158  0.247482  1
  Hf  Hf3  1  0.216035  0.965834  0.251815  1
  Hf  Hf4  1  0.243261  0.215397  0.956510  1
  Hf  Hf5  1  0.965093  0.257658  0.226333  1
  Hf  Hf6  1  0.000721  0.000336  0.499164  1
  Hf  Hf7  1  0.489654  0.497057  0.499756  1
  Hf  Hf8  1  0.037067  0.749144  0.780974  1
  Hf  Hf9  1  0.472857  0.261603  0.711486  1
  Hf  Hf10  1  0.999230  0.510019  0.998955  1
  Hf  Hf11  1  0.528033  0.736536  0.287364  1
  Hf  Hf12  1  0.763047  0.785605  0.044324  1
  Hf  Hf13  1  0.283661  0.534051  0.747206  1
  Hf  Hf14  1  0.779997  0.029830  0.745288  1
  Hf  Hf15  1  0.247614  0.708345  0.461120  1
  N  N16  1  0.732673  0.222093  0.270684  1
  N  N17  1  0.449696  0.459543  0.223007  1
  N  N18  1  0.772146  0.728240  0.262540  1
  N  N19  1  0.726022  0.256507  0.776037  1
  N  N20  1  0.013029  0.047798  0.274385  1
  N  N21  1  0.465305  0.227539  0.453786  1
  N  N22  1  0.958875  0.731165  0.987356  1
  N  N23  1  0.964408  0.510799  0.237190  1
  N  N24  1  0.275343  0.740672  0.225133  1
  N  N25  1  0.538897  0.773739  0.546871  1
  N  N26  1  0.226888  0.455810  0.467607  1
  N  N27  1  0.985585  0.952924  0.727727  1
  N  N28  1  0.229404  0.271573  0.741020  1
  N  N29  1  0.549109  0.538231  0.776489  1
  N  N30  1  0.031167  0.486347  0.756174  1
  N  N31  1  0.268854  0.782725  0.731881  1
  O  O32  1  0.724834  0.990676  0.954864  1
  O  O33  1  0.506875  0.231135  0.964288  1
  O  O34  1  0.766117  0.037846  0.491854  1
  O  O35  1  0.277808  0.011555  0.045593  1
  O  O36  1  0.043159  0.266081  0.013365  1
  O  O37  1  0.775115  0.545150  0.531132  1
  O  O38  1  0.494085  0.771143  0.038417  1
  O  O39  1  0.233354  0.963161  0.507201  1
