# generated using pymatgen
data_BaCa2I6
_symmetry_space_group_name_H-M   'P 1'
_cell_length_a   9.39660532
_cell_length_b   10.37662530
_cell_length_c   16.10074130
_cell_angle_alpha   90.00000000
_cell_angle_beta   82.22411403
_cell_angle_gamma   90.00000000
_symmetry_Int_Tables_number   1
_chemical_formula_structural   BaCa2I6
_chemical_formula_sum   'Ba4 Ca8 I24'
_cell_volume   1555.46815939
_cell_formula_units_Z   4
loop_
 _symmetry_equiv_pos_site_id
 _symmetry_equiv_pos_as_xyz
  1  'x, y, z'
loop_
 _atom_site_type_symbol
 _atom_site_label
 _atom_site_symmetry_multiplicity
 _atom_site_fract_x
 _atom_site_fract_y
 _atom_site_fract_z
 _atom_site_occupancy
  Ba  Ba0  1  0.183376  0.819750  0.912765  1
  Ba  Ba1  1  0.316624  0.319750  0.587235  1
  Ba  Ba2  1  0.683376  0.680250  0.412765  1
  Ba  Ba3  1  0.816624  0.180250  0.087235  1
  Ca  Ca4  1  0.100835  0.847944  0.575128  1
  Ca  Ca5  1  0.176573  0.459843  0.226842  1
  Ca  Ca6  1  0.323427  0.959843  0.273158  1
  Ca  Ca7  1  0.399165  0.347944  0.924872  1
  Ca  Ca8  1  0.600835  0.652056  0.075128  1
  Ca  Ca9  1  0.676573  0.040157  0.726842  1
  Ca  Ca10  1  0.823427  0.540157  0.773158  1
  Ca  Ca11  1  0.899165  0.152056  0.424872  1
  I  I12  1  0.137328  0.154197  0.944258  1
  I  I13  1  0.085510  0.162769  0.224828  1
  I  I14  1  0.017400  0.850299  0.375681  1
  I  I15  1  0.185219  0.536092  0.037953  1
  I  I16  1  0.120423  0.390966  0.417051  1
  I  I17  1  0.151067  0.476447  0.774429  1
  I  I18  1  0.348933  0.976447  0.725571  1
  I  I19  1  0.314781  0.036092  0.462047  1
  I  I20  1  0.379577  0.890966  0.082949  1
  I  I21  1  0.482600  0.350299  0.124319  1
  I  I22  1  0.414490  0.662769  0.275172  1
  I  I23  1  0.362672  0.654197  0.555742  1
  I  I24  1  0.637328  0.345803  0.444258  1
  I  I25  1  0.585510  0.337231  0.724828  1
  I  I26  1  0.517400  0.649701  0.875681  1
  I  I27  1  0.620423  0.109034  0.917051  1
  I  I28  1  0.685219  0.963908  0.537953  1
  I  I29  1  0.651067  0.023553  0.274429  1
  I  I30  1  0.848933  0.523553  0.225571  1
  I  I31  1  0.879577  0.609034  0.582949  1
  I  I32  1  0.814781  0.463908  0.962047  1
  I  I33  1  0.982600  0.149701  0.624319  1
  I  I34  1  0.914490  0.837231  0.775172  1
  I  I35  1  0.862672  0.845803  0.055742  1
