# generated using pymatgen
data_LiNiPO4
_symmetry_space_group_name_H-M   'P 1'
_cell_length_a   4.29952690
_cell_length_b   14.09550595
_cell_length_c   4.77198902
_cell_angle_alpha   89.99996749
_cell_angle_beta   90.00017424
_cell_angle_gamma   89.99996328
_symmetry_Int_Tables_number   1
_chemical_formula_structural   LiNiPO4
_chemical_formula_sum   'Li4 Ni4 P4 O16'
_cell_volume   289.20165598
_cell_formula_units_Z   4
loop_
 _symmetry_equiv_pos_site_id
 _symmetry_equiv_pos_as_xyz
  1  'x, y, z'
loop_
 _atom_site_type_symbol
 _atom_site_label
 _atom_site_symmetry_multiplicity
 _atom_site_fract_x
 _atom_site_fract_y
 _atom_site_fract_z
 _atom_site_occupancy
  Li  Li0  1  -0.000000  0.247340  0.750000  1
  Li  Li1  1  1.000000  0.752660  0.250000  1
  Li  Li2  1  0.500000  0.252660  0.249999  1
  Li  Li3  1  0.500000  0.747340  0.750000  1
  Ni  Ni4  1  -0.000000  0.062912  0.250002  1
  Ni  Ni5  1  0.000002  0.937089  0.749999  1
  Ni  Ni6  1  0.500000  0.437077  0.750001  1
  Ni  Ni7  1  0.500001  0.562917  0.250000  1
  P  P8  1  -0.000000  0.389506  0.250000  1
  P  P9  1  1.000000  0.610495  0.750000  1
  P  P10  1  0.500000  0.889504  0.250000  1
  P  P11  1  0.500000  0.110495  0.750000  1
  O  O12  1  0.183820  0.328653  0.466177  1
  O  O13  1  0.183819  0.671347  0.966177  1
  O  O14  1  0.259326  0.049119  0.588883  1
  O  O15  1  0.259325  0.950881  0.088883  1
  O  O16  1  0.240675  0.450881  0.088884  1
  O  O17  1  0.240677  0.549120  0.588881  1
  O  O18  1  0.316180  0.171347  0.966177  1
  O  O19  1  0.316181  0.828654  0.466177  1
  O  O20  1  0.683819  0.171347  0.533823  1
  O  O21  1  0.683819  0.828654  0.033823  1
  O  O22  1  0.759323  0.549120  0.911119  1
  O  O23  1  0.759324  0.450881  0.411116  1
  O  O24  1  0.740674  0.049119  0.911118  1
  O  O25  1  0.740675  0.950881  0.411118  1
  O  O26  1  0.816180  0.328653  0.033823  1
  O  O27  1  0.816180  0.671347  0.533822  1
