# generated using pymatgen
data_Ni4P2O9
_symmetry_space_group_name_H-M   'P 1'
_cell_length_a   7.65103415
_cell_length_b   8.05260050
_cell_length_c   6.36086137
_cell_angle_alpha   67.68564248
_cell_angle_beta   78.25972541
_cell_angle_gamma   98.13741520
_symmetry_Int_Tables_number   1
_chemical_formula_structural   Ni4P2O9
_chemical_formula_sum   'Ni8 P4 O18'
_cell_volume   344.45245468
_cell_formula_units_Z   2
loop_
 _symmetry_equiv_pos_site_id
 _symmetry_equiv_pos_as_xyz
  1  'x, y, z'
loop_
 _atom_site_type_symbol
 _atom_site_label
 _atom_site_symmetry_multiplicity
 _atom_site_fract_x
 _atom_site_fract_y
 _atom_site_fract_z
 _atom_site_occupancy
  Ni  Ni0  1  0.118991  0.266963  0.077675  1
  Ni  Ni1  1  0.110628  0.262646  0.602754  1
  Ni  Ni2  1  0.329528  0.562765  0.637937  1
  Ni  Ni3  1  0.399217  0.093810  0.830392  1
  Ni  Ni4  1  0.600783  0.906190  0.169608  1
  Ni  Ni5  1  0.670472  0.437235  0.362063  1
  Ni  Ni6  1  0.889372  0.737354  0.397246  1
  Ni  Ni7  1  0.881009  0.733037  0.922325  1
  P  P8  1  0.220101  0.925343  0.481860  1
  P  P9  1  0.258877  0.646360  0.118608  1
  P  P10  1  0.741123  0.353640  0.881392  1
  P  P11  1  0.779899  0.074657  0.518140  1
  O  O12  1  0.064211  0.684612  0.144237  1
  O  O13  1  0.041645  0.762031  0.611047  1
  O  O14  1  0.212492  0.041865  0.230627  1
  O  O15  1  0.277143  0.521045  0.365771  1
  O  O16  1  0.410303  0.827361  0.009424  1
  O  O17  1  0.224390  0.037999  0.631475  1
  O  O18  1  0.385897  0.832673  0.473370  1
  O  O19  1  0.280592  0.532538  0.969279  1
  O  O20  1  0.283221  0.300758  0.777182  1
  O  O21  1  0.716779  0.699242  0.222818  1
  O  O22  1  0.719408  0.467462  0.030721  1
  O  O23  1  0.614103  0.167327  0.526630  1
  O  O24  1  0.775610  0.962001  0.368525  1
  O  O25  1  0.589697  0.172639  0.990576  1
  O  O26  1  0.722857  0.478955  0.634229  1
  O  O27  1  0.787508  0.958135  0.769374  1
  O  O28  1  0.958355  0.237969  0.388953  1
  O  O29  1  0.935789  0.315388  0.855763  1
