# generated using pymatgen
data_Li11Ti4Fe9O32
_symmetry_space_group_name_H-M   'P 1'
_cell_length_a   8.50297941
_cell_length_b   8.33833471
_cell_length_c   8.36210211
_cell_angle_alpha   89.79888552
_cell_angle_beta   89.70854535
_cell_angle_gamma   89.80466719
_symmetry_Int_Tables_number   1
_chemical_formula_structural   Li11Ti4Fe9O32
_chemical_formula_sum   'Li11 Ti4 Fe9 O32'
_cell_volume   592.86406331
_cell_formula_units_Z   1
loop_
 _symmetry_equiv_pos_site_id
 _symmetry_equiv_pos_as_xyz
  1  'x, y, z'
loop_
 _atom_site_type_symbol
 _atom_site_label
 _atom_site_symmetry_multiplicity
 _atom_site_fract_x
 _atom_site_fract_y
 _atom_site_fract_z
 _atom_site_occupancy
  Li  Li0  1  0.998669  0.498674  0.505895  1
  Li  Li1  1  0.122807  0.871339  0.377661  1
  Li  Li2  1  0.247512  0.749464  0.745632  1
  Li  Li3  1  0.250586  0.249519  0.247997  1
  Li  Li4  1  0.375633  0.120341  0.878355  1
  Li  Li5  1  0.502645  0.502896  0.003041  1
  Li  Li6  1  0.502270  0.998113  0.501005  1
  Li  Li7  1  0.631126  0.629010  0.619810  1
  Li  Li8  1  0.748403  0.748685  0.250171  1
  Li  Li9  1  0.747456  0.252869  0.746354  1
  Li  Li10  1  0.866516  0.373039  0.124433  1
  Ti  Ti11  1  0.142168  0.120817  0.606179  1
  Ti  Ti12  1  0.115978  0.372734  0.874117  1
  Ti  Ti13  1  0.109762  0.614468  0.139376  1
  Ti  Ti14  1  0.383237  0.376807  0.637596  1
  Fe  Fe15  1  0.378909  0.623593  0.373552  1
  Fe  Fe16  1  0.373121  0.873821  0.124371  1
  Fe  Fe17  1  0.620331  0.372007  0.372720  1
  Fe  Fe18  1  0.619079  0.126381  0.124552  1
  Fe  Fe19  1  0.623181  0.877994  0.877230  1
  Fe  Fe20  1  0.875221  0.125716  0.376334  1
  Fe  Fe21  1  0.878925  0.879005  0.624776  1
  Fe  Fe22  1  0.876249  0.623502  0.875849  1
  Fe  Fe23  1  0.004808  0.002264  0.004651  1
  O  O24  1  0.108078  0.128369  0.389251  1
  O  O25  1  0.102164  0.615566  0.883653  1
  O  O26  1  0.130018  0.391294  0.102883  1
  O  O27  1  0.147998  0.621586  0.359139  1
  O  O28  1  0.104297  0.895329  0.627432  1
  O  O29  1  0.120619  0.139865  0.865882  1
  O  O30  1  0.140598  0.360673  0.637127  1
  O  O31  1  0.137038  0.861738  0.120144  1
  O  O32  1  0.357843  0.138904  0.622275  1
  O  O33  1  0.363395  0.641535  0.140790  1
  O  O34  1  0.376553  0.847789  0.356525  1
  O  O35  1  0.385200  0.095145  0.127831  1
  O  O36  1  0.358856  0.387163  0.854289  1
  O  O37  1  0.375604  0.612161  0.594097  1
  O  O38  1  0.391034  0.393879  0.377381  1
  O  O39  1  0.394696  0.865561  0.895938  1
  O  O40  1  0.604510  0.369153  0.598762  1
  O  O41  1  0.618919  0.889810  0.109060  1
  O  O42  1  0.622181  0.111869  0.899855  1
  O  O43  1  0.646197  0.882312  0.655997  1
  O  O44  1  0.601745  0.600817  0.370982  1
  O  O45  1  0.624367  0.353205  0.144076  1
  O  O46  1  0.632238  0.135436  0.354908  1
  O  O47  1  0.656854  0.645993  0.878844  1
  O  O48  1  0.847060  0.352086  0.376901  1
  O  O49  1  0.871306  0.875751  0.869391  1
  O  O50  1  0.875444  0.658306  0.639111  1
  O  O51  1  0.892319  0.392327  0.870327  1
  O  O52  1  0.867945  0.119959  0.142245  1
  O  O53  1  0.871824  0.896358  0.395746  1
  O  O54  1  0.883716  0.111153  0.611648  1
  O  O55  1  0.894797  0.625944  0.115947  1
