# generated using pymatgen
data_V6O5F19
_symmetry_space_group_name_H-M   'P 1'
_cell_length_a   5.50306520
_cell_length_b   5.36934097
_cell_length_c   15.13682988
_cell_angle_alpha   89.94513749
_cell_angle_beta   100.29694905
_cell_angle_gamma   90.68651327
_symmetry_Int_Tables_number   1
_chemical_formula_structural   V6O5F19
_chemical_formula_sum   'V6 O5 F19'
_cell_volume   440.02529295
_cell_formula_units_Z   1
loop_
 _symmetry_equiv_pos_site_id
 _symmetry_equiv_pos_as_xyz
  1  'x, y, z'
loop_
 _atom_site_type_symbol
 _atom_site_label
 _atom_site_symmetry_multiplicity
 _atom_site_fract_x
 _atom_site_fract_y
 _atom_site_fract_z
 _atom_site_occupancy
  V  V0  1  0.020725  0.048845  0.995840  1
  V  V1  1  0.187102  0.492800  0.332853  1
  V  V2  1  0.267509  0.024860  0.663753  1
  V  V3  1  0.477092  0.550622  0.004294  1
  V  V4  1  0.717521  0.971868  0.335659  1
  V  V5  1  0.770395  0.479304  0.664711  1
  O  O6  1  0.014983  0.193107  0.640353  1
  O  O7  1  0.229208  0.265372  0.982632  1
  O  O8  1  0.516126  0.306517  0.642087  1
  O  O9  1  0.273238  0.766343  0.017227  1
  O  O10  1  0.962859  0.794021  0.354901  1
  F  F11  1  0.150443  0.724810  0.692844  1
  F  F12  1  0.041897  0.047353  0.113891  1
  F  F13  1  0.194439  0.432727  0.448290  1
  F  F14  1  0.393891  0.096936  0.776571  1
  F  F15  1  0.113433  0.592859  0.220056  1
  F  F16  1  0.321751  0.925147  0.557491  1
  F  F17  1  0.459306  0.546326  0.886403  1
  F  F18  1  0.361172  0.215408  0.310174  1
  F  F19  1  0.737929  0.227212  0.979962  1
  F  F20  1  0.485221  0.701396  0.357818  1
  F  F21  1  0.653182  0.773974  0.694217  1
  F  F22  1  0.558639  0.419991  0.113215  1
  F  F23  1  0.693858  0.083359  0.443415  1
  F  F24  1  0.901071  0.402699  0.776501  1
  F  F25  1  0.597294  0.922674  0.221054  1
  F  F26  1  0.819115  0.576412  0.557398  1
  F  F27  1  0.940374  0.916243  0.887100  1
  F  F28  1  0.873474  0.273530  0.308995  1
  F  F29  1  0.766750  0.727285  0.020294  1
