# generated using pymatgen
data_Li2SnCSO7
_symmetry_space_group_name_H-M   'P 1'
_cell_length_a   9.52698183
_cell_length_b   6.82844782
_cell_length_c   5.10979210
_cell_angle_alpha   90.00000000
_cell_angle_beta   89.76573554
_cell_angle_gamma   90.00000000
_symmetry_Int_Tables_number   1
_chemical_formula_structural   Li2SnCSO7
_chemical_formula_sum   'Li4 Sn2 C2 S2 O14'
_cell_volume   332.41218332
_cell_formula_units_Z   2
loop_
 _symmetry_equiv_pos_site_id
 _symmetry_equiv_pos_as_xyz
  1  'x, y, z'
loop_
 _atom_site_type_symbol
 _atom_site_label
 _atom_site_symmetry_multiplicity
 _atom_site_fract_x
 _atom_site_fract_y
 _atom_site_fract_z
 _atom_site_occupancy
  Li  Li0  1  0.181331  0.473647  0.219199  1
  Li  Li1  1  0.181331  0.026353  0.219199  1
  Li  Li2  1  0.818669  0.526353  0.780801  1
  Li  Li3  1  0.818669  0.973647  0.780801  1
  Sn  Sn4  1  0.373789  0.750000  0.766496  1
  Sn  Sn5  1  0.626211  0.250000  0.233504  1
  C  C6  1  0.085976  0.750000  0.767845  1
  C  C7  1  0.914024  0.250000  0.232155  1
  S  S8  1  0.363423  0.250000  0.768225  1
  S  S9  1  0.636577  0.750000  0.231775  1
  O  O10  1  0.047297  0.250000  0.226102  1
  O  O11  1  0.160447  0.750000  0.986473  1
  O  O12  1  0.158232  0.750000  0.548056  1
  O  O13  1  0.309938  0.074476  0.914882  1
  O  O14  1  0.309938  0.425524  0.914882  1
  O  O15  1  0.479370  0.750000  0.227040  1
  O  O16  1  0.312099  0.250000  0.497156  1
  O  O17  1  0.687901  0.750000  0.502844  1
  O  O18  1  0.520630  0.250000  0.772960  1
  O  O19  1  0.690062  0.574476  0.085118  1
  O  O20  1  0.690062  0.925524  0.085118  1
  O  O21  1  0.841768  0.250000  0.451944  1
  O  O22  1  0.839553  0.250000  0.013527  1
  O  O23  1  0.952703  0.750000  0.773898  1
