# generated using pymatgen
data_Co2O3F
_symmetry_space_group_name_H-M   'P 1'
_cell_length_a   4.38539056
_cell_length_b   4.38539056
_cell_length_c   11.80212497
_cell_angle_alpha   90.00000000
_cell_angle_beta   90.00000000
_cell_angle_gamma   92.81379431
_symmetry_Int_Tables_number   1
_chemical_formula_structural   Co2O3F
_chemical_formula_sum   'Co8 O12 F4'
_cell_volume   226.70068916
_cell_formula_units_Z   4
loop_
 _symmetry_equiv_pos_site_id
 _symmetry_equiv_pos_as_xyz
  1  'x, y, z'
loop_
 _atom_site_type_symbol
 _atom_site_label
 _atom_site_symmetry_multiplicity
 _atom_site_fract_x
 _atom_site_fract_y
 _atom_site_fract_z
 _atom_site_occupancy
  Co  Co0  1  0.003167  0.996833  0.000010  1
  Co  Co1  1  0.003167  0.996833  0.249990  1
  Co  Co2  1  0.013988  0.986012  0.499858  1
  Co  Co3  1  0.013988  0.986012  0.750142  1
  Co  Co4  1  0.529553  0.470447  0.125000  1
  Co  Co5  1  0.479949  0.520051  0.625000  1
  Co  Co6  1  0.479094  0.520906  0.375113  1
  Co  Co7  1  0.479094  0.520906  0.874887  1
  O  O8  1  0.198287  0.801713  0.625000  1
  O  O9  1  0.195778  0.804222  0.375368  1
  O  O10  1  0.195778  0.804222  0.874632  1
  O  O11  1  0.312568  0.300247  0.999807  1
  O  O12  1  0.312568  0.300247  0.250193  1
  O  O13  1  0.297061  0.312505  0.750065  1
  O  O14  1  0.297061  0.312505  0.499935  1
  O  O15  1  0.699753  0.687432  0.999807  1
  O  O16  1  0.699753  0.687432  0.250193  1
  O  O17  1  0.687495  0.702939  0.499935  1
  O  O18  1  0.687495  0.702939  0.750065  1
  O  O19  1  0.810651  0.189349  0.125000  1
  F  F20  1  0.224056  0.775944  0.125000  1
  F  F21  1  0.801143  0.198857  0.625000  1
  F  F22  1  0.789278  0.210722  0.379255  1
  F  F23  1  0.789278  0.210722  0.870745  1
