# generated using pymatgen
data_LiCrPO4
_symmetry_space_group_name_H-M   'P 1'
_cell_length_a   9.98859981
_cell_length_b   7.24224806
_cell_length_c   4.98795759
_cell_angle_alpha   89.99879885
_cell_angle_beta   89.99321071
_cell_angle_gamma   89.99513228
_symmetry_Int_Tables_number   1
_chemical_formula_structural   LiCrPO4
_chemical_formula_sum   'Li4 Cr4 P4 O16'
_cell_volume   360.82843677
_cell_formula_units_Z   4
loop_
 _symmetry_equiv_pos_site_id
 _symmetry_equiv_pos_as_xyz
  1  'x, y, z'
loop_
 _atom_site_type_symbol
 _atom_site_label
 _atom_site_symmetry_multiplicity
 _atom_site_fract_x
 _atom_site_fract_y
 _atom_site_fract_z
 _atom_site_occupancy
  Li  Li0  1  0.153198  0.213850  0.697745  1
  Li  Li1  1  0.346809  0.713831  0.197728  1
  Li  Li2  1  0.653219  0.213865  0.802250  1
  Li  Li3  1  0.846780  0.713801  0.302259  1
  Cr  Cr4  1  0.142424  0.714183  0.714080  1
  Cr  Cr5  1  0.357580  0.214170  0.214149  1
  Cr  Cr6  1  0.642427  0.714191  0.785969  1
  Cr  Cr7  1  0.857606  0.214156  0.285819  1
  P  P8  1  0.093982  0.963201  0.189875  1
  P  P9  1  0.405976  0.463517  0.689903  1
  P  P10  1  0.593992  0.963229  0.310160  1
  P  P11  1  0.906029  0.463527  0.810069  1
  O  O12  1  0.058579  0.456853  0.743869  1
  O  O13  1  0.120184  0.973497  0.881528  1
  O  O14  1  0.154754  0.139310  0.319274  1
  O  O15  1  0.156668  0.780985  0.294288  1
  O  O16  1  0.343269  0.280812  0.794328  1
  O  O17  1  0.345220  0.639136  0.819171  1
  O  O18  1  0.379829  0.473457  0.381492  1
  O  O19  1  0.441455  0.956854  0.243898  1
  O  O20  1  0.558507  0.456856  0.756139  1
  O  O21  1  0.620152  0.973497  0.618503  1
  O  O22  1  0.654780  0.139304  0.180725  1
  O  O23  1  0.656645  0.780985  0.205750  1
  O  O24  1  0.843342  0.280839  0.705593  1
  O  O25  1  0.845302  0.639165  0.680845  1
  O  O26  1  0.879839  0.473430  0.118459  1
  O  O27  1  0.941454  0.956800  0.256130  1
