# generated using pymatgen
data_Li8TiFe7(PO4)12
_symmetry_space_group_name_H-M   'P 1'
_cell_length_a   8.67242165
_cell_length_b   8.78938267
_cell_length_c   12.22126931
_cell_angle_alpha   90.04147994
_cell_angle_beta   90.05067737
_cell_angle_gamma   90.01762189
_symmetry_Int_Tables_number   1
_chemical_formula_structural   Li8TiFe7(PO4)12
_chemical_formula_sum   'Li8 Ti1 Fe7 P12 O48'
_cell_volume   931.56844233
_cell_formula_units_Z   1
loop_
 _symmetry_equiv_pos_site_id
 _symmetry_equiv_pos_as_xyz
  1  'x, y, z'
loop_
 _atom_site_type_symbol
 _atom_site_label
 _atom_site_symmetry_multiplicity
 _atom_site_fract_x
 _atom_site_fract_y
 _atom_site_fract_z
 _atom_site_occupancy
  Li  Li0  1  0.216706  0.722675  0.182194  1
  Li  Li1  1  0.216961  0.777116  0.817589  1
  Li  Li2  1  0.283349  0.222796  0.318515  1
  Li  Li3  1  0.283032  0.277576  0.682273  1
  Li  Li4  1  0.716726  0.723662  0.317274  1
  Li  Li5  1  0.715832  0.779817  0.681658  1
  Li  Li6  1  0.783286  0.222433  0.182592  1
  Li  Li7  1  0.783670  0.277729  0.819240  1
  Ti  Ti8  1  0.753211  0.460034  0.610912  1
  Fe  Fe9  1  0.248358  0.959554  0.612991  1
  Fe  Fe10  1  0.249029  0.541062  0.387671  1
  Fe  Fe11  1  0.251131  0.040708  0.112855  1
  Fe  Fe12  1  0.251077  0.459481  0.887076  1
  Fe  Fe13  1  0.749144  0.540801  0.112281  1
  Fe  Fe14  1  0.748788  0.959715  0.887600  1
  Fe  Fe15  1  0.751475  0.039199  0.387675  1
  P  P16  1  0.039823  0.249148  0.498895  1
  P  P17  1  0.460777  0.749871  0.000040  1
  P  P18  1  0.539431  0.250177  0.000343  1
  P  P19  1  0.960534  0.749587  0.499513  1
  P  P20  1  0.105691  0.392816  0.146882  1
  P  P21  1  0.105600  0.107321  0.853317  1
  P  P22  1  0.394576  0.606112  0.647038  1
  P  P23  1  0.394274  0.892695  0.353324  1
  P  P24  1  0.605164  0.107457  0.646204  1
  P  P25  1  0.605081  0.392614  0.353448  1
  P  P26  1  0.894704  0.607372  0.852125  1
  P  P27  1  0.894431  0.892679  0.146894  1
  O  O28  1  0.056008  0.641842  0.429082  1
  O  O29  1  0.055168  0.856003  0.572404  1
  O  O30  1  0.073117  0.895415  0.155832  1
  O  O31  1  0.072924  0.604171  0.843313  1
  O  O32  1  0.144873  0.164591  0.581479  1
  O  O33  1  0.146573  0.338198  0.420710  1
  O  O34  1  0.156045  0.434435  0.030727  1
  O  O35  1  0.155698  0.066069  0.969530  1
  O  O36  1  0.162234  0.232380  0.179666  1
  O  O37  1  0.161765  0.267925  0.820603  1
  O  O38  1  0.173818  0.514039  0.225893  1
  O  O39  1  0.173993  0.985965  0.774334  1
  O  O40  1  0.326271  0.013936  0.274051  1
  O  O41  1  0.326878  0.485442  0.726035  1
  O  O42  1  0.340988  0.767618  0.680163  1
  O  O43  1  0.337853  0.732340  0.320572  1
  O  O44  1  0.345069  0.565821  0.530575  1
  O  O45  1  0.343875  0.935077  0.469623  1
  O  O46  1  0.352532  0.837303  0.079552  1
  O  O47  1  0.352722  0.662496  0.920381  1
  O  O48  1  0.427215  0.107784  0.656310  1
  O  O49  1  0.427509  0.395286  0.346690  1
  O  O50  1  0.443574  0.142646  0.071119  1
  O  O51  1  0.443852  0.357509  0.928903  1
  O  O52  1  0.556395  0.642764  0.071489  1
  O  O53  1  0.556600  0.857021  0.928749  1
  O  O54  1  0.574767  0.600382  0.654672  1
  O  O55  1  0.572955  0.895786  0.343782  1
  O  O56  1  0.646913  0.337746  0.080365  1
  O  O57  1  0.647441  0.163239  0.920346  1
  O  O58  1  0.655576  0.066109  0.530452  1
  O  O59  1  0.658399  0.431036  0.473247  1
  O  O60  1  0.662865  0.232754  0.321828  1
  O  O61  1  0.664667  0.270770  0.676661  1
  O  O62  1  0.675513  0.514730  0.277444  1
  O  O63  1  0.674963  0.989121  0.726073  1
  O  O64  1  0.826188  0.013708  0.226092  1
  O  O65  1  0.826510  0.487067  0.770401  1
  O  O66  1  0.837961  0.732000  0.179143  1
  O  O67  1  0.837188  0.767519  0.819334  1
  O  O68  1  0.842105  0.563586  0.967284  1
  O  O69  1  0.844092  0.934038  0.030608  1
  O  O70  1  0.851211  0.657283  0.578261  1
  O  O71  1  0.850705  0.836024  0.421278  1
  O  O72  1  0.926792  0.104885  0.844315  1
  O  O73  1  0.926817  0.395452  0.155275  1
  O  O74  1  0.943794  0.141819  0.428913  1
  O  O75  1  0.937171  0.358663  0.568026  1
