# generated using pymatgen
data_Li2ScPCO7
_symmetry_space_group_name_H-M   'P 1'
_cell_length_a   8.60386612
_cell_length_b   6.57745248
_cell_length_c   5.02280047
_cell_angle_alpha   90.00000000
_cell_angle_beta   89.04764481
_cell_angle_gamma   90.00000000
_symmetry_Int_Tables_number   1
_chemical_formula_structural   Li2ScPCO7
_chemical_formula_sum   'Li4 Sc2 P2 C2 O14'
_cell_volume   284.20865052
_cell_formula_units_Z   2
loop_
 _symmetry_equiv_pos_site_id
 _symmetry_equiv_pos_as_xyz
  1  'x, y, z'
loop_
 _atom_site_type_symbol
 _atom_site_label
 _atom_site_symmetry_multiplicity
 _atom_site_fract_x
 _atom_site_fract_y
 _atom_site_fract_z
 _atom_site_occupancy
  Li  Li0  1  0.218858  0.002332  0.224808  1
  Li  Li1  1  0.218858  0.497668  0.224808  1
  Li  Li2  1  0.781142  0.502332  0.775192  1
  Li  Li3  1  0.781142  0.997668  0.775192  1
  Sc  Sc4  1  0.350330  0.750000  0.775015  1
  Sc  Sc5  1  0.649670  0.250000  0.224985  1
  P  P6  1  0.420091  0.250000  0.713636  1
  P  P7  1  0.579909  0.750000  0.286364  1
  C  C8  1  0.052225  0.750000  0.736925  1
  C  C9  1  0.947775  0.250000  0.263075  1
  O  O10  1  0.094354  0.250000  0.293579  1
  O  O11  1  0.117877  0.750000  0.970091  1
  O  O12  1  0.151030  0.750000  0.531781  1
  O  O13  1  0.334446  0.060327  0.818120  1
  O  O14  1  0.334446  0.439673  0.818120  1
  O  O15  1  0.406899  0.750000  0.190971  1
  O  O16  1  0.427172  0.250000  0.403063  1
  O  O17  1  0.572828  0.750000  0.596937  1
  O  O18  1  0.593101  0.250000  0.809029  1
  O  O19  1  0.665554  0.560327  0.181880  1
  O  O20  1  0.665554  0.939673  0.181880  1
  O  O21  1  0.848970  0.250000  0.468219  1
  O  O22  1  0.882123  0.250000  0.029909  1
  O  O23  1  0.905646  0.750000  0.706421  1
