# generated using pymatgen
data_Li4Mn3Fe(BO3)4
_symmetry_space_group_name_H-M   'P 1'
_cell_length_a   5.25672394
_cell_length_b   9.09541767
_cell_length_c   10.50100118
_cell_angle_alpha   91.48925278
_cell_angle_beta   91.09778873
_cell_angle_gamma   89.80844646
_symmetry_Int_Tables_number   1
_chemical_formula_structural   Li4Mn3Fe(BO3)4
_chemical_formula_sum   'Li8 Mn6 Fe2 B8 O24'
_cell_volume   501.81116801
_cell_formula_units_Z   2
loop_
 _symmetry_equiv_pos_site_id
 _symmetry_equiv_pos_as_xyz
  1  'x, y, z'
loop_
 _atom_site_type_symbol
 _atom_site_label
 _atom_site_symmetry_multiplicity
 _atom_site_fract_x
 _atom_site_fract_y
 _atom_site_fract_z
 _atom_site_occupancy
  Li  Li0  1  0.853681  0.825155  0.668436  1
  Li  Li1  1  0.813744  0.839185  0.167750  1
  Li  Li2  1  0.677360  0.669422  0.416973  1
  Li  Li3  1  0.663156  0.674359  0.917023  1
  Li  Li4  1  0.352038  0.326124  0.667168  1
  Li  Li5  1  0.311616  0.339759  0.167910  1
  Li  Li6  1  0.180844  0.167478  0.417879  1
  Li  Li7  1  0.164111  0.174313  0.918146  1
  Mn  Mn8  1  0.822586  0.501781  0.132517  1
  Mn  Mn9  1  0.841235  0.160763  0.633768  1
  Mn  Mn10  1  0.668856  0.336035  0.382999  1
  Mn  Mn11  1  0.668391  0.001179  0.883840  1
  Mn  Mn12  1  0.320884  0.999984  0.135337  1
  Mn  Mn13  1  0.170374  0.503740  0.881289  1
  Fe  Fe14  1  0.346024  0.661066  0.630543  1
  Fe  Fe15  1  0.161526  0.835139  0.385219  1
  B  B16  1  0.826220  0.170483  0.126329  1
  B  B17  1  0.840277  0.499980  0.625223  1
  B  B18  1  0.665328  0.001070  0.377278  1
  B  B19  1  0.672113  0.333083  0.875155  1
  B  B20  1  0.326171  0.670603  0.126618  1
  B  B21  1  0.342332  0.996513  0.625058  1
  B  B22  1  0.163447  0.504248  0.376204  1
  B  B23  1  0.172761  0.832935  0.874646  1
  O  O24  1  0.903499  0.519383  0.346437  1
  O  O25  1  0.910959  0.820582  0.860728  1
  O  O26  1  0.826024  0.210837  0.844975  1
  O  O27  1  0.805642  0.124287  0.417473  1
  O  O28  1  0.785555  0.865323  0.362912  1
  O  O29  1  0.784067  0.465005  0.917241  1
  O  O30  1  0.723457  0.636683  0.612305  1
  O  O31  1  0.710123  0.035000  0.096448  1
  O  O32  1  0.698076  0.372993  0.596357  1
  O  O33  1  0.677613  0.289794  0.167388  1
  O  O34  1  0.586345  0.685630  0.111611  1
  O  O35  1  0.595311  0.982646  0.665935  1
  O  O36  1  0.405707  0.012474  0.348027  1
  O  O37  1  0.410578  0.321368  0.860298  1
  O  O38  1  0.326953  0.711777  0.843171  1
  O  O39  1  0.305049  0.627247  0.416951  1
  O  O40  1  0.277342  0.367244  0.362251  1
  O  O41  1  0.282528  0.965085  0.917967  1
  O  O42  1  0.211638  0.534766  0.095585  1
  O  O43  1  0.233057  0.134354  0.610609  1
  O  O44  1  0.197521  0.870201  0.595704  1
  O  O45  1  0.177435  0.788818  0.168356  1
  O  O46  1  0.086359  0.184822  0.111991  1
  O  O47  1  0.094683  0.489889  0.663569  1
