# generated using pymatgen
data_Li3Sc2(PO4)3
_symmetry_space_group_name_H-M   'P 1'
_cell_length_a   12.44584167
_cell_length_b   8.93730031
_cell_length_c   8.91933640
_cell_angle_alpha   90.00000000
_cell_angle_beta   90.00000000
_cell_angle_gamma   90.51887432
_symmetry_Int_Tables_number   1
_chemical_formula_structural   Li3Sc2(PO4)3
_chemical_formula_sum   'Li12 Sc8 P12 O48'
_cell_volume   992.07694732
_cell_formula_units_Z   4
loop_
 _symmetry_equiv_pos_site_id
 _symmetry_equiv_pos_as_xyz
  1  'x, y, z'
loop_
 _atom_site_type_symbol
 _atom_site_label
 _atom_site_symmetry_multiplicity
 _atom_site_fract_x
 _atom_site_fract_y
 _atom_site_fract_z
 _atom_site_occupancy
  Li  Li0  1  0.178767  0.191629  0.768988  1
  Li  Li1  1  0.177401  0.780927  0.273744  1
  Li  Li2  1  0.211659  0.450638  0.910570  1
  Li  Li3  1  0.288341  0.049362  0.410570  1
  Li  Li4  1  0.322599  0.719073  0.773744  1
  Li  Li5  1  0.321233  0.308371  0.268988  1
  Li  Li6  1  0.677401  0.280927  0.226256  1
  Li  Li7  1  0.678767  0.691629  0.731012  1
  Li  Li8  1  0.711659  0.950638  0.589430  1
  Li  Li9  1  0.788341  0.549362  0.089430  1
  Li  Li10  1  0.822599  0.219073  0.726256  1
  Li  Li11  1  0.821233  0.808371  0.231012  1
  Sc  Sc12  1  0.106303  0.260987  0.456331  1
  Sc  Sc13  1  0.110718  0.757086  0.954616  1
  Sc  Sc14  1  0.389282  0.742914  0.454616  1
  Sc  Sc15  1  0.393697  0.239013  0.956331  1
  Sc  Sc16  1  0.610718  0.257086  0.545384  1
  Sc  Sc17  1  0.606303  0.760987  0.043669  1
  Sc  Sc18  1  0.889282  0.242914  0.045384  1
  Sc  Sc19  1  0.893697  0.739013  0.543669  1
  P  P20  1  0.997865  0.549809  0.245687  1
  P  P21  1  0.002135  0.450191  0.754313  1
  P  P22  1  0.151083  0.105282  0.106261  1
  P  P23  1  0.150831  0.896662  0.600478  1
  P  P24  1  0.348917  0.394718  0.606261  1
  P  P25  1  0.349169  0.603338  0.100478  1
  P  P26  1  0.502135  0.950191  0.745687  1
  P  P27  1  0.497865  0.049809  0.254313  1
  P  P28  1  0.650831  0.396662  0.899522  1
  P  P29  1  0.651083  0.605282  0.393739  1
  P  P30  1  0.849169  0.103338  0.399522  1
  P  P31  1  0.848917  0.894718  0.893739  1
  O  O32  1  0.033972  0.153478  0.080885  1
  O  O33  1  0.034601  0.848080  0.567264  1
  O  O34  1  0.074102  0.543159  0.862064  1
  O  O35  1  0.062120  0.449214  0.351677  1
  O  O36  1  0.078371  0.652000  0.160237  1
  O  O37  1  0.079815  0.344233  0.668641  1
  O  O38  1  0.164367  0.070029  0.595702  1
  O  O39  1  0.161689  0.932819  0.101436  1
  O  O40  1  0.190435  0.159654  0.264626  1
  O  O41  1  0.186087  0.835808  0.755065  1
  O  O42  1  0.220718  0.180623  0.981128  1
  O  O43  1  0.227159  0.840496  0.472942  1
  O  O44  1  0.272841  0.659504  0.972942  1
  O  O45  1  0.279282  0.319377  0.481128  1
  O  O46  1  0.309565  0.340346  0.764626  1
  O  O47  1  0.313913  0.664192  0.255065  1
  O  O48  1  0.335633  0.429971  0.095702  1
  O  O49  1  0.338311  0.567181  0.601436  1
  O  O50  1  0.421629  0.848000  0.660237  1
  O  O51  1  0.420185  0.155767  0.168641  1
  O  O52  1  0.437880  0.050786  0.851677  1
  O  O53  1  0.425898  0.956841  0.362064  1
  O  O54  1  0.465399  0.651920  0.067264  1
  O  O55  1  0.466028  0.346522  0.580885  1
  O  O56  1  0.533972  0.653478  0.419115  1
  O  O57  1  0.534601  0.348080  0.932736  1
  O  O58  1  0.574102  0.043159  0.637936  1
  O  O59  1  0.562120  0.949214  0.148323  1
  O  O60  1  0.578371  0.152000  0.339763  1
  O  O61  1  0.579815  0.844233  0.831359  1
  O  O62  1  0.661689  0.432819  0.398564  1
  O  O63  1  0.664367  0.570029  0.904298  1
  O  O64  1  0.686087  0.335808  0.744935  1
  O  O65  1  0.690435  0.659654  0.235374  1
  O  O66  1  0.727159  0.340496  0.027058  1
  O  O67  1  0.720718  0.680623  0.518872  1
  O  O68  1  0.772841  0.159504  0.527058  1
  O  O69  1  0.779282  0.819377  0.018872  1
  O  O70  1  0.813913  0.164192  0.244935  1
  O  O71  1  0.809565  0.840346  0.735374  1
  O  O72  1  0.838311  0.067181  0.898564  1
  O  O73  1  0.835633  0.929971  0.404298  1
  O  O74  1  0.921629  0.348000  0.839763  1
  O  O75  1  0.920185  0.655767  0.331359  1
  O  O76  1  0.925898  0.456841  0.137936  1
  O  O77  1  0.937880  0.550786  0.648323  1
  O  O78  1  0.965399  0.151920  0.432736  1
  O  O79  1  0.966028  0.846522  0.919115  1
