# generated using pymatgen
data_Fe2O3
_symmetry_space_group_name_H-M   'P 1'
_cell_length_a   5.99034605
_cell_length_b   6.00785804
_cell_length_c   17.96848727
_cell_angle_alpha   59.89853448
_cell_angle_beta   59.51027543
_cell_angle_gamma   59.90324637
_symmetry_Int_Tables_number   1
_chemical_formula_structural   Fe2O3
_chemical_formula_sum   'Fe16 O24'
_cell_volume   454.87019191
_cell_formula_units_Z   8
loop_
 _symmetry_equiv_pos_site_id
 _symmetry_equiv_pos_as_xyz
  1  'x, y, z'
loop_
 _atom_site_type_symbol
 _atom_site_label
 _atom_site_symmetry_multiplicity
 _atom_site_fract_x
 _atom_site_fract_y
 _atom_site_fract_z
 _atom_site_occupancy
  Fe  Fe0  1  0.129061  0.109767  0.050468  1
  Fe  Fe1  1  0.474377  0.497794  0.010011  1
  Fe  Fe2  1  0.503932  0.000421  0.164443  1
  Fe  Fe3  1  0.149844  0.129127  0.363967  1
  Fe  Fe4  1  0.503932  0.502320  0.164443  1
  Fe  Fe5  1  0.526726  0.504891  0.321163  1
  Fe  Fe6  1  0.500752  0.004991  0.498572  1
  Fe  Fe7  1  0.500752  0.498541  0.498572  1
  Fe  Fe8  1  0.491012  0.490150  0.676230  1
  Fe  Fe9  1  0.494443  0.006093  0.834152  1
  Fe  Fe10  1  0.874634  0.886302  0.284254  1
  Fe  Fe11  1  0.494443  0.497007  0.834152  1
  Fe  Fe12  1  0.006544  0.498854  0.498583  1
  Fe  Fe13  1  0.870196  0.873308  0.627730  1
  Fe  Fe14  1  0.003904  0.496146  0.834601  1
  Fe  Fe15  1  0.859240  0.879195  0.960790  1
  O  O16  1  0.283824  0.230354  0.086082  1
  O  O17  1  0.283824  0.727575  0.086082  1
  O  O18  1  0.291652  0.248232  0.237295  1
  O  O19  1  0.725830  0.253672  0.088942  1
  O  O20  1  0.261606  0.262131  0.415335  1
  O  O21  1  0.276977  0.746468  0.243362  1
  O  O22  1  0.716277  0.269264  0.247513  1
  O  O23  1  0.710952  0.756937  0.091724  1
  O  O24  1  0.272332  0.270202  0.562421  1
  O  O25  1  0.261606  0.730258  0.415335  1
  O  O26  1  0.742618  0.260672  0.412013  1
  O  O27  1  0.716277  0.771919  0.247513  1
  O  O28  1  0.271977  0.745290  0.579147  1
  O  O29  1  0.259565  0.259131  0.758781  1
  O  O30  1  0.744005  0.272989  0.579148  1
  O  O31  1  0.745125  0.744732  0.421804  1
  O  O32  1  0.249691  0.249730  0.916950  1
  O  O33  1  0.259565  0.704962  0.758781  1
  O  O34  1  0.705409  0.259664  0.758421  1
  O  O35  1  0.744005  0.745561  0.579148  1
  O  O36  1  0.261172  0.737204  0.921474  1
  O  O37  1  0.738996  0.741875  0.759085  1
  O  O38  1  0.733963  0.275942  0.918256  1
  O  O39  1  0.733963  0.735328  0.918256  1
