# generated using pymatgen
data_Bi25BO39
_symmetry_space_group_name_H-M   'P 1'
_cell_length_a   9.60600464
_cell_length_b   9.31736789
_cell_length_c   14.61983268
_cell_angle_alpha   89.56784336
_cell_angle_beta   86.93945361
_cell_angle_gamma   113.52584657
_symmetry_Int_Tables_number   1
_chemical_formula_structural   Bi25BO39
_chemical_formula_sum   'Bi25 B1 O39'
_cell_volume   1197.44429885
_cell_formula_units_Z   1
loop_
 _symmetry_equiv_pos_site_id
 _symmetry_equiv_pos_as_xyz
  1  'x, y, z'
loop_
 _atom_site_type_symbol
 _atom_site_label
 _atom_site_symmetry_multiplicity
 _atom_site_fract_x
 _atom_site_fract_y
 _atom_site_fract_z
 _atom_site_occupancy
  Bi  Bi0  1  0.443599  0.237672  0.084391  1
  Bi  Bi1  1  0.808672  0.622114  0.059587  1
  Bi  Bi2  1  0.864526  0.458511  0.358819  1
  Bi  Bi3  1  0.459465  0.212430  0.335543  1
  Bi  Bi4  1  0.954790  0.336963  0.132877  1
  Bi  Bi5  1  0.656457  0.954068  0.142676  1
  Bi  Bi6  1  0.730201  0.270109  0.571727  1
  Bi  Bi7  1  0.938703  0.071123  0.732386  1
  Bi  Bi8  1  0.342518  0.527635  0.223564  1
  Bi  Bi9  1  0.230745  0.772104  0.064414  1
  Bi  Bi10  1  0.106898  0.285960  0.428363  1
  Bi  Bi11  1  0.937325  0.735887  0.575009  1
  Bi  Bi12  1  0.747030  0.935388  0.455125  1
  Bi  Bi13  1  0.298488  0.093679  0.597382  1
  Bi  Bi14  1  0.757801  0.267139  0.916056  1
  Bi  Bi15  1  0.526063  0.405212  0.751419  1
  Bi  Bi16  1  0.309304  0.762380  0.443895  1
  Bi  Bi17  1  0.095241  0.950355  0.279205  1
  Bi  Bi18  1  0.361307  0.999157  0.850992  1
  Bi  Bi19  1  0.968490  0.678128  0.815188  1
  Bi  Bi20  1  0.528255  0.844312  0.668370  1
  Bi  Bi21  1  0.223696  0.453762  0.649521  1
  Bi  Bi22  1  0.694097  0.668666  0.290575  1
  Bi  Bi23  1  0.616661  0.786545  0.910147  1
  Bi  Bi24  1  0.214349  0.456507  0.903499  1
  B  B25  1  0.561542  0.567202  0.531793  1
  O  O26  1  0.714501  0.997743  0.996950  1
  O  O27  1  0.363688  0.001354  0.006044  1
  O  O28  1  0.971593  0.052016  0.352531  1
  O  O29  1  0.682193  0.300542  0.053233  1
  O  O30  1  0.917151  0.542304  0.166358  1
  O  O31  1  0.445210  0.097463  0.199537  1
  O  O32  1  0.523722  0.460633  0.174399  1
  O  O33  1  0.824907  0.202776  0.448363  1
  O  O34  1  0.803699  0.815402  0.160575  1
  O  O35  1  0.976742  0.373475  0.989273  1
  O  O36  1  0.934811  0.726267  0.345286  1
  O  O37  1  0.199150  0.441630  0.113419  1
  O  O38  1  0.459154  0.751152  0.126503  1
  O  O39  1  0.050214  0.242113  0.608356  1
  O  O40  1  0.279812  0.288510  0.307324  1
  O  O41  1  0.882701  0.499364  0.501082  1
  O  O42  1  0.024990  0.754957  0.992817  1
  O  O43  1  0.579970  0.560411  0.437908  1
  O  O44  1  0.525720  0.201888  0.499734  1
  O  O45  1  0.441184  0.040502  0.688534  1
  O  O46  1  0.633399  0.860583  0.325882  1
  O  O47  1  0.070917  0.438157  0.322543  1
  O  O48  1  0.879104  0.575051  0.686565  1
  O  O49  1  0.659292  0.696480  0.578631  1
  O  O50  1  0.219685  0.524910  0.500920  1
  O  O51  1  0.510718  0.883321  0.516383  1
  O  O52  1  0.287193  0.257828  0.728630  1
  O  O53  1  0.503335  0.238395  0.872650  1
  O  O54  1  0.771822  0.508625  0.888061  1
  O  O55  1  0.267572  0.998187  0.379366  1
  O  O56  1  0.753326  0.017866  0.637005  1
  O  O57  1  0.810697  0.833808  0.813771  1
  O  O58  1  0.446526  0.567615  0.810847  1
  O  O59  1  0.199715  0.819432  0.559638  1
  O  O60  1  0.449695  0.448613  0.586924  1
  O  O61  1  0.079408  0.485138  0.801981  1
  O  O62  1  0.559783  0.942205  0.824840  1
  O  O63  1  0.052363  0.936301  0.677554  1
  O  O64  1  0.303016  0.698876  0.939560  1
