# generated using pymatgen
data_Na2FeO3
_symmetry_space_group_name_H-M   'P 1'
_cell_length_a   5.39715896
_cell_length_b   9.35876156
_cell_length_c   6.13403056
_cell_angle_alpha   90.00005187
_cell_angle_beta   90.01368592
_cell_angle_gamma   90.00021383
_symmetry_Int_Tables_number   1
_chemical_formula_structural   Na2FeO3
_chemical_formula_sum   'Na8 Fe4 O12'
_cell_volume   309.83431471
_cell_formula_units_Z   4
loop_
 _symmetry_equiv_pos_site_id
 _symmetry_equiv_pos_as_xyz
  1  'x, y, z'
loop_
 _atom_site_type_symbol
 _atom_site_label
 _atom_site_symmetry_multiplicity
 _atom_site_fract_x
 _atom_site_fract_y
 _atom_site_fract_z
 _atom_site_occupancy
  Na  Na0  1  0.226186  0.414221  0.613767  1
  Na  Na1  1  0.226189  0.085778  0.613758  1
  Na  Na2  1  0.273826  0.585671  0.114011  1
  Na  Na3  1  0.273829  0.914332  0.114011  1
  Na  Na4  1  0.726173  0.085827  0.886133  1
  Na  Na5  1  0.726170  0.414173  0.886128  1
  Na  Na6  1  0.773882  0.585668  0.386035  1
  Na  Na7  1  0.773883  0.914334  0.386028  1
  Fe  Fe8  1  0.223598  0.749995  0.663784  1
  Fe  Fe9  1  0.276372  0.249998  0.163283  1
  Fe  Fe10  1  0.723532  0.750005  0.836993  1
  Fe  Fe11  1  0.776396  0.249994  0.336629  1
  O  O12  1  0.012732  0.112781  0.216836  1
  O  O13  1  0.012731  0.387220  0.216842  1
  O  O14  1  0.132478  0.749998  0.377630  1
  O  O15  1  0.367663  0.250002  0.877065  1
  O  O16  1  0.486262  0.887146  0.716399  1
  O  O17  1  0.486265  0.612858  0.716398  1
  O  O18  1  0.513239  0.112830  0.283375  1
  O  O19  1  0.513234  0.387166  0.283372  1
  O  O20  1  0.632442  0.750001  0.122999  1
  O  O21  1  0.867622  0.250000  0.622730  1
  O  O22  1  0.987647  0.612747  0.782899  1
  O  O23  1  0.987648  0.887253  0.782896  1
