# generated using pymatgen
data_Li5La3Nb2O12
_symmetry_space_group_name_H-M   'P 1'
_cell_length_a   11.12537848
_cell_length_b   11.18010256
_cell_length_c   11.16219282
_cell_angle_alpha   109.34479803
_cell_angle_beta   109.69358028
_cell_angle_gamma   109.44279487
_symmetry_Int_Tables_number   1
_chemical_formula_structural   Li5La3Nb2O12
_chemical_formula_sum   'Li20 La12 Nb8 O48'
_cell_volume   1067.88042656
_cell_formula_units_Z   4
loop_
 _symmetry_equiv_pos_site_id
 _symmetry_equiv_pos_as_xyz
  1  'x, y, z'
loop_
 _atom_site_type_symbol
 _atom_site_label
 _atom_site_symmetry_multiplicity
 _atom_site_fract_x
 _atom_site_fract_y
 _atom_site_fract_z
 _atom_site_occupancy
  Li  Li0  1  0.181630  0.932262  0.890017  1
  Li  Li1  1  0.251543  0.684074  0.796910  1
  Li  Li2  1  0.063002  0.108500  0.811940  1
  Li  Li3  1  0.211556  0.748422  0.320463  1
  Li  Li4  1  0.115008  0.819174  0.069311  1
  Li  Li5  1  0.056611  0.443776  0.251353  1
  Li  Li6  1  0.289436  0.608931  0.537875  1
  Li  Li7  1  0.381524  0.450725  0.699283  1
  Li  Li8  1  0.575260  0.754654  0.966235  1
  Li  Li9  1  0.317095  0.206421  0.751215  1
  Li  Li10  1  0.446672  0.697476  0.388916  1
  Li  Li11  1  0.250996  0.048016  0.431363  1
  Li  Li12  1  0.755674  0.970552  0.582000  1
  Li  Li13  1  0.550746  0.294661  0.609588  1
  Li  Li14  1  0.692079  0.806202  0.251375  1
  Li  Li15  1  0.613715  0.527444  0.285754  1
  Li  Li16  1  0.948361  0.561333  0.745203  1
  Li  Li17  1  0.886774  0.180314  0.929555  1
  Li  Li18  1  0.916261  0.890315  0.174466  1
  Li  Li19  1  0.744370  0.325867  0.212192  1
  La  La20  1  0.114858  0.371440  0.748281  1
  La  La21  1  0.251729  0.880024  0.630952  1
  La  La22  1  0.115510  0.245651  0.366863  1
  La  La23  1  0.372762  0.753237  0.123703  1
  La  La24  1  0.254862  0.373124  0.124405  1
  La  La25  1  0.618149  0.867382  0.752556  1
  La  La26  1  0.749887  0.619958  0.870720  1
  La  La27  1  0.628280  0.248018  0.879922  1
  La  La28  1  0.389506  0.138092  0.246489  1
  La  La29  1  0.866584  0.746437  0.616950  1
  La  La30  1  0.884783  0.635028  0.249821  1
  La  La31  1  0.749545  0.133534  0.377982  1
  Nb  Nb32  1  0.996720  0.502421  0.499660  1
  Nb  Nb33  1  0.001510  0.001229  0.501305  1
  Nb  Nb34  1  0.996571  0.494455  0.995100  1
  Nb  Nb35  1  0.995585  0.000541  0.000875  1
  Nb  Nb36  1  0.501160  0.497926  0.501882  1
  Nb  Nb37  1  0.504735  0.003492  0.502791  1
  Nb  Nb38  1  0.497440  0.495869  0.999287  1
  Nb  Nb39  1  0.505935  0.002792  0.999773  1
  O  O40  1  0.088215  0.972942  0.677004  1
  O  O41  1  0.112168  0.588406  0.911425  1
  O  O42  1  0.029523  0.325692  0.916159  1
  O  O43  1  0.080575  0.699438  0.679715  1
  O  O44  1  0.092837  0.889743  0.415526  1
  O  O45  1  0.102709  0.620362  0.421384  1
  O  O46  1  0.178864  0.482546  0.595502  1
  O  O47  1  0.412325  0.820046  0.799350  1
  O  O48  1  0.384878  0.583041  0.904960  1
  O  O49  1  0.296208  0.325463  0.909782  1
  O  O50  1  0.320691  0.915607  0.300971  1
  O  O51  1  0.027672  0.202172  0.114225  1
  O  O52  1  0.176566  0.199407  0.581980  1
  O  O53  1  0.202354  0.585521  0.177028  1
  O  O54  1  0.397534  0.820029  0.515797  1
  O  O55  1  0.323696  0.913301  0.026362  1
  O  O56  1  0.296800  0.474740  0.384114  1
  O  O57  1  0.109922  0.019890  0.197559  1
  O  O58  1  0.519757  0.609517  0.699668  1
  O  O59  1  0.411196  0.080620  0.880750  1
  O  O60  1  0.515177  0.399724  0.820966  1
  O  O61  1  0.385560  0.298982  0.474825  1
  O  O62  1  0.585942  0.906665  0.389137  1
  O  O63  1  0.189348  0.110436  0.014277  1
  O  O64  1  0.799246  0.872675  0.972510  1
  O  O65  1  0.422291  0.100634  0.617225  1
  O  O66  1  0.610881  0.700778  0.526614  1
  O  O67  1  0.481999  0.592471  0.177227  1
  O  O68  1  0.581528  0.907806  0.116051  1
  O  O69  1  0.473244  0.389590  0.302037  1
  O  O70  1  0.879831  0.981632  0.802333  1
  O  O71  1  0.702163  0.531637  0.620047  1
  O  O72  1  0.672603  0.085733  0.969610  1
  O  O73  1  0.584131  0.169002  0.469299  1
  O  O74  1  0.798060  0.415261  0.829154  1
  O  O75  1  0.983150  0.805720  0.883655  1
  O  O76  1  0.670667  0.070324  0.697085  1
  O  O77  1  0.825936  0.799104  0.410792  1
  O  O78  1  0.696316  0.680751  0.078407  1
  O  O79  1  0.626745  0.429043  0.098741  1
  O  O80  1  0.592149  0.171451  0.199793  1
  O  O81  1  0.828531  0.530657  0.400816  1
  O  O82  1  0.914023  0.389332  0.584078  1
  O  O83  1  0.922206  0.113075  0.597470  1
  O  O84  1  0.919496  0.312091  0.325174  1
  O  O85  1  0.979015  0.676764  0.089183  1
  O  O86  1  0.889604  0.411726  0.088538  1
  O  O87  1  0.904044  0.020086  0.327164  1
