# generated using pymatgen
data_Li3MnFe2(BO3)3
_symmetry_space_group_name_H-M   'P 1'
_cell_length_a   8.25420898
_cell_length_b   14.30723964
_cell_length_c   3.15172671
_cell_angle_alpha   90.00000000
_cell_angle_beta   90.00000000
_cell_angle_gamma   89.93600396
_symmetry_Int_Tables_number   1
_chemical_formula_structural   Li3MnFe2(BO3)3
_chemical_formula_sum   'Li6 Mn2 Fe4 B6 O18'
_cell_volume   372.20276335
_cell_formula_units_Z   2
loop_
 _symmetry_equiv_pos_site_id
 _symmetry_equiv_pos_as_xyz
  1  'x, y, z'
loop_
 _atom_site_type_symbol
 _atom_site_label
 _atom_site_symmetry_multiplicity
 _atom_site_fract_x
 _atom_site_fract_y
 _atom_site_fract_z
 _atom_site_occupancy
  Li  Li0  1  0.292813  0.990951  0.500000  1
  Li  Li1  1  0.339015  0.358883  0.500000  1
  Li  Li2  1  0.365775  0.650530  0.500000  1
  Li  Li3  1  0.793449  0.492689  0.500000  1
  Li  Li4  1  0.842133  0.856917  0.500000  1
  Li  Li5  1  0.867713  0.151147  0.500000  1
  Mn  Mn6  1  0.633201  0.005649  0.000000  1
  Mn  Mn7  1  0.674373  0.314314  0.000000  1
  Fe  Fe8  1  0.136633  0.504497  0.000000  1
  Fe  Fe9  1  0.175859  0.815530  0.000000  1
  Fe  Fe10  1  0.186903  0.179293  0.000000  1
  Fe  Fe11  1  0.687595  0.679699  0.000000  1
  B  B12  1  0.000011  0.666697  0.500000  1
  B  B13  1  0.001404  0.998954  0.000000  1
  B  B14  1  0.002248  0.333325  0.500000  1
  B  B15  1  0.497622  0.167355  0.500000  1
  B  B16  1  0.500395  0.501228  0.000000  1
  B  B17  1  0.498983  0.832284  0.500000  1
  O  O18  1  0.013523  0.430359  0.500000  1
  O  O19  1  0.018516  0.763424  0.500000  1
  O  O20  1  0.136201  0.608816  0.500000  1
  O  O21  1  0.141780  0.278526  0.500000  1
  O  O22  1  0.153947  0.957464  0.000000  1
  O  O23  1  0.344862  0.126239  0.500000  1
  O  O24  1  0.347659  0.789578  0.500000  1
  O  O25  1  0.361470  0.445848  0.000000  1
  O  O26  1  0.486071  0.598127  0.000000  1
  O  O27  1  0.509860  0.929193  0.500000  1
  O  O28  1  0.512646  0.264243  0.500000  1
  O  O29  1  0.636860  0.111987  0.500000  1
  O  O30  1  0.639497  0.778437  0.500000  1
  O  O31  1  0.653319  0.460183  0.000000  1
  O  O32  1  0.845418  0.627558  0.500000  1
  O  O33  1  0.851419  0.290561  0.500000  1
  O  O34  1  0.863285  0.943330  0.000000  1
  O  O35  1  0.987538  0.096188  0.000000  1
