# generated using pymatgen
data_Cr4OF11
_symmetry_space_group_name_H-M   'P 1'
_cell_length_a   5.08376000
_cell_length_b   5.33189668
_cell_length_c   16.89481580
_cell_angle_alpha   91.73907019
_cell_angle_beta   98.29079468
_cell_angle_gamma   61.71092351
_symmetry_Int_Tables_number   1
_chemical_formula_structural   Cr4OF11
_chemical_formula_sum   'Cr8 O2 F22'
_cell_volume   398.66409863
_cell_formula_units_Z   2
loop_
 _symmetry_equiv_pos_site_id
 _symmetry_equiv_pos_as_xyz
  1  'x, y, z'
loop_
 _atom_site_type_symbol
 _atom_site_label
 _atom_site_symmetry_multiplicity
 _atom_site_fract_x
 _atom_site_fract_y
 _atom_site_fract_z
 _atom_site_occupancy
  Cr  Cr0  1  0.745627  0.643850  0.128412  1
  Cr  Cr1  1  0.749114  0.121848  0.626059  1
  Cr  Cr2  1  0.491586  0.738972  0.752918  1
  Cr  Cr3  1  0.509010  0.232811  0.246392  1
  Cr  Cr4  1  0.250807  0.870060  0.374347  1
  Cr  Cr5  1  0.255441  0.386420  0.871060  1
  Cr  Cr6  1  0.000346  0.497700  0.500048  1
  Cr  Cr7  1  0.998899  0.008333  0.000347  1
  O  O8  1  0.747464  0.938133  0.187414  1
  O  O9  1  0.314151  0.531887  0.781931  1
  F  F10  1  0.814402  0.784977  0.032837  1
  F  F11  1  0.751984  0.811353  0.562600  1
  F  F12  1  0.757838  0.319393  0.064362  1
  F  F13  1  0.680138  0.962472  0.718308  1
  F  F14  1  0.686154  0.657160  0.407125  1
  F  F15  1  0.683857  0.468242  0.217770  1
  F  F16  1  0.816235  0.593237  0.843486  1
  F  F17  1  0.813391  0.090776  0.341751  1
  F  F18  1  0.814175  0.279757  0.532551  1
  F  F19  1  0.313159  0.843272  0.093193  1
  F  F20  1  0.745549  0.437721  0.688349  1
  F  F21  1  0.261758  0.555668  0.310887  1
  F  F22  1  0.684803  0.157898  0.907035  1
  F  F23  1  0.185512  0.907320  0.658619  1
  F  F24  1  0.183488  0.408229  0.157393  1
  F  F25  1  0.185621  0.717952  0.468262  1
  F  F26  1  0.314487  0.342440  0.592959  1
  F  F27  1  0.311274  0.031571  0.280993  1
  F  F28  1  0.248346  0.689626  0.938005  1
  F  F29  1  0.246988  0.185404  0.436926  1
  F  F30  1  0.253811  0.063953  0.812938  1
  F  F31  1  0.184585  0.221564  0.964722  1
