# generated using pymatgen
data_Ba5In5O12
_symmetry_space_group_name_H-M   'P 1'
_cell_length_a   9.83805843
_cell_length_b   7.36507671
_cell_length_c   5.99361224
_cell_angle_alpha   91.39212018
_cell_angle_beta   71.45533410
_cell_angle_gamma   73.01624240
_symmetry_Int_Tables_number   1
_chemical_formula_structural   Ba5In5O12
_chemical_formula_sum   'Ba5 In5 O12'
_cell_volume   390.47581842
_cell_formula_units_Z   1
loop_
 _symmetry_equiv_pos_site_id
 _symmetry_equiv_pos_as_xyz
  1  'x, y, z'
loop_
 _atom_site_type_symbol
 _atom_site_label
 _atom_site_symmetry_multiplicity
 _atom_site_fract_x
 _atom_site_fract_y
 _atom_site_fract_z
 _atom_site_occupancy
  Ba  Ba0  1  0.200306  0.101041  0.391624  1
  Ba  Ba1  1  0.599694  0.298959  0.208376  1
  Ba  Ba2  1  0.400000  0.700000  0.800000  1
  Ba  Ba3  1  0.795768  0.923668  0.604967  1
  Ba  Ba4  1  0.004232  0.476331  0.995033  1
  In  In5  1  0.400000  0.200000  0.800000  1
  In  In6  1  0.792748  0.429491  0.586894  1
  In  In7  1  0.190554  0.615938  0.417823  1
  In  In8  1  0.609446  0.784062  0.182177  1
  In  In9  1  0.007252  0.970509  0.013106  1
  O  O10  1  0.200892  0.098873  0.888291  1
  O  O11  1  0.599108  0.301127  0.711709  1
  O  O12  1  0.738915  0.523301  0.950619  1
  O  O13  1  0.900000  0.200000  0.300000  1
  O  O14  1  0.485582  0.016598  0.031954  1
  O  O15  1  0.314418  0.383402  0.568046  1
  O  O16  1  0.669330  0.682954  0.483900  1
  O  O17  1  0.785934  0.925927  0.095868  1
  O  O18  1  0.061085  0.876699  0.649381  1
  O  O19  1  0.400000  0.700000  0.300000  1
  O  O20  1  0.014066  0.474073  0.504132  1
  O  O21  1  0.130670  0.717046  0.116100  1
