# generated using pymatgen
data_Ba2LaCl7
_symmetry_space_group_name_H-M   'P 1'
_cell_length_a   11.56658650
_cell_length_b   11.69939913
_cell_length_c   11.69939920
_cell_angle_alpha   68.69923395
_cell_angle_beta   66.84275224
_cell_angle_gamma   66.84274956
_symmetry_Int_Tables_number   1
_chemical_formula_structural   Ba2LaCl7
_chemical_formula_sum   'Ba8 La4 Cl28'
_cell_volume   1296.95481861
_cell_formula_units_Z   4
loop_
 _symmetry_equiv_pos_site_id
 _symmetry_equiv_pos_as_xyz
  1  'x, y, z'
loop_
 _atom_site_type_symbol
 _atom_site_label
 _atom_site_symmetry_multiplicity
 _atom_site_fract_x
 _atom_site_fract_y
 _atom_site_fract_z
 _atom_site_occupancy
  Ba  Ba0  1  0.463898  0.931379  0.330857  1
  Ba  Ba1  1  0.044255  0.239471  0.101993  1
  Ba  Ba2  1  0.036102  0.169143  0.568621  1
  Ba  Ba3  1  0.544255  0.601993  0.739471  1
  Ba  Ba4  1  0.455745  0.398007  0.260529  1
  Ba  Ba5  1  0.963898  0.830857  0.431379  1
  Ba  Ba6  1  0.955745  0.760529  0.898007  1
  Ba  Ba7  1  0.536102  0.068621  0.669143  1
  La  La8  1  0.321962  0.837354  0.013786  1
  La  La9  1  0.178038  0.486214  0.662646  1
  La  La10  1  0.821962  0.513786  0.337354  1
  La  La11  1  0.678038  0.162646  0.986214  1
  Cl  Cl12  1  0.060285  0.953964  0.132456  1
  Cl  Cl13  1  0.289993  0.876130  0.776258  1
  Cl  Cl14  1  0.210007  0.723742  0.623870  1
  Cl  Cl15  1  0.390123  0.734655  0.237751  1
  Cl  Cl16  1  0.159552  0.551074  0.413401  1
  Cl  Cl17  1  0.081181  0.359148  0.283518  1
  Cl  Cl18  1  0.332161  0.588776  0.032062  1
  Cl  Cl19  1  0.659552  0.913401  0.051074  1
  Cl  Cl20  1  0.646347  0.853070  0.523105  1
  Cl  Cl21  1  0.581181  0.783518  0.859148  1
  Cl  Cl22  1  0.167839  0.467938  0.911224  1
  Cl  Cl23  1  0.853653  0.976895  0.646930  1
  Cl  Cl24  1  0.109877  0.262249  0.765345  1
  Cl  Cl25  1  0.560285  0.632456  0.453964  1
  Cl  Cl26  1  0.439715  0.367544  0.546036  1
  Cl  Cl27  1  0.890123  0.737751  0.234655  1
  Cl  Cl28  1  0.146347  0.023105  0.353070  1
  Cl  Cl29  1  0.832161  0.532062  0.088776  1
  Cl  Cl30  1  0.418819  0.216482  0.140852  1
  Cl  Cl31  1  0.353653  0.146930  0.476895  1
  Cl  Cl32  1  0.340448  0.086599  0.948926  1
  Cl  Cl33  1  0.667839  0.411224  0.967938  1
  Cl  Cl34  1  0.918819  0.640852  0.716482  1
  Cl  Cl35  1  0.840448  0.448926  0.586599  1
  Cl  Cl36  1  0.609877  0.265345  0.762249  1
  Cl  Cl37  1  0.789993  0.276258  0.376130  1
  Cl  Cl38  1  0.710007  0.123870  0.223742  1
  Cl  Cl39  1  0.939715  0.046036  0.867544  1
