# generated using pymatgen
data_LiNb(TeO4)3
_symmetry_space_group_name_H-M   'P 1'
_cell_length_a   7.44011922
_cell_length_b   7.44633288
_cell_length_c   7.44439124
_cell_angle_alpha   87.37895623
_cell_angle_beta   92.50978203
_cell_angle_gamma   92.29649837
_symmetry_Int_Tables_number   1
_chemical_formula_structural   LiNb(TeO4)3
_chemical_formula_sum   'Li2 Nb2 Te6 O24'
_cell_volume   411.30498847
_cell_formula_units_Z   2
loop_
 _symmetry_equiv_pos_site_id
 _symmetry_equiv_pos_as_xyz
  1  'x, y, z'
loop_
 _atom_site_type_symbol
 _atom_site_label
 _atom_site_symmetry_multiplicity
 _atom_site_fract_x
 _atom_site_fract_y
 _atom_site_fract_z
 _atom_site_occupancy
  Li  Li0  1  0.223329  0.272831  0.269110  1
  Li  Li1  1  0.716373  0.787377  0.792390  1
  Nb  Nb2  1  0.004875  0.999827  0.998272  1
  Nb  Nb3  1  0.500906  0.495615  0.998720  1
  Te  Te4  1  0.000349  0.994894  0.498736  1
  Te  Te5  1  0.000923  0.499924  0.994531  1
  Te  Te6  1  0.500411  0.999511  0.000559  1
  Te  Te7  1  0.000872  0.498713  0.499111  1
  Te  Te8  1  0.501258  0.998202  0.496600  1
  Te  Te9  1  0.504688  0.498622  0.499696  1
  O  O10  1  0.750453  0.059013  0.429210  1
  O  O11  1  0.943614  0.253967  0.944395  1
  O  O12  1  0.947203  0.428622  0.250201  1
  O  O13  1  0.574106  0.050911  0.744572  1
  O  O14  1  0.560113  0.242794  0.058083  1
  O  O15  1  0.753482  0.435095  0.566416  1
  O  O16  1  0.938510  0.746367  0.430050  1
  O  O17  1  0.439160  0.247099  0.430431  1
  O  O18  1  0.757374  0.563942  0.936399  1
  O  O19  1  0.257481  0.062427  0.944628  1
  O  O20  1  0.558362  0.554523  0.255224  1
  O  O21  1  0.063668  0.057359  0.256573  1
  O  O22  1  0.939097  0.934283  0.740114  1
  O  O23  1  0.446740  0.440575  0.740995  1
  O  O24  1  0.746874  0.934101  0.041897  1
  O  O25  1  0.245725  0.434407  0.055419  1
  O  O26  1  0.567877  0.748865  0.565271  1
  O  O27  1  0.069459  0.247118  0.555259  1
  O  O28  1  0.252338  0.548711  0.426106  1
  O  O29  1  0.451982  0.754005  0.937061  1
  O  O30  1  0.433779  0.934566  0.250999  1
  O  O31  1  0.068980  0.563484  0.743792  1
  O  O32  1  0.061141  0.743715  0.051038  1
  O  O33  1  0.253047  0.934688  0.565073  1
