# generated using pymatgen
data_Li24Mn7Cr5O36
_symmetry_space_group_name_H-M   'P 1'
_cell_length_a   5.00553720
_cell_length_b   13.29154299
_cell_length_c   9.73957960
_cell_angle_alpha   97.05708155
_cell_angle_beta   94.65673125
_cell_angle_gamma   100.34136215
_symmetry_Int_Tables_number   1
_chemical_formula_structural   Li24Mn7Cr5O36
_chemical_formula_sum   'Li24 Mn7 Cr5 O36'
_cell_volume   629.08460212
_cell_formula_units_Z   1
loop_
 _symmetry_equiv_pos_site_id
 _symmetry_equiv_pos_as_xyz
  1  'x, y, z'
loop_
 _atom_site_type_symbol
 _atom_site_label
 _atom_site_symmetry_multiplicity
 _atom_site_fract_x
 _atom_site_fract_y
 _atom_site_fract_z
 _atom_site_occupancy
  Li  Li0  1  0.835356  0.166496  0.000054  1
  Li  Li1  1  0.949056  0.387096  0.999789  1
  Li  Li2  1  0.000272  0.749509  0.250461  1
  Li  Li3  1  0.669169  0.082612  0.249641  1
  Li  Li4  1  0.949007  0.886712  0.500093  1
  Li  Li5  1  0.617330  0.221413  0.500315  1
  Li  Li6  1  0.835954  0.666583  0.499466  1
  Li  Li7  1  0.500534  0.999653  0.500141  1
  Li  Li8  1  0.712575  0.445982  0.499431  1
  Li  Li9  1  0.669844  0.582334  0.749969  1
  Li  Li10  1  0.501788  0.499843  0.000324  1
  Li  Li11  1  0.716263  0.946331  0.001302  1
  Li  Li12  1  0.381184  0.280459  0.000695  1
  Li  Li13  1  0.617733  0.721069  0.000382  1
  Li  Li14  1  0.282246  0.053984  0.999001  1
  Li  Li15  1  0.336513  0.415869  0.249878  1
  Li  Li16  1  0.284125  0.554762  0.500218  1
  Li  Li17  1  0.168632  0.333095  0.499782  1
  Li  Li18  1  0.380650  0.778897  0.498357  1
  Li  Li19  1  0.047484  0.113597  0.500422  1
  Li  Li20  1  0.336552  0.915671  0.749933  1
  Li  Li21  1  0.167745  0.832956  0.000088  1
  Li  Li22  1  0.003386  0.249060  0.750019  1
  Li  Li23  1  0.045806  0.612967  -0.000040  1
  Mn  Mn24  1  0.776282  0.305966  0.249937  1
  Mn  Mn25  1  0.776263  0.805931  0.750077  1
  Mn  Mn26  1  0.442791  0.139317  0.749757  1
  Mn  Mn27  1  0.555632  0.860995  0.250186  1
  Mn  Mn28  1  0.446113  0.640413  0.251406  1
  Mn  Mn29  1  0.109483  0.472627  0.750031  1
  Mn  Mn30  1  0.107530  0.971177  0.248676  1
  Cr  Cr31  1  0.893625  0.026428  0.750065  1
  Cr  Cr32  1  0.895660  0.526591  0.249629  1
  Cr  Cr33  1  0.560491  0.359786  0.750077  1
  Cr  Cr34  1  0.227340  0.192565  0.250181  1
  Cr  Cr35  1  0.227520  0.693237  0.749937  1
  O  O36  1  0.996380  0.068467  0.136427  1
  O  O37  1  0.930507  0.215438  0.363645  1
  O  O38  1  0.996408  0.568902  0.636561  1
  O  O39  1  0.853848  0.358091  0.638914  1
  O  O40  1  0.735101  0.117990  0.635922  1
  O  O41  1  0.663152  0.402225  0.136514  1
  O  O42  1  0.930559  0.715682  0.863845  1
  O  O43  1  0.814961  0.478170  0.863712  1
  O  O44  1  0.597422  0.049170  0.863627  1
  O  O45  1  0.857309  0.856635  0.138706  1
  O  O46  1  0.735079  0.617740  0.136048  1
  O  O47  1  0.520527  0.191353  0.138916  1
  O  O48  1  0.663050  0.262564  0.860998  1
  O  O49  1  0.808433  0.976001  0.361689  1
  O  O50  1  0.597449  0.549343  0.363595  1
  O  O51  1  0.481623  0.311498  0.363643  1
  O  O52  1  0.668019  0.762301  0.361397  1
  O  O53  1  0.328091  0.095143  0.361009  1
  O  O54  1  0.663349  0.902475  0.636756  1
  O  O55  1  0.329449  0.235525  0.636419  1
  O  O56  1  0.520785  0.691525  0.638974  1
  O  O57  1  0.401769  0.451340  0.636359  1
  O  O58  1  0.186866  0.024683  0.638431  1
  O  O59  1  0.333899  0.738701  0.138550  1
  O  O60  1  0.481400  0.811514  0.863514  1
  O  O61  1  0.263850  0.382389  0.863718  1
  O  O62  1  0.148193  0.144844  0.863492  1
  O  O63  1  0.403071  0.951806  0.136395  1
  O  O64  1  0.188311  0.525763  0.138796  1
  O  O65  1  0.068624  0.284671  0.136339  1
  O  O66  1  0.329659  0.596113  0.861378  1
  O  O67  1  0.263494  0.881818  0.363886  1
  O  O68  1  0.149363  0.644835  0.363598  1
  O  O69  1  0.996546  0.429323  0.360966  1
  O  O70  1  0.068363  0.784627  0.636446  1
  O  O71  1  0.997157  0.929348  0.861134  1
