# generated using pymatgen
data_Li5Fe8(BO3)8
_symmetry_space_group_name_H-M   'P 1'
_cell_length_a   5.22024939
_cell_length_b   9.05336797
_cell_length_c   11.40099431
_cell_angle_alpha   67.15169576
_cell_angle_beta   77.69998541
_cell_angle_gamma   89.61935025
_symmetry_Int_Tables_number   1
_chemical_formula_structural   Li5Fe8(BO3)8
_chemical_formula_sum   'Li5 Fe8 B8 O24'
_cell_volume   483.40994523
_cell_formula_units_Z   1
loop_
 _symmetry_equiv_pos_site_id
 _symmetry_equiv_pos_as_xyz
  1  'x, y, z'
loop_
 _atom_site_type_symbol
 _atom_site_label
 _atom_site_symmetry_multiplicity
 _atom_site_fract_x
 _atom_site_fract_y
 _atom_site_fract_z
 _atom_site_occupancy
  Li  Li0  1  0.967712  0.977408  0.387840  1
  Li  Li1  1  0.713929  0.726239  0.893353  1
  Li  Li2  1  0.519053  0.493759  0.660511  1
  Li  Li3  1  0.746074  0.761092  0.155983  1
  Li  Li4  1  0.473603  0.464051  0.405176  1
  Fe  Fe5  1  0.973959  0.646312  0.382199  1
  Fe  Fe6  1  0.738820  0.070022  0.882350  1
  Fe  Fe7  1  0.505137  0.851597  0.629542  1
  Fe  Fe8  1  0.764646  0.425340  0.129861  1
  Fe  Fe9  1  0.229870  0.546659  0.884358  1
  Fe  Fe10  1  0.460677  0.149646  0.375639  1
  Fe  Fe11  1  0.038045  0.337288  0.630810  1
  Fe  Fe12  1  0.270865  0.945537  0.127292  1
  B  B13  1  0.975881  0.313804  0.374398  1
  B  B14  1  0.733653  0.394950  0.876608  1
  B  B15  1  0.539778  0.187745  0.627767  1
  B  B16  1  0.771538  0.104374  0.133983  1
  B  B17  1  0.470662  0.811391  0.381923  1
  B  B18  1  0.235091  0.892650  0.878460  1
  B  B19  1  0.006406  0.679805  0.628101  1
  B  B20  1  0.262468  0.607850  0.127543  1
  O  O21  1  0.966582  0.895632  0.886672  1
  O  O22  1  0.894586  0.280701  0.852696  1
  O  O23  1  0.827554  0.498384  0.927960  1
  O  O24  1  0.859453  0.803894  0.637703  1
  O  O25  1  0.905292  0.564253  0.594436  1
  O  O26  1  0.747215  0.157190  0.690295  1
  O  O27  1  0.738977  0.350429  0.328365  1
  O  O28  1  0.495532  0.412034  0.845928  1
  O  O29  1  0.379528  0.788005  0.829793  1
  O  O30  1  0.584566  0.912126  0.429218  1
  O  O31  1  0.607937  0.689664  0.358957  1
  O  O32  1  0.368430  0.985305  0.922059  1
  O  O33  1  0.667701  0.001629  0.083892  1
  O  O34  1  0.428588  0.333415  0.600382  1
  O  O35  1  0.451427  0.076875  0.585390  1
  O  O36  1  0.606969  0.216643  0.162413  1
  O  O37  1  0.534827  0.604218  0.118953  1
  O  O38  1  0.258058  0.667859  0.655907  1
  O  O39  1  0.227051  0.839732  0.355005  1
  O  O40  1  0.088847  0.421131  0.413740  1
  O  O41  1  0.083798  0.174816  0.383867  1
  O  O42  1  0.135295  0.506522  0.088152  1
  O  O43  1  0.120009  0.715848  0.168201  1
  O  O44  1  0.009006  0.090022  0.161888  1
