# generated using pymatgen
data_Li2Cu7F16
_symmetry_space_group_name_H-M   'P 1'
_cell_length_a   6.38934489
_cell_length_b   8.97272031
_cell_length_c   6.37901083
_cell_angle_alpha   88.88208328
_cell_angle_beta   60.58272516
_cell_angle_gamma   110.81098885
_symmetry_Int_Tables_number   1
_chemical_formula_structural   Li2Cu7F16
_chemical_formula_sum   'Li2 Cu7 F16'
_cell_volume   289.19514851
_cell_formula_units_Z   1
loop_
 _symmetry_equiv_pos_site_id
 _symmetry_equiv_pos_as_xyz
  1  'x, y, z'
loop_
 _atom_site_type_symbol
 _atom_site_label
 _atom_site_symmetry_multiplicity
 _atom_site_fract_x
 _atom_site_fract_y
 _atom_site_fract_z
 _atom_site_occupancy
  Li  Li0  1  0.649737  0.010277  0.687570  1
  Li  Li1  1  0.349560  0.989813  0.313349  1
  Cu  Cu2  1  0.578560  0.342260  0.905061  1
  Cu  Cu3  1  0.862900  0.339444  0.240825  1
  Cu  Cu4  1  0.761712  0.657210  0.471885  1
  Cu  Cu5  1  0.000088  0.000144  0.999823  1
  Cu  Cu6  1  0.239078  0.342872  0.527869  1
  Cu  Cu7  1  0.136892  0.660474  0.759300  1
  Cu  Cu8  1  0.421450  0.657743  0.095077  1
  F  F9  1  0.838088  0.249661  0.579305  1
  F  F10  1  0.758282  0.581000  0.865374  1
  F  F11  1  0.770723  0.112256  0.229047  1
  F  F12  1  0.358614  0.112374  0.996449  1
  F  F13  1  0.960234  0.580046  0.175468  1
  F  F14  1  0.555239  0.418439  0.624634  1
  F  F15  1  0.893071  0.884430  0.323020  1
  F  F16  1  0.525937  0.294358  0.243745  1
  F  F17  1  0.474177  0.705666  0.756255  1
  F  F18  1  0.106822  0.115437  0.676465  1
  F  F19  1  0.444261  0.581686  0.375525  1
  F  F20  1  0.039881  0.419753  0.824757  1
  F  F21  1  0.641255  0.887572  0.003296  1
  F  F22  1  0.229388  0.887570  0.770690  1
  F  F23  1  0.242500  0.419021  0.134396  1
  F  F24  1  0.161551  0.750493  0.420816  1
