# generated using pymatgen
data_LiNiPO4
_symmetry_space_group_name_H-M   'P 1'
_cell_length_a   4.94348975
_cell_length_b   8.23950944
_cell_length_c   4.94348957
_cell_angle_alpha   72.54317988
_cell_angle_beta   59.99999693
_cell_angle_gamma   89.99999709
_symmetry_Int_Tables_number   1
_chemical_formula_structural   LiNiPO4
_chemical_formula_sum   'Li2 Ni2 P2 O8'
_cell_volume   163.58487492
_cell_formula_units_Z   2
loop_
 _symmetry_equiv_pos_site_id
 _symmetry_equiv_pos_as_xyz
  1  'x, y, z'
loop_
 _atom_site_type_symbol
 _atom_site_label
 _atom_site_symmetry_multiplicity
 _atom_site_fract_x
 _atom_site_fract_y
 _atom_site_fract_z
 _atom_site_occupancy
  Li  Li0  1  0.439548  0.318645  0.120903  1
  Li  Li1  1  0.135905  0.407713  0.728191  1
  Ni  Ni2  1  0.014468  0.043403  0.971065  1
  Ni  Ni3  1  0.561018  0.683055  0.877963  1
  P  P4  1  0.866433  0.599298  0.267135  1
  P  P5  1  0.709080  0.127239  0.581841  1
  O  O6  1  0.157680  0.534741  0.029069  1
  O  O7  1  0.011571  0.191823  0.570676  1
  O  O8  1  0.563811  0.534741  0.278510  1
  O  O9  1  0.417753  0.191823  0.819748  1
  O  O10  1  0.762499  0.191823  0.225929  1
  O  O11  1  0.932430  0.797290  0.135140  1
  O  O12  1  0.643083  0.929250  0.713833  1
  O  O13  1  0.813251  0.534741  0.622938  1
