# generated using pymatgen
data_Li2Mn3CuO8
_symmetry_space_group_name_H-M   'P 1'
_cell_length_a   5.81911081
_cell_length_b   5.82266097
_cell_length_c   9.67334872
_cell_angle_alpha   87.36334492
_cell_angle_beta   91.31878773
_cell_angle_gamma   120.02017992
_symmetry_Int_Tables_number   1
_chemical_formula_structural   Li2Mn3CuO8
_chemical_formula_sum   'Li4 Mn6 Cu2 O16'
_cell_volume   283.48967591
_cell_formula_units_Z   2
loop_
 _symmetry_equiv_pos_site_id
 _symmetry_equiv_pos_as_xyz
  1  'x, y, z'
loop_
 _atom_site_type_symbol
 _atom_site_label
 _atom_site_symmetry_multiplicity
 _atom_site_fract_x
 _atom_site_fract_y
 _atom_site_fract_z
 _atom_site_occupancy
  Li  Li0  1  0.333405  0.657435  0.890539  1
  Li  Li1  1  0.999610  0.012990  0.996575  1
  Li  Li2  1  0.000390  0.013380  0.496575  1
  Li  Li3  1  0.666595  0.324030  0.390539  1
  Mn  Mn4  1  0.167702  0.832382  0.215494  1
  Mn  Mn5  1  0.170619  0.338775  0.214448  1
  Mn  Mn6  1  0.662933  0.830267  0.215187  1
  Mn  Mn7  1  0.337067  0.167335  0.715187  1
  Mn  Mn8  1  0.832298  0.664680  0.715494  1
  Mn  Mn9  1  0.829381  0.168156  0.714448  1
  Cu  Cu10  1  0.332559  0.669002  0.493812  1
  Cu  Cu11  1  0.667441  0.336443  0.993812  1
  O  O12  1  0.156879  0.849303  0.607637  1
  O  O13  1  0.036086  0.508750  0.330575  1
  O  O14  1  0.332860  0.675076  0.108373  1
  O  O15  1  0.000337  0.994057  0.312134  1
  O  O16  1  0.999663  0.993720  0.812134  1
  O  O17  1  0.159391  0.325030  0.604541  1
  O  O18  1  0.481475  0.953865  0.335191  1
  O  O19  1  0.484511  0.506034  0.324202  1
  O  O20  1  0.316293  0.164514  0.105212  1
  O  O21  1  0.683707  0.848221  0.605212  1
  O  O22  1  0.518525  0.472390  0.835191  1
  O  O23  1  0.515489  0.021523  0.824202  1
  O  O24  1  0.667140  0.342217  0.608373  1
  O  O25  1  0.843121  0.692423  0.107637  1
  O  O26  1  0.963914  0.472664  0.830575  1
  O  O27  1  0.840609  0.165638  0.104541  1
