# generated using pymatgen
data_Li5Mn2Fe17O32
_symmetry_space_group_name_H-M   'P 1'
_cell_length_a   8.45437883
_cell_length_b   8.47448208
_cell_length_c   8.47731798
_cell_angle_alpha   89.86842164
_cell_angle_beta   90.00141403
_cell_angle_gamma   89.91282532
_symmetry_Int_Tables_number   1
_chemical_formula_structural   Li5Mn2Fe17O32
_chemical_formula_sum   'Li5 Mn2 Fe17 O32'
_cell_volume   607.36770449
_cell_formula_units_Z   1
loop_
 _symmetry_equiv_pos_site_id
 _symmetry_equiv_pos_as_xyz
  1  'x, y, z'
loop_
 _atom_site_type_symbol
 _atom_site_label
 _atom_site_symmetry_multiplicity
 _atom_site_fract_x
 _atom_site_fract_y
 _atom_site_fract_z
 _atom_site_occupancy
  Li  Li0  1  0.996052  0.497743  0.496518  1
  Li  Li1  1  0.124783  0.871175  0.375777  1
  Li  Li2  1  0.375902  0.124853  0.873972  1
  Li  Li3  1  0.627304  0.624379  0.625236  1
  Li  Li4  1  0.875538  0.376580  0.129307  1
  Mn  Mn5  1  0.127400  0.124975  0.626317  1
  Mn  Mn6  1  0.123280  0.625645  0.130180  1
  Fe  Fe7  1  0.997640  0.996751  0.997233  1
  Fe  Fe8  1  0.125801  0.369883  0.877420  1
  Fe  Fe9  1  0.250568  0.255099  0.256555  1
  Fe  Fe10  1  0.247342  0.752430  0.750930  1
  Fe  Fe11  1  0.377818  0.375127  0.630714  1
  Fe  Fe12  1  0.370805  0.629698  0.379782  1
  Fe  Fe13  1  0.371301  0.881740  0.125889  1
  Fe  Fe14  1  0.498089  0.000416  0.497263  1
  Fe  Fe15  1  0.498058  0.499027  0.000128  1
  Fe  Fe16  1  0.625098  0.130593  0.119700  1
  Fe  Fe17  1  0.637996  0.381979  0.376550  1
  Fe  Fe18  1  0.619446  0.875473  0.869318  1
  Fe  Fe19  1  0.754427  0.251134  0.748772  1
  Fe  Fe20  1  0.755016  0.750024  0.252189  1
  Fe  Fe21  1  0.879944  0.129865  0.369495  1
  Fe  Fe22  1  0.869893  0.619014  0.868592  1
  Fe  Fe23  1  0.874100  0.862449  0.618389  1
  O  O24  1  0.119057  0.128998  0.392704  1
  O  O25  1  0.118269  0.616801  0.889648  1
  O  O26  1  0.129825  0.391815  0.116611  1
  O  O27  1  0.117608  0.894170  0.627085  1
  O  O28  1  0.123308  0.130465  0.860520  1
  O  O29  1  0.137812  0.351125  0.639459  1
  O  O30  1  0.138099  0.628559  0.348489  1
  O  O31  1  0.133233  0.858834  0.120355  1
  O  O32  1  0.356718  0.129870  0.623666  1
  O  O33  1  0.359220  0.634327  0.130367  1
  O  O34  1  0.365926  0.374689  0.866343  1
  O  O35  1  0.375312  0.866039  0.364382  1
  O  O36  1  0.385520  0.384718  0.386706  1
  O  O37  1  0.377536  0.116591  0.127610  1
  O  O38  1  0.383515  0.873822  0.884526  1
  O  O39  1  0.366457  0.616716  0.615779  1
  O  O40  1  0.613879  0.370338  0.618094  1
  O  O41  1  0.615016  0.617727  0.369538  1
  O  O42  1  0.627448  0.116593  0.883341  1
  O  O43  1  0.616137  0.883664  0.115966  1
  O  O44  1  0.631803  0.129995  0.365388  1
  O  O45  1  0.620860  0.364604  0.133049  1
  O  O46  1  0.633032  0.635107  0.881396  1
  O  O47  1  0.631900  0.880726  0.634517  1
  O  O48  1  0.859039  0.355303  0.370458  1
  O  O49  1  0.863835  0.866919  0.867019  1
  O  O50  1  0.871635  0.119548  0.133789  1
  O  O51  1  0.876465  0.639069  0.640424  1
  O  O52  1  0.892848  0.117755  0.618622  1
  O  O53  1  0.895424  0.627572  0.117954  1
  O  O54  1  0.886542  0.382752  0.876821  1
  O  O55  1  0.873124  0.888735  0.383148  1
