# generated using pymatgen
data_Li3SiNiO5
_symmetry_space_group_name_H-M   'P 1'
_cell_length_a   5.00696548
_cell_length_b   5.75887014
_cell_length_c   6.32753888
_cell_angle_alpha   105.56562492
_cell_angle_beta   96.44477661
_cell_angle_gamma   108.13075764
_symmetry_Int_Tables_number   1
_chemical_formula_structural   Li3SiNiO5
_chemical_formula_sum   'Li6 Si2 Ni2 O10'
_cell_volume   163.16997165
_cell_formula_units_Z   2
loop_
 _symmetry_equiv_pos_site_id
 _symmetry_equiv_pos_as_xyz
  1  'x, y, z'
loop_
 _atom_site_type_symbol
 _atom_site_label
 _atom_site_symmetry_multiplicity
 _atom_site_fract_x
 _atom_site_fract_y
 _atom_site_fract_z
 _atom_site_occupancy
  Li  Li0  1  0.796091  0.599465  0.600330  1
  Li  Li1  1  0.400000  0.300000  0.800000  1
  Li  Li2  1  0.593530  0.196352  0.195664  1
  Li  Li3  1  0.400000  0.800000  0.800000  1
  Li  Li4  1  0.206470  0.403648  0.404336  1
  Li  Li5  1  0.003909  0.000535  0.999670  1
  Si  Si6  1  0.801438  0.102290  0.601709  1
  Si  Si7  1  0.998562  0.497710  0.998291  1
  Ni  Ni8  1  0.599886  0.698573  0.200113  1
  Ni  Ni9  1  0.200114  0.901427  0.399887  1
  O  O10  1  0.916948  0.554968  0.274438  1
  O  O11  1  0.883052  0.045032  0.325562  1
  O  O12  1  0.741174  0.168211  0.886250  1
  O  O13  1  0.729281  0.633485  0.927319  1
  O  O14  1  0.527701  0.779313  0.502905  1
  O  O15  1  0.520642  0.216583  0.506432  1
  O  O16  1  0.058826  0.431789  0.713750  1
  O  O17  1  0.279358  0.383417  0.093568  1
  O  O18  1  0.272299  0.820687  0.097095  1
  O  O19  1  0.070719  0.966515  0.672681  1
