# generated using pymatgen
data_Li2CrFe3O8
_symmetry_space_group_name_H-M   'P 1'
_cell_length_a   8.45197364
_cell_length_b   8.44972939
_cell_length_c   8.38566470
_cell_angle_alpha   90.00236444
_cell_angle_beta   89.99523845
_cell_angle_gamma   89.84717560
_symmetry_Int_Tables_number   1
_chemical_formula_structural   Li2CrFe3O8
_chemical_formula_sum   'Li8 Cr4 Fe12 O32'
_cell_volume   598.87596178
_cell_formula_units_Z   4
loop_
 _symmetry_equiv_pos_site_id
 _symmetry_equiv_pos_as_xyz
  1  'x, y, z'
loop_
 _atom_site_type_symbol
 _atom_site_label
 _atom_site_symmetry_multiplicity
 _atom_site_fract_x
 _atom_site_fract_y
 _atom_site_fract_z
 _atom_site_occupancy
  Li  Li0  1  0.001703  0.000429  0.003706  1
  Li  Li1  1  0.249625  0.248456  0.246378  1
  Li  Li2  1  0.250298  0.751363  0.746201  1
  Li  Li3  1  0.498382  -0.000360  0.503813  1
  Li  Li4  1  0.500475  0.498985  0.002266  1
  Li  Li5  1  0.748824  0.250441  0.747823  1
  Li  Li6  1  0.751232  0.749305  0.247826  1
  Li  Li7  1  -0.000352  0.501167  0.502209  1
  Cr  Cr8  1  0.126151  0.876125  0.374971  1
  Cr  Cr9  1  0.373616  0.123664  0.874913  1
  Cr  Cr10  1  0.623038  0.626623  0.625019  1
  Cr  Cr11  1  0.877124  0.373253  0.125389  1
  Fe  Fe12  1  0.126893  0.123477  0.624720  1
  Fe  Fe13  1  0.124792  0.374682  0.877477  1
  Fe  Fe14  1  0.123565  0.625080  0.124477  1
  Fe  Fe15  1  0.376271  0.375041  0.623947  1
  Fe  Fe16  1  0.375486  0.625369  0.377323  1
  Fe  Fe17  1  0.373023  0.876546  0.124846  1
  Fe  Fe18  1  0.624156  0.374191  0.374997  1
  Fe  Fe19  1  0.624812  0.126469  0.125397  1
  Fe  Fe20  1  0.624575  0.874228  0.872797  1
  Fe  Fe21  1  0.875344  0.125421  0.372626  1
  Fe  Fe22  1  0.875140  0.873804  0.625697  1
  Fe  Fe23  1  0.875822  0.625992  0.875028  1
  O  O24  1  0.115014  0.111697  0.385014  1
  O  O25  1  0.113774  0.889900  0.610450  1
  O  O26  1  0.116247  0.613391  0.885503  1
  O  O27  1  0.138271  0.134761  0.864877  1
  O  O28  1  0.116934  0.383666  0.106341  1
  O  O29  1  0.135481  0.363429  0.644374  1
  O  O30  1  0.138699  0.639788  0.365613  1
  O  O31  1  0.138968  0.863485  0.139581  1
  O  O32  1  0.360875  0.136492  0.639584  1
  O  O33  1  0.360168  0.360868  0.865560  1
  O  O34  1  0.364333  0.636239  0.145076  1
  O  O35  1  0.383118  0.616300  0.605814  1
  O  O36  1  0.361696  0.865294  0.364798  1
  O  O37  1  0.383901  0.386450  0.385389  1
  O  O38  1  0.386260  0.110281  0.110560  1
  O  O39  1  0.384752  0.888207  0.885208  1
  O  O40  1  0.608854  0.389636  0.615109  1
  O  O41  1  0.608652  0.614576  0.386104  1
  O  O42  1  0.614197  0.885807  0.104554  1
  O  O43  1  0.639930  0.358587  0.134863  1
  O  O44  1  0.609724  0.112022  0.884788  1
  O  O45  1  0.636826  0.133687  0.364174  1
  O  O46  1  0.633500  0.866669  0.644703  1
  O  O47  1  0.635774  0.640441  0.863912  1
  O  O48  1  0.864477  0.358533  0.364181  1
  O  O49  1  0.866494  0.133379  0.144477  1
  O  O50  1  0.863457  0.866430  0.864304  1
  O  O51  1  0.889561  0.889061  0.384691  1
  O  O52  1  0.860344  0.641529  0.634858  1
  O  O53  1  0.886023  0.114377  0.604754  1
  O  O54  1  0.892503  0.385192  0.885961  1
  O  O55  1  0.891197  0.610216  0.115120  1
