# generated using pymatgen
data_LiMn3Al2(HO2)6
_symmetry_space_group_name_H-M   'P 1'
_cell_length_a   9.65574535
_cell_length_b   5.98323125
_cell_length_c   7.83424701
_cell_angle_alpha   101.92835407
_cell_angle_beta   86.35710602
_cell_angle_gamma   81.45668562
_symmetry_Int_Tables_number   1
_chemical_formula_structural   LiMn3Al2(HO2)6
_chemical_formula_sum   'Li2 Mn6 Al4 H12 O24'
_cell_volume   435.83528230
_cell_formula_units_Z   2
loop_
 _symmetry_equiv_pos_site_id
 _symmetry_equiv_pos_as_xyz
  1  'x, y, z'
loop_
 _atom_site_type_symbol
 _atom_site_label
 _atom_site_symmetry_multiplicity
 _atom_site_fract_x
 _atom_site_fract_y
 _atom_site_fract_z
 _atom_site_occupancy
  Li  Li0  1  0.500537  0.258830  0.510921  1
  Li  Li1  1  0.499441  0.574466  0.822288  1
  Mn  Mn2  1  0.000061  0.000537  0.001250  1
  Mn  Mn3  1  0.000358  0.164381  0.667196  1
  Mn  Mn4  1  0.003769  0.330474  0.332029  1
  Mn  Mn5  1  0.999714  0.669020  0.666246  1
  Mn  Mn6  1  0.996134  0.502996  0.001511  1
  Mn  Mn7  1  0.999846  0.832723  0.332235  1
  Al  Al8  1  0.496999  0.085716  0.828758  1
  Al  Al9  1  0.499983  0.416654  0.166616  1
  Al  Al10  1  0.503002  0.747536  0.504467  1
  Al  Al11  1  0.500018  0.916656  0.166610  1
  H  H12  1  0.300513  0.007366  0.408828  1
  H  H13  1  0.286830  0.195412  0.084821  1
  H  H14  1  0.290210  0.341654  0.754814  1
  H  H15  1  0.703567  0.136349  0.243421  1
  H  H16  1  0.704179  0.285962  0.931070  1
  H  H17  1  0.295752  0.547374  0.402325  1
  H  H18  1  0.709766  0.491742  0.578447  1
  H  H19  1  0.296382  0.697016  0.089857  1
  H  H20  1  0.290760  0.876514  0.735831  1
  H  H21  1  0.713158  0.637776  0.248586  1
  H  H22  1  0.699514  0.826003  0.924305  1
  H  H23  1  0.709344  0.956662  0.597454  1
  O  O24  1  0.404201  0.977547  0.392139  1
  O  O25  1  0.107345  0.062508  0.442824  1
  O  O26  1  0.392176  0.167724  0.074646  1
  O  O27  1  0.109728  0.230448  0.103831  1
  O  O28  1  0.097421  0.418861  0.764180  1
  O  O29  1  0.392192  0.317218  0.750790  1
  O  O30  1  0.897578  0.077611  0.233800  1
  O  O31  1  0.600552  0.163853  0.248871  1
  O  O32  1  0.896310  0.243885  0.903938  1
  O  O33  1  0.600843  0.316745  0.942498  1
  O  O34  1  0.103826  0.590045  0.430035  1
  O  O35  1  0.399129  0.516563  0.390714  1
  O  O36  1  0.902527  0.414679  0.568929  1
  O  O37  1  0.607793  0.516060  0.582436  1
  O  O38  1  0.399411  0.669498  0.084356  1
  O  O39  1  0.102138  0.755119  0.099388  1
  O  O40  1  0.102334  0.918022  0.766564  1
  O  O41  1  0.393809  0.849897  0.723978  1
  O  O42  1  0.890265  0.602466  0.230237  1
  O  O43  1  0.607811  0.665560  0.258566  1
  O  O44  1  0.892331  0.771354  0.890057  1
  O  O45  1  0.595786  0.855756  0.941096  1
  O  O46  1  0.897831  0.915385  0.567004  1
  O  O47  1  0.606222  0.983378  0.609235  1
