# generated using pymatgen
data_Fe5O7F3
_symmetry_space_group_name_H-M   'P 1'
_cell_length_a   4.65852387
_cell_length_b   4.65534940
_cell_length_c   15.20782164
_cell_angle_alpha   89.99779373
_cell_angle_beta   90.02424310
_cell_angle_gamma   89.83884844
_symmetry_Int_Tables_number   1
_chemical_formula_structural   Fe5O7F3
_chemical_formula_sum   'Fe10 O14 F6'
_cell_volume   329.81154981
_cell_formula_units_Z   2
loop_
 _symmetry_equiv_pos_site_id
 _symmetry_equiv_pos_as_xyz
  1  'x, y, z'
loop_
 _atom_site_type_symbol
 _atom_site_label
 _atom_site_symmetry_multiplicity
 _atom_site_fract_x
 _atom_site_fract_y
 _atom_site_fract_z
 _atom_site_occupancy
  Fe  Fe0  1  0.997886  0.993530  0.001468  1
  Fe  Fe1  1  0.018457  0.033814  0.206379  1
  Fe  Fe2  1  0.973105  0.972273  0.400050  1
  Fe  Fe3  1  0.035774  0.017024  0.593245  1
  Fe  Fe4  1  0.009505  0.981067  0.798861  1
  Fe  Fe5  1  0.519018  0.465186  0.093849  1
  Fe  Fe6  1  0.503843  0.494964  0.501527  1
  Fe  Fe7  1  0.495626  0.502581  0.298350  1
  Fe  Fe8  1  0.472105  0.513246  0.705536  1
  Fe  Fe9  1  0.477876  0.516898  0.899904  1
  O  O10  1  0.192466  0.800221  0.299843  1
  O  O11  1  0.196989  0.793381  0.497250  1
  O  O12  1  0.191945  0.823893  0.696533  1
  O  O13  1  0.177879  0.810507  0.903620  1
  O  O14  1  0.302002  0.298587  0.997072  1
  O  O15  1  0.326460  0.314191  0.199102  1
  O  O16  1  0.318643  0.321338  0.600001  1
  O  O17  1  0.291580  0.309755  0.804202  1
  O  O18  1  0.693787  0.689881  0.998345  1
  O  O19  1  0.676165  0.675688  0.399764  1
  O  O20  1  0.684304  0.700785  0.802953  1
  O  O21  1  0.828844  0.181793  0.100081  1
  O  O22  1  0.802584  0.191159  0.500094  1
  O  O23  1  0.795051  0.196015  0.302211  1
  F  F24  1  0.213391  0.798655  0.103608  1
  F  F25  1  0.292496  0.291288  0.399753  1
  F  F26  1  0.711708  0.698190  0.196104  1
  F  F27  1  0.704193  0.707713  0.603186  1
  F  F28  1  0.793806  0.197499  0.898622  1
  F  F29  1  0.802516  0.208879  0.698486  1
