# generated using pymatgen
data_BaYBr5
_symmetry_space_group_name_H-M   'P 1'
_cell_length_a   10.63141206
_cell_length_b   10.63141206
_cell_length_c   7.25277656
_cell_angle_alpha   89.04764815
_cell_angle_beta   90.95235185
_cell_angle_gamma   32.47850631
_symmetry_Int_Tables_number   1
_chemical_formula_structural   BaYBr5
_chemical_formula_sum   'Ba2 Y2 Br10'
_cell_volume   439.41861815
_cell_formula_units_Z   2
loop_
 _symmetry_equiv_pos_site_id
 _symmetry_equiv_pos_as_xyz
  1  'x, y, z'
loop_
 _atom_site_type_symbol
 _atom_site_label
 _atom_site_symmetry_multiplicity
 _atom_site_fract_x
 _atom_site_fract_y
 _atom_site_fract_z
 _atom_site_occupancy
  Ba  Ba0  1  0.672015  0.672015  0.750000  1
  Ba  Ba1  1  0.327985  0.327985  0.250000  1
  Y  Y2  1  0.923309  0.923309  0.750000  1
  Y  Y3  1  0.076691  0.076691  0.250000  1
  Br  Br4  1  0.274746  0.788689  0.596434  1
  Br  Br5  1  0.211311  0.725254  0.096434  1
  Br  Br6  1  0.195071  0.181470  0.998181  1
  Br  Br7  1  0.371385  0.371385  0.750000  1
  Br  Br8  1  0.181470  0.195071  0.501819  1
  Br  Br9  1  0.818529  0.804929  0.498181  1
  Br  Br10  1  0.628615  0.628615  0.250000  1
  Br  Br11  1  0.804929  0.818529  0.001819  1
  Br  Br12  1  0.788689  0.274746  0.903566  1
  Br  Br13  1  0.725254  0.211311  0.403566  1
