# generated using pymatgen
data_LiZnFe7O12
_symmetry_space_group_name_H-M   'P 1'
_cell_length_a   6.03899070
_cell_length_b   6.03899070
_cell_length_c   15.96359453
_cell_angle_alpha   78.86946624
_cell_angle_beta   79.29106552
_cell_angle_gamma   119.95042771
_symmetry_Int_Tables_number   1
_chemical_formula_structural   LiZnFe7O12
_chemical_formula_sum   'Li2 Zn2 Fe14 O24'
_cell_volume   466.88588285
_cell_formula_units_Z   2
loop_
 _symmetry_equiv_pos_site_id
 _symmetry_equiv_pos_as_xyz
  1  'x, y, z'
loop_
 _atom_site_type_symbol
 _atom_site_label
 _atom_site_symmetry_multiplicity
 _atom_site_fract_x
 _atom_site_fract_y
 _atom_site_fract_z
 _atom_site_occupancy
  Li  Li0  1  0.248481  0.249414  0.751053  1
  Li  Li1  1  0.251906  0.917989  0.415053  1
  Zn  Zn2  1  0.623316  0.292855  0.041915  1
  Zn  Zn3  1  0.620422  0.959213  0.210183  1
  Fe  Fe4  1  0.002244  0.000965  0.998395  1
  Fe  Fe5  1  0.619807  0.452478  0.208573  1
  Fe  Fe6  1  0.241645  0.588043  0.085156  1
  Fe  Fe7  1  0.624661  0.617290  0.379024  1
  Fe  Fe8  1  0.620026  0.296687  0.541644  1
  Fe  Fe9  1  0.005111  0.324947  0.334971  1
  Fe  Fe10  1  0.130377  0.963048  0.208573  1
  Fe  Fe11  1  0.137351  0.298855  0.540173  1
  Fe  Fe12  1  0.620801  0.782304  0.540173  1
  Fe  Fe13  1  0.625863  0.122996  0.873112  1
  Fe  Fe14  1  0.621133  0.954428  0.712220  1
  Fe  Fe15  1  0.625722  0.628678  0.872799  1
  Fe  Fe16  1  0.001186  0.669371  0.664721  1
  Fe  Fe17  1  0.130781  0.627913  0.873112  1
  O  O18  1  0.870763  0.017882  0.292812  1
  O  O19  1  0.858775  0.376719  0.126231  1
  O  O20  1  0.372582  0.368891  0.129264  1
  O  O21  1  0.382709  0.062639  0.277326  1
  O  O22  1  0.868292  0.197768  0.466970  1
  O  O23  1  0.870964  0.549912  0.289562  1
  O  O24  1  0.872077  0.866962  0.130480  1
  O  O25  1  0.396494  0.543614  0.292812  1
  O  O26  1  0.867131  0.359125  0.623307  1
  O  O27  1  0.843270  0.687111  0.463258  1
  O  O28  1  0.370820  0.888763  0.126231  1
  O  O29  1  0.386375  0.230216  0.463258  1
  O  O30  1  0.837612  0.019446  0.796685  1
  O  O31  1  0.388056  0.689184  0.461381  1
  O  O32  1  0.385560  0.020030  0.797205  1
  O  O33  1  0.384020  0.387066  0.614458  1
  O  O34  1  0.874044  0.221035  0.952460  1
  O  O35  1  0.870619  0.534785  0.797298  1
  O  O36  1  0.867961  0.886136  0.622951  1
  O  O37  1  0.396198  0.223719  0.951366  1
  O  O38  1  0.394262  0.886255  0.623307  1
  O  O39  1  0.873547  0.701068  0.951366  1
  O  O40  1  0.387184  0.569019  0.796685  1
  O  O41  1  0.379857  0.715182  0.952481  1
