# generated using pymatgen
data_Li2VCrO4
_symmetry_space_group_name_H-M   'P 1'
_cell_length_a   5.16929171
_cell_length_b   5.99799546
_cell_length_c   7.87453476
_cell_angle_alpha   79.17740403
_cell_angle_beta   77.10468000
_cell_angle_gamma   73.28698279
_symmetry_Int_Tables_number   1
_chemical_formula_structural   Li2VCrO4
_chemical_formula_sum   'Li6 V3 Cr3 O12'
_cell_volume   225.93564513
_cell_formula_units_Z   3
loop_
 _symmetry_equiv_pos_site_id
 _symmetry_equiv_pos_as_xyz
  1  'x, y, z'
loop_
 _atom_site_type_symbol
 _atom_site_label
 _atom_site_symmetry_multiplicity
 _atom_site_fract_x
 _atom_site_fract_y
 _atom_site_fract_z
 _atom_site_occupancy
  Li  Li0  1  0.999984  0.000018  0.000013  1
  Li  Li1  1  0.002755  0.162104  0.335742  1
  Li  Li2  1  -0.000000  0.500009  0.000005  1
  Li  Li3  1  0.002663  0.327390  0.667461  1
  Li  Li4  1  0.997350  0.672633  0.332518  1
  Li  Li5  1  0.997247  0.837916  0.664245  1
  V  V6  1  0.499620  0.336410  0.166607  1
  V  V7  1  0.500013  0.499983  0.499980  1
  V  V8  1  0.500391  0.663558  0.833414  1
  Cr  Cr9  1  0.500010  0.000020  0.499980  1
  Cr  Cr10  1  0.500857  0.162636  0.833032  1
  Cr  Cr11  1  0.499141  0.837362  0.167007  1
  O  O12  1  0.723877  0.008666  0.252385  1
  O  O13  1  0.274014  0.160973  0.079990  1
  O  O14  1  0.274376  0.327324  0.416289  1
  O  O15  1  0.727393  0.165185  0.587083  1
  O  O16  1  0.273044  0.664436  0.082365  1
  O  O17  1  0.726600  0.512738  0.252220  1
  O  O18  1  0.273410  0.487253  0.747777  1
  O  O19  1  0.726941  0.335573  0.917618  1
  O  O20  1  0.272606  0.834794  0.412930  1
  O  O21  1  0.725637  0.672673  0.583714  1
  O  O22  1  0.725986  0.839014  0.920001  1
  O  O23  1  0.276091  0.991331  0.747624  1
