# generated using pymatgen
data_Li4VCr(TeO6)2
_symmetry_space_group_name_H-M   'P 1'
_cell_length_a   5.35738819
_cell_length_b   10.72983679
_cell_length_c   9.42295703
_cell_angle_alpha   28.45055395
_cell_angle_beta   51.84236368
_cell_angle_gamma   57.04011430
_symmetry_Int_Tables_number   1
_chemical_formula_structural   Li4VCr(TeO6)2
_chemical_formula_sum   'Li4 V1 Cr1 Te2 O12'
_cell_volume   202.90849018
_cell_formula_units_Z   1
loop_
 _symmetry_equiv_pos_site_id
 _symmetry_equiv_pos_as_xyz
  1  'x, y, z'
loop_
 _atom_site_type_symbol
 _atom_site_label
 _atom_site_symmetry_multiplicity
 _atom_site_fract_x
 _atom_site_fract_y
 _atom_site_fract_z
 _atom_site_occupancy
  Li  Li0  1  0.294079  0.002022  0.275966  1
  Li  Li1  1  0.275003  0.500359  0.294744  1
  Li  Li2  1  0.779018  0.997475  0.792721  1
  Li  Li3  1  0.773985  0.499182  0.765932  1
  V  V4  1  0.000351  0.502999  0.005888  1
  Cr  Cr5  1  0.003164  0.999437  0.000780  1
  Te  Te6  1  0.511339  -0.000278  0.500388  1
  Te  Te7  1  0.492756  0.504235  0.504051  1
  O  O8  1  0.361569  0.305570  0.127028  1
  O  O9  1  0.240113  0.126446  0.614420  1
  O  O10  1  0.136519  0.330074  0.717324  1
  O  O11  1  0.878271  0.197157  0.230485  1
  O  O12  1  0.384402  0.797283  0.129810  1
  O  O13  1  0.753297  0.380377  0.356629  1
  O  O14  1  0.232579  0.624436  0.632256  1
  O  O15  1  0.620082  0.183946  0.867190  1
  O  O16  1  0.124310  0.806418  0.749043  1
  O  O17  1  0.868956  0.686092  0.244222  1
  O  O18  1  0.716118  0.876885  0.382918  1
  O  O19  1  0.625291  0.679884  0.879405  1
