# generated using pymatgen
data_K5NaFe2(CO2)12
_symmetry_space_group_name_H-M   'P 1'
_cell_length_a   13.81398905
_cell_length_b   13.81398905
_cell_length_c   13.81398905
_cell_angle_alpha   90.00000000
_cell_angle_beta   90.00000000
_cell_angle_gamma   90.00000000
_symmetry_Int_Tables_number   1
_chemical_formula_structural   K5NaFe2(CO2)12
_chemical_formula_sum   'K20 Na4 Fe8 C48 O96'
_cell_volume   2636.07232850
_cell_formula_units_Z   4
loop_
 _symmetry_equiv_pos_site_id
 _symmetry_equiv_pos_as_xyz
  1  'x, y, z'
loop_
 _atom_site_type_symbol
 _atom_site_label
 _atom_site_symmetry_multiplicity
 _atom_site_fract_x
 _atom_site_fract_y
 _atom_site_fract_z
 _atom_site_occupancy
  K  K0  1  0.875000  0.741044  0.008956  1
  K  K1  1  0.491044  0.125000  0.241044  1
  K  K2  1  0.330182  0.830182  0.669818  1
  K  K3  1  0.580182  0.580182  0.580182  1
  K  K4  1  0.169818  0.169818  0.169818  1
  K  K5  1  0.258956  0.508956  0.625000  1
  K  K6  1  0.375000  0.758956  0.991044  1
  K  K7  1  0.830182  0.669818  0.330182  1
  K  K8  1  0.125000  0.241044  0.491044  1
  K  K9  1  0.919818  0.419818  0.080182  1
  K  K10  1  0.008956  0.875000  0.741044  1
  K  K11  1  0.741044  0.008956  0.875000  1
  K  K12  1  0.080182  0.919818  0.419818  1
  K  K13  1  0.241044  0.491044  0.125000  1
  K  K14  1  0.625000  0.258956  0.508956  1
  K  K15  1  0.669818  0.330182  0.830182  1
  K  K16  1  0.419818  0.080182  0.919818  1
  K  K17  1  0.758956  0.991044  0.375000  1
  K  K18  1  0.508956  0.625000  0.258956  1
  K  K19  1  0.991044  0.375000  0.758956  1
  Na  Na20  1  0.125000  0.625000  0.875000  1
  Na  Na21  1  0.375000  0.375000  0.375000  1
  Na  Na22  1  0.625000  0.875000  0.125000  1
  Na  Na23  1  0.875000  0.125000  0.625000  1
  Fe  Fe24  1  0.489399  0.989399  0.510601  1
  Fe  Fe25  1  0.739399  0.739399  0.739399  1
  Fe  Fe26  1  0.510601  0.489399  0.989399  1
  Fe  Fe27  1  0.760601  0.260601  0.239399  1
  Fe  Fe28  1  0.989399  0.510601  0.489399  1
  Fe  Fe29  1  0.239399  0.760601  0.260601  1
  Fe  Fe30  1  0.010601  0.010601  0.010601  1
  Fe  Fe31  1  0.260601  0.239399  0.760601  1
  C  C32  1  0.055928  0.640339  0.636190  1
  C  C33  1  0.199637  0.045718  0.729630  1
  C  C34  1  0.979630  0.204282  0.949637  1
  C  C35  1  0.954282  0.229630  0.300363  1
  C  C36  1  0.863810  0.944072  0.140339  1
  C  C37  1  0.694072  0.113810  0.109661  1
  C  C38  1  0.859661  0.363810  0.555928  1
  C  C39  1  0.800363  0.545718  0.770370  1
  C  C40  1  0.613810  0.390339  0.305928  1
  C  C41  1  0.109661  0.694072  0.113810  1
  C  C42  1  0.770370  0.800363  0.545718  1
  C  C43  1  0.444072  0.359661  0.136190  1
  C  C44  1  0.729630  0.199637  0.045718  1
  C  C45  1  0.020370  0.704282  0.550363  1
  C  C46  1  0.454282  0.270370  0.699637  1
  C  C47  1  0.890339  0.194072  0.386190  1
  C  C48  1  0.949637  0.979630  0.204282  1
  C  C49  1  0.699637  0.454282  0.270370  1
  C  C50  1  0.636190  0.055928  0.640339  1
  C  C51  1  0.449637  0.520370  0.795718  1
  C  C52  1  0.270370  0.699637  0.454282  1
  C  C53  1  0.520370  0.795718  0.449637  1
  C  C54  1  0.113810  0.109661  0.694072  1
  C  C55  1  0.390339  0.305928  0.613810  1
  C  C56  1  0.944072  0.140339  0.863810  1
  C  C57  1  0.295718  0.050363  0.479630  1
  C  C58  1  0.386190  0.890339  0.194072  1
  C  C59  1  0.795718  0.449637  0.520370  1
  C  C60  1  0.045718  0.729630  0.199637  1
  C  C61  1  0.479630  0.295718  0.050363  1
  C  C62  1  0.050363  0.479630  0.295718  1
  C  C63  1  0.300363  0.954282  0.229630  1
  C  C64  1  0.886190  0.609661  0.805928  1
  C  C65  1  0.609661  0.805928  0.886190  1
  C  C66  1  0.545718  0.770370  0.800363  1
  C  C67  1  0.305928  0.613810  0.390339  1
  C  C68  1  0.194072  0.386190  0.890339  1
  C  C69  1  0.550363  0.020370  0.704282  1
  C  C70  1  0.229630  0.300363  0.954282  1
  C  C71  1  0.359661  0.136190  0.444072  1
  C  C72  1  0.363810  0.555928  0.859661  1
  C  C73  1  0.555928  0.859661  0.363810  1
  C  C74  1  0.204282  0.949637  0.979630  1
  C  C75  1  0.704282  0.550363  0.020370  1
  C  C76  1  0.640339  0.636190  0.055928  1
  C  C77  1  0.136190  0.444072  0.359661  1
  C  C78  1  0.805928  0.886190  0.609661  1
  C  C79  1  0.140339  0.863810  0.944072  1
  O  O80  1  0.202506  0.707313  0.127054  1
  O  O81  1  0.751067  0.277085  0.093826  1
  O  O82  1  0.735002  0.190246  0.956311  1
  O  O83  1  0.844168  0.958047  0.572289  1
  O  O84  1  0.264998  0.690246  0.543689  1
  O  O85  1  0.458047  0.927711  0.155832  1
  O  O86  1  0.793689  0.559754  0.014998  1
  O  O87  1  0.291953  0.594168  0.822289  1
  O  O88  1  0.042687  0.547494  0.622946  1
  O  O89  1  0.655832  0.041953  0.072289  1
  O  O90  1  0.957313  0.047494  0.877054  1
  O  O91  1  0.122946  0.457313  0.452506  1
  O  O92  1  0.014998  0.793689  0.559754  1
  O  O93  1  0.998933  0.656174  0.472915  1
  O  O94  1  0.677711  0.708047  0.094168  1
  O  O95  1  0.722915  0.593826  0.748933  1
  O  O96  1  0.001067  0.156174  0.027085  1
  O  O97  1  0.309754  0.043689  0.235002  1
  O  O98  1  0.072289  0.655832  0.041953  1
  O  O99  1  0.940246  0.985002  0.293689  1
  O  O100  1  0.093826  0.751067  0.277085  1
  O  O101  1  0.235002  0.309754  0.043689  1
  O  O102  1  0.541953  0.427711  0.344168  1
  O  O103  1  0.594168  0.822289  0.291953  1
  O  O104  1  0.985002  0.293689  0.940246  1
  O  O105  1  0.822289  0.291953  0.594168  1
  O  O106  1  0.248933  0.777085  0.406174  1
  O  O107  1  0.809754  0.456311  0.764998  1
  O  O108  1  0.905832  0.177711  0.791953  1
  O  O109  1  0.707313  0.127054  0.202506  1
  O  O110  1  0.293689  0.940246  0.985002  1
  O  O111  1  0.927711  0.155832  0.458047  1
  O  O112  1  0.958047  0.572289  0.844168  1
  O  O113  1  0.208047  0.405832  0.322289  1
  O  O114  1  0.952506  0.377054  0.542687  1
  O  O115  1  0.542687  0.952506  0.377054  1
  O  O116  1  0.498933  0.843826  0.527085  1
  O  O117  1  0.485002  0.206311  0.059754  1
  O  O118  1  0.322289  0.208047  0.405832  1
  O  O119  1  0.177711  0.791953  0.905832  1
  O  O120  1  0.155832  0.458047  0.927711  1
  O  O121  1  0.127054  0.202506  0.707313  1
  O  O122  1  0.427711  0.344168  0.541953  1
  O  O123  1  0.406174  0.248933  0.777085  1
  O  O124  1  0.906174  0.251067  0.222915  1
  O  O125  1  0.207313  0.372946  0.797494  1
  O  O126  1  0.043689  0.235002  0.309754  1
  O  O127  1  0.452506  0.122946  0.457313  1
  O  O128  1  0.059754  0.485002  0.206311  1
  O  O129  1  0.405832  0.322289  0.208047  1
  O  O130  1  0.797494  0.207313  0.372946  1
  O  O131  1  0.559754  0.014998  0.793689  1
  O  O132  1  0.547494  0.622946  0.042687  1
  O  O133  1  0.472915  0.998933  0.656174  1
  O  O134  1  0.027085  0.001067  0.156174  1
  O  O135  1  0.748933  0.722915  0.593826  1
  O  O136  1  0.702506  0.792687  0.872946  1
  O  O137  1  0.206311  0.059754  0.485002  1
  O  O138  1  0.456311  0.764998  0.809754  1
  O  O139  1  0.344168  0.541953  0.427711  1
  O  O140  1  0.777085  0.406174  0.248933  1
  O  O141  1  0.843826  0.527085  0.498933  1
  O  O142  1  0.041953  0.072289  0.655832  1
  O  O143  1  0.792687  0.872946  0.702506  1
  O  O144  1  0.190246  0.956311  0.735002  1
  O  O145  1  0.690246  0.543689  0.264998  1
  O  O146  1  0.527085  0.498933  0.843826  1
  O  O147  1  0.708047  0.094168  0.677711  1
  O  O148  1  0.047494  0.877054  0.957313  1
  O  O149  1  0.372946  0.797494  0.207313  1
  O  O150  1  0.593826  0.748933  0.722915  1
  O  O151  1  0.457313  0.452506  0.122946  1
  O  O152  1  0.972915  0.501067  0.343826  1
  O  O153  1  0.572289  0.844168  0.958047  1
  O  O154  1  0.156174  0.027085  0.001067  1
  O  O155  1  0.706311  0.440246  0.514998  1
  O  O156  1  0.791953  0.905832  0.177711  1
  O  O157  1  0.297494  0.292687  0.627054  1
  O  O158  1  0.094168  0.677711  0.708047  1
  O  O159  1  0.627054  0.297494  0.292687  1
  O  O160  1  0.377054  0.542687  0.952506  1
  O  O161  1  0.277085  0.093826  0.751067  1
  O  O162  1  0.343826  0.972915  0.501067  1
  O  O163  1  0.501067  0.343826  0.972915  1
  O  O164  1  0.543689  0.264998  0.690246  1
  O  O165  1  0.251067  0.222915  0.906174  1
  O  O166  1  0.222915  0.906174  0.251067  1
  O  O167  1  0.440246  0.514998  0.706311  1
  O  O168  1  0.956311  0.735002  0.190246  1
  O  O169  1  0.622946  0.042687  0.547494  1
  O  O170  1  0.872946  0.702506  0.792687  1
  O  O171  1  0.764998  0.809754  0.456311  1
  O  O172  1  0.877054  0.957313  0.047494  1
  O  O173  1  0.514998  0.706311  0.440246  1
  O  O174  1  0.656174  0.472915  0.998933  1
  O  O175  1  0.292687  0.627054  0.297494  1
