# generated using pymatgen
data_Ca5Ho3Ti5Mn3O24
_symmetry_space_group_name_H-M   'P 1'
_cell_length_a   5.37524881
_cell_length_b   5.61694929
_cell_length_c   15.28231444
_cell_angle_alpha   90.12174707
_cell_angle_beta   89.83424276
_cell_angle_gamma   89.49221150
_symmetry_Int_Tables_number   1
_chemical_formula_structural   Ca5Ho3Ti5Mn3O24
_chemical_formula_sum   'Ca5 Ho3 Ti5 Mn3 O24'
_cell_volume   461.39016022
_cell_formula_units_Z   1
loop_
 _symmetry_equiv_pos_site_id
 _symmetry_equiv_pos_as_xyz
  1  'x, y, z'
loop_
 _atom_site_type_symbol
 _atom_site_label
 _atom_site_symmetry_multiplicity
 _atom_site_fract_x
 _atom_site_fract_y
 _atom_site_fract_z
 _atom_site_occupancy
  Ca  Ca0  1  0.011582  0.949387  0.376280  1
  Ca  Ca1  1  0.013018  0.941932  0.871931  1
  Ca  Ca2  1  0.490514  0.447523  0.376287  1
  Ca  Ca3  1  0.509813  0.546250  0.127142  1
  Ca  Ca4  1  0.991760  0.045872  0.127826  1
  Ho  Ho5  1  0.485127  0.429652  0.871035  1
  Ho  Ho6  1  0.516911  0.572396  0.626351  1
  Ho  Ho7  1  0.978481  0.073053  0.625308  1
  Ti  Ti8  1  0.991498  0.482747  0.998747  1
  Ti  Ti9  1  0.009761  0.497953  0.251454  1
  Ti  Ti10  1  0.007392  0.504519  0.499990  1
  Ti  Ti11  1  0.511007  0.003144  0.250889  1
  Ti  Ti12  1  0.506281  0.976638  0.998375  1
  Mn  Mn13  1  0.002632  0.504347  0.749942  1
  Mn  Mn14  1  0.496305  0.999496  0.749402  1
  Mn  Mn15  1  0.491892  0.005707  0.500625  1
  O  O16  1  0.077443  0.478184  0.123687  1
  O  O17  1  0.112157  0.466190  0.625633  1
  O  O18  1  0.184038  0.197899  0.480043  1
  O  O19  1  0.202343  0.209443  0.270508  1
  O  O20  1  0.212689  0.193288  0.775566  1
  O  O21  1  0.210020  0.218010  0.973203  1
  O  O22  1  0.304167  0.680204  0.773844  1
  O  O23  1  0.286735  0.705906  0.270346  1
  O  O24  1  0.296776  0.680794  0.480568  1
  O  O25  1  0.308420  0.702670  0.971964  1
  O  O26  1  0.418366  0.977382  0.123116  1
  O  O27  1  0.386518  0.967858  0.622306  1
  O  O28  1  0.593000  0.036307  0.877297  1
  O  O29  1  0.578864  0.026142  0.375551  1
  O  O30  1  0.705831  0.301224  0.019061  1
  O  O31  1  0.704504  0.285960  0.228447  1
  O  O32  1  0.708164  0.316923  0.723526  1
  O  O33  1  0.711068  0.314243  0.534045  1
  O  O34  1  0.800045  0.799938  0.021293  1
  O  O35  1  0.785622  0.789524  0.228628  1
  O  O36  1  0.801082  0.800267  0.530151  1
  O  O37  1  0.790027  0.815479  0.718595  1
  O  O38  1  0.914354  0.525759  0.375277  1
  O  O39  1  0.893795  0.529790  0.875764  1
