# generated using pymatgen
data_FeOF
_symmetry_space_group_name_H-M   'P 1'
_cell_length_a   4.77832786
_cell_length_b   14.33523562
_cell_length_c   3.08052509
_cell_angle_alpha   90.00000000
_cell_angle_beta   90.00000000
_cell_angle_gamma   90.76135431
_symmetry_Int_Tables_number   1
_chemical_formula_structural   FeOF
_chemical_formula_sum   'Fe6 O6 F6'
_cell_volume   210.99258220
_cell_formula_units_Z   6
loop_
 _symmetry_equiv_pos_site_id
 _symmetry_equiv_pos_as_xyz
  1  'x, y, z'
loop_
 _atom_site_type_symbol
 _atom_site_label
 _atom_site_symmetry_multiplicity
 _atom_site_fract_x
 _atom_site_fract_y
 _atom_site_fract_z
 _atom_site_occupancy
  Fe  Fe0  1  0.009158  0.999297  0.000000  1
  Fe  Fe1  1  0.005973  0.332606  0.000000  1
  Fe  Fe2  1  0.023025  0.666630  0.000000  1
  Fe  Fe3  1  0.578325  0.165445  0.500000  1
  Fe  Fe4  1  0.437803  0.499568  0.500000  1
  Fe  Fe5  1  0.442285  0.834718  0.500000  1
  O  O6  1  0.173937  0.599560  0.500000  1
  O  O7  1  0.199518  0.939320  0.500000  1
  O  O8  1  0.289675  0.768347  0.000000  1
  O  O9  1  0.298204  0.429123  0.000000  1
  O  O10  1  0.717560  0.238229  0.000000  1
  O  O11  1  0.823581  0.063778  0.500000  1
  F  F12  1  0.204325  0.268043  0.500000  1
  F  F13  1  0.328249  0.109717  0.000000  1
  F  F14  1  0.676888  0.562756  0.000000  1
  F  F15  1  0.692831  0.893127  0.000000  1
  F  F16  1  0.810774  0.401342  0.500000  1
  F  F17  1  0.787888  0.728398  0.500000  1
