# generated using pymatgen
data_LaH12S2NO12
_symmetry_space_group_name_H-M   'P 1'
_cell_length_a   7.33744847
_cell_length_b   22.94113338
_cell_length_c   9.55327408
_cell_angle_alpha   90.00000000
_cell_angle_beta   98.21186143
_cell_angle_gamma   90.00000000
_symmetry_Int_Tables_number   1
_chemical_formula_structural   LaH12S2NO12
_chemical_formula_sum   'La4 H48 S8 N4 O48'
_cell_volume   1591.60841309
_cell_formula_units_Z   4
loop_
 _symmetry_equiv_pos_site_id
 _symmetry_equiv_pos_as_xyz
  1  'x, y, z'
loop_
 _atom_site_type_symbol
 _atom_site_label
 _atom_site_symmetry_multiplicity
 _atom_site_fract_x
 _atom_site_fract_y
 _atom_site_fract_z
 _atom_site_occupancy
  La  La0  1  0.265236  0.397048  0.297030  1
  La  La1  1  0.734764  0.897048  0.202970  1
  La  La2  1  0.734764  0.602952  0.702970  1
  La  La3  1  0.265236  0.102952  0.797030  1
  H  H4  1  0.841344  0.642563  0.960687  1
  H  H5  1  0.158656  0.142563  0.539313  1
  H  H6  1  0.158656  0.357437  0.039313  1
  H  H7  1  0.841344  0.857437  0.460687  1
  H  H8  1  0.162229  0.395995  0.868051  1
  H  H9  1  0.837771  0.895995  0.631949  1
  H  H10  1  0.837771  0.604005  0.131949  1
  H  H11  1  0.162229  0.104005  0.368051  1
  H  H12  1  0.018230  0.368822  0.750732  1
  H  H13  1  0.981770  0.868822  0.749268  1
  H  H14  1  0.981770  0.631178  0.249268  1
  H  H15  1  0.018230  0.131178  0.250732  1
  H  H16  1  0.565240  0.513178  0.860579  1
  H  H17  1  0.434760  0.013178  0.639421  1
  H  H18  1  0.434760  0.486822  0.139421  1
  H  H19  1  0.565240  0.986822  0.360579  1
  H  H20  1  0.454127  0.386479  0.914333  1
  H  H21  1  0.545873  0.886479  0.585667  1
  H  H22  1  0.545873  0.613521  0.085667  1
  H  H23  1  0.454127  0.113521  0.414333  1
  H  H24  1  0.665622  0.383671  0.963505  1
  H  H25  1  0.334378  0.883671  0.536495  1
  H  H26  1  0.334378  0.616329  0.036495  1
  H  H27  1  0.665622  0.116329  0.463505  1
  H  H28  1  0.391253  0.545213  0.206150  1
  H  H29  1  0.608747  0.045213  0.293850  1
  H  H30  1  0.608747  0.454787  0.793850  1
  H  H31  1  0.391253  0.954787  0.706150  1
  H  H32  1  0.139232  0.655174  0.819681  1
  H  H33  1  0.860768  0.155174  0.680319  1
  H  H34  1  0.860768  0.344826  0.180319  1
  H  H35  1  0.139232  0.844826  0.319681  1
  H  H36  1  0.544142  0.307343  0.756247  1
  H  H37  1  0.455858  0.807343  0.743753  1
  H  H38  1  0.455858  0.692657  0.243753  1
  H  H39  1  0.544142  0.192657  0.256247  1
  H  H40  1  0.597099  0.195521  0.675783  1
  H  H41  1  0.402901  0.695521  0.824217  1
  H  H42  1  0.402901  0.804479  0.324217  1
  H  H43  1  0.597099  0.304479  0.175783  1
  H  H44  1  0.931451  0.315813  0.444504  1
  H  H45  1  0.068549  0.815813  0.055496  1
  H  H46  1  0.068549  0.684187  0.555496  1
  H  H47  1  0.931451  0.184187  0.944504  1
  H  H48  1  0.240332  0.281896  0.541268  1
  H  H49  1  0.759668  0.781896  0.958732  1
  H  H50  1  0.759668  0.718104  0.458732  1
  H  H51  1  0.240332  0.218104  0.041268  1
  S  S52  1  0.139044  0.246075  0.443195  1
  S  S53  1  0.860956  0.746075  0.056805  1
  S  S54  1  0.860956  0.753925  0.556805  1
  S  S55  1  0.139044  0.253925  0.943195  1
  S  S56  1  0.774633  0.427963  0.287034  1
  S  S57  1  0.225367  0.927963  0.212966  1
  S  S58  1  0.225367  0.572037  0.712966  1
  S  S59  1  0.774633  0.072037  0.787034  1
  N  N60  1  0.590011  0.265068  0.775454  1
  N  N61  1  0.409989  0.765068  0.724546  1
  N  N62  1  0.409989  0.734932  0.224546  1
  N  N63  1  0.590011  0.234932  0.275454  1
  O  O64  1  0.138789  0.112869  0.264826  1
  O  O65  1  0.861211  0.612869  0.235174  1
  O  O66  1  0.861211  0.887131  0.735174  1
  O  O67  1  0.138789  0.387131  0.764826  1
  O  O68  1  0.027489  0.209945  0.530904  1
  O  O69  1  0.972511  0.709945  0.969096  1
  O  O70  1  0.972511  0.790055  0.469096  1
  O  O71  1  0.027489  0.290055  0.030904  1
  O  O72  1  -0.002796  0.298829  0.371815  1
  O  O73  1  0.002796  0.798829  0.128185  1
  O  O74  1  0.002796  0.701171  0.628185  1
  O  O75  1  -0.002796  0.201171  0.871815  1
  O  O76  1  0.560276  0.262968  0.378439  1
  O  O77  1  0.439724  0.762968  0.121561  1
  O  O78  1  0.439724  0.737032  0.621561  1
  O  O79  1  0.560276  0.237032  0.878439  1
  O  O80  1  0.618761  0.397804  0.343904  1
  O  O81  1  0.381239  0.897804  0.156096  1
  O  O82  1  0.381239  0.602196  0.656096  1
  O  O83  1  0.618761  0.102196  0.843904  1
  O  O84  1  0.386749  0.502288  0.221777  1
  O  O85  1  0.613251  0.002288  0.278223  1
  O  O86  1  0.613251  0.497712  0.778223  1
  O  O87  1  0.386749  0.997712  0.721777  1
  O  O88  1  0.811001  0.383235  0.146251  1
  O  O89  1  0.188999  0.883235  0.353749  1
  O  O90  1  0.188999  0.616765  0.853749  1
  O  O91  1  0.811001  0.116765  0.646251  1
  O  O92  1  0.949003  0.418491  0.388642  1
  O  O93  1  0.050997  0.918491  0.111358  1
  O  O94  1  0.050997  0.581509  0.611358  1
  O  O95  1  0.949003  0.081509  0.888642  1
  O  O96  1  0.627768  0.263423  0.156050  1
  O  O97  1  0.372232  0.763423  0.343950  1
  O  O98  1  0.372232  0.736577  0.843950  1
  O  O99  1  0.627768  0.236577  0.656050  1
  O  O100  1  0.340768  0.310969  0.324759  1
  O  O101  1  0.659232  0.810969  0.175241  1
  O  O102  1  0.659232  0.689031  0.675241  1
  O  O103  1  0.340768  0.189031  0.824759  1
  O  O104  1  0.572962  0.385504  0.877467  1
  O  O105  1  0.427038  0.885504  0.622533  1
  O  O106  1  0.427038  0.614496  0.122533  1
  O  O107  1  0.572962  0.114496  0.377467  1
  O  O108  1  0.236857  0.392653  0.057043  1
  O  O109  1  0.763143  0.892653  0.442957  1
  O  O110  1  0.763143  0.607347  0.942957  1
  O  O111  1  0.236857  0.107347  0.557043  1
