# generated using pymatgen
data_Cr2P4Pb3O16
_symmetry_space_group_name_H-M   'P 1'
_cell_length_a   9.11049610
_cell_length_b   9.11049610
_cell_length_c   16.75098609
_cell_angle_alpha   90.00000000
_cell_angle_beta   90.00000000
_cell_angle_gamma   90.00000000
_symmetry_Int_Tables_number   1
_chemical_formula_structural   Cr2P4Pb3O16
_chemical_formula_sum   'Cr8 P16 Pb12 O64'
_cell_volume   1390.35092799
_cell_formula_units_Z   4
loop_
 _symmetry_equiv_pos_site_id
 _symmetry_equiv_pos_as_xyz
  1  'x, y, z'
loop_
 _atom_site_type_symbol
 _atom_site_label
 _atom_site_symmetry_multiplicity
 _atom_site_fract_x
 _atom_site_fract_y
 _atom_site_fract_z
 _atom_site_occupancy
  Cr  Cr0  1  0.265206  0.500611  0.879013  1
  Cr  Cr1  1  0.999389  0.765206  0.129013  1
  Cr  Cr2  1  0.734794  0.499389  0.379013  1
  Cr  Cr3  1  0.499389  0.734794  0.620987  1
  Cr  Cr4  1  0.500611  0.265206  0.120987  1
  Cr  Cr5  1  0.000611  0.234794  0.629013  1
  Cr  Cr6  1  0.234794  0.000611  0.370987  1
  Cr  Cr7  1  0.765206  0.999389  0.870987  1
  P  P8  1  0.273774  0.454677  0.679590  1
  P  P9  1  0.005241  0.724691  0.328740  1
  P  P10  1  0.773774  0.045323  0.070410  1
  P  P11  1  0.454677  0.273774  0.320410  1
  P  P12  1  0.224691  0.494759  0.078740  1
  P  P13  1  0.726226  0.545323  0.179590  1
  P  P14  1  0.494759  0.224691  0.921260  1
  P  P15  1  0.724691  0.005241  0.671260  1
  P  P16  1  0.226226  0.954677  0.570410  1
  P  P17  1  0.505241  0.775309  0.421260  1
  P  P18  1  0.045323  0.773774  0.929590  1
  P  P19  1  0.545323  0.726226  0.820410  1
  P  P20  1  0.275309  0.994759  0.171260  1
  P  P21  1  0.954677  0.226226  0.429590  1
  P  P22  1  0.994759  0.275309  0.828740  1
  P  P23  1  0.775309  0.505241  0.578740  1
  Pb  Pb24  1  0.655836  0.922153  0.235732  1
  Pb  Pb25  1  0.133834  0.133834  0.000000  1
  Pb  Pb26  1  0.077847  0.344164  0.264268  1
  Pb  Pb27  1  0.844164  0.422153  0.014268  1
  Pb  Pb28  1  0.366166  0.633834  0.250000  1
  Pb  Pb29  1  0.422153  0.844164  0.985732  1
  Pb  Pb30  1  0.922153  0.655836  0.764268  1
  Pb  Pb31  1  0.344164  0.077847  0.735732  1
  Pb  Pb32  1  0.866166  0.866166  0.500000  1
  Pb  Pb33  1  0.577847  0.155836  0.485732  1
  Pb  Pb34  1  0.155836  0.577847  0.514268  1
  Pb  Pb35  1  0.633834  0.366166  0.750000  1
  O  O36  1  0.880104  0.176386  0.065718  1
  O  O37  1  0.412695  0.133157  0.368960  1
  O  O38  1  0.633157  0.087305  0.118960  1
  O  O39  1  0.173421  0.625734  0.132817  1
  O  O40  1  0.384934  0.096821  0.932683  1
  O  O41  1  0.380104  0.323614  0.684282  1
  O  O42  1  0.418672  0.663465  0.873494  1
  O  O43  1  0.119896  0.823614  0.565718  1
  O  O44  1  0.714378  0.453585  0.497522  1
  O  O45  1  0.676386  0.619896  0.815718  1
  O  O46  1  0.149541  0.926514  0.119961  1
  O  O47  1  0.826579  0.374266  0.632817  1
  O  O48  1  0.163465  0.081328  0.623494  1
  O  O49  1  0.546415  0.285622  0.002478  1
  O  O50  1  0.673421  0.874266  0.617183  1
  O  O51  1  0.823614  0.119896  0.434282  1
  O  O52  1  0.615066  0.903179  0.432683  1
  O  O53  1  0.350459  0.426514  0.130039  1
  O  O54  1  0.573486  0.649541  0.369961  1
  O  O55  1  0.176386  0.880104  0.934282  1
  O  O56  1  0.046415  0.214378  0.747522  1
  O  O57  1  0.087305  0.633157  0.881040  1
  O  O58  1  0.903179  0.615066  0.567317  1
  O  O59  1  0.073486  0.850459  0.380039  1
  O  O60  1  0.953585  0.785622  0.247522  1
  O  O61  1  0.785622  0.953585  0.752478  1
  O  O62  1  0.587305  0.866843  0.868960  1
  O  O63  1  0.403179  0.884934  0.182683  1
  O  O64  1  0.986065  0.730503  0.012009  1
  O  O65  1  0.285622  0.546415  0.997522  1
  O  O66  1  0.081328  0.163465  0.376506  1
  O  O67  1  0.581328  0.336535  0.373494  1
  O  O68  1  0.884934  0.403179  0.817317  1
  O  O69  1  0.866843  0.587305  0.131040  1
  O  O70  1  0.663465  0.418672  0.126506  1
  O  O71  1  0.366843  0.912695  0.618960  1
  O  O72  1  0.336535  0.581328  0.626506  1
  O  O73  1  0.125734  0.326579  0.882817  1
  O  O74  1  0.619896  0.676386  0.184282  1
  O  O75  1  0.323614  0.380104  0.315718  1
  O  O76  1  0.486065  0.769497  0.737991  1
  O  O77  1  0.426514  0.350459  0.869961  1
  O  O78  1  0.874266  0.673421  0.382817  1
  O  O79  1  0.625734  0.173421  0.867183  1
  O  O80  1  0.769497  0.486065  0.262009  1
  O  O81  1  0.453585  0.714378  0.502478  1
  O  O82  1  0.730503  0.986065  0.987991  1
  O  O83  1  0.926514  0.149541  0.880039  1
  O  O84  1  0.326579  0.125734  0.117183  1
  O  O85  1  0.918672  0.836535  0.876506  1
  O  O86  1  0.850459  0.073486  0.619961  1
  O  O87  1  0.649541  0.573486  0.630039  1
  O  O88  1  0.596821  0.115066  0.682683  1
  O  O89  1  0.115066  0.596821  0.317317  1
  O  O90  1  0.230503  0.513935  0.762009  1
  O  O91  1  0.133157  0.412695  0.631040  1
  O  O92  1  0.836535  0.918672  0.123494  1
  O  O93  1  0.912695  0.366843  0.381040  1
  O  O94  1  0.214378  0.046415  0.252478  1
  O  O95  1  0.513935  0.230503  0.237991  1
  O  O96  1  0.269497  0.013935  0.487991  1
  O  O97  1  0.096821  0.384934  0.067317  1
  O  O98  1  0.013935  0.269497  0.512009  1
  O  O99  1  0.374266  0.826579  0.367183  1
