# generated using pymatgen
data_Li3V3P8O29
_symmetry_space_group_name_H-M   'P 1'
_cell_length_a   9.76247528
_cell_length_b   9.74966817
_cell_length_c   14.42393116
_cell_angle_alpha   90.61533399
_cell_angle_beta   90.89579644
_cell_angle_gamma   60.23578255
_symmetry_Int_Tables_number   1
_chemical_formula_structural   Li3V3P8O29
_chemical_formula_sum   'Li6 V6 P16 O58'
_cell_volume   1191.61335441
_cell_formula_units_Z   2
loop_
 _symmetry_equiv_pos_site_id
 _symmetry_equiv_pos_as_xyz
  1  'x, y, z'
loop_
 _atom_site_type_symbol
 _atom_site_label
 _atom_site_symmetry_multiplicity
 _atom_site_fract_x
 _atom_site_fract_y
 _atom_site_fract_z
 _atom_site_occupancy
  Li  Li0  1  0.919449  0.305624  0.559646  1
  Li  Li1  1  0.320241  0.914122  0.062224  1
  Li  Li2  1  0.686971  0.221461  0.441286  1
  Li  Li3  1  0.287429  0.783364  0.551726  1
  Li  Li4  1  0.225393  0.678164  0.950547  1
  Li  Li5  1  0.913937  0.081569  0.013767  1
  V  V6  1  0.571851  0.435256  0.243978  1
  V  V7  1  0.434672  0.563951  0.750833  1
  V  V8  1  0.568443  0.999195  0.752083  1
  V  V9  1  0.437685  0.000997  0.251330  1
  V  V10  1  0.995873  0.566387  0.247484  1
  V  V11  1  0.007302  0.435593  0.753371  1
  P  P12  1  0.919925  0.779552  0.836257  1
  P  P13  1  0.778826  0.910319  0.338797  1
  P  P14  1  0.913618  0.315885  0.343320  1
  P  P15  1  0.662744  0.670236  0.130074  1
  P  P16  1  0.665725  0.665298  0.634805  1
  P  P17  1  0.779482  0.309909  0.836415  1
  P  P18  1  0.680129  0.227448  0.658722  1
  P  P19  1  0.317590  0.912062  0.845762  1
  P  P20  1  0.694688  0.079743  0.158382  1
  P  P21  1  0.324025  0.769956  0.338878  1
  P  P22  1  0.225440  0.683440  0.162471  1
  P  P23  1  0.336208  0.337770  0.364956  1
  P  P24  1  0.337508  0.333407  0.867062  1
  P  P25  1  0.085479  0.686857  0.654170  1
  P  P26  1  0.225828  0.085297  0.666533  1
  P  P27  1  0.082140  0.218222  0.163039  1
  O  O28  1  0.010833  0.760825  0.565805  1
  O  O29  1  0.918593  0.738693  0.332116  1
  O  O30  1  0.788507  0.011724  0.073941  1
  O  O31  1  0.746023  0.914528  0.832270  1
  O  O32  1  0.920893  0.618507  0.825620  1
  O  O33  1  0.809322  0.671806  0.175605  1
  O  O34  1  0.904122  0.475866  0.320271  1
  O  O35  1  0.999643  0.191275  0.084088  1
  O  O36  1  0.913084  0.351511  0.827823  1
  O  O37  1  0.659809  0.815453  0.680377  1
  O  O38  1  0.623491  0.903218  0.319984  1
  O  O39  1  0.819449  0.518018  0.671304  1
  O  O40  1  0.658059  0.665763  0.027487  1
  O  O41  1  0.645202  0.669857  0.532744  1
  O  O42  1  0.669302  0.516452  0.174416  1
  O  O43  1  0.474570  0.910818  0.827581  1
  O  O44  1  0.509370  0.814488  0.170256  1
  O  O45  1  0.744840  0.336044  0.333827  1
  O  O46  1  0.798258  0.210816  0.741859  1
  O  O47  1  0.749464  0.240535  0.569662  1
  O  O48  1  0.795510  0.213729  0.917855  1
  O  O49  1  0.617144  0.464369  0.826770  1
  O  O50  1  0.521565  0.658923  0.682205  1
  O  O51  1  0.651587  0.256458  0.172290  1
  O  O52  1  0.482965  0.619483  0.317352  1
  O  O53  1  0.345895  0.916536  0.328240  1
  O  O54  1  0.800619  0.994190  0.248768  1
  O  O55  1  0.771920  0.001289  0.422771  1
  O  O56  1  0.227876  0.990526  0.585222  1
  O  O57  1  0.657680  0.082287  0.667243  1
  O  O58  1  0.519636  0.378671  0.679534  1
  O  O59  1  0.341563  0.741261  0.834617  1
  O  O60  1  0.483674  0.342823  0.329081  1
  O  O61  1  0.382117  0.524278  0.175044  1
  O  O62  1  0.228592  0.766555  0.076014  1
  O  O63  1  0.254251  0.764079  0.427596  1
  O  O64  1  0.207078  0.789065  0.252601  1
  O  O65  1  0.258431  0.659715  0.665037  1
  O  O66  1  0.485062  0.187270  0.824795  1
  O  O67  1  0.540944  0.072239  0.168201  1
  O  O68  1  0.326940  0.488282  0.824993  1
  O  O69  1  0.329698  0.345106  0.969474  1
  O  O70  1  0.333450  0.329984  0.467191  1
  O  O71  1  0.184308  0.473915  0.316954  1
  O  O72  1  0.379916  0.092934  0.681631  1
  O  O73  1  0.348494  0.183105  0.316573  1
  O  O74  1  0.083795  0.654869  0.165239  1
  O  O75  1  0.995862  0.798571  0.742563  1
  O  O76  1  0.009033  0.787750  0.918287  1
  O  O77  1  0.093782  0.526088  0.678218  1
  O  O78  1  0.190387  0.327778  0.821747  1
  O  O79  1  0.071681  0.382407  0.169838  1
  O  O80  1  0.259738  0.085187  0.164558  1
  O  O81  1  0.245969  0.977137  0.937306  1
  O  O82  1  0.201476  0.011824  0.761798  1
  O  O83  1  0.081864  0.256154  0.664362  1
  O  O84  1  0.982793  0.251478  0.435735  1
  O  O85  1  0.014394  0.197264  0.261236  1
