# generated using pymatgen
data_Li2VP2O7
_symmetry_space_group_name_H-M   'P 1'
_cell_length_a   5.29194974
_cell_length_b   6.64074075
_cell_length_c   8.99263366
_cell_angle_alpha   110.64649289
_cell_angle_beta   95.02541591
_cell_angle_gamma   107.11966671
_symmetry_Int_Tables_number   1
_chemical_formula_structural   Li2VP2O7
_chemical_formula_sum   'Li4 V2 P4 O14'
_cell_volume   276.07527926
_cell_formula_units_Z   2
loop_
 _symmetry_equiv_pos_site_id
 _symmetry_equiv_pos_as_xyz
  1  'x, y, z'
loop_
 _atom_site_type_symbol
 _atom_site_label
 _atom_site_symmetry_multiplicity
 _atom_site_fract_x
 _atom_site_fract_y
 _atom_site_fract_z
 _atom_site_occupancy
  Li  Li0  1  0.110834  0.756482  0.016157  1
  Li  Li1  1  0.328722  0.189215  0.743471  1
  Li  Li2  1  0.671278  0.810785  0.256529  1
  Li  Li3  1  0.889166  0.243518  0.983843  1
  V  V4  1  0.099247  0.601581  0.360995  1
  V  V5  1  0.900753  0.398419  0.639005  1
  P  P6  1  0.240972  0.152270  0.386539  1
  P  P7  1  0.574731  0.690172  0.883005  1
  P  P8  1  0.425269  0.309828  0.116995  1
  P  P9  1  0.759028  0.847730  0.613461  1
  O  O10  1  0.068598  0.896996  0.324121  1
  O  O11  1  0.063905  0.303799  0.418448  1
  O  O12  1  0.268477  0.563346  0.836798  1
  O  O13  1  0.262832  0.474421  0.150385  1
  O  O14  1  0.321896  0.128998  0.944256  1
  O  O15  1  0.529004  0.771758  0.469489  1
  O  O16  1  0.635636  0.836517  0.769618  1
  O  O17  1  0.364364  0.163483  0.230382  1
  O  O18  1  0.470996  0.228242  0.530511  1
  O  O19  1  0.678104  0.871002  0.055744  1
  O  O20  1  0.737168  0.525579  0.849615  1
  O  O21  1  0.731523  0.436654  0.163202  1
  O  O22  1  0.936095  0.696201  0.581552  1
  O  O23  1  0.931402  0.103004  0.675879  1
