# generated using pymatgen
data_Ti3VSb2(PO4)6
_symmetry_space_group_name_H-M   'P 1'
_cell_length_a   8.93684701
_cell_length_b   8.71972719
_cell_length_c   8.71972711
_cell_angle_alpha   60.00000203
_cell_angle_beta   60.80047022
_cell_angle_gamma   60.80045987
_symmetry_Int_Tables_number   1
_chemical_formula_structural   Ti3VSb2(PO4)6
_chemical_formula_sum   'Ti3 V1 Sb2 P6 O24'
_cell_volume   486.21129679
_cell_formula_units_Z   1
loop_
 _symmetry_equiv_pos_site_id
 _symmetry_equiv_pos_as_xyz
  1  'x, y, z'
loop_
 _atom_site_type_symbol
 _atom_site_label
 _atom_site_symmetry_multiplicity
 _atom_site_fract_x
 _atom_site_fract_y
 _atom_site_fract_z
 _atom_site_occupancy
  Ti  Ti0  1  0.053773  0.648743  0.648743  1
  Ti  Ti1  1  0.441536  0.852822  0.852822  1
  Ti  Ti2  1  0.946436  0.351188  0.351188  1
  V  V3  1  0.562997  0.145668  0.145668  1
  Sb  Sb4  1  0.990060  0.003313  0.003313  1
  Sb  Sb5  1  0.492083  0.502639  0.502639  1
  P  P6  1  0.251102  0.250026  0.541306  1
  P  P7  1  0.251102  0.957566  0.250026  1
  P  P8  1  0.251102  0.541306  0.957566  1
  P  P9  1  0.751207  0.459945  0.040964  1
  P  P10  1  0.751207  0.040964  0.747884  1
  P  P11  1  0.751207  0.747884  0.459945  1
  O  O12  1  0.076315  0.117833  0.300993  1
  O  O13  1  0.076315  0.504859  0.117833  1
  O  O14  1  0.076315  0.300993  0.504859  1
  O  O15  1  0.245444  0.083530  0.733335  1
  O  O16  1  0.424379  0.204593  0.388306  1
  O  O17  1  0.245167  0.419373  0.569097  1
  O  O18  1  0.245444  0.937692  0.083530  1
  O  O19  1  0.245167  0.766363  0.419373  1
  O  O20  1  0.576731  0.617192  0.004526  1
  O  O21  1  0.245167  0.569097  0.766363  1
  O  O22  1  0.761973  0.269030  0.057740  1
  O  O23  1  0.576731  0.004526  0.801550  1
  O  O24  1  0.424379  0.982724  0.204593  1
  O  O25  1  0.245444  0.733335  0.937692  1
  O  O26  1  0.749082  0.439814  0.230567  1
  O  O27  1  0.424379  0.388306  0.982724  1
  O  O28  1  0.749082  0.230567  0.580536  1
  O  O29  1  0.761973  0.057740  0.911257  1
  O  O30  1  0.749082  0.580536  0.439814  1
  O  O31  1  0.576731  0.801550  0.617192  1
  O  O32  1  0.761973  0.911257  0.269030  1
  O  O33  1  0.922971  0.694333  0.500598  1
  O  O34  1  0.922971  0.500598  0.882096  1
  O  O35  1  0.922971  0.882096  0.694333  1
