# generated using pymatgen
data_Li3Mg2Fe19O32
_symmetry_space_group_name_H-M   'P 1'
_cell_length_a   6.04042325
_cell_length_b   5.99283979
_cell_length_c   20.01663776
_cell_angle_alpha   99.00201196
_cell_angle_beta   98.79165342
_cell_angle_gamma   59.79680379
_symmetry_Int_Tables_number   1
_chemical_formula_structural   Li3Mg2Fe19O32
_chemical_formula_sum   'Li3 Mg2 Fe19 O32'
_cell_volume   616.17298778
_cell_formula_units_Z   1
loop_
 _symmetry_equiv_pos_site_id
 _symmetry_equiv_pos_as_xyz
  1  'x, y, z'
loop_
 _atom_site_type_symbol
 _atom_site_label
 _atom_site_symmetry_multiplicity
 _atom_site_fract_x
 _atom_site_fract_y
 _atom_site_fract_z
 _atom_site_occupancy
  Li  Li0  1  0.129808  0.618371  0.376501  1
  Li  Li1  1  0.876361  0.371580  0.624581  1
  Li  Li2  1  0.625271  0.120792  0.873535  1
  Mg  Mg3  1  0.842218  0.843230  0.027204  1
  Mg  Mg4  1  0.602550  0.583591  0.285187  1
  Fe  Fe5  1  0.377895  0.871408  0.125618  1
  Fe  Fe6  1  0.501171  0.497131  0.999247  1
  Fe  Fe7  1  0.908234  0.909620  0.222882  1
  Fe  Fe8  1  0.871617  0.379149  0.125673  1
  Fe  Fe9  1  0.378738  0.378233  0.125792  1
  Fe  Fe10  1  0.251861  0.256855  0.257444  1
  Fe  Fe11  1  0.650383  0.669592  0.470554  1
  Fe  Fe12  1  0.375994  0.871920  0.624745  1
  Fe  Fe13  1  0.624305  0.125458  0.376542  1
  Fe  Fe14  1  0.129052  0.125590  0.376564  1
  Fe  Fe15  1  0.876209  0.872097  0.624689  1
  Fe  Fe16  1  0.352988  0.324808  0.531660  1
  Fe  Fe17  1  0.001783  0.995305  0.499984  1
  Fe  Fe18  1  0.749874  0.750234  0.748867  1
  Fe  Fe19  1  0.400570  0.419837  0.720332  1
  Fe  Fe20  1  0.119758  0.627153  0.873638  1
  Fe  Fe21  1  0.626582  0.627013  0.873605  1
  Fe  Fe22  1  0.100506  0.077264  0.778269  1
  Fe  Fe23  1  0.149584  0.167983  0.967592  1
  O  O24  1  0.674259  0.677799  0.066107  1
  O  O25  1  0.214984  0.677708  0.066209  1
  O  O26  1  0.562743  0.559282  0.181578  1
  O  O27  1  0.676094  0.216003  0.065747  1
  O  O28  1  0.430599  0.957706  0.316560  1
  O  O29  1  0.939059  0.943146  0.318161  1
  O  O30  1  0.073586  0.541799  0.185766  1
  O  O31  1  0.188708  0.193595  0.069134  1
  O  O32  1  0.815101  0.828435  0.437820  1
  O  O33  1  0.073118  0.069860  0.184711  1
  O  O34  1  0.294551  0.828872  0.437974  1
  O  O35  1  0.545023  0.069089  0.184656  1
  O  O36  1  0.970489  0.405805  0.314037  1
  O  O37  1  0.441314  0.406045  0.314208  1
  O  O38  1  0.182225  0.699536  0.564732  1
  O  O39  1  0.320062  0.297198  0.434799  1
  O  O40  1  0.684724  0.698327  0.568195  1
  O  O41  1  0.821414  0.295252  0.436874  1
  O  O42  1  0.565516  0.579723  0.687502  1
  O  O43  1  0.043573  0.579283  0.687444  1
  O  O44  1  0.936483  0.918635  0.811636  1
  O  O45  1  0.185823  0.164675  0.563304  1
  O  O46  1  0.456662  0.918617  0.811441  1
  O  O47  1  0.711020  0.164999  0.563242  1
  O  O48  1  0.816883  0.793946  0.927643  1
  O  O49  1  0.067782  0.045736  0.681421  1
  O  O50  1  0.931285  0.449896  0.812584  1
  O  O51  1  0.433402  0.451176  0.818263  1
  O  O52  1  0.570229  0.046081  0.685773  1
  O  O53  1  0.319228  0.797551  0.936600  1
  O  O54  1  0.792232  0.333813  0.939365  1
  O  O55  1  0.313089  0.333590  0.939247  1
