# generated using pymatgen
data_LiFe2F5
_symmetry_space_group_name_H-M   'P 1'
_cell_length_a   8.04713113
_cell_length_b   8.85784921
_cell_length_c   6.31558382
_cell_angle_alpha   91.08526449
_cell_angle_beta   101.25288599
_cell_angle_gamma   105.90952078
_symmetry_Int_Tables_number   1
_chemical_formula_structural   LiFe2F5
_chemical_formula_sum   'Li4 Fe8 F20'
_cell_volume   423.35609089
_cell_formula_units_Z   4
loop_
 _symmetry_equiv_pos_site_id
 _symmetry_equiv_pos_as_xyz
  1  'x, y, z'
loop_
 _atom_site_type_symbol
 _atom_site_label
 _atom_site_symmetry_multiplicity
 _atom_site_fract_x
 _atom_site_fract_y
 _atom_site_fract_z
 _atom_site_occupancy
  Li  Li0  1  0.208881  0.439175  0.794226  1
  Li  Li1  1  0.211302  0.167189  0.307034  1
  Li  Li2  1  0.788698  0.832811  0.692966  1
  Li  Li3  1  0.791118  0.560825  0.205774  1
  Fe  Fe4  1  0.186946  0.794186  0.545787  1
  Fe  Fe5  1  0.169889  0.792755  0.041612  1
  Fe  Fe6  1  0.393735  0.583180  0.339897  1
  Fe  Fe7  1  0.392748  0.114380  0.854528  1
  Fe  Fe8  1  0.607252  0.885620  0.145472  1
  Fe  Fe9  1  0.606265  0.416820  0.660103  1
  Fe  Fe10  1  0.830111  0.207245  0.958388  1
  Fe  Fe11  1  0.813054  0.205814  0.454213  1
  F  F12  1  0.001764  0.768950  0.743666  1
  F  F13  1  0.001611  0.731977  0.253985  1
  F  F14  1  0.998389  0.268023  0.746015  1
  F  F15  1  0.998236  0.231050  0.256334  1
  F  F16  1  0.222314  0.576783  0.559343  1
  F  F17  1  0.391800  0.866825  0.869087  1
  F  F18  1  0.218941  0.571922  0.046675  1
  F  F19  1  0.384730  0.827343  0.326029  1
  F  F20  1  0.232765  0.033335  0.553077  1
  F  F21  1  0.397944  0.345206  0.830662  1
  F  F22  1  0.217433  0.037042  0.059286  1
  F  F23  1  0.404253  0.353899  0.380987  1
  F  F24  1  0.595747  0.646101  0.619013  1
  F  F25  1  0.782567  0.962958  0.940714  1
  F  F26  1  0.602056  0.654794  0.169338  1
  F  F27  1  0.767235  0.966665  0.446923  1
  F  F28  1  0.615270  0.172657  0.673971  1
  F  F29  1  0.781059  0.428078  0.953325  1
  F  F30  1  0.608200  0.133175  0.130913  1
  F  F31  1  0.777686  0.423217  0.440657  1
