# generated using pymatgen
data_Li4FeCo3O8
_symmetry_space_group_name_H-M   'P 1'
_cell_length_a   5.77077397
_cell_length_b   5.78672301
_cell_length_c   5.86008267
_cell_angle_alpha   90.16815802
_cell_angle_beta   60.60549031
_cell_angle_gamma   60.02448391
_symmetry_Int_Tables_number   1
_chemical_formula_structural   Li4FeCo3O8
_chemical_formula_sum   'Li4 Fe1 Co3 O8'
_cell_volume   139.47930977
_cell_formula_units_Z   1
loop_
 _symmetry_equiv_pos_site_id
 _symmetry_equiv_pos_as_xyz
  1  'x, y, z'
loop_
 _atom_site_type_symbol
 _atom_site_label
 _atom_site_symmetry_multiplicity
 _atom_site_fract_x
 _atom_site_fract_y
 _atom_site_fract_z
 _atom_site_occupancy
  Li  Li0  1  0.999997  0.999997  0.500001  1
  Li  Li1  1  0.500002  0.999993  0.500000  1
  Li  Li2  1  0.000003  0.499997  0.500001  1
  Li  Li3  1  0.499999  0.499999  0.500004  1
  Fe  Fe4  1  -0.000027  0.000010  -0.000005  1
  Co  Co5  1  0.500001  -0.000001  0.000002  1
  Co  Co6  1  0.000002  0.499999  0.000001  1
  Co  Co7  1  0.500003  0.499999  0.000000  1
  O  O8  1  0.009271  0.246479  0.222503  1
  O  O9  1  0.478518  0.260750  0.772478  1
  O  O10  1  0.524131  0.238301  0.229298  1
  O  O11  1  0.009286  0.743580  0.223351  1
  O  O12  1  0.990718  0.256418  0.776650  1
  O  O13  1  0.475874  0.761696  0.770703  1
  O  O14  1  0.521484  0.739248  0.227524  1
  O  O15  1  0.990732  0.753519  0.777498  1
