# generated using pymatgen
data_Li2Fe3(Si3O8)2
_symmetry_space_group_name_H-M   'P 1'
_cell_length_a   9.75345066
_cell_length_b   10.32434044
_cell_length_c   7.02028346
_cell_angle_alpha   69.86193589
_cell_angle_beta   97.49972248
_cell_angle_gamma   85.16208869
_symmetry_Int_Tables_number   1
_chemical_formula_structural   Li2Fe3(Si3O8)2
_chemical_formula_sum   'Li4 Fe6 Si12 O32'
_cell_volume   651.65608898
_cell_formula_units_Z   2
loop_
 _symmetry_equiv_pos_site_id
 _symmetry_equiv_pos_as_xyz
  1  'x, y, z'
loop_
 _atom_site_type_symbol
 _atom_site_label
 _atom_site_symmetry_multiplicity
 _atom_site_fract_x
 _atom_site_fract_y
 _atom_site_fract_z
 _atom_site_occupancy
  Li  Li0  1  0.111780  0.531100  0.327563  1
  Li  Li1  1  0.421334  0.185386  0.650962  1
  Li  Li2  1  0.578666  0.814614  0.349038  1
  Li  Li3  1  0.888220  0.468900  0.672437  1
  Fe  Fe4  1  0.142179  0.526279  0.894198  1
  Fe  Fe5  1  0.107375  0.909547  0.939867  1
  Fe  Fe6  1  0.123505  0.889382  0.458249  1
  Fe  Fe7  1  0.876495  0.110618  0.541751  1
  Fe  Fe8  1  0.892625  0.090453  0.060133  1
  Fe  Fe9  1  0.857821  0.473721  0.105802  1
  Si  Si10  1  0.138993  0.241837  0.752709  1
  Si  Si11  1  0.132966  0.233010  0.315690  1
  Si  Si12  1  0.320346  0.066707  0.150610  1
  Si  Si13  1  0.382862  0.650162  0.602552  1
  Si  Si14  1  0.400042  0.865592  0.779154  1
  Si  Si15  1  0.401137  0.613190  0.179060  1
  Si  Si16  1  0.598863  0.386810  0.820940  1
  Si  Si17  1  0.599958  0.134408  0.220846  1
  Si  Si18  1  0.617138  0.349838  0.397448  1
  Si  Si19  1  0.679654  0.933293  0.849390  1
  Si  Si20  1  0.867034  0.766990  0.684310  1
  Si  Si21  1  0.861007  0.758163  0.247291  1
  O  O22  1  0.022674  0.133525  0.812190  1
  O  O23  1  0.024977  0.117168  0.333890  1
  O  O24  1  0.087597  0.397351  0.737254  1
  O  O25  1  0.066240  0.385656  0.155812  1
  O  O26  1  0.191676  0.253286  0.534067  1
  O  O27  1  0.291646  0.166449  0.904785  1
  O  O28  1  0.217580  0.658539  0.610119  1
  O  O29  1  0.281484  0.170602  0.271809  1
  O  O30  1  0.238348  0.929668  0.722163  1
  O  O31  1  0.241171  0.592444  0.122307  1
  O  O32  1  0.232576  0.937280  0.195232  1
  O  O33  1  0.492269  0.016808  0.224163  1
  O  O34  1  0.556945  0.250889  0.991560  1
  O  O35  1  0.433205  0.651172  0.388386  1
  O  O36  1  0.439133  0.795050  0.612375  1
  O  O37  1  0.478680  0.517561  0.787452  1
  O  O38  1  0.521320  0.482439  0.212548  1
  O  O39  1  0.560867  0.204950  0.387625  1
  O  O40  1  0.566795  0.348828  0.611614  1
  O  O41  1  0.443055  0.749111  0.008440  1
  O  O42  1  0.507731  0.983192  0.775837  1
  O  O43  1  0.767424  0.062720  0.804768  1
  O  O44  1  0.758829  0.407556  0.877693  1
  O  O45  1  0.761652  0.070332  0.277837  1
  O  O46  1  0.718516  0.829398  0.728191  1
  O  O47  1  0.782420  0.341461  0.389881  1
  O  O48  1  0.708354  0.833551  0.095215  1
  O  O49  1  0.808324  0.746714  0.465933  1
  O  O50  1  0.933760  0.614344  0.844188  1
  O  O51  1  0.912403  0.602649  0.262746  1
  O  O52  1  0.975023  0.882832  0.666110  1
  O  O53  1  0.977326  0.866475  0.187810  1
