# generated using pymatgen
data_LiBi3(ClO2)2
_symmetry_space_group_name_H-M   'P 1'
_cell_length_a   5.51068027
_cell_length_b   6.80067898
_cell_length_c   10.97751837
_cell_angle_alpha   90.00000000
_cell_angle_beta   90.00000000
_cell_angle_gamma   113.90094896
_symmetry_Int_Tables_number   1
_chemical_formula_structural   LiBi3(ClO2)2
_chemical_formula_sum   'Li2 Bi6 Cl4 O8'
_cell_volume   376.11904244
_cell_formula_units_Z   2
loop_
 _symmetry_equiv_pos_site_id
 _symmetry_equiv_pos_as_xyz
  1  'x, y, z'
loop_
 _atom_site_type_symbol
 _atom_site_label
 _atom_site_symmetry_multiplicity
 _atom_site_fract_x
 _atom_site_fract_y
 _atom_site_fract_z
 _atom_site_occupancy
  Li  Li0  1  0.788409  0.576820  0.000000  1
  Li  Li1  1  0.211591  0.423180  0.500000  1
  Bi  Bi2  1  0.657169  0.314339  0.256360  1
  Bi  Bi3  1  0.145602  0.291204  0.000000  1
  Bi  Bi4  1  0.854398  0.708796  0.500000  1
  Bi  Bi5  1  0.342831  0.685661  0.243640  1
  Bi  Bi6  1  0.657169  0.314339  0.743640  1
  Bi  Bi7  1  0.342831  0.685661  0.756360  1
  Cl  Cl8  1  0.513637  0.027274  0.000000  1
  Cl  Cl9  1  0.486363  0.972726  0.500000  1
  Cl  Cl10  1  0.000000  0.000000  0.250000  1
  Cl  Cl11  1  0.000000  0.000000  0.750000  1
  O  O12  1  0.488497  0.484554  0.126304  1
  O  O13  1  0.511503  0.515446  0.373696  1
  O  O14  1  0.996058  0.484554  0.126304  1
  O  O15  1  0.003942  0.515446  0.373696  1
  O  O16  1  0.511503  0.515446  0.626304  1
  O  O17  1  0.488497  0.484554  0.873696  1
  O  O18  1  0.003942  0.515446  0.626304  1
  O  O19  1  0.996058  0.484554  0.873696  1
