# generated using pymatgen
data_Li6MnAlO6
_symmetry_space_group_name_H-M   'P 1'
_cell_length_a   5.35407192
_cell_length_b   9.12075885
_cell_length_c   9.79593100
_cell_angle_alpha   89.99463083
_cell_angle_beta   88.61917953
_cell_angle_gamma   148.41010664
_symmetry_Int_Tables_number   1
_chemical_formula_structural   Li6MnAlO6
_chemical_formula_sum   'Li12 Mn2 Al2 O12'
_cell_volume   250.31846077
_cell_formula_units_Z   2
loop_
 _symmetry_equiv_pos_site_id
 _symmetry_equiv_pos_as_xyz
  1  'x, y, z'
loop_
 _atom_site_type_symbol
 _atom_site_label
 _atom_site_symmetry_multiplicity
 _atom_site_fract_x
 _atom_site_fract_y
 _atom_site_fract_z
 _atom_site_occupancy
  Li  Li0  1  0.254427  0.938462  0.421734  1
  Li  Li1  1  0.447027  0.066562  0.919429  1
  Li  Li2  1  0.309914  0.625206  0.927001  1
  Li  Li3  1  0.547339  0.930472  0.083006  1
  Li  Li4  1  0.308458  0.683027  0.426797  1
  Li  Li5  1  0.737472  0.055616  0.578941  1
  Li  Li6  1  0.547731  0.616099  0.582822  1
  Li  Li7  1  0.444292  0.377417  0.420639  1
  Li  Li8  1  0.255403  0.315266  0.921913  1
  Li  Li9  1  0.738615  0.681087  0.078898  1
  Li  Li10  1  0.687286  0.373118  0.074039  1
  Li  Li11  1  0.688371  0.313129  0.574199  1
  Mn  Mn12  1  0.998498  0.001245  0.250211  1
  Mn  Mn13  1  0.998911  0.996189  0.750278  1
  Al  Al14  1  -0.000025  0.659901  0.750666  1
  Al  Al15  1  0.000788  0.339161  0.250919  1
  O  O16  1  0.373764  0.040214  0.138504  1
  O  O17  1  0.216365  0.934795  0.633381  1
  O  O18  1  0.308496  0.623606  0.127689  1
  O  O19  1  0.777846  0.060354  0.367017  1
  O  O20  1  0.620259  0.956612  0.861288  1
  O  O21  1  0.308419  0.683546  0.627622  1
  O  O22  1  0.374188  0.332542  0.638338  1
  O  O23  1  0.778727  0.716625  0.866965  1
  O  O24  1  0.216052  0.280086  0.133360  1
  O  O25  1  0.618580  0.661410  0.361490  1
  O  O26  1  0.686474  0.312021  0.373244  1
  O  O27  1  0.687231  0.373544  0.873032  1
