# generated using pymatgen
data_Li5Fe8(BO3)8
_symmetry_space_group_name_H-M   'P 1'
_cell_length_a   5.24921649
_cell_length_b   9.12148373
_cell_length_c   10.11828468
_cell_angle_alpha   91.15182287
_cell_angle_beta   91.42787971
_cell_angle_gamma   89.67217646
_symmetry_Int_Tables_number   1
_chemical_formula_structural   Li5Fe8(BO3)8
_chemical_formula_sum   'Li5 Fe8 B8 O24'
_cell_volume   484.21507075
_cell_formula_units_Z   1
loop_
 _symmetry_equiv_pos_site_id
 _symmetry_equiv_pos_as_xyz
  1  'x, y, z'
loop_
 _atom_site_type_symbol
 _atom_site_label
 _atom_site_symmetry_multiplicity
 _atom_site_fract_x
 _atom_site_fract_y
 _atom_site_fract_z
 _atom_site_occupancy
  Li  Li0  1  0.849363  0.826533  0.656683  1
  Li  Li1  1  0.670889  0.669246  0.404668  1
  Li  Li2  1  0.663090  0.679188  0.918300  1
  Li  Li3  1  0.340052  0.326289  0.659760  1
  Li  Li4  1  0.165498  0.168427  0.385901  1
  Fe  Fe5  1  0.837153  0.167603  0.633250  1
  Fe  Fe6  1  0.833426  0.496151  0.133633  1
  Fe  Fe7  1  0.684613  0.010398  0.883227  1
  Fe  Fe8  1  0.647210  0.338768  0.374555  1
  Fe  Fe9  1  0.336718  0.656340  0.632233  1
  Fe  Fe10  1  0.332537  0.998068  0.123629  1
  Fe  Fe11  1  0.156449  0.839359  0.374027  1
  Fe  Fe12  1  0.176948  0.489819  0.887726  1
  B  B13  1  0.838735  0.496789  0.624522  1
  B  B14  1  0.833979  0.167576  0.134646  1
  B  B15  1  0.664415  0.001166  0.384845  1
  B  B16  1  0.675220  0.337880  0.869530  1
  B  B17  1  0.333360  0.001870  0.625716  1
  B  B18  1  0.333308  0.667990  0.129138  1
  B  B19  1  0.163427  0.502407  0.378655  1
  B  B20  1  0.174015  0.827735  0.878012  1
  O  O21  1  0.903243  0.515424  0.337910  1
  O  O22  1  0.910756  0.831354  0.859356  1
  O  O23  1  0.821981  0.216800  0.826002  1
  O  O24  1  0.791867  0.130358  0.428175  1
  O  O25  1  0.783260  0.868372  0.390089  1
  O  O26  1  0.797404  0.460433  0.928021  1
  O  O27  1  0.716948  0.630355  0.613061  1
  O  O28  1  0.678962  0.054852  0.086694  1
  O  O29  1  0.705173  0.366583  0.592282  1
  O  O30  1  0.721526  0.300577  0.170184  1
  O  O31  1  0.592920  0.653534  0.119274  1
  O  O32  1  0.595685  0.003238  0.660676  1
  O  O33  1  0.411834  0.014745  0.338412  1
  O  O34  1  0.420350  0.334387  0.849476  1
  O  O35  1  0.311014  0.700524  0.844922  1
  O  O36  1  0.297179  0.629704  0.412457  1
  O  O37  1  0.274503  0.367264  0.387702  1
  O  O38  1  0.308159  0.948513  0.927975  1
  O  O39  1  0.177478  0.550266  0.094749  1
  O  O40  1  0.202388  0.133866  0.615804  1
  O  O41  1  0.211303  0.871146  0.597329  1
  O  O42  1  0.226211  0.801042  0.167936  1
  O  O43  1  0.090189  0.148174  0.150359  1
  O  O44  1  0.091605  0.487361  0.664071  1
