# generated using pymatgen
data_Li2Cu3F8
_symmetry_space_group_name_H-M   'P 1'
_cell_length_a   5.59530261
_cell_length_b   5.68156585
_cell_length_c   5.62976135
_cell_angle_alpha   73.97600276
_cell_angle_beta   65.01078302
_cell_angle_gamma   74.28534389
_symmetry_Int_Tables_number   1
_chemical_formula_structural   Li2Cu3F8
_chemical_formula_sum   'Li2 Cu3 F8'
_cell_volume   153.45096932
_cell_formula_units_Z   1
loop_
 _symmetry_equiv_pos_site_id
 _symmetry_equiv_pos_as_xyz
  1  'x, y, z'
loop_
 _atom_site_type_symbol
 _atom_site_label
 _atom_site_symmetry_multiplicity
 _atom_site_fract_x
 _atom_site_fract_y
 _atom_site_fract_z
 _atom_site_occupancy
  Li  Li0  1  0.626031  0.185117  0.576932  1
  Li  Li1  1  0.414880  0.818180  0.383809  1
  Cu  Cu2  1  0.931434  0.567586  0.737049  1
  Cu  Cu3  1  0.977748  0.998193  0.024260  1
  Cu  Cu4  1  0.275793  0.429501  0.071196  1
  F  F5  1  0.691445  0.864420  0.749580  1
  F  F6  1  0.679069  0.384875  0.756640  1
  F  F7  1  0.776381  0.751530  0.234483  1
  F  F8  1  0.755231  0.247405  0.215877  1
  F  F9  1  0.195389  0.735264  0.800222  1
  F  F10  1  0.202667  0.261750  0.809313  1
  F  F11  1  0.237036  0.619633  0.322233  1
  F  F12  1  0.237072  0.136544  0.318404  1
