# generated using pymatgen
data_H30S2O21
_symmetry_space_group_name_H-M   'P 1'
_cell_length_a   14.54430976
_cell_length_b   14.54430976
_cell_length_c   6.76009828
_cell_angle_alpha   83.25424048
_cell_angle_beta   96.74575952
_cell_angle_gamma   28.94589947
_symmetry_Int_Tables_number   1
_chemical_formula_structural   H30S2O21
_chemical_formula_sum   'H30 S2 O21'
_cell_volume   610.89463149
_cell_formula_units_Z   1
loop_
 _symmetry_equiv_pos_site_id
 _symmetry_equiv_pos_as_xyz
  1  'x, y, z'
loop_
 _atom_site_type_symbol
 _atom_site_label
 _atom_site_symmetry_multiplicity
 _atom_site_fract_x
 _atom_site_fract_y
 _atom_site_fract_z
 _atom_site_occupancy
  H  H0  1  0.551847  0.073472  0.640851  1
  H  H1  1  0.926528  0.448153  0.640851  1
  H  H2  1  0.881611  0.672153  0.856919  1
  H  H3  1  0.327847  0.118389  0.856919  1
  H  H4  1  0.783413  0.794764  0.228630  1
  H  H5  1  0.205236  0.216587  0.228630  1
  H  H6  1  0.707923  0.565861  0.323028  1
  H  H7  1  0.434139  0.292077  0.323028  1
  H  H8  1  0.023193  0.590314  0.614632  1
  H  H9  1  0.409686  0.976807  0.614632  1
  H  H10  1  0.497272  0.204299  0.729577  1
  H  H11  1  0.795701  0.502728  0.729577  1
  H  H12  1  0.267573  0.555852  0.367394  1
  H  H13  1  0.444148  0.732427  0.367394  1
  H  H14  1  0.365850  0.551731  0.292046  1
  H  H15  1  0.448269  0.634150  0.292046  1
  H  H16  1  0.039195  0.960805  0.353963  1
  H  H17  1  0.480455  0.402066  0.698968  1
  H  H18  1  0.597934  0.519545  0.698968  1
  H  H19  1  0.469092  0.171252  0.240795  1
  H  H20  1  0.828748  0.530908  0.240795  1
  H  H21  1  0.577663  0.332725  0.959964  1
  H  H22  1  0.667275  0.422337  0.959964  1
  H  H23  1  0.987774  0.012226  0.106037  1
  H  H24  1  0.079579  0.853944  0.824678  1
  H  H25  1  0.146056  0.920421  0.824678  1
  H  H26  1  0.232951  0.616870  0.804913  1
  H  H27  1  0.383130  0.767049  0.804913  1
  H  H28  1  0.032374  0.766878  0.850219  1
  H  H29  1  0.233122  0.967626  0.850219  1
  S  S30  1  0.077566  0.187409  0.199251  1
  S  S31  1  0.812591  0.922434  0.199251  1
  O  O32  1  0.611856  0.524325  0.845064  1
  O  O33  1  0.475675  0.388144  0.845064  1
  O  O34  1  0.929595  0.384382  0.718519  1
  O  O35  1  0.615618  0.070405  0.718519  1
  O  O36  1  0.248454  -0.002729  0.159541  1
  O  O37  1  0.002729  0.751546  0.159541  1
  O  O38  1  0.686383  0.642163  0.221743  1
  O  O39  1  0.357837  0.313617  0.221743  1
  O  O40  1  0.925232  0.591841  0.780381  1
  O  O41  1  0.408159  0.074768  0.780381  1
  O  O42  1  0.102193  0.484728  0.763768  1
  O  O43  1  0.515272  0.897807  0.763768  1
  O  O44  1  0.795135  0.832703  0.323263  1
  O  O45  1  0.167297  0.204865  0.323263  1
  O  O46  1  0.312862  0.687138  0.107723  1
  O  O47  1  0.405434  0.463261  0.417418  1
  O  O48  1  0.536739  0.594566  0.417418  1
  O  O49  1  0.921054  0.078946  0.203549  1
  O  O50  1  0.101992  0.898008  0.907701  1
  O  O51  1  0.076599  0.771060  0.757750  1
  O  O52  1  0.228940  0.923401  0.757750  1
