# generated using pymatgen
data_RbCuSb2H2Se4O
_symmetry_space_group_name_H-M   'P 1'
_cell_length_a   11.36635831
_cell_length_b   4.11704224
_cell_length_c   21.42183095
_cell_angle_alpha   90.00000000
_cell_angle_beta   90.00000000
_cell_angle_gamma   90.00000000
_symmetry_Int_Tables_number   1
_chemical_formula_structural   RbCuSb2H2Se4O
_chemical_formula_sum   'Rb4 Cu4 Sb8 H8 Se16 O4'
_cell_volume   1002.45123001
_cell_formula_units_Z   4
loop_
 _symmetry_equiv_pos_site_id
 _symmetry_equiv_pos_as_xyz
  1  'x, y, z'
loop_
 _atom_site_type_symbol
 _atom_site_label
 _atom_site_symmetry_multiplicity
 _atom_site_fract_x
 _atom_site_fract_y
 _atom_site_fract_z
 _atom_site_occupancy
  Rb  Rb0  1  0.153445  0.750000  0.580807  1
  Rb  Rb1  1  0.346555  0.250000  0.080807  1
  Rb  Rb2  1  0.653445  0.750000  0.919193  1
  Rb  Rb3  1  0.846555  0.250000  0.419193  1
  Cu  Cu4  1  0.093735  0.750000  0.774200  1
  Cu  Cu5  1  0.406265  0.250000  0.274200  1
  Cu  Cu6  1  0.593735  0.750000  0.725800  1
  Cu  Cu7  1  0.906265  0.250000  0.225800  1
  Sb  Sb8  1  0.034206  0.250000  0.918380  1
  Sb  Sb9  1  0.137684  0.750000  0.262099  1
  Sb  Sb10  1  0.362316  0.250000  0.762099  1
  Sb  Sb11  1  0.465794  0.750000  0.418380  1
  Sb  Sb12  1  0.534206  0.250000  0.581620  1
  Sb  Sb13  1  0.637684  0.750000  0.237901  1
  Sb  Sb14  1  0.862316  0.250000  0.737901  1
  Sb  Sb15  1  0.965794  0.750000  0.081620  1
  H  H16  1  0.096179  0.566592  0.428160  1
  H  H17  1  0.096179  0.933408  0.428160  1
  H  H18  1  0.403821  0.066592  0.928160  1
  H  H19  1  0.403821  0.433408  0.928160  1
  H  H20  1  0.596179  0.566592  0.071840  1
  H  H21  1  0.596179  0.933408  0.071840  1
  H  H22  1  0.903821  0.066592  0.571840  1
  H  H23  1  0.903821  0.433408  0.571840  1
  Se  Se24  1  0.086010  0.250000  0.709238  1
  Se  Se25  1  0.074961  0.250000  0.152087  1
  Se  Se26  1  0.139974  0.750000  0.000899  1
  Se  Se27  1  0.213939  0.250000  0.338172  1
  Se  Se28  1  0.286061  0.750000  0.838172  1
  Se  Se29  1  0.360026  0.250000  0.500899  1
  Se  Se30  1  0.425039  0.750000  0.652087  1
  Se  Se31  1  0.413990  0.750000  0.209238  1
  Se  Se32  1  0.586010  0.250000  0.790762  1
  Se  Se33  1  0.574961  0.250000  0.347913  1
  Se  Se34  1  0.639974  0.750000  0.499101  1
  Se  Se35  1  0.713939  0.250000  0.161828  1
  Se  Se36  1  0.786061  0.750000  0.661828  1
  Se  Se37  1  0.860026  0.250000  0.999101  1
  Se  Se38  1  0.925039  0.750000  0.847913  1
  Se  Se39  1  0.913990  0.750000  0.290762  1
  O  O40  1  0.059190  0.750000  0.450107  1
  O  O41  1  0.440810  0.250000  0.950107  1
  O  O42  1  0.559190  0.750000  0.049893  1
  O  O43  1  0.940810  0.250000  0.549893  1
