# generated using pymatgen
data_Sb3H18C6N
_symmetry_space_group_name_H-M   'P 1'
_cell_length_a   12.40717976
_cell_length_b   6.83786172
_cell_length_c   17.32191912
_cell_angle_alpha   90.00000000
_cell_angle_beta   101.11264703
_cell_angle_gamma   90.00000000
_symmetry_Int_Tables_number   1
_chemical_formula_structural   Sb3H18C6N
_chemical_formula_sum   'Sb12 H72 C24 N4'
_cell_volume   1442.01284351
_cell_formula_units_Z   4
loop_
 _symmetry_equiv_pos_site_id
 _symmetry_equiv_pos_as_xyz
  1  'x, y, z'
loop_
 _atom_site_type_symbol
 _atom_site_label
 _atom_site_symmetry_multiplicity
 _atom_site_fract_x
 _atom_site_fract_y
 _atom_site_fract_z
 _atom_site_occupancy
  Sb  Sb0  1  0.145266  0.617439  0.743270  1
  Sb  Sb1  1  0.245377  0.702208  0.949640  1
  Sb  Sb2  1  0.145266  0.882561  0.243270  1
  Sb  Sb3  1  0.245377  0.797792  0.449640  1
  Sb  Sb4  1  0.417564  0.810719  0.809985  1
  Sb  Sb5  1  0.417564  0.689281  0.309985  1
  Sb  Sb6  1  0.582436  0.310719  0.690015  1
  Sb  Sb7  1  0.582436  0.189281  0.190015  1
  Sb  Sb8  1  0.754623  0.202208  0.550360  1
  Sb  Sb9  1  0.854734  0.117439  0.756730  1
  Sb  Sb10  1  0.754623  0.297792  0.050360  1
  Sb  Sb11  1  0.854734  0.382561  0.256730  1
  H  H12  1  0.039734  0.802460  0.976336  1
  H  H13  1  0.034452  0.784165  0.872520  1
  H  H14  1  0.091683  0.998265  0.925213  1
  H  H15  1  0.132368  0.392940  0.998124  1
  H  H16  1  0.126842  0.373565  0.893994  1
  H  H17  1  0.039734  0.697540  0.476336  1
  H  H18  1  0.097160  0.990065  0.686473  1
  H  H19  1  0.034452  0.715835  0.372520  1
  H  H20  1  0.109175  0.831492  0.606283  1
  H  H21  1  0.091683  0.501735  0.425213  1
  H  H22  1  0.248460  0.300776  0.962035  1
  H  H23  1  0.132368  0.107060  0.498124  1
  H  H24  1  0.126842  0.126435  0.393994  1
  H  H25  1  0.202788  0.432144  0.616004  1
  H  H26  1  0.230794  0.919905  0.669790  1
  H  H27  1  0.097160  0.509935  0.186473  1
  H  H28  1  0.259468  0.298815  0.703575  1
  H  H29  1  0.109175  0.668508  0.106283  1
  H  H30  1  0.248460  0.199224  0.462035  1
  H  H31  1  0.324019  0.520720  0.679929  1
  H  H32  1  0.396542  0.053216  0.932731  1
  H  H33  1  0.374602  0.193831  0.843412  1
  H  H34  1  0.202788  0.067856  0.116004  1
  H  H35  1  0.230794  0.580095  0.169790  1
  H  H36  1  0.259468  0.201185  0.203575  1
  H  H37  1  0.391656  0.226883  0.586067  1
  H  H38  1  0.493944  0.646334  0.955083  1
  H  H39  1  0.511240  0.133032  0.892103  1
  H  H40  1  0.324019  0.979280  0.179929  1
  H  H41  1  0.396542  0.446784  0.432731  1
  H  H42  1  0.374602  0.306169  0.343412  1
  H  H43  1  0.459682  0.002295  0.619086  1
  H  H44  1  0.540318  0.502294  0.880914  1
  H  H45  1  0.488760  0.633032  0.607897  1
  H  H46  1  0.506056  0.146334  0.544917  1
  H  H47  1  0.608344  0.726883  0.913933  1
  H  H48  1  0.391656  0.273117  0.086067  1
  H  H49  1  0.493944  0.853666  0.455083  1
  H  H50  1  0.511240  0.366968  0.392103  1
  H  H51  1  0.459682  0.497706  0.119086  1
  H  H52  1  0.540318  0.997706  0.380914  1
  H  H53  1  0.625398  0.693831  0.656588  1
  H  H54  1  0.603458  0.553216  0.567269  1
  H  H55  1  0.675981  0.020720  0.820071  1
  H  H56  1  0.488760  0.866968  0.107897  1
  H  H57  1  0.506056  0.353666  0.044917  1
  H  H58  1  0.608344  0.773117  0.413933  1
  H  H59  1  0.740532  0.798815  0.796425  1
  H  H60  1  0.769206  0.419905  0.830210  1
  H  H61  1  0.797212  0.932144  0.883996  1
  H  H62  1  0.625398  0.806169  0.156588  1
  H  H63  1  0.603458  0.946784  0.067269  1
  H  H64  1  0.675981  0.479280  0.320071  1
  H  H65  1  0.751540  0.800776  0.537965  1
  H  H66  1  0.890825  0.331492  0.893717  1
  H  H67  1  0.740532  0.701185  0.296425  1
  H  H68  1  0.902840  0.490065  0.813527  1
  H  H69  1  0.769206  0.080095  0.330210  1
  H  H70  1  0.797212  0.567856  0.383996  1
  H  H71  1  0.873158  0.873565  0.606006  1
  H  H72  1  0.867632  0.892940  0.501876  1
  H  H73  1  0.751540  0.699224  0.037965  1
  H  H74  1  0.908317  0.498265  0.574787  1
  H  H75  1  0.890825  0.168508  0.393717  1
  H  H76  1  0.965548  0.284165  0.627480  1
  H  H77  1  0.902840  0.009935  0.313527  1
  H  H78  1  0.960266  0.302460  0.523664  1
  H  H79  1  0.873158  0.626435  0.106006  1
  H  H80  1  0.867632  0.607060  0.001876  1
  H  H81  1  0.908317  0.001735  0.074787  1
  H  H82  1  0.965548  0.215835  0.127480  1
  H  H83  1  0.960266  0.197540  0.023664  1
  C  C84  1  0.082402  0.838894  0.928184  1
  C  C85  1  0.179921  0.404780  0.950987  1
  C  C86  1  0.082402  0.661106  0.428184  1
  C  C87  1  0.145596  0.872377  0.667027  1
  C  C88  1  0.179921  0.095220  0.450987  1
  C  C89  1  0.245614  0.445273  0.677518  1
  C  C90  1  0.145596  0.627623  0.167027  1
  C  C91  1  0.425820  0.081582  0.877978  1
  C  C92  1  0.245614  0.054727  0.177518  1
  C  C93  1  0.528970  0.651306  0.901590  1
  C  C94  1  0.471030  0.151306  0.598410  1
  C  C95  1  0.425820  0.418418  0.377978  1
  C  C96  1  0.574180  0.581582  0.622022  1
  C  C97  1  0.528970  0.848694  0.401590  1
  C  C98  1  0.471030  0.348694  0.098410  1
  C  C99  1  0.754386  0.945273  0.822482  1
  C  C100  1  0.574180  0.918418  0.122022  1
  C  C101  1  0.854404  0.372377  0.832973  1
  C  C102  1  0.754386  0.554727  0.322482  1
  C  C103  1  0.820079  0.904780  0.549013  1
  C  C104  1  0.854404  0.127623  0.332973  1
  C  C105  1  0.917598  0.338894  0.571816  1
  C  C106  1  0.820079  0.595220  0.049013  1
  C  C107  1  0.917598  0.161106  0.071816  1
  N  N108  1  0.270392  0.704511  0.834413  1
  N  N109  1  0.270392  0.795489  0.334413  1
  N  N110  1  0.729608  0.204512  0.665587  1
  N  N111  1  0.729608  0.295490  0.165587  1
