# generated using pymatgen
data_Li2Co4OF8
_symmetry_space_group_name_H-M   'P 1'
_cell_length_a   5.26571879
_cell_length_b   5.16777343
_cell_length_c   14.15323342
_cell_angle_alpha   89.99948910
_cell_angle_beta   90.75146447
_cell_angle_gamma   119.38734332
_symmetry_Int_Tables_number   1
_chemical_formula_structural   Li2Co4OF8
_chemical_formula_sum   'Li4 Co8 O2 F16'
_cell_volume   335.54163854
_cell_formula_units_Z   2
loop_
 _symmetry_equiv_pos_site_id
 _symmetry_equiv_pos_as_xyz
  1  'x, y, z'
loop_
 _atom_site_type_symbol
 _atom_site_label
 _atom_site_symmetry_multiplicity
 _atom_site_fract_x
 _atom_site_fract_y
 _atom_site_fract_z
 _atom_site_occupancy
  Li  Li0  1  0.001548  0.996537  0.152044  1
  Li  Li1  1  0.013080  0.022395  0.357034  1
  Li  Li2  1  0.001487  0.005004  0.652033  1
  Li  Li3  1  0.013167  0.990715  0.857046  1
  Co  Co4  1  0.341434  0.654019  0.318867  1
  Co  Co5  1  0.324469  0.673375  0.014809  1
  Co  Co6  1  0.341458  0.687464  0.818877  1
  Co  Co7  1  0.324367  0.651032  0.514809  1
  Co  Co8  1  0.664750  0.329129  0.185567  1
  Co  Co9  1  0.664714  0.335617  0.685577  1
  Co  Co10  1  0.649114  0.302468  0.973187  1
  Co  Co11  1  0.648957  0.346603  0.473163  1
  O  O12  1  0.332684  0.951191  0.918485  1
  O  O13  1  0.332626  0.381437  0.418509  1
  F  F14  1  0.002608  0.694440  0.747453  1
  F  F15  1  0.021217  0.681326  0.417557  1
  F  F16  1  0.002645  0.308201  0.247442  1
  F  F17  1  0.021309  0.339947  0.917547  1
  F  F18  1  0.315235  0.325634  0.748110  1
  F  F19  1  0.358915  0.337855  0.083756  1
  F  F20  1  0.650278  0.989661  0.414490  1
  F  F21  1  0.315259  0.989617  0.248120  1
  F  F22  1  0.358857  0.021029  0.583757  1
  F  F23  1  0.650338  0.660666  0.914488  1
  F  F24  1  0.698740  0.693299  0.247288  1
  F  F25  1  0.669688  0.647884  0.588341  1
  F  F26  1  0.956216  0.623822  0.083007  1
  F  F27  1  0.669774  0.021840  0.088344  1
  F  F28  1  0.698737  0.005437  0.747274  1
  F  F29  1  0.956129  0.332354  0.583017  1
