# generated using pymatgen
data_Li5Mn5CoO12
_symmetry_space_group_name_H-M   'P 1'
_cell_length_a   8.59787053
_cell_length_b   9.07439341
_cell_length_c   10.16495609
_cell_angle_alpha   85.78525789
_cell_angle_beta   92.58818621
_cell_angle_gamma   61.02458686
_symmetry_Int_Tables_number   1
_chemical_formula_structural   Li5Mn5CoO12
_chemical_formula_sum   'Li15 Mn15 Co3 O36'
_cell_volume   688.95647217
_cell_formula_units_Z   3
loop_
 _symmetry_equiv_pos_site_id
 _symmetry_equiv_pos_as_xyz
  1  'x, y, z'
loop_
 _atom_site_type_symbol
 _atom_site_label
 _atom_site_symmetry_multiplicity
 _atom_site_fract_x
 _atom_site_fract_y
 _atom_site_fract_z
 _atom_site_occupancy
  Li  Li0  1  0.643728  0.925509  0.732662  1
  Li  Li1  1  0.694664  0.728655  0.268086  1
  Li  Li2  1  0.989460  0.412322  0.257193  1
  Li  Li3  1  0.693106  0.560940  0.748202  1
  Li  Li4  1  0.346904  0.895074  0.744498  1
  Li  Li5  1  0.334726  0.752330  0.255812  1
  Li  Li6  1  0.980899  0.101277  0.254053  1
  Li  Li7  1  0.021346  0.903900  0.747362  1
  Li  Li8  1  0.694066  0.241128  0.749950  1
  Li  Li9  1  0.031709  0.737860  0.270647  1
  Li  Li10  1  0.384331  0.400761  0.274703  1
  Li  Li11  1  0.672225  0.083567  0.262915  1
  Li  Li12  1  0.021932  0.578604  0.741893  1
  Li  Li13  1  0.293358  0.267277  0.727563  1
  Li  Li14  1  0.355195  0.078078  0.268153  1
  Mn  Mn15  1  0.830758  0.836090  0.499471  1
  Mn  Mn16  1  0.500069  0.832101  0.496214  1
  Mn  Mn17  1  0.834533  0.497629  0.502133  1
  Mn  Mn18  1  0.329906  0.666577  0.996075  1
  Mn  Mn19  1  0.669025  0.335470  0.009638  1
  Mn  Mn20  1  0.830403  0.169060  0.501467  1
  Mn  Mn21  1  0.496813  0.504468  0.503585  1
  Mn  Mn22  1  0.165051  0.836536  0.499096  1
  Mn  Mn23  1  0.994427  0.666287  0.003279  1
  Mn  Mn24  1  0.668186  0.004677  0.003562  1
  Mn  Mn25  1  0.165971  0.501261  0.493971  1
  Mn  Mn26  1  0.498088  0.167909  0.506568  1
  Mn  Mn27  1  0.003971  0.331813  0.991802  1
  Mn  Mn28  1  0.335327  0.997076  0.996074  1
  Mn  Mn29  1  0.165996  0.164817  0.505552  1
  Co  Co30  1  0.666518  0.661911  0.997004  1
  Co  Co31  1  0.335870  0.334533  0.004000  1
  Co  Co32  1  0.001315  0.001996  0.001800  1
  O  O33  1  0.942562  0.930737  0.380690  1
  O  O34  1  0.873170  0.912201  0.902661  1
  O  O35  1  0.941023  0.597100  0.378485  1
  O  O36  1  0.611028  0.930289  0.380703  1
  O  O37  1  0.785184  0.760141  0.098988  1
  O  O38  1  0.721428  0.737369  0.615667  1
  O  O39  1  0.536166  0.887761  0.892402  1
  O  O40  1  0.873276  0.553895  0.889483  1
  O  O41  1  0.457218  0.757215  0.095875  1
  O  O42  1  0.798608  0.432540  0.096851  1
  O  O43  1  0.277295  0.932139  0.379600  1
  O  O44  1  0.947993  0.263276  0.389448  1
  O  O45  1  0.608813  0.607656  0.394663  1
  O  O46  1  0.547344  0.562705  0.903339  1
  O  O47  1  0.719629  0.400806  0.614821  1
  O  O48  1  0.388576  0.738655  0.608606  1
  O  O49  1  0.200917  0.885533  0.891951  1
  O  O50  1  0.873369  0.233906  0.904164  1
  O  O51  1  0.130229  0.776606  0.105364  1
  O  O52  1  0.802524  0.114895  0.112204  1
  O  O53  1  0.608270  0.258554  0.388533  1
  O  O54  1  0.277524  0.600217  0.379066  1
  O  O55  1  0.450126  0.438508  0.100270  1
  O  O56  1  0.387406  0.393914  0.605010  1
  O  O57  1  0.050336  0.738210  0.610980  1
  O  O58  1  0.722356  0.068278  0.619265  1
  O  O59  1  0.202986  0.567949  0.906188  1
  O  O60  1  0.549328  0.243805  0.906798  1
  O  O61  1  0.121484  0.420810  0.099607  1
  O  O62  1  0.468424  0.109998  0.109026  1
  O  O63  1  0.279114  0.260994  0.387152  1
  O  O64  1  0.220506  0.238618  0.901564  1
  O  O65  1  0.389490  0.064917  0.621205  1
  O  O66  1  0.060033  0.406162  0.611905  1
  O  O67  1  0.126831  0.100635  0.096178  1
  O  O68  1  0.057057  0.056637  0.608608  1
