# generated using pymatgen
data_LiCa2Nb3O10
_symmetry_space_group_name_H-M   'P 1'
_cell_length_a   5.53906596
_cell_length_b   5.55501745
_cell_length_c   27.48011298
_cell_angle_alpha   89.97432296
_cell_angle_beta   90.44910252
_cell_angle_gamma   90.01185116
_symmetry_Int_Tables_number   1
_chemical_formula_structural   LiCa2Nb3O10
_chemical_formula_sum   'Li4 Ca8 Nb12 O40'
_cell_volume   845.52622736
_cell_formula_units_Z   4
loop_
 _symmetry_equiv_pos_site_id
 _symmetry_equiv_pos_as_xyz
  1  'x, y, z'
loop_
 _atom_site_type_symbol
 _atom_site_label
 _atom_site_symmetry_multiplicity
 _atom_site_fract_x
 _atom_site_fract_y
 _atom_site_fract_z
 _atom_site_occupancy
  Li  Li0  1  0.749095  0.245047  0.749140  1
  Li  Li1  1  0.750591  0.744910  0.760486  1
  Li  Li2  1  0.747006  0.756996  0.260708  1
  Li  Li3  1  0.751785  0.255245  0.248683  1
  Ca  Ca4  1  0.010107  0.009868  0.584325  1
  Ca  Ca5  1  0.009967  0.489897  0.084321  1
  Ca  Ca6  1  0.485837  0.482383  0.580710  1
  Ca  Ca7  1  0.516297  0.983035  0.920281  1
  Ca  Ca8  1  0.485807  0.017690  0.080683  1
  Ca  Ca9  1  0.516195  0.517249  0.420235  1
  Ca  Ca10  1  0.988513  0.510643  0.916482  1
  Ca  Ca11  1  0.988479  0.989468  0.416468  1
  Nb  Nb12  1  0.006348  0.001932  0.843991  1
  Nb  Nb13  1  0.000306  0.500478  0.500064  1
  Nb  Nb14  1  0.006212  0.498576  0.343857  1
  Nb  Nb15  1  0.000265  0.999580  0.000063  1
  Nb  Nb16  1  0.496985  0.489350  0.843985  1
  Nb  Nb17  1  0.497113  0.011423  0.343855  1
  Nb  Nb18  1  0.500435  0.000216  0.500042  1
  Nb  Nb19  1  0.503012  0.991206  0.656597  1
  Nb  Nb20  1  0.500454  0.499831  0.000056  1
  Nb  Nb21  1  0.502825  0.508285  0.156496  1
  Nb  Nb22  1  0.994221  0.498243  0.656741  1
  Nb  Nb23  1  0.994262  0.000904  0.156552  1
  O  O24  1  0.997136  0.036791  0.779007  1
  O  O25  1  0.997296  0.463163  0.279042  1
  O  O26  1  0.047498  0.437182  0.569807  1
  O  O27  1  0.047608  0.062719  0.069804  1
  O  O28  1  0.189157  0.309965  0.983169  1
  O  O29  1  0.189039  0.189874  0.483191  1
  O  O30  1  0.247040  0.744827  0.640506  1
  O  O31  1  0.251999  0.744322  0.860369  1
  O  O32  1  0.248726  0.244967  0.653636  1
  O  O33  1  0.254151  0.243639  0.868542  1
  O  O34  1  0.246837  0.754518  0.140420  1
  O  O35  1  0.252077  0.756055  0.360224  1
  O  O36  1  0.248794  0.254378  0.153695  1
  O  O37  1  0.253897  0.256514  0.368398  1
  O  O38  1  0.317543  0.682248  0.499781  1
  O  O39  1  0.317305  0.817538  0.999693  1
  O  O40  1  0.438565  0.045630  0.569742  1
  O  O41  1  0.438333  0.454004  0.069738  1
  O  O42  1  0.503770  0.454367  0.779007  1
  O  O43  1  0.505317  0.046163  0.278971  1
  O  O44  1  0.569621  0.969756  0.720749  1
  O  O45  1  0.569797  0.530426  0.220766  1
  O  O46  1  0.563907  0.549731  0.930075  1
  O  O47  1  0.563505  0.950186  0.430052  1
  O  O48  1  0.682010  0.317418  0.499838  1
  O  O49  1  0.682144  0.182719  0.999914  1
  O  O50  1  0.746438  0.743497  0.630911  1
  O  O51  1  0.751866  0.745230  0.844369  1
  O  O52  1  0.747709  0.244157  0.638026  1
  O  O53  1  0.753235  0.245230  0.862926  1
  O  O54  1  0.746009  0.756409  0.130734  1
  O  O55  1  0.751767  0.755235  0.344317  1
  O  O56  1  0.747876  0.255779  0.138097  1
  O  O57  1  0.752973  0.255327  0.363053  1
  O  O58  1  0.811778  0.811144  0.516509  1
  O  O59  1  0.811598  0.688916  0.016545  1
  O  O60  1  0.947894  0.934363  0.930091  1
  O  O61  1  0.948352  0.566002  0.430080  1
  O  O62  1  0.930201  0.519198  0.720770  1
  O  O63  1  0.930119  0.978956  0.220713  1
