# generated using pymatgen
data_LiFeF3
_symmetry_space_group_name_H-M   'P 1'
_cell_length_a   10.57564361
_cell_length_b   10.57564361
_cell_length_c   10.57564361
_cell_angle_alpha   108.72611314
_cell_angle_beta   108.72611314
_cell_angle_gamma   110.97193928
_symmetry_Int_Tables_number   1
_chemical_formula_structural   LiFeF3
_chemical_formula_sum   'Li16 Fe16 F48'
_cell_volume   910.06906265
_cell_formula_units_Z   16
loop_
 _symmetry_equiv_pos_site_id
 _symmetry_equiv_pos_as_xyz
  1  'x, y, z'
loop_
 _atom_site_type_symbol
 _atom_site_label
 _atom_site_symmetry_multiplicity
 _atom_site_fract_x
 _atom_site_fract_y
 _atom_site_fract_z
 _atom_site_occupancy
  Li  Li0  1  0.877675  0.255097  0.123916  1
  Li  Li1  1  0.500000  0.000000  0.000000  1
  Li  Li2  1  0.755097  0.131181  0.377422  1
  Li  Li3  1  0.875000  0.625000  0.250000  1
  Li  Li4  1  0.000000  0.000000  0.000000  1
  Li  Li5  1  0.500000  0.000000  0.500000  1
  Li  Li6  1  0.375000  0.125000  0.250000  1
  Li  Li7  1  0.253759  0.377675  0.122578  1
  Li  Li8  1  0.368819  0.246241  0.623916  1
  Li  Li9  1  0.500000  0.500000  0.500000  1
  Li  Li10  1  0.631181  0.753759  0.376084  1
  Li  Li11  1  0.746241  0.622325  0.877422  1
  Li  Li12  1  0.125000  0.375000  0.750000  1
  Li  Li13  1  0.625000  0.875000  0.750000  1
  Li  Li14  1  0.244903  0.868819  0.622578  1
  Li  Li15  1  0.122325  0.744903  0.876084  1
  Fe  Fe16  1  0.869460  0.119460  0.750000  1
  Fe  Fe17  1  0.500000  0.500000  0.000000  1
  Fe  Fe18  1  0.619460  0.369460  0.250000  1
  Fe  Fe19  1  0.761054  0.898145  0.125472  1
  Fe  Fe20  1  0.727325  0.364418  0.625472  1
  Fe  Fe21  1  0.864418  0.738946  0.637092  1
  Fe  Fe22  1  0.398145  0.772675  0.137092  1
  Fe  Fe23  1  0.000000  0.500000  0.000000  1
  Fe  Fe24  1  0.000000  0.000000  0.500000  1
  Fe  Fe25  1  0.601855  0.227325  0.862908  1
  Fe  Fe26  1  0.135582  0.261054  0.362908  1
  Fe  Fe27  1  0.238946  0.101855  0.874528  1
  Fe  Fe28  1  0.272675  0.635582  0.374528  1
  Fe  Fe29  1  0.130540  0.880540  0.250000  1
  Fe  Fe30  1  0.380540  0.630540  0.750000  1
  Fe  Fe31  1  0.000000  0.500000  0.500000  1
  F  F32  1  0.926589  0.111879  0.146346  1
  F  F33  1  0.928274  0.104724  0.384354  1
  F  F34  1  0.415311  0.139129  0.091487  1
  F  F35  1  0.677936  0.452038  0.092320  1
  F  F36  1  0.697192  0.148453  0.523976  1
  F  F37  1  0.776754  0.308287  0.366101  1
  F  F38  1  0.442184  0.410651  0.133899  1
  F  F39  1  0.176176  0.084689  0.223818  1
  F  F40  1  0.639129  0.047641  0.723818  1
  F  F41  1  0.124477  0.173216  0.976024  1
  F  F42  1  0.859717  0.585616  0.407680  1
  F  F43  1  0.952038  0.359717  0.774102  1
  F  F44  1  0.914384  0.822064  0.274102  1
  F  F45  1  0.547641  0.323824  0.408513  1
  F  F46  1  0.534468  0.219757  0.646346  1
  F  F47  1  0.604724  0.720370  0.176450  1
  F  F48  1  0.956080  0.571726  0.676450  1
  F  F49  1  0.910651  0.276754  0.968467  1
  F  F50  1  0.191713  0.057816  0.468467  1
  F  F51  1  0.673216  0.197192  0.048739  1
  F  F52  1  0.351547  0.375523  0.548739  1
  F  F53  1  0.220370  0.543920  0.115646  1
  F  F54  1  0.388121  0.034468  0.814711  1
  F  F55  1  0.280243  0.426589  0.314711  1
  F  F56  1  0.719757  0.573411  0.685289  1
  F  F57  1  0.611879  0.965532  0.185289  1
  F  F58  1  0.779630  0.456080  0.884354  1
  F  F59  1  0.326784  0.802808  0.951261  1
  F  F60  1  0.648453  0.624477  0.451261  1
  F  F61  1  0.089349  0.723246  0.031533  1
  F  F62  1  0.808287  0.942184  0.531533  1
  F  F63  1  0.043920  0.428274  0.323550  1
  F  F64  1  0.395276  0.279630  0.823550  1
  F  F65  1  0.465532  0.780243  0.353654  1
  F  F66  1  0.452359  0.676176  0.591487  1
  F  F67  1  0.047962  0.640283  0.225898  1
  F  F68  1  0.085616  0.177936  0.725898  1
  F  F69  1  0.140283  0.414384  0.592320  1
  F  F70  1  0.875523  0.826784  0.023976  1
  F  F71  1  0.360871  0.952359  0.276182  1
  F  F72  1  0.823824  0.915311  0.776182  1
  F  F73  1  0.557816  0.589349  0.866101  1
  F  F74  1  0.223246  0.691713  0.633899  1
  F  F75  1  0.302808  0.851547  0.476024  1
  F  F76  1  0.322064  0.547962  0.907680  1
  F  F77  1  0.584689  0.860871  0.908513  1
  F  F78  1  0.071726  0.895276  0.615646  1
  F  F79  1  0.073411  0.888121  0.853654  1
