# generated using pymatgen
data_Li6Bi2B4SO16
_symmetry_space_group_name_H-M   'P 1'
_cell_length_a   9.73614101
_cell_length_b   9.73614083
_cell_length_c   9.73614098
_cell_angle_alpha   60.00000006
_cell_angle_beta   59.99999986
_cell_angle_gamma   59.99999936
_symmetry_Int_Tables_number   1
_chemical_formula_structural   Li6Bi2B4SO16
_chemical_formula_sum   'Li12 Bi4 B8 S2 O32'
_cell_volume   652.59772603
_cell_formula_units_Z   2
loop_
 _symmetry_equiv_pos_site_id
 _symmetry_equiv_pos_as_xyz
  1  'x, y, z'
loop_
 _atom_site_type_symbol
 _atom_site_label
 _atom_site_symmetry_multiplicity
 _atom_site_fract_x
 _atom_site_fract_y
 _atom_site_fract_z
 _atom_site_occupancy
  Li  Li0  1  0.161469  0.088531  0.088531  1
  Li  Li1  1  0.161469  0.661469  0.088531  1
  Li  Li2  1  0.161469  0.088531  0.661469  1
  Li  Li3  1  0.411469  0.338531  0.338531  1
  Li  Li4  1  0.588531  0.088531  0.661469  1
  Li  Li5  1  0.588531  0.661469  0.088531  1
  Li  Li6  1  0.411469  0.338531  0.911469  1
  Li  Li7  1  0.411469  0.911469  0.338531  1
  Li  Li8  1  0.588531  0.661469  0.661469  1
  Li  Li9  1  0.838531  0.338531  0.911469  1
  Li  Li10  1  0.838531  0.911469  0.338531  1
  Li  Li11  1  0.838531  0.911469  0.911469  1
  Bi  Bi12  1  0.000000  0.000000  0.500000  1
  Bi  Bi13  1  0.000000  0.500000  0.000000  1
  Bi  Bi14  1  0.000000  0.500000  0.500000  1
  Bi  Bi15  1  0.500000  0.500000  0.500000  1
  B  B16  1  0.183361  0.272213  0.272213  1
  B  B17  1  0.227787  0.727787  0.316639  1
  B  B18  1  0.227787  0.316639  0.727787  1
  B  B19  1  0.227787  0.727787  0.727787  1
  B  B20  1  0.772213  0.272213  0.272213  1
  B  B21  1  0.772213  0.683361  0.272213  1
  B  B22  1  0.772213  0.272213  0.683361  1
  B  B23  1  0.816639  0.727787  0.727787  1
  S  S24  1  0.625000  0.125000  0.125000  1
  S  S25  1  0.375000  0.875000  0.875000  1
  O  O26  1  0.182181  0.269933  0.131766  1
  O  O27  1  0.182181  0.131766  0.416120  1
  O  O28  1  0.182181  0.416120  0.269933  1
  O  O29  1  0.083880  0.730067  0.317819  1
  O  O30  1  0.562296  0.062296  0.062296  1
  O  O31  1  0.230067  0.317819  0.583880  1
  O  O32  1  0.083880  0.317819  0.868234  1
  O  O33  1  0.562296  0.313110  0.062296  1
  O  O34  1  0.562296  0.062296  0.313110  1
  O  O35  1  0.230067  0.868234  0.317819  1
  O  O36  1  0.368234  0.583880  0.317819  1
  O  O37  1  0.813110  0.062296  0.062296  1
  O  O38  1  0.083880  0.868234  0.730067  1
  O  O39  1  0.368234  0.317819  0.730067  1
  O  O40  1  0.230067  0.583880  0.868234  1
  O  O41  1  0.631766  0.269933  0.416120  1
  O  O42  1  0.368234  0.730067  0.583880  1
  O  O43  1  0.769933  0.416120  0.131766  1
  O  O44  1  0.631766  0.682181  0.269933  1
  O  O45  1  0.916120  0.131766  0.269933  1
  O  O46  1  0.186890  0.937704  0.937704  1
  O  O47  1  0.631766  0.416120  0.682181  1
  O  O48  1  0.769933  0.131766  0.682181  1
  O  O49  1  0.437704  0.937704  0.686890  1
  O  O50  1  0.437704  0.686890  0.937704  1
  O  O51  1  0.916120  0.682181  0.131766  1
  O  O52  1  0.769933  0.682181  0.416120  1
  O  O53  1  0.437704  0.937704  0.937704  1
  O  O54  1  0.916120  0.269933  0.682181  1
  O  O55  1  0.817819  0.583880  0.730067  1
  O  O56  1  0.817819  0.868234  0.583880  1
  O  O57  1  0.817819  0.730067  0.868234  1
