# generated using pymatgen
data_Cs2TiV3(PO6)3
_symmetry_space_group_name_H-M   'P 1'
_cell_length_a   13.90710884
_cell_length_b   13.90710895
_cell_length_c   9.68810421
_cell_angle_alpha   90.00000000
_cell_angle_beta   90.00000000
_cell_angle_gamma   119.99999975
_symmetry_Int_Tables_number   1
_chemical_formula_structural   Cs2TiV3(PO6)3
_chemical_formula_sum   'Cs8 Ti4 V12 P12 O72'
_cell_volume   1622.71834081
_cell_formula_units_Z   4
loop_
 _symmetry_equiv_pos_site_id
 _symmetry_equiv_pos_as_xyz
  1  'x, y, z'
loop_
 _atom_site_type_symbol
 _atom_site_label
 _atom_site_symmetry_multiplicity
 _atom_site_fract_x
 _atom_site_fract_y
 _atom_site_fract_z
 _atom_site_occupancy
  Cs  Cs0  1  0.000000  0.000000  0.090566  1
  Cs  Cs1  1  0.500000  0.500000  0.549478  1
  Cs  Cs2  1  0.500000  0.000000  0.549478  1
  Cs  Cs3  1  0.000000  0.500000  0.049478  1
  Cs  Cs4  1  0.500000  0.000000  0.049478  1
  Cs  Cs5  1  0.000000  0.500000  0.549478  1
  Cs  Cs6  1  0.000000  0.000000  0.590566  1
  Cs  Cs7  1  0.500000  0.500000  0.049478  1
  Ti  Ti8  1  0.666667  0.333333  0.543101  1
  Ti  Ti9  1  0.333333  0.666667  0.043101  1
  Ti  Ti10  1  0.666667  0.333333  0.043101  1
  Ti  Ti11  1  0.333333  0.666667  0.543101  1
  V  V12  1  0.234469  0.973959  0.340370  1
  V  V13  1  0.973959  0.234469  0.840370  1
  V  V14  1  0.739490  0.765531  0.340370  1
  V  V15  1  0.234469  0.260510  0.840370  1
  V  V16  1  0.765531  0.026041  0.340370  1
  V  V17  1  0.260510  0.234469  0.340370  1
  V  V18  1  0.260510  0.026041  0.840370  1
  V  V19  1  0.026041  0.260510  0.340370  1
  V  V20  1  0.026041  0.765531  0.840370  1
  V  V21  1  0.765531  0.739490  0.840370  1
  V  V22  1  0.973959  0.739490  0.340370  1
  V  V23  1  0.739490  0.973959  0.840370  1
  P  P24  1  0.474034  0.199176  0.293275  1
  P  P25  1  0.725141  0.525966  0.293275  1
  P  P26  1  0.199176  0.725141  0.293275  1
  P  P27  1  0.800824  0.525966  0.793275  1
  P  P28  1  0.274859  0.800824  0.793275  1
  P  P29  1  0.725141  0.199176  0.793275  1
  P  P30  1  0.474034  0.274859  0.793275  1
  P  P31  1  0.199176  0.474034  0.793275  1
  P  P32  1  0.525966  0.800824  0.293275  1
  P  P33  1  0.525966  0.725141  0.793275  1
  P  P34  1  0.800824  0.274859  0.293275  1
  P  P35  1  0.274859  0.474034  0.293275  1
  O  O36  1  0.321722  0.774588  0.924445  1
  O  O37  1  0.261841  0.237204  0.507843  1
  O  O38  1  0.547134  0.225412  0.424445  1
  O  O39  1  0.321280  0.392876  0.292778  1
  O  O40  1  0.785014  0.875576  0.794982  1
  O  O41  1  0.774588  0.452866  0.924445  1
  O  O42  1  0.124424  0.214986  0.294982  1
  O  O43  1  0.261841  0.024636  0.007843  1
  O  O44  1  0.452866  0.774588  0.424445  1
  O  O45  1  0.225412  0.678278  0.424445  1
  O  O46  1  0.678278  0.452866  0.424445  1
  O  O47  1  0.774588  0.321722  0.424445  1
  O  O48  1  0.909438  0.785014  0.794982  1
  O  O49  1  0.024636  0.762796  0.007843  1
  O  O50  1  0.146470  0.733063  0.791973  1
  O  O51  1  0.090562  0.875576  0.294982  1
  O  O52  1  0.738159  0.975364  0.007843  1
  O  O53  1  0.975364  0.237204  0.007843  1
  O  O54  1  0.547501  0.225379  0.163034  1
  O  O55  1  0.678278  0.225412  0.924445  1
  O  O56  1  0.762796  0.738159  0.007843  1
  O  O57  1  0.733063  0.586593  0.791973  1
  O  O58  1  0.547501  0.322122  0.663034  1
  O  O59  1  0.266937  0.413407  0.791973  1
  O  O60  1  0.774621  0.322122  0.163034  1
  O  O61  1  0.452499  0.774621  0.163034  1
  O  O62  1  0.146470  0.413407  0.291973  1
  O  O63  1  0.875576  0.785014  0.294982  1
  O  O64  1  0.321722  0.547134  0.424445  1
  O  O65  1  0.677878  0.225379  0.663034  1
  O  O66  1  0.607124  0.928404  0.292778  1
  O  O67  1  0.392876  0.321280  0.792778  1
  O  O68  1  0.928404  0.607124  0.792778  1
  O  O69  1  0.322122  0.774621  0.663034  1
  O  O70  1  0.071596  0.392876  0.792778  1
  O  O71  1  0.738159  0.762796  0.507843  1
  O  O72  1  0.225412  0.547134  0.924445  1
  O  O73  1  0.266937  0.853530  0.291973  1
  O  O74  1  0.071596  0.678720  0.292778  1
  O  O75  1  0.392876  0.071596  0.292778  1
  O  O76  1  0.607124  0.678720  0.792778  1
  O  O77  1  0.413407  0.146470  0.791973  1
  O  O78  1  0.090562  0.214986  0.794982  1
  O  O79  1  0.214986  0.124424  0.794982  1
  O  O80  1  0.225379  0.547501  0.663034  1
  O  O81  1  0.975364  0.738159  0.507843  1
  O  O82  1  0.321280  0.928404  0.792778  1
  O  O83  1  0.024636  0.261841  0.507843  1
  O  O84  1  0.586593  0.853530  0.791973  1
  O  O85  1  0.678720  0.607124  0.292778  1
  O  O86  1  0.733063  0.146470  0.291973  1
  O  O87  1  0.678720  0.071596  0.792778  1
  O  O88  1  0.677878  0.452499  0.163034  1
  O  O89  1  0.785014  0.909438  0.294982  1
  O  O90  1  0.237204  0.261841  0.007843  1
  O  O91  1  0.853530  0.266937  0.791973  1
  O  O92  1  0.322122  0.547501  0.163034  1
  O  O93  1  0.547134  0.321722  0.924445  1
  O  O94  1  0.909438  0.124424  0.294982  1
  O  O95  1  0.762796  0.024636  0.507843  1
  O  O96  1  0.452866  0.678278  0.924445  1
  O  O97  1  0.413407  0.266937  0.291973  1
  O  O98  1  0.124424  0.909438  0.794982  1
  O  O99  1  0.853530  0.586593  0.291973  1
  O  O100  1  0.928404  0.321280  0.292778  1
  O  O101  1  0.237204  0.975364  0.507843  1
  O  O102  1  0.225379  0.677878  0.163034  1
  O  O103  1  0.452499  0.677878  0.663034  1
  O  O104  1  0.774621  0.452499  0.663034  1
  O  O105  1  0.586593  0.733063  0.291973  1
  O  O106  1  0.214986  0.090562  0.294982  1
  O  O107  1  0.875576  0.090562  0.794982  1
