# generated using pymatgen
data_Li3Ti2V3O10
_symmetry_space_group_name_H-M   'P 1'
_cell_length_a   5.21625170
_cell_length_b   5.14980183
_cell_length_c   7.81132511
_cell_angle_alpha   72.87705361
_cell_angle_beta   106.67152875
_cell_angle_gamma   101.79852698
_symmetry_Int_Tables_number   1
_chemical_formula_structural   Li3Ti2V3O10
_chemical_formula_sum   'Li3 Ti2 V3 O10'
_cell_volume   190.44530691
_cell_formula_units_Z   1
loop_
 _symmetry_equiv_pos_site_id
 _symmetry_equiv_pos_as_xyz
  1  'x, y, z'
loop_
 _atom_site_type_symbol
 _atom_site_label
 _atom_site_symmetry_multiplicity
 _atom_site_fract_x
 _atom_site_fract_y
 _atom_site_fract_z
 _atom_site_occupancy
  Li  Li0  1  0.224625  0.509287  0.402346  1
  Li  Li1  1  0.500000  0.000000  0.500000  1
  Li  Li2  1  0.775375  0.490713  0.597654  1
  Ti  Ti3  1  0.115993  0.021462  0.686892  1
  Ti  Ti4  1  0.884007  0.978538  0.313108  1
  V  V5  1  0.000000  0.500000  0.000000  1
  V  V6  1  0.689853  0.969957  0.898714  1
  V  V7  1  0.310147  0.030043  0.101286  1
  O  O8  1  0.033714  0.222983  0.856126  1
  O  O9  1  0.110090  0.783791  0.527296  1
  O  O10  1  0.323854  0.783791  0.939690  1
  O  O11  1  0.206756  0.256587  0.228862  1
  O  O12  1  0.449059  0.204724  0.661162  1
  O  O13  1  0.550941  0.795276  0.338838  1
  O  O14  1  0.793244  0.743413  0.771138  1
  O  O15  1  0.676146  0.216209  0.060310  1
  O  O16  1  0.889910  0.216209  0.472704  1
  O  O17  1  0.966286  0.777017  0.143874  1
