# generated using pymatgen
data_Na2Ti2O5
_symmetry_space_group_name_H-M   'P 1'
_cell_length_a   6.71995276
_cell_length_b   16.61576697
_cell_length_c   5.51472504
_cell_angle_alpha   90.00000000
_cell_angle_beta   90.00000000
_cell_angle_gamma   90.00000000
_symmetry_Int_Tables_number   1
_chemical_formula_structural   Na2Ti2O5
_chemical_formula_sum   'Na8 Ti8 O20'
_cell_volume   615.75858638
_cell_formula_units_Z   4
loop_
 _symmetry_equiv_pos_site_id
 _symmetry_equiv_pos_as_xyz
  1  'x, y, z'
loop_
 _atom_site_type_symbol
 _atom_site_label
 _atom_site_symmetry_multiplicity
 _atom_site_fract_x
 _atom_site_fract_y
 _atom_site_fract_z
 _atom_site_occupancy
  Na  Na0  1  0.099042  0.056261  0.784807  1
  Na  Na1  1  0.099042  0.556261  0.215193  1
  Na  Na2  1  0.400958  0.056261  0.284807  1
  Na  Na3  1  0.400958  0.556261  0.715193  1
  Na  Na4  1  0.599042  0.443739  0.284807  1
  Na  Na5  1  0.599042  0.943739  0.715193  1
  Na  Na6  1  0.900958  0.443739  0.784807  1
  Na  Na7  1  0.900958  0.943739  0.215193  1
  Ti  Ti8  1  0.103673  0.349812  0.297895  1
  Ti  Ti9  1  0.103673  0.849812  0.702105  1
  Ti  Ti10  1  0.396326  0.349812  0.797895  1
  Ti  Ti11  1  0.396326  0.849812  0.202105  1
  Ti  Ti12  1  0.603673  0.650188  0.202105  1
  Ti  Ti13  1  0.603673  0.150188  0.797895  1
  Ti  Ti14  1  0.896327  0.150188  0.297895  1
  Ti  Ti15  1  0.896327  0.650188  0.702105  1
  O  O16  1  0.000000  0.250000  0.226607  1
  O  O17  1  0.000000  0.750000  0.773393  1
  O  O18  1  0.060735  0.072357  0.216094  1
  O  O19  1  0.060735  0.572357  0.783906  1
  O  O20  1  0.157559  0.363295  0.628170  1
  O  O21  1  0.157559  0.863295  0.371830  1
  O  O22  1  0.342441  0.363295  0.128170  1
  O  O23  1  0.342441  0.863295  0.871830  1
  O  O24  1  0.439265  0.072357  0.716094  1
  O  O25  1  0.439265  0.572357  0.283906  1
  O  O26  1  0.500000  0.250000  0.726607  1
  O  O27  1  0.500000  0.750000  0.273393  1
  O  O28  1  0.560735  0.427643  0.716094  1
  O  O29  1  0.560735  0.927643  0.283906  1
  O  O30  1  0.657559  0.136705  0.128170  1
  O  O31  1  0.657559  0.636705  0.871830  1
  O  O32  1  0.842441  0.136705  0.628170  1
  O  O33  1  0.842441  0.636705  0.371830  1
  O  O34  1  0.939265  0.427643  0.216094  1
  O  O35  1  0.939265  0.927643  0.783906  1
