# generated using pymatgen
data_Li2Co(Si2O5)2
_symmetry_space_group_name_H-M   'P 1'
_cell_length_a   9.58392043
_cell_length_b   14.27680357
_cell_length_c   7.06883929
_cell_angle_alpha   90.00000000
_cell_angle_beta   90.00000000
_cell_angle_gamma   90.00000000
_symmetry_Int_Tables_number   1
_chemical_formula_structural   Li2Co(Si2O5)2
_chemical_formula_sum   'Li8 Co4 Si16 O40'
_cell_volume   967.21337099
_cell_formula_units_Z   4
loop_
 _symmetry_equiv_pos_site_id
 _symmetry_equiv_pos_as_xyz
  1  'x, y, z'
loop_
 _atom_site_type_symbol
 _atom_site_label
 _atom_site_symmetry_multiplicity
 _atom_site_fract_x
 _atom_site_fract_y
 _atom_site_fract_z
 _atom_site_occupancy
  Li  Li0  1  0.089655  0.824176  0.662001  1
  Li  Li1  1  0.158626  0.532131  0.063732  1
  Li  Li2  1  0.341374  0.467869  0.563732  1
  Li  Li3  1  0.410345  0.175824  0.162001  1
  Li  Li4  1  0.589655  0.675824  0.337999  1
  Li  Li5  1  0.658626  0.967869  0.936268  1
  Li  Li6  1  0.841374  0.032131  0.436268  1
  Li  Li7  1  0.910345  0.324176  0.837999  1
  Co  Co8  1  0.193397  0.345854  0.001637  1
  Co  Co9  1  0.306603  0.654146  0.501637  1
  Co  Co10  1  0.693397  0.154146  0.998363  1
  Co  Co11  1  0.806603  0.845854  0.498363  1
  Si  Si12  1  0.026430  0.568482  0.468612  1
  Si  Si13  1  0.060621  0.898408  0.241525  1
  Si  Si14  1  0.100324  0.218319  0.311244  1
  Si  Si15  1  0.136787  0.175663  0.733679  1
  Si  Si16  1  0.363213  0.824337  0.233679  1
  Si  Si17  1  0.399676  0.781681  0.811244  1
  Si  Si18  1  0.439379  0.101592  0.741525  1
  Si  Si19  1  0.473570  0.431518  0.968612  1
  Si  Si20  1  0.526430  0.931518  0.531388  1
  Si  Si21  1  0.560621  0.601592  0.758475  1
  Si  Si22  1  0.600324  0.281681  0.688756  1
  Si  Si23  1  0.636787  0.324337  0.266321  1
  Si  Si24  1  0.863213  0.675663  0.766321  1
  Si  Si25  1  0.899676  0.718319  0.188756  1
  Si  Si26  1  0.939379  0.398408  0.258475  1
  Si  Si27  1  0.973570  0.068482  0.031388  1
  O  O28  1  0.985301  0.812536  0.124678  1
  O  O29  1  0.988066  0.152193  0.192447  1
  O  O30  1  0.029785  0.429331  0.076007  1
  O  O31  1  0.016052  0.105332  0.819692  1
  O  O32  1  0.081283  0.983832  0.088011  1
  O  O33  1  0.137827  0.160294  0.504219  1
  O  O34  1  0.100835  0.282022  0.794838  1
  O  O35  1  0.189594  0.538963  0.465171  1
  O  O36  1  0.212421  0.860247  0.315896  1
  O  O37  1  0.237245  0.244617  0.188287  1
  O  O38  1  0.262755  0.755383  0.688287  1
  O  O39  1  0.287579  0.139753  0.815896  1
  O  O40  1  0.310406  0.461037  0.965171  1
  O  O41  1  0.399165  0.717978  0.294838  1
  O  O42  1  0.362173  0.839706  0.004219  1
  O  O43  1  0.418717  0.016168  0.588011  1
  O  O44  1  0.483948  0.894668  0.319692  1
  O  O45  1  0.470215  0.570669  0.576007  1
  O  O46  1  0.511934  0.847807  0.692447  1
  O  O47  1  0.514699  0.187464  0.624678  1
  O  O48  1  0.485301  0.687464  0.875322  1
  O  O49  1  0.488066  0.347807  0.807553  1
  O  O50  1  0.529785  0.070669  0.923993  1
  O  O51  1  0.516052  0.394668  0.180308  1
  O  O52  1  0.581283  0.516168  0.911989  1
  O  O53  1  0.637827  0.339706  0.495781  1
  O  O54  1  0.600835  0.217978  0.205162  1
  O  O55  1  0.689594  0.961037  0.534829  1
  O  O56  1  0.712421  0.639753  0.684104  1
  O  O57  1  0.737245  0.255383  0.811713  1
  O  O58  1  0.762755  0.744617  0.311713  1
  O  O59  1  0.787579  0.360247  0.184104  1
  O  O60  1  0.810406  0.038963  0.034829  1
  O  O61  1  0.899165  0.782022  0.705162  1
  O  O62  1  0.862173  0.660294  0.995781  1
  O  O63  1  0.918717  0.483833  0.411989  1
  O  O64  1  0.983948  0.605332  0.680308  1
  O  O65  1  0.970215  0.929331  0.423993  1
  O  O66  1  0.011934  0.652193  0.307553  1
  O  O67  1  0.014699  0.312536  0.375322  1
