# generated using pymatgen
data_Li7Ti3(SiO6)2
_symmetry_space_group_name_H-M   'P 1'
_cell_length_a   4.92695624
_cell_length_b   4.92627505
_cell_length_c   9.93287260
_cell_angle_alpha   94.74461021
_cell_angle_beta   99.52082318
_cell_angle_gamma   59.99542338
_symmetry_Int_Tables_number   1
_chemical_formula_structural   Li7Ti3(SiO6)2
_chemical_formula_sum   'Li7 Ti3 Si2 O12'
_cell_volume   205.90129548
_cell_formula_units_Z   1
loop_
 _symmetry_equiv_pos_site_id
 _symmetry_equiv_pos_as_xyz
  1  'x, y, z'
loop_
 _atom_site_type_symbol
 _atom_site_label
 _atom_site_symmetry_multiplicity
 _atom_site_fract_x
 _atom_site_fract_y
 _atom_site_fract_z
 _atom_site_occupancy
  Li  Li0  1  0.668716  0.666667  0.991774  1
  Li  Li1  1  0.916667  0.666667  0.750000  1
  Li  Li2  1  0.836109  0.338039  0.508165  1
  Li  Li3  1  0.325851  0.338039  0.991835  1
  Li  Li4  1  0.164617  0.666667  0.508226  1
  Li  Li5  1  0.507482  0.995294  0.508165  1
  Li  Li6  1  0.997224  0.995294  0.991835  1
  Ti  Ti7  1  0.416667  0.666667  0.250000  1
  Ti  Ti8  1  0.750477  0.999046  0.250000  1
  Ti  Ti9  1  0.082856  0.334287  0.250000  1
  Si  Si10  1  0.583341  0.333317  0.750000  1
  Si  Si11  1  0.249992  0.000016  0.750000  1
  O  O12  1  0.791712  0.666667  0.376107  1
  O  O13  1  0.950672  0.293363  0.851988  1
  O  O14  1  0.708883  0.333110  0.126625  1
  O  O15  1  0.509388  0.666667  0.648026  1
  O  O16  1  0.458007  0.333110  0.373375  1
  O  O17  1  0.882661  0.039971  0.648012  1
  O  O18  1  0.323945  0.666667  0.851974  1
  O  O19  1  0.041622  0.666667  0.123893  1
  O  O20  1  0.577368  0.039971  0.851988  1
  O  O21  1  0.375326  0.000224  0.126625  1
  O  O22  1  0.255965  0.293363  0.648012  1
  O  O23  1  0.124450  0.000224  0.373375  1
