# generated using pymatgen
data_Co2OF3
_symmetry_space_group_name_H-M   'P 1'
_cell_length_a   6.19190949
_cell_length_b   6.83188689
_cell_length_c   7.12766169
_cell_angle_alpha   90.00000000
_cell_angle_beta   115.74443038
_cell_angle_gamma   90.00000000
_symmetry_Int_Tables_number   1
_chemical_formula_structural   Co2OF3
_chemical_formula_sum   'Co8 O4 F12'
_cell_volume   271.58890212
_cell_formula_units_Z   4
loop_
 _symmetry_equiv_pos_site_id
 _symmetry_equiv_pos_as_xyz
  1  'x, y, z'
loop_
 _atom_site_type_symbol
 _atom_site_label
 _atom_site_symmetry_multiplicity
 _atom_site_fract_x
 _atom_site_fract_y
 _atom_site_fract_z
 _atom_site_occupancy
  Co  Co0  1  0.009473  0.000000  0.000000  1
  Co  Co1  1  0.490527  0.000000  0.000000  1
  Co  Co2  1  0.489494  0.000000  0.478987  1
  Co  Co3  1  0.750000  0.500000  0.000000  1
  Co  Co4  1  0.250000  0.500000  0.000000  1
  Co  Co5  1  0.010506  0.000000  0.521013  1
  Co  Co6  1  0.250000  0.500000  0.500000  1
  Co  Co7  1  0.750000  0.500000  0.500000  1
  O  O8  1  0.341296  0.000000  0.182594  1
  O  O9  1  0.158704  0.000000  0.817407  1
  O  O10  1  0.903660  0.500000  0.307321  1
  O  O11  1  0.596340  0.500000  0.692679  1
  F  F12  1  0.848253  0.000000  0.196505  1
  F  F13  1  0.998509  0.304608  0.000000  1
  F  F14  1  0.501491  0.304608  0.000000  1
  F  F15  1  0.250000  0.196790  0.500000  1
  F  F16  1  0.750000  0.196790  0.500000  1
  F  F17  1  0.998509  0.695392  0.000000  1
  F  F18  1  0.501491  0.695392  0.000000  1
  F  F19  1  0.402234  0.500000  0.304468  1
  F  F20  1  0.651747  0.000000  0.803495  1
  F  F21  1  0.097766  0.500000  0.695532  1
  F  F22  1  0.250000  0.803210  0.500000  1
  F  F23  1  0.750000  0.803210  0.500000  1
