# generated using pymatgen
data_Li7Mn(O2F)2
_symmetry_space_group_name_H-M   'P 1'
_cell_length_a   5.42799964
_cell_length_b   5.98700304
_cell_length_c   10.18641820
_cell_angle_alpha   83.06402752
_cell_angle_beta   78.71353945
_cell_angle_gamma   119.41321374
_symmetry_Int_Tables_number   1
_chemical_formula_structural   Li7Mn(O2F)2
_chemical_formula_sum   'Li14 Mn2 O8 F4'
_cell_volume   273.52090940
_cell_formula_units_Z   2
loop_
 _symmetry_equiv_pos_site_id
 _symmetry_equiv_pos_as_xyz
  1  'x, y, z'
loop_
 _atom_site_type_symbol
 _atom_site_label
 _atom_site_symmetry_multiplicity
 _atom_site_fract_x
 _atom_site_fract_y
 _atom_site_fract_z
 _atom_site_occupancy
  Li  Li0  1  0.089105  0.035690  0.234697  1
  Li  Li1  1  0.109349  0.624439  0.747976  1
  Li  Li2  1  0.486078  0.954407  0.388776  1
  Li  Li3  1  0.518625  0.550748  0.116364  1
  Li  Li4  1  0.264288  0.210325  0.443839  1
  Li  Li5  1  0.236967  0.709230  0.958248  1
  Li  Li6  1  0.315680  0.357543  0.664160  1
  Li  Li7  1  0.718103  0.244277  0.058506  1
  Li  Li8  1  0.761712  0.803875  0.530641  1
  Li  Li9  1  0.483453  0.494578  0.890079  1
  Li  Li10  1  0.519325  0.026781  0.617016  1
  Li  Li11  1  0.904153  0.429549  0.272708  1
  Li  Li12  1  0.905421  0.901283  0.747373  1
  Li  Li13  1  0.666619  0.138946  0.828107  1
  Mn  Mn14  1  0.040745  0.037649  0.960628  1
  Mn  Mn15  1  0.002399  0.498465  0.506585  1
  O  O16  1  0.084803  0.835449  0.401974  1
  O  O17  1  0.253307  0.960272  0.801654  1
  O  O18  1  0.359901  0.199707  0.036616  1
  O  O19  1  0.356784  0.686458  0.565615  1
  O  O20  1  0.064447  0.368287  0.891619  1
  O  O21  1  0.639868  0.299649  0.460610  1
  O  O22  1  0.652321  0.825080  0.939551  1
  O  O23  1  0.935348  0.158684  0.610975  1
  F  F24  1  0.241589  0.406405  0.289436  1
  F  F25  1  0.901026  0.610933  0.108787  1
  F  F26  1  0.759156  0.074393  0.213423  1
  F  F27  1  0.729428  0.556897  0.714038  1
