# generated using pymatgen
data_LiNiPO4
_symmetry_space_group_name_H-M   'P 1'
_cell_length_a   8.55584836
_cell_length_b   7.67290172
_cell_length_c   14.78482345
_cell_angle_alpha   90.00000000
_cell_angle_beta   90.27458167
_cell_angle_gamma   90.00000000
_symmetry_Int_Tables_number   1
_chemical_formula_structural   LiNiPO4
_chemical_formula_sum   'Li12 Ni12 P12 O48'
_cell_volume   970.58565907
_cell_formula_units_Z   12
loop_
 _symmetry_equiv_pos_site_id
 _symmetry_equiv_pos_as_xyz
  1  'x, y, z'
loop_
 _atom_site_type_symbol
 _atom_site_label
 _atom_site_symmetry_multiplicity
 _atom_site_fract_x
 _atom_site_fract_y
 _atom_site_fract_z
 _atom_site_occupancy
  Li  Li0  1  0.033953  0.748269  0.095590  1
  Li  Li1  1  0.096548  0.778046  0.728874  1
  Li  Li2  1  0.109987  0.743663  0.434655  1
  Li  Li3  1  0.390013  0.243663  0.065345  1
  Li  Li4  1  0.403452  0.278046  0.771126  1
  Li  Li5  1  0.466047  0.248269  0.404410  1
  Li  Li6  1  0.533953  0.751731  0.595590  1
  Li  Li7  1  0.596548  0.721954  0.228874  1
  Li  Li8  1  0.609987  0.756337  0.934655  1
  Li  Li9  1  0.890013  0.256337  0.565345  1
  Li  Li10  1  0.903452  0.221954  0.271126  1
  Li  Li11  1  0.966047  0.251731  0.904410  1
  Ni  Ni12  1  0.255590  0.060920  0.557378  1
  Ni  Ni13  1  0.263312  0.981276  0.899650  1
  Ni  Ni14  1  0.254191  0.168439  0.248996  1
  Ni  Ni15  1  0.245809  0.668439  0.251004  1
  Ni  Ni16  1  0.236688  0.481276  0.600350  1
  Ni  Ni17  1  0.244410  0.560920  0.942622  1
  Ni  Ni18  1  0.755590  0.439080  0.057378  1
  Ni  Ni19  1  0.763312  0.518724  0.399651  1
  Ni  Ni20  1  0.754191  0.331561  0.748996  1
  Ni  Ni21  1  0.745809  0.831561  0.751004  1
  Ni  Ni22  1  0.736688  0.018724  0.100349  1
  Ni  Ni23  1  0.744410  0.939080  0.442622  1
  P  P24  1  0.049773  0.333989  0.091136  1
  P  P25  1  0.097071  0.159425  0.720884  1
  P  P26  1  0.109175  0.337679  0.425866  1
  P  P27  1  0.390825  0.837679  0.074134  1
  P  P28  1  0.402929  0.659425  0.779116  1
  P  P29  1  0.450227  0.833989  0.408864  1
  P  P30  1  0.549773  0.166011  0.591136  1
  P  P31  1  0.597071  0.340575  0.220884  1
  P  P32  1  0.609175  0.162321  0.925866  1
  P  P33  1  0.890825  0.662321  0.574134  1
  P  P34  1  0.902929  0.840575  0.279116  1
  P  P35  1  0.950227  0.666011  0.908864  1
  O  O36  1  0.032855  0.493584  0.882679  1
  O  O37  1  0.037785  0.622299  0.631534  1
  O  O38  1  0.072137  0.769994  0.966681  1
  O  O39  1  0.063766  0.757670  0.303039  1
  O  O40  1  0.078319  0.200546  0.500640  1
  O  O41  1  0.113718  0.991170  0.664672  1
  O  O42  1  0.111382  0.124765  0.823780  1
  O  O43  1  0.080473  0.223522  0.178118  1
  O  O44  1  0.173449  0.506683  0.470158  1
  O  O45  1  0.203656  0.370854  0.040283  1
  O  O46  1  0.242608  0.266102  0.364182  1
  O  O47  1  0.227124  0.285891  0.688675  1
  O  O48  1  0.257392  0.766102  0.135818  1
  O  O49  1  0.272876  0.785891  0.811325  1
  O  O50  1  0.296344  0.870854  0.459717  1
  O  O51  1  0.326551  0.006683  0.029842  1
  O  O52  1  0.419527  0.723522  0.321882  1
  O  O53  1  0.388618  0.624765  0.676220  1
  O  O54  1  0.386282  0.491170  0.835328  1
  O  O55  1  0.436234  0.257670  0.196961  1
  O  O56  1  0.421681  0.700546  0.999360  1
  O  O57  1  0.427863  0.269994  0.533319  1
  O  O58  1  0.462215  0.122299  0.868466  1
  O  O59  1  0.467145  0.993584  0.617321  1
  O  O60  1  0.532855  0.006416  0.382679  1
  O  O61  1  0.537785  0.877701  0.131534  1
  O  O62  1  0.572137  0.730006  0.466681  1
  O  O63  1  0.578319  0.299454  0.000640  1
  O  O64  1  0.563766  0.742330  0.803039  1
  O  O65  1  0.613718  0.508830  0.164672  1
  O  O66  1  0.611382  0.375235  0.323780  1
  O  O67  1  0.580473  0.276478  0.678118  1
  O  O68  1  0.673449  0.993317  0.970158  1
  O  O69  1  0.703656  0.129146  0.540283  1
  O  O70  1  0.727124  0.214109  0.188675  1
  O  O71  1  0.742608  0.233898  0.864182  1
  O  O72  1  0.772876  0.714109  0.311325  1
  O  O73  1  0.757392  0.733898  0.635818  1
  O  O74  1  0.796344  0.629146  0.959717  1
  O  O75  1  0.826551  0.493317  0.529842  1
  O  O76  1  0.919527  0.776478  0.821882  1
  O  O77  1  0.888618  0.875235  0.176220  1
  O  O78  1  0.886282  0.008830  0.335328  1
  O  O79  1  0.921681  0.799454  0.499360  1
  O  O80  1  0.936234  0.242330  0.696961  1
  O  O81  1  0.927863  0.230006  0.033319  1
  O  O82  1  0.962215  0.377701  0.368466  1
  O  O83  1  0.967145  0.506416  0.117321  1
