# generated using pymatgen
data_Hf2N2O
_symmetry_space_group_name_H-M   'P 1'
_cell_length_a   8.75524902
_cell_length_b   8.75062944
_cell_length_c   8.70498125
_cell_angle_alpha   109.34003017
_cell_angle_beta   109.55887665
_cell_angle_gamma   109.62835172
_symmetry_Int_Tables_number   1
_chemical_formula_structural   Hf2N2O
_chemical_formula_sum   'Hf16 N16 O8'
_cell_volume   512.67383283
_cell_formula_units_Z   8
loop_
 _symmetry_equiv_pos_site_id
 _symmetry_equiv_pos_as_xyz
  1  'x, y, z'
loop_
 _atom_site_type_symbol
 _atom_site_label
 _atom_site_symmetry_multiplicity
 _atom_site_fract_x
 _atom_site_fract_y
 _atom_site_fract_z
 _atom_site_occupancy
  Hf  Hf0  1  0.489088  0.989851  0.988749  1
  Hf  Hf1  1  0.756387  0.292891  0.543767  1
  Hf  Hf2  1  0.720789  0.471503  0.249171  1
  Hf  Hf3  1  0.212435  0.954052  0.249561  1
  Hf  Hf4  1  0.250252  0.214932  0.956004  1
  Hf  Hf5  1  0.972069  0.265806  0.223671  1
  Hf  Hf6  1  0.996615  0.509404  0.996437  1
  Hf  Hf7  1  0.503449  0.509270  0.512811  1
  Hf  Hf8  1  0.010223  0.998347  0.508359  1
  Hf  Hf9  1  0.026164  0.740713  0.773730  1
  Hf  Hf10  1  0.466021  0.250170  0.721989  1
  Hf  Hf11  1  0.533982  0.748710  0.282712  1
  Hf  Hf12  1  0.744222  0.778262  0.036297  1
  Hf  Hf13  1  0.780880  0.031335  0.745253  1
  Hf  Hf14  1  0.286375  0.537279  0.751384  1
  Hf  Hf15  1  0.251410  0.714691  0.463757  1
  N  N16  1  0.510712  0.238906  0.972085  1
  N  N17  1  0.766510  0.536702  0.525603  1
  N  N18  1  0.725852  0.255599  0.767637  1
  N  N19  1  0.236181  0.967924  0.507704  1
  N  N20  1  0.770979  0.727402  0.262363  1
  N  N21  1  0.492435  0.768060  0.035873  1
  N  N22  1  0.958247  0.732367  0.990862  1
  N  N23  1  0.963268  0.506127  0.236002  1
  N  N24  1  0.273697  0.739363  0.225235  1
  N  N25  1  0.228222  0.450148  0.462608  1
  N  N26  1  0.549013  0.533237  0.773040  1
  N  N27  1  0.540500  0.773681  0.548731  1
  N  N28  1  0.990212  0.958536  0.730996  1
  N  N29  1  0.225016  0.273259  0.740870  1
  N  N30  1  0.031558  0.484693  0.758162  1
  N  N31  1  0.262018  0.777508  0.728151  1
  O  O32  1  0.730572  0.996773  0.958534  1
  O  O33  1  0.281943  0.014543  0.053633  1
  O  O34  1  0.760170  0.034313  0.485207  1
  O  O35  1  0.743892  0.218312  0.276285  1
  O  O36  1  0.460819  0.224703  0.446067  1
  O  O37  1  0.048770  0.269919  0.018875  1
  O  O38  1  0.444090  0.466194  0.222129  1
  O  O39  1  0.004966  0.044516  0.269694  1
