# generated using pymatgen
data_LiCu2(SO4)3
_symmetry_space_group_name_H-M   'P 1'
_cell_length_a   8.38101988
_cell_length_b   8.65714777
_cell_length_c   12.18779612
_cell_angle_alpha   90.00000000
_cell_angle_beta   91.47902089
_cell_angle_gamma   90.00000000
_symmetry_Int_Tables_number   1
_chemical_formula_structural   LiCu2(SO4)3
_chemical_formula_sum   'Li4 Cu8 S12 O48'
_cell_volume   883.99980586
_cell_formula_units_Z   4
loop_
 _symmetry_equiv_pos_site_id
 _symmetry_equiv_pos_as_xyz
  1  'x, y, z'
loop_
 _atom_site_type_symbol
 _atom_site_label
 _atom_site_symmetry_multiplicity
 _atom_site_fract_x
 _atom_site_fract_y
 _atom_site_fract_z
 _atom_site_occupancy
  Li  Li0  1  0.187942  0.717575  0.818992  1
  Li  Li1  1  0.312058  0.217575  0.681008  1
  Li  Li2  1  0.687942  0.782425  0.318992  1
  Li  Li3  1  0.812058  0.282425  0.181008  1
  Cu  Cu4  1  0.251262  0.965492  0.385227  1
  Cu  Cu5  1  0.251358  0.539448  0.605115  1
  Cu  Cu6  1  0.248738  0.465492  0.114773  1
  Cu  Cu7  1  0.248642  0.039448  0.894885  1
  Cu  Cu8  1  0.751358  0.960552  0.105115  1
  Cu  Cu9  1  0.751262  0.534508  0.885227  1
  Cu  Cu10  1  0.748642  0.460552  0.394885  1
  Cu  Cu11  1  0.748738  0.034508  0.614773  1
  S  S12  1  0.032923  0.248320  0.505699  1
  S  S13  1  0.101576  0.116091  0.153585  1
  S  S14  1  0.107803  0.387686  0.858439  1
  S  S15  1  0.392197  0.887686  0.641561  1
  S  S16  1  0.398424  0.616091  0.346415  1
  S  S17  1  0.467077  0.748320  0.994301  1
  S  S18  1  0.532923  0.251680  0.005699  1
  S  S19  1  0.601576  0.383909  0.653585  1
  S  S20  1  0.607803  0.112314  0.358439  1
  S  S21  1  0.892197  0.612314  0.141561  1
  S  S22  1  0.898424  0.883909  0.846415  1
  S  S23  1  0.967077  0.751680  0.494301  1
  O  O24  1  0.046464  0.629376  0.561055  1
  O  O25  1  0.063695  0.630580  0.118765  1
  O  O26  1  0.071164  0.919447  0.821980  1
  O  O27  1  0.065978  0.808645  0.403305  1
  O  O28  1  0.080189  0.126617  0.428471  1
  O  O29  1  0.112849  0.285635  0.175769  1
  O  O30  1  0.133683  0.081556  0.039211  1
  O  O31  1  0.134527  0.507451  0.774220  1
  O  O32  1  0.179195  0.316717  0.561151  1
  O  O33  1  0.170788  0.237486  0.815267  1
  O  O34  1  0.202981  0.435102  0.956985  1
  O  O35  1  0.207884  0.021849  0.225575  1
  O  O36  1  0.292116  0.521849  0.274425  1
  O  O37  1  0.297019  0.935102  0.543015  1
  O  O38  1  0.329212  0.737486  0.684733  1
  O  O39  1  0.320805  0.816717  0.938849  1
  O  O40  1  0.366317  0.581556  0.460789  1
  O  O41  1  0.365473  0.007451  0.725780  1
  O  O42  1  0.387151  0.785635  0.324231  1
  O  O43  1  0.419811  0.626617  0.071529  1
  O  O44  1  0.434022  0.308645  0.096695  1
  O  O45  1  0.436305  0.130580  0.381235  1
  O  O46  1  0.428836  0.419447  0.678020  1
  O  O47  1  0.453536  0.129376  0.938945  1
  O  O48  1  0.546464  0.870624  0.061055  1
  O  O49  1  0.571164  0.580553  0.321980  1
  O  O50  1  0.563695  0.869420  0.618765  1
  O  O51  1  0.565978  0.691355  0.903305  1
  O  O52  1  0.580189  0.373383  0.928471  1
  O  O53  1  0.612849  0.214365  0.675769  1
  O  O54  1  0.634527  0.992549  0.274220  1
  O  O55  1  0.633683  0.418444  0.539211  1
  O  O56  1  0.679195  0.183283  0.061151  1
  O  O57  1  0.670788  0.262514  0.315267  1
  O  O58  1  0.702981  0.064898  0.456985  1
  O  O59  1  0.707884  0.478151  0.725575  1
  O  O60  1  0.792116  0.978151  0.774425  1
  O  O61  1  0.797019  0.564898  0.043015  1
  O  O62  1  0.829212  0.762514  0.184733  1
  O  O63  1  0.820805  0.683283  0.438849  1
  O  O64  1  0.865473  0.492549  0.225780  1
  O  O65  1  0.866317  0.918444  0.960789  1
  O  O66  1  0.887151  0.714365  0.824231  1
  O  O67  1  0.919811  0.873383  0.571529  1
  O  O68  1  0.934022  0.191355  0.596695  1
  O  O69  1  0.928836  0.080553  0.178020  1
  O  O70  1  0.936305  0.369420  0.881235  1
  O  O71  1  0.953536  0.370624  0.438945  1
