# generated using pymatgen
data_Li12Mn3CrP4(CO7)4
_symmetry_space_group_name_H-M   'P 1'
_cell_length_a   8.58611677
_cell_length_b   10.00993270
_cell_length_c   6.56663713
_cell_angle_alpha   90.00000000
_cell_angle_beta   90.00000000
_cell_angle_gamma   85.57577848
_symmetry_Int_Tables_number   1
_chemical_formula_structural   Li12Mn3CrP4(CO7)4
_chemical_formula_sum   'Li12 Mn3 Cr1 P4 C4 O28'
_cell_volume   562.69743640
_cell_formula_units_Z   1
loop_
 _symmetry_equiv_pos_site_id
 _symmetry_equiv_pos_as_xyz
  1  'x, y, z'
loop_
 _atom_site_type_symbol
 _atom_site_label
 _atom_site_symmetry_multiplicity
 _atom_site_fract_x
 _atom_site_fract_y
 _atom_site_fract_z
 _atom_site_occupancy
  Li  Li0  1  0.092138  0.379061  0.250000  1
  Li  Li1  1  0.092406  0.879880  0.250000  1
  Li  Li2  1  0.273219  0.122808  0.027934  1
  Li  Li3  1  0.273219  0.122808  0.472066  1
  Li  Li4  1  0.273422  0.623358  0.028708  1
  Li  Li5  1  0.273422  0.623358  0.471292  1
  Li  Li6  1  0.726976  0.376269  0.526216  1
  Li  Li7  1  0.726976  0.376269  0.973784  1
  Li  Li8  1  0.726668  0.877031  0.526505  1
  Li  Li9  1  0.726668  0.877031  0.973495  1
  Li  Li10  1  0.908350  0.120423  0.750000  1
  Li  Li11  1  0.909896  0.620916  0.750000  1
  Mn  Mn12  1  0.340230  0.388646  0.750000  1
  Mn  Mn13  1  0.339744  0.889843  0.750000  1
  Mn  Mn14  1  0.659136  0.110674  0.250000  1
  Cr  Cr15  1  0.665003  0.607799  0.250000  1
  P  P16  1  0.409990  0.360469  0.250000  1
  P  P17  1  0.409934  0.859573  0.250000  1
  P  P18  1  0.589742  0.139829  0.750000  1
  P  P19  1  0.588414  0.640920  0.750000  1
  C  C20  1  0.032999  0.352341  0.750000  1
  C  C21  1  0.033035  0.851985  0.750000  1
  C  C22  1  0.966792  0.147751  0.250000  1
  C  C23  1  0.968002  0.647002  0.250000  1
  O  O24  1  0.069308  0.474884  0.750000  1
  O  O25  1  0.112034  0.177920  0.250000  1
  O  O26  1  0.069150  0.974760  0.750000  1
  O  O27  1  0.143886  0.255367  0.750000  1
  O  O28  1  0.112260  0.679373  0.250000  1
  O  O29  1  0.144044  0.755213  0.750000  1
  O  O30  1  0.310756  0.414346  0.065453  1
  O  O31  1  0.310756  0.414346  0.434547  1
  O  O32  1  0.310914  0.914825  0.065351  1
  O  O33  1  0.310914  0.914825  0.434649  1
  O  O34  1  0.421159  0.094508  0.750000  1
  O  O35  1  0.423149  0.203661  0.250000  1
  O  O36  1  0.420856  0.594096  0.750000  1
  O  O37  1  0.420464  0.703500  0.250000  1
  O  O38  1  0.576645  0.296672  0.750000  1
  O  O39  1  0.578484  0.406158  0.250000  1
  O  O40  1  0.576351  0.797250  0.750000  1
  O  O41  1  0.578285  0.906051  0.250000  1
  O  O42  1  0.689147  0.085815  0.934431  1
  O  O43  1  0.689147  0.085815  0.565569  1
  O  O44  1  0.687287  0.587233  0.563668  1
  O  O45  1  0.687287  0.587233  0.936332  1
  O  O46  1  0.855803  0.244604  0.250000  1
  O  O47  1  0.887664  0.322421  0.750000  1
  O  O48  1  0.854760  0.742173  0.250000  1
  O  O49  1  0.930730  0.025039  0.250000  1
  O  O50  1  0.887847  0.821868  0.750000  1
  O  O51  1  0.934530  0.524004  0.250000  1
