# generated using pymatgen
data_Mn6O5F7
_symmetry_space_group_name_H-M   'P 1'
_cell_length_a   4.72802717
_cell_length_b   5.72468656
_cell_length_c   15.63151816
_cell_angle_alpha   90.40069261
_cell_angle_beta   91.15181742
_cell_angle_gamma   86.64902876
_symmetry_Int_Tables_number   1
_chemical_formula_structural   Mn6O5F7
_chemical_formula_sum   'Mn12 O10 F14'
_cell_volume   422.27416089
_cell_formula_units_Z   2
loop_
 _symmetry_equiv_pos_site_id
 _symmetry_equiv_pos_as_xyz
  1  'x, y, z'
loop_
 _atom_site_type_symbol
 _atom_site_label
 _atom_site_symmetry_multiplicity
 _atom_site_fract_x
 _atom_site_fract_y
 _atom_site_fract_z
 _atom_site_occupancy
  Mn  Mn0  1  0.018831  0.168098  0.416668  1
  Mn  Mn1  1  0.982471  0.825459  0.236913  1
  Mn  Mn2  1  0.993177  0.150204  0.080064  1
  Mn  Mn3  1  0.034648  0.164787  0.759276  1
  Mn  Mn4  1  0.026987  0.837270  0.580215  1
  Mn  Mn5  1  0.031209  0.829327  0.913158  1
  Mn  Mn6  1  0.476024  0.352317  0.580817  1
  Mn  Mn7  1  0.505077  0.363934  0.921916  1
  Mn  Mn8  1  0.518591  0.359096  0.254329  1
  Mn  Mn9  1  0.490994  0.648135  0.083869  1
  Mn  Mn10  1  0.490207  0.649407  0.420036  1
  Mn  Mn11  1  0.468519  0.648449  0.750621  1
  O  O12  1  0.208984  0.884496  0.132052  1
  O  O13  1  0.230321  0.889538  0.472418  1
  O  O14  1  0.231839  0.881482  0.811370  1
  O  O15  1  0.270611  0.392131  0.474320  1
  O  O16  1  0.273537  0.609610  0.636837  1
  O  O17  1  0.295754  0.394061  0.812225  1
  O  O18  1  0.284221  0.615722  0.974548  1
  O  O19  1  0.724377  0.384508  0.029449  1
  O  O20  1  0.696782  0.611282  0.194044  1
  O  O21  1  0.725940  0.397406  0.365023  1
  F  F22  1  0.235235  0.116170  0.298533  1
  F  F23  1  0.240816  0.108447  0.643600  1
  F  F24  1  0.230509  0.119181  0.974803  1
  F  F25  1  0.247775  0.377942  0.148456  1
  F  F26  1  0.246149  0.616693  0.310228  1
  F  F27  1  0.740404  0.613499  0.529061  1
  F  F28  1  0.748760  0.617907  0.852738  1
  F  F29  1  0.730553  0.378100  0.692218  1
  F  F30  1  0.749061  0.112957  0.184214  1
  F  F31  1  0.762722  0.111010  0.534177  1
  F  F32  1  0.767203  0.898629  0.358010  1
  F  F33  1  0.778496  0.879661  0.014284  1
  F  F34  1  0.766697  0.116273  0.867264  1
  F  F35  1  0.776516  0.876813  0.692250  1
