# generated using pymatgen
data_Na2LiMnPCO7
_symmetry_space_group_name_H-M   'P 1'
_cell_length_a   8.87032414
_cell_length_b   6.78910857
_cell_length_c   5.11277176
_cell_angle_alpha   89.92976606
_cell_angle_beta   89.15657676
_cell_angle_gamma   90.72375988
_symmetry_Int_Tables_number   1
_chemical_formula_structural   Na2LiMnPCO7
_chemical_formula_sum   'Na4 Li2 Mn2 P2 C2 O14'
_cell_volume   307.84103445
_cell_formula_units_Z   2
loop_
 _symmetry_equiv_pos_site_id
 _symmetry_equiv_pos_as_xyz
  1  'x, y, z'
loop_
 _atom_site_type_symbol
 _atom_site_label
 _atom_site_symmetry_multiplicity
 _atom_site_fract_x
 _atom_site_fract_y
 _atom_site_fract_z
 _atom_site_occupancy
  Na  Na0  1  0.083689  0.258151  0.757417  1
  Na  Na1  1  0.255491  0.999463  0.249694  1
  Na  Na2  1  0.744213  0.502366  0.751948  1
  Na  Na3  1  0.743508  0.997935  0.753395  1
  Li  Li4  1  0.272806  0.477932  0.227752  1
  Li  Li5  1  0.914759  0.741216  0.253669  1
  Mn  Mn6  1  0.358974  0.745756  0.779238  1
  Mn  Mn7  1  0.640406  0.250329  0.224366  1
  P  P8  1  0.408212  0.253452  0.707978  1
  P  P9  1  0.591173  0.746027  0.298824  1
  C  C10  1  0.051739  0.748877  0.728495  1
  C  C11  1  0.945509  0.258617  0.263855  1
  O  O12  1  0.091786  0.271597  0.282153  1
  O  O13  1  0.090834  0.750805  0.973315  1
  O  O14  1  0.154553  0.742330  0.542986  1
  O  O15  1  0.316353  0.063986  0.781176  1
  O  O16  1  0.317116  0.430121  0.818839  1
  O  O17  1  0.420462  0.271095  0.402029  1
  O  O18  1  0.429601  0.734118  0.182405  1
  O  O19  1  0.569857  0.249055  0.817880  1
  O  O20  1  0.573053  0.747271  0.602818  1
  O  O21  1  0.691748  0.569227  0.216119  1
  O  O22  1  0.680309  0.933900  0.210647  1
  O  O23  1  0.860575  0.250984  0.473363  1
  O  O24  1  0.881827  0.252596  0.037000  1
  O  O25  1  0.911450  0.752795  0.662636  1
