# generated using pymatgen
data_Ti17(NO4)6
_symmetry_space_group_name_H-M   'P 1'
_cell_length_a   10.39994760
_cell_length_b   10.71063743
_cell_length_c   11.30108899
_cell_angle_alpha   92.37038582
_cell_angle_beta   62.59380392
_cell_angle_gamma   95.25774160
_symmetry_Int_Tables_number   1
_chemical_formula_structural   Ti17(NO4)6
_chemical_formula_sum   'Ti34 N12 O48'
_cell_volume   1112.84267342
_cell_formula_units_Z   2
loop_
 _symmetry_equiv_pos_site_id
 _symmetry_equiv_pos_as_xyz
  1  'x, y, z'
loop_
 _atom_site_type_symbol
 _atom_site_label
 _atom_site_symmetry_multiplicity
 _atom_site_fract_x
 _atom_site_fract_y
 _atom_site_fract_z
 _atom_site_occupancy
  Ti  Ti0  1  0.164980  0.122892  0.077971  1
  Ti  Ti1  1  0.005598  0.212665  0.926583  1
  Ti  Ti2  1  0.663479  0.121509  0.070037  1
  Ti  Ti3  1  0.191835  0.212704  0.554948  1
  Ti  Ti4  1  0.371990  0.100537  0.750290  1
  Ti  Ti5  1  0.482986  0.121333  0.429136  1
  Ti  Ti6  1  0.328759  0.447383  0.076406  1
  Ti  Ti7  1  0.154174  0.448826  0.422635  1
  Ti  Ti8  1  0.497464  0.211458  0.944872  1
  Ti  Ti9  1  0.681879  0.211130  0.573580  1
  Ti  Ti10  1  0.993124  0.123506  0.423314  1
  Ti  Ti11  1  0.875557  0.103624  0.749528  1
  Ti  Ti12  1  0.038283  0.434320  0.749059  1
  Ti  Ti13  1  0.794323  0.231263  0.250183  1
  Ti  Ti14  1  0.538239  0.430690  0.750653  1
  Ti  Ti15  1  0.347278  0.547667  0.571902  1
  Ti  Ti16  1  0.652722  0.452333  0.428098  1
  Ti  Ti17  1  0.461761  0.569310  0.249347  1
  Ti  Ti18  1  0.171265  0.546800  0.928050  1
  Ti  Ti19  1  0.828735  0.453200  0.071950  1
  Ti  Ti20  1  0.318121  0.788870  0.426420  1
  Ti  Ti21  1  0.205677  0.768737  0.749817  1
  Ti  Ti22  1  0.124443  0.896376  0.250472  1
  Ti  Ti23  1  0.006876  0.876494  0.576686  1
  Ti  Ti24  1  0.671241  0.552617  0.923594  1
  Ti  Ti25  1  0.845826  0.551174  0.577365  1
  Ti  Ti26  1  0.502536  0.788542  0.055128  1
  Ti  Ti27  1  0.961717  0.565680  0.250941  1
  Ti  Ti28  1  0.517014  0.878667  0.570864  1
  Ti  Ti29  1  0.336521  0.878491  0.929963  1
  Ti  Ti30  1  0.808165  0.787296  0.445052  1
  Ti  Ti31  1  0.628010  0.899463  0.249710  1
  Ti  Ti32  1  0.994402  0.787335  0.073417  1
  Ti  Ti33  1  0.835020  0.877108  0.922029  1
  N  N34  1  0.135347  0.080435  0.250692  1
  N  N35  1  0.017784  0.243927  0.749778  1
  N  N36  1  0.652816  0.088040  0.249624  1
  N  N37  1  0.517571  0.242928  0.750076  1
  N  N38  1  0.315283  0.440733  0.249568  1
  N  N39  1  0.181731  0.576195  0.749902  1
  N  N40  1  0.818269  0.423805  0.250098  1
  N  N41  1  0.482429  0.757072  0.249924  1
  N  N42  1  0.684717  0.559267  0.750432  1
  N  N43  1  0.347184  0.911960  0.750376  1
  N  N44  1  0.982216  0.756073  0.250222  1
  N  N45  1  0.864653  0.919565  0.749308  1
  O  O46  1  0.061944  0.064709  0.560867  1
  O  O47  1  0.352293  0.181239  0.389848  1
  O  O48  1  0.089047  0.275361  0.449485  1
  O  O49  1  0.313115  0.150032  0.622178  1
  O  O50  1  0.373630  0.063719  0.938008  1
  O  O51  1  0.181636  0.148670  0.880201  1
  O  O52  1  0.287651  0.274313  0.050838  1
  O  O53  1  0.561536  0.062900  0.566412  1
  O  O54  1  0.492654  0.181344  0.109944  1
  O  O55  1  0.018846  0.512811  0.379682  1
  O  O56  1  0.150095  0.515394  0.117679  1
  O  O57  1  0.042571  0.395619  0.935126  1
  O  O58  1  0.685358  0.150407  0.877776  1
  O  O59  1  0.604933  0.270549  0.435466  1
  O  O60  1  0.791246  0.271416  0.064046  1
  O  O61  1  0.983983  0.183499  0.118638  1
  O  O62  1  0.228062  0.395774  0.562682  1
  O  O63  1  0.877242  0.064132  0.935034  1
  O  O64  1  0.812176  0.148914  0.619489  1
  O  O65  1  0.852640  0.183785  0.381553  1
  O  O66  1  0.725974  0.394998  0.562905  1
  O  O67  1  0.274026  0.605002  0.437095  1
  O  O68  1  0.480184  0.484010  0.618265  1
  O  O69  1  0.537638  0.395393  0.938823  1
  O  O70  1  0.519816  0.515990  0.381735  1
  O  O71  1  0.350097  0.486928  0.879173  1
  O  O72  1  0.649903  0.513072  0.120827  1
  O  O73  1  0.462362  0.604607  0.061177  1
  O  O74  1  0.016017  0.816501  0.881362  1
  O  O75  1  0.122758  0.935868  0.064966  1
  O  O76  1  0.208754  0.728584  0.935954  1
  O  O77  1  0.314642  0.849593  0.122224  1
  O  O78  1  0.147360  0.816215  0.618447  1
  O  O79  1  0.395067  0.729451  0.564534  1
  O  O80  1  0.981154  0.487189  0.620318  1
  O  O81  1  0.849905  0.484606  0.882321  1
  O  O82  1  0.771938  0.604226  0.437318  1
  O  O83  1  0.187824  0.851086  0.380511  1
  O  O84  1  0.957429  0.604381  0.064874  1
  O  O85  1  0.626370  0.936281  0.061992  1
  O  O86  1  0.438464  0.937100  0.433588  1
  O  O87  1  0.507346  0.818656  0.890056  1
  O  O88  1  0.712349  0.725687  0.949162  1
  O  O89  1  0.647707  0.818761  0.610152  1
  O  O90  1  0.686885  0.849968  0.377822  1
  O  O91  1  0.910953  0.724639  0.550515  1
  O  O92  1  0.818364  0.851330  0.119799  1
  O  O93  1  0.938056  0.935291  0.439133  1
