# generated using pymatgen
data_Li3V(BO3)2
_symmetry_space_group_name_H-M   'P 1'
_cell_length_a   8.22294813
_cell_length_b   6.50210059
_cell_length_c   9.51560039
_cell_angle_alpha   90.00000000
_cell_angle_beta   64.49141916
_cell_angle_gamma   90.00000000
_symmetry_Int_Tables_number   1
_chemical_formula_structural   Li3V(BO3)2
_chemical_formula_sum   'Li12 V4 B8 O24'
_cell_volume   459.17120912
_cell_formula_units_Z   4
loop_
 _symmetry_equiv_pos_site_id
 _symmetry_equiv_pos_as_xyz
  1  'x, y, z'
loop_
 _atom_site_type_symbol
 _atom_site_label
 _atom_site_symmetry_multiplicity
 _atom_site_fract_x
 _atom_site_fract_y
 _atom_site_fract_z
 _atom_site_occupancy
  Li  Li0  1  0.107995  0.245097  0.481624  1
  Li  Li1  1  0.049755  0.548445  0.671466  1
  Li  Li2  1  0.392005  0.745097  0.018376  1
  Li  Li3  1  0.301133  0.777948  0.534669  1
  Li  Li4  1  0.549755  0.951555  0.171466  1
  Li  Li5  1  0.198867  0.277948  0.965331  1
  Li  Li6  1  0.801133  0.722052  0.034669  1
  Li  Li7  1  0.450245  0.048445  0.828534  1
  Li  Li8  1  0.698867  0.222052  0.465331  1
  Li  Li9  1  0.607995  0.254903  0.981624  1
  Li  Li10  1  0.950245  0.451555  0.328534  1
  Li  Li11  1  0.892005  0.754903  0.518376  1
  V  V12  1  0.002307  0.039057  0.814544  1
  V  V13  1  0.502307  0.460943  0.314544  1
  V  V14  1  0.497693  0.539057  0.685456  1
  V  V15  1  0.997693  0.960943  0.185456  1
  B  B16  1  0.269259  0.154485  0.188946  1
  B  B17  1  0.230741  0.654485  0.311054  1
  B  B18  1  0.185478  0.667514  0.881489  1
  B  B19  1  0.314522  0.167514  0.618511  1
  B  B20  1  0.685478  0.832486  0.381489  1
  B  B21  1  0.814522  0.332486  0.118511  1
  B  B22  1  0.769259  0.345515  0.688946  1
  B  B23  1  0.730741  0.845515  0.811054  1
  O  O24  1  0.082107  0.713153  0.291729  1
  O  O25  1  0.090369  0.196318  0.288171  1
  O  O26  1  0.281905  0.035929  0.060908  1
  O  O27  1  0.218095  0.535929  0.439092  1
  O  O28  1  0.409631  0.696318  0.211829  1
  O  O29  1  0.049844  0.805284  0.966087  1
  O  O30  1  0.215491  0.050563  0.563372  1
  O  O31  1  0.417893  0.213153  0.208271  1
  O  O32  1  0.240788  0.642884  0.723605  1
  O  O33  1  0.259212  0.142884  0.776395  1
  O  O34  1  0.284509  0.550563  0.936628  1
  O  O35  1  0.450156  0.305284  0.533913  1
  O  O36  1  0.549844  0.694716  0.466087  1
  O  O37  1  0.715491  0.449437  0.063372  1
  O  O38  1  0.740788  0.857116  0.223605  1
  O  O39  1  0.759212  0.357116  0.276395  1
  O  O40  1  0.582107  0.786847  0.791729  1
  O  O41  1  0.784509  0.949437  0.436628  1
  O  O42  1  0.950156  0.194716  0.033913  1
  O  O43  1  0.590369  0.303682  0.788171  1
  O  O44  1  0.781905  0.464071  0.560908  1
  O  O45  1  0.718095  0.964071  0.939092  1
  O  O46  1  0.909631  0.803682  0.711829  1
  O  O47  1  0.917893  0.286847  0.708271  1
