# generated using pymatgen
data_V3H8(NO4)2
_symmetry_space_group_name_H-M   'P 1'
_cell_length_a   9.02860642
_cell_length_b   9.02865576
_cell_length_c   5.69214685
_cell_angle_alpha   89.99907706
_cell_angle_beta   90.00069600
_cell_angle_gamma   89.99994479
_symmetry_Int_Tables_number   1
_chemical_formula_structural   V3H8(NO4)2
_chemical_formula_sum   'V6 H16 N4 O16'
_cell_volume   464.00206351
_cell_formula_units_Z   2
loop_
 _symmetry_equiv_pos_site_id
 _symmetry_equiv_pos_as_xyz
  1  'x, y, z'
loop_
 _atom_site_type_symbol
 _atom_site_label
 _atom_site_symmetry_multiplicity
 _atom_site_fract_x
 _atom_site_fract_y
 _atom_site_fract_z
 _atom_site_occupancy
  V  V0  1  0.000003  0.999995  0.003223  1
  V  V1  1  0.500008  0.499997  0.003320  1
  V  V2  1  0.133715  0.633699  0.004187  1
  V  V3  1  0.366302  0.133711  0.004191  1
  V  V4  1  0.633701  0.866287  0.004187  1
  V  V5  1  0.866304  0.366285  0.004192  1
  H  H6  1  0.099312  0.400729  0.451933  1
  H  H7  1  0.111493  0.257507  0.642001  1
  H  H8  1  0.233404  0.266672  0.419195  1
  H  H9  1  0.242490  0.388531  0.642079  1
  H  H10  1  0.257514  0.888509  0.641996  1
  H  H11  1  0.266677  0.766598  0.419192  1
  H  H12  1  0.388539  0.757512  0.642078  1
  H  H13  1  0.400739  0.900687  0.451931  1
  H  H14  1  0.599308  0.099268  0.451931  1
  H  H15  1  0.611493  0.242487  0.641993  1
  H  H16  1  0.733405  0.233321  0.419191  1
  H  H17  1  0.742488  0.111460  0.642079  1
  H  H18  1  0.757515  0.611459  0.642078  1
  H  H19  1  0.766599  0.733321  0.419191  1
  H  H20  1  0.888512  0.742482  0.641997  1
  H  H21  1  0.900692  0.599261  0.451937  1
  N  N22  1  0.170638  0.329397  0.536903  1
  N  N23  1  0.329403  0.829364  0.536901  1
  N  N24  1  0.670637  0.170598  0.536900  1
  N  N25  1  0.829367  0.670595  0.536903  1
  O  O26  1  0.000002  0.999993  0.291230  1
  O  O27  1  0.000005  0.499996  0.893526  1
  O  O28  1  0.084312  0.807558  0.895760  1
  O  O29  1  0.131842  0.631806  0.298963  1
  O  O30  1  0.192441  0.084308  0.895767  1
  O  O31  1  0.307577  0.584298  0.895785  1
  O  O32  1  0.368196  0.131840  0.298963  1
  O  O33  1  0.415700  0.307575  0.895785  1
  O  O34  1  0.500003  0.999999  0.893526  1
  O  O35  1  0.500005  0.499999  0.291347  1
  O  O36  1  0.584303  0.692425  0.895781  1
  O  O37  1  0.631811  0.868157  0.298963  1
  O  O38  1  0.692436  0.415696  0.895808  1
  O  O39  1  0.807561  0.915690  0.895760  1
  O  O40  1  0.868203  0.368150  0.298966  1
  O  O41  1  0.915694  0.192430  0.895744  1
