# generated using pymatgen
data_Li4Ti3V4Cr2O18
_symmetry_space_group_name_H-M   'P 1'
_cell_length_a   9.08065597
_cell_length_b   25.58861759
_cell_length_c   2.95211296
_cell_angle_alpha   89.99993873
_cell_angle_beta   90.00054171
_cell_angle_gamma   89.99226994
_symmetry_Int_Tables_number   1
_chemical_formula_structural   Li4Ti3V4Cr2O18
_chemical_formula_sum   'Li8 Ti6 V8 Cr4 O36'
_cell_volume   685.95719175
_cell_formula_units_Z   2
loop_
 _symmetry_equiv_pos_site_id
 _symmetry_equiv_pos_as_xyz
  1  'x, y, z'
loop_
 _atom_site_type_symbol
 _atom_site_label
 _atom_site_symmetry_multiplicity
 _atom_site_fract_x
 _atom_site_fract_y
 _atom_site_fract_z
 _atom_site_occupancy
  Li  Li0  1  0.196892  0.988364  1.000000  1
  Li  Li1  1  0.169949  0.208418  0.999999  1
  Li  Li2  1  0.330209  0.708427  0.999997  1
  Li  Li3  1  0.303205  0.488265  0.999995  1
  Li  Li4  1  0.693523  0.506741  0.999994  1
  Li  Li5  1  0.680071  0.303200  0.999997  1
  Li  Li6  1  0.819945  0.803184  0.999998  1
  Li  Li7  1  0.806497  0.006762  0.000001  1
  Ti  Ti8  1  0.996059  0.104536  0.999996  1
  Ti  Ti9  1  0.503918  0.604541  0.999996  1
  Ti  Ti10  1  0.485671  0.393908  0.999998  1
  Ti  Ti11  1  0.655788  0.696071  0.500000  1
  Ti  Ti12  1  0.844186  0.196109  0.499996  1
  Ti  Ti13  1  0.014384  0.893847  0.999996  1
  V  V14  1  0.022864  0.308221  0.999998  1
  V  V15  1  0.147278  0.586354  0.499996  1
  V  V16  1  0.352691  0.086310  0.500007  1
  V  V17  1  0.477048  0.808175  0.999989  1
  V  V18  1  0.503337  0.194282  0.999993  1
  V  V19  1  0.650023  0.913036  0.500045  1
  V  V20  1  0.849954  0.413149  0.499972  1
  V  V21  1  0.996615  0.694291  -0.000002  1
  Cr  Cr22  1  0.999522  0.499738  0.000021  1
  Cr  Cr23  1  0.150916  0.804611  0.500008  1
  Cr  Cr24  1  0.348973  0.304658  0.499990  1
  Cr  Cr25  1  0.500647  0.999660  0.000041  1
  O  O26  1  0.988886  0.422127  0.999973  1
  O  O27  1  0.009976  0.577819  0.999996  1
  O  O28  1  0.062219  0.938847  0.499991  1
  O  O29  1  0.045090  0.159499  0.499997  1
  O  O30  1  0.107039  0.659902  0.499997  1
  O  O31  1  0.103725  0.755782  0.000017  1
  O  O32  1  0.150174  0.506901  0.499994  1
  O  O33  1  0.142233  0.277316  0.499994  1
  O  O34  1  0.194831  0.855114  0.000009  1
  O  O35  1  0.203055  0.084196  0.999984  1
  O  O36  1  0.296915  0.584250  0.999999  1
  O  O37  1  0.305170  0.355193  0.999992  1
  O  O38  1  0.357744  0.777251  0.500001  1
  O  O39  1  0.349901  0.006862  0.500022  1
  O  O40  1  0.396174  0.255832  -0.000006  1
  O  O41  1  0.392895  0.159881  0.499993  1
  O  O42  1  0.454874  0.659499  0.500008  1
  O  O43  1  0.437718  0.438887  0.499997  1
  O  O44  1  0.490038  0.077757  0.000023  1
  O  O45  1  0.511184  0.922060  0.000058  1
  O  O46  1  0.560156  0.561272  0.500004  1
  O  O47  1  0.549574  0.340558  0.499998  1
  O  O48  1  0.599164  0.839699  0.499978  1
  O  O49  1  0.606031  0.744082  0.000000  1
  O  O50  1  0.651791  0.992145  0.500024  1
  O  O51  1  0.642444  0.216031  0.499993  1
  O  O52  1  0.689543  0.646564  0.000006  1
  O  O53  1  0.703090  0.414688  0.000027  1
  O  O54  1  0.796925  0.914573  0.999934  1
  O  O55  1  0.810454  0.146606  0.999996  1
  O  O56  1  0.857507  0.716003  0.500001  1
  O  O57  1  0.848302  0.492235  0.499994  1
  O  O58  1  0.893928  0.244130  0.999998  1
  O  O59  1  0.900810  0.339791  0.500000  1
  O  O60  1  0.950439  0.840515  0.499994  1
  O  O61  1  0.939834  0.061272  0.499993  1
