# generated using pymatgen
data_LiMnB2O5
_symmetry_space_group_name_H-M   'P 1'
_cell_length_a   11.76305464
_cell_length_b   5.47050558
_cell_length_c   11.45566321
_cell_angle_alpha   90.00000000
_cell_angle_beta   90.00000000
_cell_angle_gamma   78.67418786
_symmetry_Int_Tables_number   1
_chemical_formula_structural   LiMnB2O5
_chemical_formula_sum   'Li8 Mn8 B16 O40'
_cell_volume   722.81483440
_cell_formula_units_Z   8
loop_
 _symmetry_equiv_pos_site_id
 _symmetry_equiv_pos_as_xyz
  1  'x, y, z'
loop_
 _atom_site_type_symbol
 _atom_site_label
 _atom_site_symmetry_multiplicity
 _atom_site_fract_x
 _atom_site_fract_y
 _atom_site_fract_z
 _atom_site_occupancy
  Li  Li0  1  0.079034  0.367833  0.360988  1
  Li  Li1  1  0.079034  0.867833  0.139012  1
  Li  Li2  1  0.422117  0.130785  0.878616  1
  Li  Li3  1  0.422117  0.630785  0.621384  1
  Li  Li4  1  0.577883  0.369215  0.378616  1
  Li  Li5  1  0.577883  0.869215  0.121384  1
  Li  Li6  1  0.920966  0.132167  0.860988  1
  Li  Li7  1  0.920966  0.632167  0.639012  1
  Mn  Mn8  1  0.234585  0.264108  0.623166  1
  Mn  Mn9  1  0.263358  0.253610  0.123750  1
  Mn  Mn10  1  0.234585  0.764108  0.876834  1
  Mn  Mn11  1  0.263358  0.753610  0.376250  1
  Mn  Mn12  1  0.736642  0.246390  0.623750  1
  Mn  Mn13  1  0.765415  0.235892  0.123166  1
  Mn  Mn14  1  0.736642  0.746390  0.876250  1
  Mn  Mn15  1  0.765415  0.735892  0.376834  1
  B  B16  1  0.004255  0.136980  0.630950  1
  B  B17  1  0.004255  0.636980  0.869050  1
  B  B18  1  0.170428  0.299277  0.884200  1
  B  B19  1  0.170428  0.799277  0.615800  1
  B  B20  1  0.331082  0.210035  0.371444  1
  B  B21  1  0.331082  0.710035  0.128556  1
  B  B22  1  0.506645  0.149868  0.615079  1
  B  B23  1  0.493355  0.350132  0.115079  1
  B  B24  1  0.506645  0.649868  0.884921  1
  B  B25  1  0.493355  0.850132  0.384921  1
  B  B26  1  0.668918  0.289965  0.871444  1
  B  B27  1  0.668918  0.789965  0.628556  1
  B  B28  1  0.829572  0.200723  0.384200  1
  B  B29  1  0.829572  0.700723  0.115800  1
  B  B30  1  0.995745  0.363020  0.130950  1
  B  B31  1  0.995745  0.863020  0.369050  1
  O  O32  1  0.068766  0.316350  0.612330  1
  O  O33  1  0.049815  0.380103  0.888239  1
  O  O34  1  0.104314  0.289485  0.173908  1
  O  O35  1  0.068766  0.816350  0.887670  1
  O  O36  1  0.049815  0.880103  0.611761  1
  O  O37  1  0.104314  0.789485  0.326092  1
  O  O38  1  0.224095  0.096431  0.947244  1
  O  O39  1  0.249960  0.102236  0.430369  1
  O  O40  1  0.237865  0.427770  0.818653  1
  O  O41  1  0.224095  0.596431  0.552756  1
  O  O42  1  0.292837  0.418749  0.306165  1
  O  O43  1  0.249960  0.602236  0.069631  1
  O  O44  1  0.237865  0.927770  0.681347  1
  O  O45  1  0.292837  0.918749  0.193835  1
  O  O46  1  0.397386  0.253549  0.647117  1
  O  O47  1  0.451124  0.109874  0.373369  1
  O  O48  1  0.423328  0.191718  0.077802  1
  O  O49  1  0.397386  0.753549  0.852883  1
  O  O50  1  0.451124  0.609874  0.126631  1
  O  O51  1  0.423328  0.691718  0.422198  1
  O  O52  1  0.576672  0.308282  0.577802  1
  O  O53  1  0.548876  0.390126  0.873369  1
  O  O54  1  0.602614  0.246451  0.147117  1
  O  O55  1  0.576672  0.808282  0.922198  1
  O  O56  1  0.548876  0.890126  0.626631  1
  O  O57  1  0.602614  0.746451  0.352883  1
  O  O58  1  0.707163  0.081251  0.806165  1
  O  O59  1  0.762135  0.072230  0.318653  1
  O  O60  1  0.750040  0.397764  0.930369  1
  O  O61  1  0.707163  0.581251  0.693835  1
  O  O62  1  0.775905  0.403569  0.447244  1
  O  O63  1  0.762135  0.572230  0.181347  1
  O  O64  1  0.750040  0.897764  0.569631  1
  O  O65  1  0.775905  0.903569  0.052756  1
  O  O66  1  0.895686  0.210515  0.673908  1
  O  O67  1  0.950185  0.119897  0.388239  1
  O  O68  1  0.931234  0.183650  0.112330  1
  O  O69  1  0.895686  0.710515  0.826092  1
  O  O70  1  0.950185  0.619897  0.111761  1
  O  O71  1  0.931234  0.683650  0.387670  1
