# generated using pymatgen
data_RbLiMn3O4
_symmetry_space_group_name_H-M   'P 1'
_cell_length_a   6.29675657
_cell_length_b   8.11884716
_cell_length_c   8.12093237
_cell_angle_alpha   96.73893120
_cell_angle_beta   79.42707226
_cell_angle_gamma   78.79029892
_symmetry_Int_Tables_number   1
_chemical_formula_structural   RbLiMn3O4
_chemical_formula_sum   'Rb3 Li3 Mn9 O12'
_cell_volume   395.25468293
_cell_formula_units_Z   3
loop_
 _symmetry_equiv_pos_site_id
 _symmetry_equiv_pos_as_xyz
  1  'x, y, z'
loop_
 _atom_site_type_symbol
 _atom_site_label
 _atom_site_symmetry_multiplicity
 _atom_site_fract_x
 _atom_site_fract_y
 _atom_site_fract_z
 _atom_site_occupancy
  Rb  Rb0  1  0.003630  0.669760  0.666156  1
  Rb  Rb1  1  0.000453  0.008293  0.999168  1
  Rb  Rb2  1  0.993959  0.329761  0.327178  1
  Li  Li3  1  0.438137  0.851478  0.670280  1
  Li  Li4  1  0.559098  0.151022  0.330517  1
  Li  Li5  1  0.816250  0.418829  0.972820  1
  Mn  Mn6  1  0.553864  0.810246  0.993411  1
  Mn  Mn7  1  0.795417  0.766021  0.312266  1
  Mn  Mn8  1  0.197121  0.914698  0.363455  1
  Mn  Mn9  1  0.175196  0.575192  0.025932  1
  Mn  Mn10  1  0.454136  0.508271  0.327423  1
  Mn  Mn11  1  0.556234  0.486765  0.670515  1
  Mn  Mn12  1  0.800302  0.088858  0.638449  1
  Mn  Mn13  1  0.188546  0.242468  0.691371  1
  Mn  Mn14  1  0.461203  0.186409  0.004896  1
  O  O15  1  0.829315  0.670106  0.053562  1
  O  O16  1  0.616157  0.977446  0.811659  1
  O  O17  1  0.613579  0.650110  0.481732  1
  O  O18  1  0.633521  0.316759  0.140842  1
  O  O19  1  0.161264  0.992398  0.621344  1
  O  O20  1  0.164625  0.661592  0.285097  1
  O  O21  1  0.834744  0.337836  0.717640  1
  O  O22  1  0.837564  0.009256  0.379428  1
  O  O23  1  0.366778  0.685768  0.856920  1
  O  O24  1  0.384048  0.351465  0.521257  1
  O  O25  1  0.389030  0.016512  0.187549  1
  O  O26  1  0.175831  0.322678  0.949132  1
