# generated using pymatgen
data_Ca3(PO4)2
_symmetry_space_group_name_H-M   'P 1'
_cell_length_a   5.27185301
_cell_length_b   5.62171063
_cell_length_c   7.23381360
_cell_angle_alpha   89.46240596
_cell_angle_beta   90.29414027
_cell_angle_gamma   122.21931206
_symmetry_Int_Tables_number   1
_chemical_formula_structural   Ca3(PO4)2
_chemical_formula_sum   'Ca3 P2 O8'
_cell_volume   181.36658200
_cell_formula_units_Z   1
loop_
 _symmetry_equiv_pos_site_id
 _symmetry_equiv_pos_as_xyz
  1  'x, y, z'
loop_
 _atom_site_type_symbol
 _atom_site_label
 _atom_site_symmetry_multiplicity
 _atom_site_fract_x
 _atom_site_fract_y
 _atom_site_fract_z
 _atom_site_occupancy
  Ca  Ca0  1  0.376524  0.688406  0.749968  1
  Ca  Ca1  1  0.016298  0.002978  0.023031  1
  Ca  Ca2  1  0.016339  0.013410  0.477009  1
  P  P3  1  0.302927  0.651483  0.250050  1
  P  P4  1  0.694604  0.347269  0.749845  1
  O  O5  1  0.103392  0.777936  0.255995  1
  O  O6  1  0.103312  0.325506  0.243990  1
  O  O7  1  0.495410  0.759534  0.069475  1
  O  O8  1  0.495384  0.735833  0.430434  1
  O  O9  1  0.498655  0.229818  0.578550  1
  O  O10  1  0.498379  0.268458  0.921604  1
  O  O11  1  0.910914  0.680663  0.741607  1
  O  O12  1  0.911271  0.230612  0.758441  1
