# generated using pymatgen
data_Li2Co(CO3)2
_symmetry_space_group_name_H-M   'P 1'
_cell_length_a   5.20381441
_cell_length_b   6.38010301
_cell_length_c   7.94190137
_cell_angle_alpha   89.57697038
_cell_angle_beta   90.31589253
_cell_angle_gamma   113.38216142
_symmetry_Int_Tables_number   1
_chemical_formula_structural   Li2Co(CO3)2
_chemical_formula_sum   'Li4 Co2 C4 O12'
_cell_volume   242.01678740
_cell_formula_units_Z   2
loop_
 _symmetry_equiv_pos_site_id
 _symmetry_equiv_pos_as_xyz
  1  'x, y, z'
loop_
 _atom_site_type_symbol
 _atom_site_label
 _atom_site_symmetry_multiplicity
 _atom_site_fract_x
 _atom_site_fract_y
 _atom_site_fract_z
 _atom_site_occupancy
  Li  Li0  1  0.349177  0.756462  0.081471  1
  Li  Li1  1  0.820934  0.474558  0.875129  1
  Li  Li2  1  0.841704  0.248029  0.419928  1
  Li  Li3  1  0.323658  0.983065  0.629363  1
  Co  Co4  1  0.502135  0.515872  0.488505  1
  Co  Co5  1  0.001277  0.018414  0.007429  1
  C  C6  1  0.728601  0.875057  0.739644  1
  C  C7  1  0.779043  0.616830  0.220764  1
  C  C8  1  0.231183  0.374436  0.757338  1
  C  C9  1  0.268138  0.118254  0.277173  1
  O  O10  1  0.981129  0.882150  0.755963  1
  O  O11  1  0.613111  0.915212  0.873567  1
  O  O12  1  0.917424  0.670068  0.079011  1
  O  O13  1  0.599096  0.837665  0.596153  1
  O  O14  1  0.883934  0.563862  0.353924  1
  O  O15  1  0.531070  0.617763  0.233435  1
  O  O16  1  0.484406  0.382127  0.738882  1
  O  O17  1  0.406785  0.169641  0.419436  1
  O  O18  1  0.106149  0.404167  0.623276  1
  O  O19  1  0.113731  0.345863  0.903727  1
  O  O20  1  0.376751  0.072463  0.143929  1
  O  O21  1  0.017409  0.113030  0.263952  1
