# generated using pymatgen
data_Ca7La3Ti5Cr5O30
_symmetry_space_group_name_H-M   'P 1'
_cell_length_a   5.47702295
_cell_length_b   5.52084332
_cell_length_c   38.45887589
_cell_angle_alpha   90.00000000
_cell_angle_beta   90.00000000
_cell_angle_gamma   89.81378055
_symmetry_Int_Tables_number   1
_chemical_formula_structural   Ca7La3Ti5Cr5O30
_chemical_formula_sum   'Ca14 La6 Ti10 Cr10 O60'
_cell_volume   1162.90509842
_cell_formula_units_Z   2
loop_
 _symmetry_equiv_pos_site_id
 _symmetry_equiv_pos_as_xyz
  1  'x, y, z'
loop_
 _atom_site_type_symbol
 _atom_site_label
 _atom_site_symmetry_multiplicity
 _atom_site_fract_x
 _atom_site_fract_y
 _atom_site_fract_z
 _atom_site_occupancy
  Ca  Ca0  1  0.013701  0.967588  0.150000  1
  Ca  Ca1  1  0.012269  0.967860  0.550434  1
  Ca  Ca2  1  0.012269  0.967860  0.749566  1
  Ca  Ca3  1  0.488884  0.462499  0.351224  1
  Ca  Ca4  1  0.487950  0.460118  0.150000  1
  Ca  Ca5  1  0.488884  0.462499  0.948776  1
  Ca  Ca6  1  0.510478  0.540011  0.650000  1
  Ca  Ca7  1  0.511132  0.537717  0.450390  1
  Ca  Ca8  1  0.511132  0.537717  0.849610  1
  Ca  Ca9  1  0.989075  0.032522  0.051456  1
  Ca  Ca10  1  0.989075  0.032522  0.248544  1
  Ca  Ca11  1  0.986821  0.032766  0.650000  1
  Ca  Ca12  1  0.986884  0.033789  0.452382  1
  Ca  Ca13  1  0.986884  0.033789  0.847618  1
  La  La14  1  0.007633  0.974457  0.350405  1
  La  La15  1  0.007633  0.974457  0.949595  1
  La  La16  1  0.491030  0.468486  0.550120  1
  La  La17  1  0.491030  0.468486  0.749880  1
  La  La18  1  0.507214  0.530238  0.050295  1
  La  La19  1  0.507214  0.530238  0.249705  1
  Ti  Ti20  1  0.000273  0.498993  0.999615  1
  Ti  Ti21  1  0.001656  0.499723  0.101411  1
  Ti  Ti22  1  0.001656  0.499723  0.198589  1
  Ti  Ti23  1  0.000273  0.498993  0.300385  1
  Ti  Ti24  1  0.998566  0.499351  0.402170  1
  Ti  Ti25  1  0.996821  0.501281  0.499836  1
  Ti  Ti26  1  0.997394  0.500834  0.601350  1
  Ti  Ti27  1  0.997394  0.500834  0.698650  1
  Ti  Ti28  1  0.998566  0.499351  0.897830  1
  Ti  Ti29  1  0.996821  0.501281  0.800164  1
  Cr  Cr30  1  0.501125  0.999609  0.101190  1
  Cr  Cr31  1  0.500729  0.999778  0.000151  1
  Cr  Cr32  1  0.500729  0.999778  0.299849  1
  Cr  Cr33  1  0.501125  0.999609  0.198810  1
  Cr  Cr34  1  0.498684  0.999539  0.401685  1
  Cr  Cr35  1  0.499378  0.999942  0.499713  1
  Cr  Cr36  1  0.498741  0.000130  0.601035  1
  Cr  Cr37  1  0.498741  0.000130  0.698965  1
  Cr  Cr38  1  0.498684  0.999539  0.898315  1
  Cr  Cr39  1  0.499378  0.999942  0.800287  1
  O  O40  1  0.070923  0.483481  0.050219  1
  O  O41  1  0.070923  0.483481  0.249781  1
  O  O42  1  0.085208  0.478448  0.449618  1
  O  O43  1  0.085208  0.475293  0.650000  1
  O  O44  1  0.085208  0.478448  0.850382  1
  O  O45  1  0.218274  0.224188  0.191034  1
  O  O46  1  0.225342  0.223133  0.391661  1
  O  O47  1  0.220629  0.222714  0.590963  1
  O  O48  1  0.218274  0.224188  0.108966  1
  O  O49  1  0.224102  0.227871  0.308233  1
  O  O50  1  0.216537  0.222931  0.791072  1
  O  O51  1  0.224102  0.227871  0.991767  1
  O  O52  1  0.216537  0.222931  0.508928  1
  O  O53  1  0.220629  0.222714  0.709037  1
  O  O54  1  0.225342  0.223133  0.908339  1
  O  O55  1  0.279016  0.716503  0.308460  1
  O  O56  1  0.279835  0.714967  0.108512  1
  O  O57  1  0.279835  0.714967  0.191488  1
  O  O58  1  0.278404  0.721299  0.391362  1
  O  O59  1  0.274781  0.719442  0.507705  1
  O  O60  1  0.276605  0.719537  0.592252  1
  O  O61  1  0.276605  0.719537  0.707748  1
  O  O62  1  0.278404  0.721299  0.908638  1
  O  O63  1  0.279016  0.716503  0.991540  1
  O  O64  1  0.274781  0.719442  0.792295  1
  O  O65  1  0.415063  0.985784  0.050992  1
  O  O66  1  0.415063  0.985784  0.249008  1
  O  O67  1  0.415821  0.982590  0.650000  1
  O  O68  1  0.414976  0.982273  0.851399  1
  O  O69  1  0.414976  0.982273  0.448601  1
  O  O70  1  0.574982  0.017437  0.351703  1
  O  O71  1  0.584632  0.012599  0.550663  1
  O  O72  1  0.585553  0.016760  0.150000  1
  O  O73  1  0.584632  0.012599  0.749337  1
  O  O74  1  0.574982  0.017437  0.948297  1
  O  O75  1  0.729486  0.277013  0.007725  1
  O  O76  1  0.722584  0.280426  0.092144  1
  O  O77  1  0.722584  0.280426  0.207856  1
  O  O78  1  0.729486  0.277013  0.292275  1
  O  O79  1  0.725469  0.278662  0.408644  1
  O  O80  1  0.719445  0.284598  0.608402  1
  O  O81  1  0.719235  0.285489  0.808465  1
  O  O82  1  0.725469  0.278662  0.891356  1
  O  O83  1  0.719235  0.285489  0.491535  1
  O  O84  1  0.719445  0.284598  0.691598  1
  O  O85  1  0.779183  0.776280  0.090971  1
  O  O86  1  0.785234  0.777638  0.291375  1
  O  O87  1  0.779583  0.773345  0.491189  1
  O  O88  1  0.780669  0.775278  0.691125  1
  O  O89  1  0.785234  0.777638  0.008625  1
  O  O90  1  0.779183  0.776280  0.209029  1
  O  O91  1  0.783639  0.782414  0.891096  1
  O  O92  1  0.783639  0.782414  0.408904  1
  O  O93  1  0.780669  0.775278  0.608875  1
  O  O94  1  0.779583  0.773345  0.808811  1
  O  O95  1  0.913141  0.524067  0.150000  1
  O  O96  1  0.919885  0.513637  0.350282  1
  O  O97  1  0.929459  0.516273  0.550057  1
  O  O98  1  0.929459  0.516273  0.749943  1
  O  O99  1  0.919885  0.513637  0.949718  1
