# generated using pymatgen
data_Co3OF5
_symmetry_space_group_name_H-M   'P 1'
_cell_length_a   10.54006986
_cell_length_b   6.67698177
_cell_length_c   3.12716304
_cell_angle_alpha   90.00000000
_cell_angle_beta   90.00000000
_cell_angle_gamma   71.58686717
_symmetry_Int_Tables_number   1
_chemical_formula_structural   Co3OF5
_chemical_formula_sum   'Co6 O2 F10'
_cell_volume   208.80964022
_cell_formula_units_Z   2
loop_
 _symmetry_equiv_pos_site_id
 _symmetry_equiv_pos_as_xyz
  1  'x, y, z'
loop_
 _atom_site_type_symbol
 _atom_site_label
 _atom_site_symmetry_multiplicity
 _atom_site_fract_x
 _atom_site_fract_y
 _atom_site_fract_z
 _atom_site_occupancy
  Co  Co0  1  0.992986  0.023670  0.000000  1
  Co  Co1  1  0.006095  0.477543  0.500000  1
  Co  Co2  1  0.349595  0.326005  0.000000  1
  Co  Co3  1  0.653139  0.172771  0.500000  1
  Co  Co4  1  0.331668  0.834073  0.500000  1
  Co  Co5  1  0.668625  0.666035  0.000000  1
  O  O6  1  0.003092  0.295197  0.000000  1
  O  O7  1  0.466744  0.266810  0.500000  1
  F  F8  1  0.000691  0.704440  0.000000  1
  F  F9  1  0.327418  0.031935  0.000000  1
  F  F10  1  0.216179  0.394909  0.500000  1
  F  F11  1  0.124143  0.933079  0.500000  1
  F  F12  1  0.330548  0.640197  0.000000  1
  F  F13  1  0.667655  0.362195  0.000000  1
  F  F14  1  0.859631  0.065953  0.500000  1
  F  F15  1  0.536085  0.731890  0.500000  1
  F  F16  1  0.800937  0.601751  0.500000  1
  F  F17  1  0.664768  0.971550  0.000000  1
