# generated using pymatgen
data_Li3CrSiCO7
_symmetry_space_group_name_H-M   'P 1'
_cell_length_a   8.29068154
_cell_length_b   6.45719571
_cell_length_c   5.04445631
_cell_angle_alpha   90.00000000
_cell_angle_beta   85.15097677
_cell_angle_gamma   90.00000000
_symmetry_Int_Tables_number   1
_chemical_formula_structural   Li3CrSiCO7
_chemical_formula_sum   'Li6 Cr2 Si2 C2 O14'
_cell_volume   269.08616921
_cell_formula_units_Z   2
loop_
 _symmetry_equiv_pos_site_id
 _symmetry_equiv_pos_as_xyz
  1  'x, y, z'
loop_
 _atom_site_type_symbol
 _atom_site_label
 _atom_site_symmetry_multiplicity
 _atom_site_fract_x
 _atom_site_fract_y
 _atom_site_fract_z
 _atom_site_occupancy
  Li  Li0  1  0.110315  0.250000  0.765336  1
  Li  Li1  1  0.292440  0.036044  0.233208  1
  Li  Li2  1  0.292440  0.463956  0.233208  1
  Li  Li3  1  0.707560  0.536044  0.766792  1
  Li  Li4  1  0.707560  0.963956  0.766792  1
  Li  Li5  1  0.889685  0.750000  0.234664  1
  Cr  Cr6  1  0.319782  0.750000  0.803275  1
  Cr  Cr7  1  0.680218  0.250000  0.196725  1
  Si  Si8  1  0.423393  0.250000  0.714240  1
  Si  Si9  1  0.576607  0.750000  0.285760  1
  C  C10  1  0.029597  0.750000  0.706085  1
  C  C11  1  0.970403  0.250000  0.293915  1
  O  O12  1  0.117414  0.250000  0.355722  1
  O  O13  1  0.068670  0.750000  0.950985  1
  O  O14  1  0.149800  0.750000  0.522816  1
  O  O15  1  0.304946  0.056926  0.819107  1
  O  O16  1  0.304946  0.443074  0.819107  1
  O  O17  1  0.455852  0.250000  0.385822  1
  O  O18  1  0.400964  0.750000  0.162685  1
  O  O19  1  0.599036  0.250000  0.837315  1
  O  O20  1  0.544148  0.750000  0.614178  1
  O  O21  1  0.695054  0.556926  0.180893  1
  O  O22  1  0.695054  0.943074  0.180893  1
  O  O23  1  0.850200  0.250000  0.477184  1
  O  O24  1  0.931330  0.250000  0.049015  1
  O  O25  1  0.882586  0.750000  0.644278  1
