# generated using pymatgen
data_Li5V3P8O29
_symmetry_space_group_name_H-M   'P 1'
_cell_length_a   9.81189099
_cell_length_b   9.77463813
_cell_length_c   14.07564511
_cell_angle_alpha   89.62182396
_cell_angle_beta   89.77359421
_cell_angle_gamma   60.12016672
_symmetry_Int_Tables_number   1
_chemical_formula_structural   Li5V3P8O29
_chemical_formula_sum   'Li10 V6 P16 O58'
_cell_volume   1170.48906752
_cell_formula_units_Z   2
loop_
 _symmetry_equiv_pos_site_id
 _symmetry_equiv_pos_as_xyz
  1  'x, y, z'
loop_
 _atom_site_type_symbol
 _atom_site_label
 _atom_site_symmetry_multiplicity
 _atom_site_fract_x
 _atom_site_fract_y
 _atom_site_fract_z
 _atom_site_occupancy
  Li  Li0  1  0.910449  0.776167  0.057318  1
  Li  Li1  1  0.767036  0.896662  0.561166  1
  Li  Li2  1  0.907801  0.328563  0.560622  1
  Li  Li3  1  0.774124  0.311005  0.057489  1
  Li  Li4  1  0.320509  0.905500  0.058368  1
  Li  Li5  1  0.671218  0.234096  0.442173  1
  Li  Li6  1  0.339478  0.759956  0.562658  1
  Li  Li7  1  0.341664  0.331771  0.108516  1
  Li  Li8  1  0.084557  0.225082  0.936628  1
  Li  Li9  1  0.043956  0.963554  0.502643  1
  V  V10  1  0.562148  0.436529  0.248994  1
  V  V11  1  0.431423  0.568411  0.752741  1
  V  V12  1  0.567643  0.998599  0.751462  1
  V  V13  1  0.430193  0.000473  0.251088  1
  V  V14  1  0.001030  0.570483  0.257695  1
  V  V15  1  0.997399  0.436289  0.746006  1
  P  P16  1  0.912401  0.767736  0.842635  1
  P  P17  1  0.768259  0.918107  0.342607  1
  P  P18  1  0.914069  0.310605  0.343190  1
  P  P19  1  0.671199  0.665980  0.130197  1
  P  P20  1  0.664859  0.668856  0.627746  1
  P  P21  1  0.768143  0.320067  0.841185  1
  P  P22  1  0.683317  0.229936  0.659300  1
  P  P23  1  0.318556  0.911568  0.843330  1
  P  P24  1  0.682203  0.088680  0.158219  1
  P  P25  1  0.312837  0.770924  0.344203  1
  P  P26  1  0.224487  0.685374  0.161548  1
  P  P27  1  0.333924  0.331396  0.371053  1
  P  P28  1  0.329927  0.331833  0.868700  1
  P  P29  1  0.085297  0.693602  0.660046  1
  P  P30  1  0.225250  0.082926  0.659247  1
  P  P31  1  0.089548  0.232731  0.158685  1
  O  O32  1  0.993967  0.802011  0.579323  1
  O  O33  1  0.915400  0.749158  0.334399  1
  O  O34  1  0.768939  0.988926  0.076846  1
  O  O35  1  0.743866  0.914837  0.828762  1
  O  O36  1  0.900186  0.619340  0.820781  1
  O  O37  1  0.819887  0.660553  0.178464  1
  O  O38  1  0.915408  0.468750  0.326851  1
  O  O39  1  0.996935  0.249507  0.070484  1
  O  O40  1  0.918152  0.335548  0.835121  1
  O  O41  1  0.675253  0.814015  0.670543  1
  O  O42  1  0.619240  0.910059  0.327884  1
  O  O43  1  0.808730  0.511688  0.666596  1
  O  O44  1  0.686813  0.659171  0.025045  1
  O  O45  1  0.668583  0.675673  0.521661  1
  O  O46  1  0.664056  0.517172  0.170871  1
  O  O47  1  0.479901  0.901314  0.821560  1
  O  O48  1  0.520531  0.815620  0.166387  1
  O  O49  1  0.746306  0.336675  0.337858  1
  O  O50  1  0.788788  0.206011  0.752191  1
  O  O51  1  0.774605  0.223973  0.570839  1
  O  O52  1  0.759354  0.249131  0.932708  1
  O  O53  1  0.620991  0.481860  0.819766  1
  O  O54  1  0.510055  0.680040  0.666348  1
  O  O55  1  0.659129  0.257258  0.154785  1
  O  O56  1  0.468951  0.616252  0.331286  1
  O  O57  1  0.340868  0.912253  0.328213  1
  O  O58  1  0.783394  0.016304  0.255840  1
  O  O59  1  0.774192  0.995496  0.433754  1
  O  O60  1  0.211651  0.989632  0.579773  1
  O  O61  1  0.657473  0.084726  0.659571  1
  O  O62  1  0.528669  0.383483  0.669904  1
  O  O63  1  0.339834  0.746509  0.840058  1
  O  O64  1  0.487228  0.327671  0.329651  1
  O  O65  1  0.368462  0.515985  0.174939  1
  O  O66  1  0.236088  0.772018  0.078574  1
  O  O67  1  0.232163  0.785552  0.436817  1
  O  O68  1  0.198967  0.783871  0.258396  1
  O  O69  1  0.256678  0.661353  0.660824  1
  O  O70  1  0.475565  0.180711  0.821608  1
  O  O71  1  0.515719  0.108052  0.174481  1
  O  O72  1  0.332116  0.477761  0.827804  1
  O  O73  1  0.338497  0.319717  0.974988  1
  O  O74  1  0.332342  0.338581  0.476115  1
  O  O75  1  0.186035  0.485537  0.324926  1
  O  O76  1  0.384253  0.078706  0.668626  1
  O  O77  1  0.325902  0.192160  0.325712  1
  O  O78  1  0.076293  0.664638  0.160311  1
  O  O79  1  0.012511  0.787118  0.758564  1
  O  O80  1  0.984103  0.763548  0.935113  1
  O  O81  1  0.082243  0.538172  0.666746  1
  O  O82  1  0.181574  0.329147  0.831603  1
  O  O83  1  0.110254  0.378105  0.176445  1
  O  O84  1  0.253877  0.083149  0.155912  1
  O  O85  1  0.249590  0.000091  0.933918  1
  O  O86  1  0.201713  0.011867  0.758563  1
  O  O87  1  0.086386  0.255223  0.657627  1
  O  O88  1  0.991605  0.229037  0.433521  1
  O  O89  1  0.003248  0.208482  0.250025  1
