# generated using pymatgen
data_USiS
_symmetry_space_group_name_H-M   'P 1'
_cell_length_a   4.06309463
_cell_length_b   4.06309463
_cell_length_c   7.16141603
_cell_angle_alpha   90.00000000
_cell_angle_beta   90.00000000
_cell_angle_gamma   90.00000000
_symmetry_Int_Tables_number   1
_chemical_formula_structural   USiS
_chemical_formula_sum   'U2 Si2 S2'
_cell_volume   118.22594075
_cell_formula_units_Z   2
loop_
 _symmetry_equiv_pos_site_id
 _symmetry_equiv_pos_as_xyz
  1  'x, y, z'
loop_
 _atom_site_type_symbol
 _atom_site_label
 _atom_site_symmetry_multiplicity
 _atom_site_fract_x
 _atom_site_fract_y
 _atom_site_fract_z
 _atom_site_occupancy
  Si  Si0  1  0.750000  0.750000  0.364841  1
  Si  Si1  1  0.250000  0.250000  0.635159  1
  S  S2  1  0.250000  0.750000  0.000000  1
  S  S3  1  0.750000  0.250000  0.000000  1
  U  U4  1  0.750000  0.750000  0.750942  1
  U  U5  1  0.250000  0.250000  0.249058  1
