# generated using pymatgen
data_Li3MnPCO7
_symmetry_space_group_name_H-M   'P 1'
_cell_length_a   5.03207332
_cell_length_b   6.86992692
_cell_length_c   8.73626282
_cell_angle_alpha   95.90144707
_cell_angle_beta   86.86449024
_cell_angle_gamma   97.41956246
_symmetry_Int_Tables_number   1
_chemical_formula_structural   Li3MnPCO7
_chemical_formula_sum   'Li6 Mn2 P2 C2 O14'
_cell_volume   297.63371856
_cell_formula_units_Z   2
loop_
 _symmetry_equiv_pos_site_id
 _symmetry_equiv_pos_as_xyz
  1  'x, y, z'
loop_
 _atom_site_type_symbol
 _atom_site_label
 _atom_site_symmetry_multiplicity
 _atom_site_fract_x
 _atom_site_fract_y
 _atom_site_fract_z
 _atom_site_occupancy
  Li  Li0  1  0.335715  0.552591  0.764232  1
  Li  Li1  1  0.498225  0.919992  0.786685  1
  Li  Li2  1  0.169914  0.179776  0.752987  1
  Li  Li3  1  0.084438  0.716487  0.241583  1
  Li  Li4  1  0.756073  0.976376  0.207790  1
  Li  Li5  1  0.918952  0.343699  0.230385  1
  Mn  Mn6  1  0.923141  0.701929  0.628057  1
  Mn  Mn7  1  0.331482  0.194123  0.366513  1
  P  P8  1  0.794066  0.203431  0.583182  1
  P  P9  1  0.460547  0.692542  0.411310  1
  C  C10  1  0.871986  0.725646  0.936537  1
  C  C11  1  0.382542  0.170752  0.058232  1
  O  O12  1  0.402405  0.161759  0.911185  1
  O  O13  1  0.102883  0.742585  0.861134  1
  O  O14  1  0.659131  0.700238  0.852979  1
  O  O15  1  0.853387  0.021304  0.663190  1
  O  O16  1  0.961875  0.384850  0.668113  1
  O  O17  1  0.488680  0.225706  0.592174  1
  O  O18  1  0.366710  0.718003  0.585048  1
  O  O19  1  0.887904  0.178229  0.409531  1
  O  O20  1  0.765838  0.669878  0.402432  1
  O  O21  1  0.292382  0.511196  0.326632  1
  O  O22  1  0.401702  0.874632  0.331149  1
  O  O23  1  0.595611  0.196381  0.141422  1
  O  O24  1  0.151933  0.153538  0.133623  1
  O  O25  1  0.851808  0.734697  0.083317  1
