# generated using pymatgen
data_Li2MnV(PO4)3
_symmetry_space_group_name_H-M   'P 1'
_cell_length_a   8.98137107
_cell_length_b   8.25838592
_cell_length_c   8.36480814
_cell_angle_alpha   60.13658325
_cell_angle_beta   63.85493661
_cell_angle_gamma   91.21561866
_symmetry_Int_Tables_number   1
_chemical_formula_structural   Li2MnV(PO4)3
_chemical_formula_sum   'Li4 Mn2 V2 P6 O24'
_cell_volume   459.34289078
_cell_formula_units_Z   2
loop_
 _symmetry_equiv_pos_site_id
 _symmetry_equiv_pos_as_xyz
  1  'x, y, z'
loop_
 _atom_site_type_symbol
 _atom_site_label
 _atom_site_symmetry_multiplicity
 _atom_site_fract_x
 _atom_site_fract_y
 _atom_site_fract_z
 _atom_site_occupancy
  Li  Li0  1  0.375200  0.191714  0.367559  1
  Li  Li1  1  0.865902  0.679208  0.061499  1
  Li  Li2  1  0.884687  0.928388  0.375193  1
  Li  Li3  1  0.878634  0.248794  0.811395  1
  Mn  Mn4  1  0.563887  0.860869  0.285025  1
  Mn  Mn5  1  0.430008  0.135885  0.724760  1
  V  V6  1  0.048180  0.356104  0.298787  1
  V  V7  1  0.963674  0.651710  0.690625  1
  P  P8  1  0.248654  0.049715  0.208342  1
  P  P9  1  0.251080  0.464734  0.496450  1
  P  P10  1  0.253812  0.751112  0.792355  1
  P  P11  1  0.754324  0.249286  0.207092  1
  P  P12  1  0.748196  0.530688  0.504544  1
  P  P13  1  0.752896  0.957625  0.777378  1
  O  O14  1  0.101338  0.845712  0.378544  1
  O  O15  1  0.262531  0.133183  0.994696  1
  O  O16  1  0.193748  0.185475  0.292841  1
  O  O17  1  0.185580  0.491591  0.343787  1
  O  O18  1  0.100151  0.466182  0.686462  1
  O  O19  1  0.099012  0.774730  0.743066  1
  O  O20  1  0.418667  0.033738  0.211006  1
  O  O21  1  0.281481  0.263417  0.587697  1
  O  O22  1  0.421938  0.627716  0.368280  1
  O  O23  1  0.182391  0.537937  0.998628  1
  O  O24  1  0.262224  0.893598  0.857218  1
  O  O25  1  0.418122  0.786165  0.603197  1
  O  O26  1  0.578719  0.209727  0.390070  1
  O  O27  1  0.742877  0.114426  0.128952  1
  O  O28  1  0.818600  0.466874  0.012386  1
  O  O29  1  0.574982  0.372009  0.640350  1
  O  O30  1  0.733884  0.739292  0.391841  1
  O  O31  1  0.578007  0.972919  0.799207  1
  O  O32  1  0.893079  0.203231  0.275037  1
  O  O33  1  0.885712  0.516486  0.318863  1
  O  O34  1  0.817335  0.507542  0.656495  1
  O  O35  1  0.819837  0.831482  0.685808  1
  O  O36  1  0.745784  0.870972  0.992517  1
  O  O37  1  0.893791  0.168873  0.616655  1
