# generated using pymatgen
data_Tm2GeO5
_symmetry_space_group_name_H-M   'P 1'
_cell_length_a   6.80738077
_cell_length_b   8.16142552
_cell_length_c   9.64490724
_cell_angle_alpha   109.31585799
_cell_angle_beta   69.33518521
_cell_angle_gamma   114.64823690
_symmetry_Int_Tables_number   1
_chemical_formula_structural   Tm2GeO5
_chemical_formula_sum   'Tm8 Ge4 O20'
_cell_volume   444.94541970
_cell_formula_units_Z   4
loop_
 _symmetry_equiv_pos_site_id
 _symmetry_equiv_pos_as_xyz
  1  'x, y, z'
loop_
 _atom_site_type_symbol
 _atom_site_label
 _atom_site_symmetry_multiplicity
 _atom_site_fract_x
 _atom_site_fract_y
 _atom_site_fract_z
 _atom_site_occupancy
  Tm  Tm0  1  0.274939  0.103724  0.034565  1
  Tm  Tm1  1  0.735563  0.064250  0.337002  1
  Tm  Tm2  1  0.008315  0.435750  0.162998  1
  Tm  Tm3  1  0.205779  0.396276  0.465435  1
  Tm  Tm4  1  0.794221  0.603724  0.534565  1
  Tm  Tm5  1  0.991685  0.564250  0.837002  1
  Tm  Tm6  1  0.264437  0.935750  0.662998  1
  Tm  Tm7  1  0.725061  0.896276  0.965435  1
  Ge  Ge8  1  0.591728  0.560915  0.190546  1
  Ge  Ge9  1  0.778642  0.060915  0.690546  1
  Ge  Ge10  1  0.221358  0.939085  0.309454  1
  Ge  Ge11  1  0.408272  0.439085  0.809454  1
  O  O12  1  0.919103  0.136628  0.102232  1
  O  O13  1  0.781853  0.459464  0.050257  1
  O  O14  1  0.084016  0.091976  0.323437  1
  O  O15  1  0.315477  0.408024  0.176563  1
  O  O16  1  0.372646  0.040536  0.449743  1
  O  O17  1  0.884706  0.363372  0.397768  1
  O  O18  1  0.652193  0.786346  0.174810  1
  O  O19  1  0.578297  0.529519  0.366879  1
  O  O20  1  0.415657  0.970481  0.133121  1
  O  O21  1  0.040657  0.713654  0.325190  1
  O  O22  1  0.959343  0.286346  0.674810  1
  O  O23  1  0.584343  0.029519  0.866879  1
  O  O24  1  0.421703  0.470481  0.633121  1
  O  O25  1  0.347807  0.213654  0.825190  1
  O  O26  1  0.115294  0.636628  0.602232  1
  O  O27  1  0.627354  0.959464  0.550257  1
  O  O28  1  0.684523  0.591976  0.823437  1
  O  O29  1  0.915984  0.908024  0.676563  1
  O  O30  1  0.218147  0.540536  0.949743  1
  O  O31  1  0.080897  0.863372  0.897768  1
