# generated using pymatgen
data_MnP2O7
_symmetry_space_group_name_H-M   'P 1'
_cell_length_a   4.91583322
_cell_length_b   4.91593746
_cell_length_c   12.41078237
_cell_angle_alpha   89.99997197
_cell_angle_beta   89.99954838
_cell_angle_gamma   119.99996064
_symmetry_Int_Tables_number   1
_chemical_formula_structural   MnP2O7
_chemical_formula_sum   'Mn2 P4 O14'
_cell_volume   259.73678083
_cell_formula_units_Z   2
loop_
 _symmetry_equiv_pos_site_id
 _symmetry_equiv_pos_as_xyz
  1  'x, y, z'
loop_
 _atom_site_type_symbol
 _atom_site_label
 _atom_site_symmetry_multiplicity
 _atom_site_fract_x
 _atom_site_fract_y
 _atom_site_fract_z
 _atom_site_occupancy
  Mn  Mn0  1  0.000039  0.000051  0.010606  1
  Mn  Mn1  1  0.000001  0.999948  0.510607  1
  P  P2  1  0.333316  0.666606  0.633098  1
  P  P3  1  0.333354  0.666683  0.888017  1
  P  P4  1  0.666709  0.333399  0.133096  1
  P  P5  1  0.666683  0.333312  0.388017  1
  O  O6  1  0.064104  0.721710  0.919899  1
  O  O7  1  0.063690  0.721170  0.601281  1
  O  O8  1  0.333323  0.666663  0.760556  1
  O  O9  1  0.278720  0.342387  0.601304  1
  O  O10  1  0.278347  0.342426  0.919883  1
  O  O11  1  0.657634  0.935934  0.919881  1
  O  O12  1  0.342517  0.063827  0.101289  1
  O  O13  1  0.657514  0.936203  0.601286  1
  O  O14  1  0.342388  0.064033  0.419888  1
  O  O15  1  0.721696  0.657595  0.419878  1
  O  O16  1  0.721314  0.657605  0.101307  1
  O  O17  1  0.666697  0.333323  0.260551  1
  O  O18  1  0.936304  0.278835  0.101268  1
  O  O19  1  0.935949  0.278289  0.419892  1
