# generated using pymatgen
data_Li3Mn2Fe(BO3)3
_symmetry_space_group_name_H-M   'P 1'
_cell_length_a   8.26180855
_cell_length_b   14.29065174
_cell_length_c   3.17449406
_cell_angle_alpha   90.00000000
_cell_angle_beta   90.00000000
_cell_angle_gamma   90.04467735
_symmetry_Int_Tables_number   1
_chemical_formula_structural   Li3Mn2Fe(BO3)3
_chemical_formula_sum   'Li6 Mn4 Fe2 B6 O18'
_cell_volume   374.80169787
_cell_formula_units_Z   2
loop_
 _symmetry_equiv_pos_site_id
 _symmetry_equiv_pos_as_xyz
  1  'x, y, z'
loop_
 _atom_site_type_symbol
 _atom_site_label
 _atom_site_symmetry_multiplicity
 _atom_site_fract_x
 _atom_site_fract_y
 _atom_site_fract_z
 _atom_site_occupancy
  Li  Li0  1  0.292739  0.990427  0.500000  1
  Li  Li1  1  0.341086  0.357895  0.500000  1
  Li  Li2  1  0.366674  0.651099  0.500000  1
  Li  Li3  1  0.792753  0.491668  0.500000  1
  Li  Li4  1  0.840155  0.857792  0.500000  1
  Li  Li5  1  0.865696  0.150059  0.500000  1
  Mn  Mn6  1  0.135174  0.506207  0.000000  1
  Mn  Mn7  1  0.192703  0.180097  0.000000  1
  Mn  Mn8  1  0.673342  0.314351  0.000000  1
  Mn  Mn9  1  0.691443  0.679718  0.000000  1
  Fe  Fe10  1  0.175715  0.816586  0.000000  1
  Fe  Fe11  1  0.636567  0.003798  0.000000  1
  B  B12  1  0.001669  0.668044  0.500000  1
  B  B13  1  0.998216  -0.000189  0.000000  1
  B  B14  1  -0.000124  0.333322  0.500000  1
  B  B15  1  0.500787  0.164933  0.500000  1
  B  B16  1  0.500010  0.500015  0.000000  1
  B  B17  1  0.498990  0.834353  0.500000  1
  O  O18  1  0.009982  0.430221  0.500000  1
  O  O19  1  0.017625  0.764958  0.500000  1
  O  O20  1  0.139130  0.611607  0.500000  1
  O  O21  1  0.140306  0.279865  0.500000  1
  O  O22  1  0.151035  0.958048  0.000000  1
  O  O23  1  0.347154  0.124267  0.500000  1
  O  O24  1  0.347201  0.791936  0.500000  1
  O  O25  1  0.364369  0.441911  0.000000  1
  O  O26  1  0.480929  0.596946  0.000000  1
  O  O27  1  0.511711  0.931422  0.500000  1
  O  O28  1  0.514571  0.262230  0.500000  1
  O  O29  1  0.637893  0.108719  0.500000  1
  O  O30  1  0.637998  0.779892  0.500000  1
  O  O31  1  0.654825  0.461180  0.000000  1
  O  O32  1  0.848832  0.626488  0.500000  1
  O  O33  1  0.849668  0.289693  0.500000  1
  O  O34  1  0.859753  0.943872  0.000000  1
  O  O35  1  0.983425  0.096574  0.000000  1
