# generated using pymatgen
data_La2Nb2N2O5
_symmetry_space_group_name_H-M   'P 1'
_cell_length_a   8.06580035
_cell_length_b   13.76007504
_cell_length_c   5.70178377
_cell_angle_alpha   90.48831587
_cell_angle_beta   89.85301311
_cell_angle_gamma   98.43171155
_symmetry_Int_Tables_number   1
_chemical_formula_structural   La2Nb2N2O5
_chemical_formula_sum   'La8 Nb8 N8 O20'
_cell_volume   625.95506405
_cell_formula_units_Z   4
loop_
 _symmetry_equiv_pos_site_id
 _symmetry_equiv_pos_as_xyz
  1  'x, y, z'
loop_
 _atom_site_type_symbol
 _atom_site_label
 _atom_site_symmetry_multiplicity
 _atom_site_fract_x
 _atom_site_fract_y
 _atom_site_fract_z
 _atom_site_occupancy
  La  La0  1  0.135074  0.570934  0.341045  1
  La  La1  1  0.224790  0.903359  0.748757  1
  La  La2  1  0.278113  0.120370  0.256752  1
  La  La3  1  0.344268  0.386212  0.761592  1
  La  La4  1  0.664488  0.614933  0.278141  1
  La  La5  1  0.721840  0.874752  0.750517  1
  La  La6  1  0.776338  0.093121  0.269455  1
  La  La7  1  0.859760  0.432541  0.826234  1
  Nb  Nb8  1  0.064510  0.315342  0.253992  1
  Nb  Nb9  1  0.015268  0.101180  0.749113  1
  Nb  Nb10  1  0.400026  0.673511  0.785237  1
  Nb  Nb11  1  0.488288  0.882853  0.258399  1
  Nb  Nb12  1  0.534600  0.118130  0.768838  1
  Nb  Nb13  1  0.588457  0.324497  0.280455  1
  Nb  Nb14  1  0.966957  0.879279  0.246212  1
  Nb  Nb15  1  0.925984  0.673109  0.790861  1
  N  N16  1  0.180196  0.697856  0.691174  1
  N  N17  1  0.724391  0.913125  0.182617  1
  N  N18  1  0.962525  0.988679  0.547190  1
  N  N19  1  0.871212  0.570429  0.560110  1
  N  N20  1  0.772593  0.112338  0.821821  1
  N  N21  1  0.825889  0.304627  0.198803  1
  N  N22  1  0.975992  0.823958  0.940873  1
  N  N23  1  0.912721  0.586664  0.050932  1
  O  O24  1  0.091070  0.406045  0.539762  1
  O  O25  1  0.029230  0.187425  0.454822  1
  O  O26  1  0.225073  0.897572  0.319725  1
  O  O27  1  0.134756  0.428356  0.051876  1
  O  O28  1  0.046132  0.025133  0.045631  1
  O  O29  1  0.123278  0.227937  0.983208  1
  O  O30  1  0.377099  0.612692  0.079287  1
  O  O31  1  0.433608  0.822201  0.942455  1
  O  O32  1  0.276295  0.090203  0.678742  1
  O  O33  1  0.333520  0.302716  0.358124  1
  O  O34  1  0.409138  0.558149  0.584226  1
  O  O35  1  0.530163  0.981898  0.534339  1
  O  O36  1  0.501540  0.773128  0.458929  1
  O  O37  1  0.497567  0.228594  0.966320  1
  O  O38  1  0.462650  0.022449  0.031959  1
  O  O39  1  0.585924  0.435333  0.077900  1
  O  O40  1  0.671065  0.699475  0.849579  1
  O  O41  1  0.563764  0.178140  0.442189  1
  O  O42  1  0.617697  0.385602  0.577735  1
  O  O43  1  0.876150  0.775151  0.449052  1
