# generated using pymatgen
data_SrCe2O4
_symmetry_space_group_name_H-M   'P 1'
_cell_length_a   10.21857327
_cell_length_b   12.30871125
_cell_length_c   3.58126181
_cell_angle_alpha   89.99998382
_cell_angle_beta   89.99967145
_cell_angle_gamma   89.99723788
_symmetry_Int_Tables_number   1
_chemical_formula_structural   SrCe2O4
_chemical_formula_sum   'Sr4 Ce8 O16'
_cell_volume   450.44204161
_cell_formula_units_Z   4
loop_
 _symmetry_equiv_pos_site_id
 _symmetry_equiv_pos_as_xyz
  1  'x, y, z'
loop_
 _atom_site_type_symbol
 _atom_site_label
 _atom_site_symmetry_multiplicity
 _atom_site_fract_x
 _atom_site_fract_y
 _atom_site_fract_z
 _atom_site_occupancy
  Sr  Sr0  1  0.248733  0.853942  0.261095  1
  Sr  Sr1  1  0.251310  0.353990  0.761100  1
  Sr  Sr2  1  0.748727  0.646004  0.261094  1
  Sr  Sr3  1  0.751225  0.146072  0.761107  1
  Ce  Ce4  1  0.091462  0.107589  0.754170  1
  Ce  Ce5  1  0.074149  0.614797  0.757755  1
  Ce  Ce6  1  0.425924  0.114780  0.257695  1
  Ce  Ce7  1  0.408521  0.607543  0.254192  1
  Ce  Ce8  1  0.591446  0.392497  0.754208  1
  Ce  Ce9  1  0.574091  0.885218  0.757719  1
  Ce  Ce10  1  0.925869  0.385214  0.257715  1
  Ce  Ce11  1  0.908535  0.892416  0.254233  1
  O  O12  1  0.999013  0.286147  0.757509  1
  O  O13  1  0.066904  0.916867  0.755171  1
  O  O14  1  0.135076  0.486149  0.257892  1
  O  O15  1  0.221366  0.193054  0.256286  1
  O  O16  1  0.278645  0.693066  0.756277  1
  O  O17  1  0.364941  0.986147  0.757918  1
  O  O18  1  0.433080  0.416884  0.255187  1
  O  O19  1  0.500991  0.786137  0.257509  1
  O  O20  1  0.498984  0.213843  0.757515  1
  O  O21  1  0.566927  0.583129  0.755176  1
  O  O22  1  0.635050  0.013835  0.257899  1
  O  O23  1  0.721356  0.306958  0.256288  1
  O  O24  1  0.778643  0.806935  0.756268  1
  O  O25  1  0.864938  0.513847  0.757909  1
  O  O26  1  0.933092  0.083101  0.255179  1
  O  O27  1  0.001002  0.713838  0.257519  1
