# generated using pymatgen
data_Li2Fe2P2O9
_symmetry_space_group_name_H-M   'P 1'
_cell_length_a   8.28923833
_cell_length_b   5.69516657
_cell_length_c   14.71886160
_cell_angle_alpha   89.99750074
_cell_angle_beta   89.99461650
_cell_angle_gamma   90.00182342
_symmetry_Int_Tables_number   1
_chemical_formula_structural   Li2Fe2P2O9
_chemical_formula_sum   'Li8 Fe8 P8 O36'
_cell_volume   694.85674328
_cell_formula_units_Z   4
loop_
 _symmetry_equiv_pos_site_id
 _symmetry_equiv_pos_as_xyz
  1  'x, y, z'
loop_
 _atom_site_type_symbol
 _atom_site_label
 _atom_site_symmetry_multiplicity
 _atom_site_fract_x
 _atom_site_fract_y
 _atom_site_fract_z
 _atom_site_occupancy
  Li  Li0  1  0.018203  0.250002  0.732137  1
  Li  Li1  1  0.067918  0.250000  0.119914  1
  Li  Li2  1  0.432093  0.749997  0.619910  1
  Li  Li3  1  0.481774  0.750003  0.232161  1
  Li  Li4  1  0.518210  0.249999  0.767846  1
  Li  Li5  1  0.567899  0.250005  0.380083  1
  Li  Li6  1  0.932096  0.750001  0.880077  1
  Li  Li7  1  0.981802  0.750001  0.267880  1
  Fe  Fe8  1  0.000001  0.999994  0.499997  1
  Fe  Fe9  1  0.000000  0.500006  0.499996  1
  Fe  Fe10  1  0.203838  0.249990  0.924346  1
  Fe  Fe11  1  0.296169  0.749998  0.424353  1
  Fe  Fe12  1  0.500001  0.999999  0.000006  1
  Fe  Fe13  1  0.500005  0.499998  0.000008  1
  Fe  Fe14  1  0.703836  0.250004  0.575647  1
  Fe  Fe15  1  0.796187  0.749991  0.075664  1
  P  P16  1  0.171536  0.750002  0.073491  1
  P  P17  1  0.205957  0.250004  0.331226  1
  P  P18  1  0.294071  0.750014  0.831219  1
  P  P19  1  0.328458  0.249997  0.573463  1
  P  P20  1  0.671531  0.750005  0.426528  1
  P  P21  1  0.705935  0.249979  0.168775  1
  P  P22  1  0.794031  0.749996  0.668765  1
  P  P23  1  0.828457  0.249997  0.926522  1
  O  O24  1  0.991823  0.249998  0.979549  1
  O  O25  1  0.068486  0.249989  0.408197  1
  O  O26  1  0.060469  0.749976  0.415284  1
  O  O27  1  0.122268  0.249999  0.241610  1
  O  O28  1  0.149730  0.749998  0.175542  1
  O  O29  1  0.182347  0.529811  0.846848  1
  O  O30  1  0.182337  0.970193  0.846843  1
  O  O31  1  0.237366  0.018062  0.542559  1
  O  O32  1  0.237376  0.481934  0.542555  1
  O  O33  1  0.262628  0.518067  0.042585  1
  O  O34  1  0.262636  0.981922  0.042578  1
  O  O35  1  0.317649  0.029814  0.346852  1
  O  O36  1  0.317662  0.470193  0.346850  1
  O  O37  1  0.350251  0.249996  0.675522  1
  O  O38  1  0.377739  0.750006  0.741609  1
  O  O39  1  0.439583  0.249932  0.915337  1
  O  O40  1  0.431514  0.750020  0.908190  1
  O  O41  1  0.508156  0.750002  0.479541  1
  O  O42  1  0.491837  0.250000  0.520442  1
  O  O43  1  0.568481  0.249981  0.091815  1
  O  O44  1  0.560454  0.750072  0.084660  1
  O  O45  1  0.622246  0.249995  0.258395  1
  O  O46  1  0.649717  0.750006  0.324462  1
  O  O47  1  0.682332  0.529817  0.653150  1
  O  O48  1  0.682344  0.970179  0.653149  1
  O  O49  1  0.737362  0.018077  0.957436  1
  O  O50  1  0.737372  0.481937  0.957431  1
  O  O51  1  0.762627  0.518082  0.457426  1
  O  O52  1  0.762638  0.981926  0.457422  1
  O  O53  1  0.817650  0.029804  0.153154  1
  O  O54  1  0.817642  0.470181  0.153152  1
  O  O55  1  0.850259  0.250005  0.824471  1
  O  O56  1  0.877747  0.750002  0.758400  1
  O  O57  1  0.939565  0.250027  0.584706  1
  O  O58  1  0.931518  0.750013  0.591806  1
  O  O59  1  0.008180  0.750003  0.020459  1
