# generated using pymatgen
data_Fe5(OF4)2
_symmetry_space_group_name_H-M   'P 1'
_cell_length_a   4.86149323
_cell_length_b   7.91669427
_cell_length_c   10.30741370
_cell_angle_alpha   109.40525934
_cell_angle_beta   90.00000000
_cell_angle_gamma   90.00000000
_symmetry_Int_Tables_number   1
_chemical_formula_structural   Fe5(OF4)2
_chemical_formula_sum   'Fe10 O4 F16'
_cell_volume   374.16524975
_cell_formula_units_Z   2
loop_
 _symmetry_equiv_pos_site_id
 _symmetry_equiv_pos_as_xyz
  1  'x, y, z'
loop_
 _atom_site_type_symbol
 _atom_site_label
 _atom_site_symmetry_multiplicity
 _atom_site_fract_x
 _atom_site_fract_y
 _atom_site_fract_z
 _atom_site_occupancy
  Fe  Fe0  1  0.526095  0.309030  0.894652  1
  Fe  Fe1  1  0.500000  0.100000  0.300000  1
  Fe  Fe2  1  0.473905  0.890970  0.705348  1
  Fe  Fe3  1  0.515861  0.710871  0.116782  1
  Fe  Fe4  1  0.484139  0.489129  0.483218  1
  Fe  Fe5  1  0.000000  0.600000  0.800000  1
  Fe  Fe6  1  0.984139  0.210871  0.616782  1
  Fe  Fe7  1  0.973905  0.809030  0.394652  1
  Fe  Fe8  1  0.026095  0.390970  0.205348  1
  Fe  Fe9  1  0.015861  0.989129  0.983218  1
  O  O10  1  0.825430  0.361950  0.775287  1
  O  O11  1  0.674570  0.861950  0.275287  1
  O  O12  1  0.325430  0.338050  0.324713  1
  O  O13  1  0.174570  0.838050  0.824713  1
  F  F14  1  0.782546  0.770754  0.986204  1
  F  F15  1  0.800842  0.971712  0.588865  1
  F  F16  1  0.801675  0.557301  0.381858  1
  F  F17  1  0.817652  0.145216  0.157007  1
  F  F18  1  0.698325  0.057301  0.881858  1
  F  F19  1  0.682348  0.645216  0.657007  1
  F  F20  1  0.699158  0.471712  0.088865  1
  F  F21  1  0.717454  0.270754  0.486204  1
  F  F22  1  0.301675  0.142699  0.718142  1
  F  F23  1  0.300842  0.728288  0.511135  1
  F  F24  1  0.282545  0.929246  0.113796  1
  F  F25  1  0.317652  0.554784  0.942993  1
  F  F26  1  0.217454  0.429246  0.613796  1
  F  F27  1  0.182348  0.054784  0.442993  1
  F  F28  1  0.199158  0.228288  0.011135  1
  F  F29  1  0.198325  0.642699  0.218142  1
