# generated using pymatgen
data_LiMn2O2F3
_symmetry_space_group_name_H-M   'P 1'
_cell_length_a   5.46340266
_cell_length_b   5.82734320
_cell_length_c   7.13044268
_cell_angle_alpha   69.65575113
_cell_angle_beta   90.00000000
_cell_angle_gamma   62.04532496
_symmetry_Int_Tables_number   1
_chemical_formula_structural   LiMn2O2F3
_chemical_formula_sum   'Li2 Mn4 O4 F6'
_cell_volume   184.34004128
_cell_formula_units_Z   2
loop_
 _symmetry_equiv_pos_site_id
 _symmetry_equiv_pos_as_xyz
  1  'x, y, z'
loop_
 _atom_site_type_symbol
 _atom_site_label
 _atom_site_symmetry_multiplicity
 _atom_site_fract_x
 _atom_site_fract_y
 _atom_site_fract_z
 _atom_site_occupancy
  Li  Li0  1  0.000000  0.000000  0.500000  1
  Li  Li1  1  0.000000  0.000000  0.000000  1
  Mn  Mn2  1  0.624285  0.766965  0.703548  1
  Mn  Mn3  1  0.608750  0.766965  0.203548  1
  Mn  Mn4  1  0.391250  0.233035  0.796452  1
  Mn  Mn5  1  0.375715  0.233035  0.296452  1
  O  O6  1  0.707737  0.840012  0.937474  1
  O  O7  1  0.452251  0.840012  0.437474  1
  O  O8  1  0.547749  0.159988  0.562526  1
  O  O9  1  0.292263  0.159988  0.062526  1
  F  F10  1  0.061948  0.602797  0.661264  1
  F  F11  1  0.664745  0.397203  0.838736  1
  F  F12  1  0.335255  0.602797  0.161264  1
  F  F13  1  0.938052  0.397203  0.338736  1
  F  F14  1  0.180449  1.000000  0.750000  1
  F  F15  1  0.819551  0.000000  0.250000  1
