# generated using pymatgen
data_CaTb2O4
_symmetry_space_group_name_H-M   'P 1'
_cell_length_a   6.84632744
_cell_length_b   6.89105235
_cell_length_c   6.84632897
_cell_angle_alpha   60.21445368
_cell_angle_beta   90.00000000
_cell_angle_gamma   119.78553425
_symmetry_Int_Tables_number   1
_chemical_formula_structural   CaTb2O4
_chemical_formula_sum   'Ca2 Tb4 O8'
_cell_volume   229.86742569
_cell_formula_units_Z   2
loop_
 _symmetry_equiv_pos_site_id
 _symmetry_equiv_pos_as_xyz
  1  'x, y, z'
loop_
 _atom_site_type_symbol
 _atom_site_label
 _atom_site_symmetry_multiplicity
 _atom_site_fract_x
 _atom_site_fract_y
 _atom_site_fract_z
 _atom_site_occupancy
  Tb  Tb0  1  0.375000  0.250000  0.375000  1
  Tb  Tb1  1  0.875000  0.250000  0.375000  1
  Tb  Tb2  1  0.375000  0.750000  0.375000  1
  Tb  Tb3  1  0.375000  0.750000  0.875000  1
  Ca  Ca4  1  0.000001  0.000002  0.999999  1
  Ca  Ca5  1  0.749999  0.499998  0.750001  1
  O  O6  1  0.139744  0.279488  0.133482  1
  O  O7  1  0.610256  0.220512  0.162970  1
  O  O8  1  0.587033  0.720515  0.139742  1
  O  O9  1  0.133482  0.720515  0.139742  1
  O  O10  1  0.610256  0.220512  0.616518  1
  O  O11  1  0.139744  0.279488  0.587030  1
  O  O12  1  0.162967  0.779485  0.610258  1
  O  O13  1  0.616518  0.779485  0.610258  1
