# generated using pymatgen
data_Na2V2O5
_symmetry_space_group_name_H-M   'P 1'
_cell_length_a   5.35747437
_cell_length_b   24.42260821
_cell_length_c   8.77648657
_cell_angle_alpha   90.00000000
_cell_angle_beta   90.38181221
_cell_angle_gamma   90.00000000
_symmetry_Int_Tables_number   1
_chemical_formula_structural   Na2V2O5
_chemical_formula_sum   'Na16 V16 O40'
_cell_volume   1148.32070170
_cell_formula_units_Z   8
loop_
 _symmetry_equiv_pos_site_id
 _symmetry_equiv_pos_as_xyz
  1  'x, y, z'
loop_
 _atom_site_type_symbol
 _atom_site_label
 _atom_site_symmetry_multiplicity
 _atom_site_fract_x
 _atom_site_fract_y
 _atom_site_fract_z
 _atom_site_occupancy
  Na  Na0  1  0.211127  0.261299  0.518463  1
  Na  Na1  1  0.211127  0.238701  0.018463  1
  Na  Na2  1  0.227343  0.719093  0.729524  1
  Na  Na3  1  0.227343  0.780907  0.229524  1
  Na  Na4  1  0.266862  0.470407  0.906456  1
  Na  Na5  1  0.266862  0.029593  0.406456  1
  Na  Na6  1  0.296619  0.984615  0.839599  1
  Na  Na7  1  0.296619  0.515385  0.339599  1
  Na  Na8  1  0.703381  0.484615  0.660401  1
  Na  Na9  1  0.703381  0.015385  0.160401  1
  Na  Na10  1  0.733138  0.970407  0.593544  1
  Na  Na11  1  0.733138  0.529593  0.093544  1
  Na  Na12  1  0.772657  0.219093  0.770476  1
  Na  Na13  1  0.772657  0.280907  0.270476  1
  Na  Na14  1  0.788873  0.761299  0.981537  1
  Na  Na15  1  0.788873  0.738701  0.481537  1
  V  V16  1  0.169467  0.411927  0.540376  1
  V  V17  1  0.169467  0.088073  0.040376  1
  V  V18  1  0.197812  0.887234  0.520451  1
  V  V19  1  0.197812  0.612766  0.020451  1
  V  V20  1  0.304649  0.135554  0.698982  1
  V  V21  1  0.304649  0.364446  0.198982  1
  V  V22  1  0.329439  0.836962  0.861060  1
  V  V23  1  0.329439  0.663038  0.361060  1
  V  V24  1  0.670561  0.336962  0.638940  1
  V  V25  1  0.670561  0.163038  0.138940  1
  V  V26  1  0.695351  0.635554  0.801018  1
  V  V27  1  0.695351  0.864446  0.301018  1
  V  V28  1  0.802188  0.387234  0.979549  1
  V  V29  1  0.802188  0.112766  0.479549  1
  V  V30  1  0.830533  0.911927  0.959624  1
  V  V31  1  0.830533  0.588073  0.459624  1
  O  O32  1  0.142652  0.113488  0.519392  1
  O  O33  1  0.142652  0.386512  0.019392  1
  O  O34  1  0.162531  0.898776  0.932464  1
  O  O35  1  0.162531  0.601224  0.432464  1
  O  O36  1  0.220360  0.202925  0.744096  1
  O  O37  1  0.220360  0.297075  0.244096  1
  O  O38  1  0.238981  0.079854  0.835240  1
  O  O39  1  0.266216  0.469200  0.640234  1
  O  O40  1  0.238981  0.420146  0.335240  1
  O  O41  1  0.266216  0.030800  0.140234  1
  O  O42  1  0.234025  0.778818  0.957806  1
  O  O43  1  0.234025  0.721182  0.457806  1
  O  O44  1  0.260459  0.831202  0.656278  1
  O  O45  1  0.260459  0.668798  0.156278  1
  O  O46  1  0.280753  0.954203  0.571908  1
  O  O47  1  0.280753  0.545797  0.071908  1
  O  O48  1  0.336644  0.349046  0.609051  1
  O  O49  1  0.336644  0.150954  0.109051  1
  O  O50  1  0.357294  0.634066  0.840861  1
  O  O51  1  0.357294  0.865934  0.340861  1
  O  O52  1  0.642706  0.134066  0.659139  1
  O  O53  1  0.642706  0.365934  0.159139  1
  O  O54  1  0.663356  0.849046  0.890949  1
  O  O55  1  0.663356  0.650954  0.390949  1
  O  O56  1  0.719247  0.454203  0.928092  1
  O  O57  1  0.719247  0.045797  0.428092  1
  O  O58  1  0.739541  0.331202  0.843722  1
  O  O59  1  0.739541  0.168798  0.343722  1
  O  O60  1  0.765975  0.278818  0.542194  1
  O  O61  1  0.765975  0.221182  0.042194  1
  O  O62  1  0.733784  0.969200  0.859766  1
  O  O63  1  0.761019  0.579854  0.664760  1
  O  O64  1  0.733784  0.530800  0.359766  1
  O  O65  1  0.761019  0.920146  0.164760  1
  O  O66  1  0.779640  0.702925  0.755904  1
  O  O67  1  0.779640  0.797075  0.255904  1
  O  O68  1  0.837469  0.398776  0.567536  1
  O  O69  1  0.837469  0.101224  0.067536  1
  O  O70  1  0.857348  0.613488  0.980608  1
  O  O71  1  0.857348  0.886512  0.480608  1
