# generated using pymatgen
data_Li3CuF6
_symmetry_space_group_name_H-M   'P 1'
_cell_length_a   12.86516076
_cell_length_b   10.50436267
_cell_length_c   10.50409822
_cell_angle_alpha   119.99922404
_cell_angle_beta   35.26493016
_cell_angle_gamma   144.73544903
_symmetry_Int_Tables_number   1
_chemical_formula_structural   Li3CuF6
_chemical_formula_sum   'Li12 Cu4 F24'
_cell_volume   409.78677067
_cell_formula_units_Z   4
loop_
 _symmetry_equiv_pos_site_id
 _symmetry_equiv_pos_as_xyz
  1  'x, y, z'
loop_
 _atom_site_type_symbol
 _atom_site_label
 _atom_site_symmetry_multiplicity
 _atom_site_fract_x
 _atom_site_fract_y
 _atom_site_fract_z
 _atom_site_occupancy
  Li  Li0  1  0.251047  0.001286  0.000298  1
  Li  Li1  1  0.499037  0.998038  0.000005  1
  Li  Li2  1  0.249412  0.499674  0.000343  1
  Li  Li3  1  0.250531  0.000534  0.498954  1
  Li  Li4  1  0.497155  0.998240  0.501962  1
  Li  Li5  1  0.499257  0.500216  0.000005  1
  Li  Li6  1  0.248900  0.499837  0.501012  1
  Li  Li7  1  0.750995  0.001269  0.000323  1
  Li  Li8  1  0.498957  0.499782  0.501571  1
  Li  Li9  1  0.749409  0.499681  0.000341  1
  Li  Li10  1  0.750525  0.000532  0.498957  1
  Li  Li11  1  0.748958  0.499896  0.500949  1
  Cu  Cu12  1  0.999115  0.499511  0.000869  1
  Cu  Cu13  1  0.999255  0.999307  0.000081  1
  Cu  Cu14  1  0.999536  0.499504  0.500271  1
  Cu  Cu15  1  0.000162  0.000569  0.499883  1
  F  F16  1  0.117966  0.672498  0.124723  1
  F  F17  1  0.258188  0.015306  0.310523  1
  F  F18  1  0.634235  0.203320  0.812375  1
  F  F19  1  0.366803  0.796899  0.187659  1
  F  F20  1  0.226840  0.984231  0.702970  1
  F  F21  1  0.118628  0.375826  0.311311  1
  F  F22  1  0.741335  0.984176  0.688390  1
  F  F23  1  0.226954  0.672761  0.515791  1
  F  F24  1  0.366477  0.312336  0.875995  1
  F  F25  1  0.879096  0.325796  0.877863  1
  F  F26  1  0.226856  0.796941  0.827654  1
  F  F27  1  0.742121  0.812016  0.812257  1
  F  F28  1  0.258922  0.189859  0.187563  1
  F  F29  1  0.772260  0.203358  0.174378  1
  F  F30  1  0.258058  0.312599  0.484592  1
  F  F31  1  0.772378  0.325993  0.484597  1
  F  F32  1  0.633937  0.687655  0.122817  1
  F  F33  1  0.365322  0.622688  0.703735  1
  F  F34  1  0.772291  0.015412  0.296528  1
  F  F35  1  0.879707  0.622625  0.689184  1
  F  F36  1  0.118715  0.188657  0.827111  1
  F  F37  1  0.879766  0.810739  0.173868  1
  F  F38  1  0.632781  0.375865  0.297308  1
  F  F39  1  0.741218  0.687890  0.515725  1
