# generated using pymatgen
data_Li5Co5(CuO6)2
_symmetry_space_group_name_H-M   'P 1'
_cell_length_a   5.01715917
_cell_length_b   5.01716369
_cell_length_c   9.54342903
_cell_angle_alpha   94.62259376
_cell_angle_beta   94.62275638
_cell_angle_gamma   118.10277153
_symmetry_Int_Tables_number   1
_chemical_formula_structural   Li5Co5(CuO6)2
_chemical_formula_sum   'Li5 Co5 Cu2 O12'
_cell_volume   209.28631940
_cell_formula_units_Z   1
loop_
 _symmetry_equiv_pos_site_id
 _symmetry_equiv_pos_as_xyz
  1  'x, y, z'
loop_
 _atom_site_type_symbol
 _atom_site_label
 _atom_site_symmetry_multiplicity
 _atom_site_fract_x
 _atom_site_fract_y
 _atom_site_fract_z
 _atom_site_occupancy
  Li  Li0  1  0.825153  0.661788  0.491743  1
  Li  Li1  1  0.677594  0.844353  0.007173  1
  Li  Li2  1  0.338211  0.174846  0.008258  1
  Li  Li3  1  0.155648  0.322406  0.492828  1
  Li  Li4  1  0.081537  0.918467  0.250001  1
  Co  Co5  1  0.920182  0.079818  0.750000  1
  Co  Co6  1  0.000000  0.512342  0.007152  1
  Co  Co7  1  0.487658  0.000001  0.492849  1
  Co  Co8  1  0.586908  0.413092  0.750001  1
  Co  Co9  1  0.413746  0.586255  0.250000  1
  Cu  Cu10  1  0.745633  0.254368  0.250001  1
  Cu  Cu11  1  0.254060  0.745940  0.750000  1
  O  O12  1  0.830941  0.321570  0.625783  1
  O  O13  1  0.940065  0.766236  0.860270  1
  O  O14  1  0.693988  0.533342  0.132080  1
  O  O15  1  0.678429  0.169058  0.874218  1
  O  O16  1  0.466658  0.306011  0.367921  1
  O  O17  1  0.749100  0.946256  0.365518  1
  O  O18  1  0.569798  0.724079  0.644870  1
  O  O19  1  0.233764  0.059936  0.639730  1
  O  O20  1  0.341648  0.825530  0.115738  1
  O  O21  1  0.275922  0.430205  0.855130  1
  O  O22  1  0.053744  0.250902  0.134483  1
  O  O23  1  0.174471  0.658353  0.384262  1
