# generated using pymatgen
data_NaCo3O4
_symmetry_space_group_name_H-M   'P 1'
_cell_length_a   6.76434267
_cell_length_b   5.71879824
_cell_length_c   5.36149706
_cell_angle_alpha   90.00054942
_cell_angle_beta   90.01800500
_cell_angle_gamma   89.98164866
_symmetry_Int_Tables_number   1
_chemical_formula_structural   NaCo3O4
_chemical_formula_sum   'Na2 Co6 O8'
_cell_volume   207.40365396
_cell_formula_units_Z   2
loop_
 _symmetry_equiv_pos_site_id
 _symmetry_equiv_pos_as_xyz
  1  'x, y, z'
loop_
 _atom_site_type_symbol
 _atom_site_label
 _atom_site_symmetry_multiplicity
 _atom_site_fract_x
 _atom_site_fract_y
 _atom_site_fract_z
 _atom_site_occupancy
  Na  Na0  1  0.999909  0.834227  0.989753  1
  Na  Na1  1  0.500120  0.165805  0.489824  1
  Co  Co2  1  0.000060  0.182557  0.498308  1
  Co  Co3  1  0.253551  0.332494  0.994113  1
  Co  Co4  1  0.246422  0.667397  0.494170  1
  Co  Co5  1  0.499957  0.817444  0.998384  1
  Co  Co6  1  0.753671  0.667545  0.494119  1
  Co  Co7  1  0.746435  0.332574  0.994120  1
  O  O8  1  0.999983  0.216382  0.850843  1
  O  O9  1  0.000007  0.855360  0.435263  1
  O  O10  1  0.284405  0.653567  0.861141  1
  O  O11  1  0.215517  0.346365  0.361033  1
  O  O12  1  0.500050  0.144686  0.935406  1
  O  O13  1  0.499939  0.783489  0.350929  1
  O  O14  1  0.784468  0.346495  0.361052  1
  O  O15  1  0.715507  0.653613  0.861009  1
