# generated using pymatgen
data_Mg2Mn3O8
_symmetry_space_group_name_H-M   'P 1'
_cell_length_a   5.87326740
_cell_length_b   4.98360608
_cell_length_c   9.49624009
_cell_angle_alpha   90.00037621
_cell_angle_beta   90.00011753
_cell_angle_gamma   89.99999720
_symmetry_Int_Tables_number   1
_chemical_formula_structural   Mg2Mn3O8
_chemical_formula_sum   'Mg4 Mn6 O16'
_cell_volume   277.95543292
_cell_formula_units_Z   2
loop_
 _symmetry_equiv_pos_site_id
 _symmetry_equiv_pos_as_xyz
  1  'x, y, z'
loop_
 _atom_site_type_symbol
 _atom_site_label
 _atom_site_symmetry_multiplicity
 _atom_site_fract_x
 _atom_site_fract_y
 _atom_site_fract_z
 _atom_site_occupancy
  Mg  Mg0  1  0.999998  0.323635  0.218798  1
  Mg  Mg1  1  -0.000001  0.336944  0.818447  1
  Mg  Mg2  1  0.499998  0.663062  0.318445  1
  Mg  Mg3  1  0.500001  0.676362  0.718799  1
  Mn  Mn4  1  0.000008  0.672085  0.497205  1
  Mn  Mn5  1  0.241170  0.836018  0.000481  1
  Mn  Mn6  1  0.258827  0.163973  0.500490  1
  Mn  Mn7  1  0.499999  0.327915  0.997211  1
  Mn  Mn8  1  0.741180  0.163977  0.500488  1
  Mn  Mn9  1  0.758832  0.836029  0.000485  1
  O  O10  1  0.999998  0.688678  0.107455  1
  O  O11  1  0.000000  0.339592  0.606530  1
  O  O12  1  0.000001  0.004945  0.391647  1
  O  O13  1  0.000000  0.962030  0.887199  1
  O  O14  1  0.220069  0.480001  0.379948  1
  O  O15  1  0.236938  0.840278  0.603022  1
  O  O16  1  0.263058  0.159719  0.103025  1
  O  O17  1  0.279930  0.519998  0.879948  1
  O  O18  1  0.500000  0.660409  0.106534  1
  O  O19  1  0.499998  0.995058  0.891646  1
  O  O20  1  0.500000  0.311324  0.607454  1
  O  O21  1  0.500001  0.037969  0.387202  1
  O  O22  1  0.720065  0.519999  0.879948  1
  O  O23  1  0.736937  0.159721  0.103025  1
  O  O24  1  0.763061  0.840279  0.603021  1
  O  O25  1  0.779931  0.480002  0.379948  1
