# generated using pymatgen
data_Li4Fe3Ni3(SbO8)2
_symmetry_space_group_name_H-M   'P 1'
_cell_length_a   5.92839958
_cell_length_b   5.89321544
_cell_length_c   9.66468835
_cell_angle_alpha   90.24263905
_cell_angle_beta   90.65268178
_cell_angle_gamma   119.96165216
_symmetry_Int_Tables_number   1
_chemical_formula_structural   Li4Fe3Ni3(SbO8)2
_chemical_formula_sum   'Li4 Fe3 Ni3 Sb2 O16'
_cell_volume   292.49556537
_cell_formula_units_Z   1
loop_
 _symmetry_equiv_pos_site_id
 _symmetry_equiv_pos_as_xyz
  1  'x, y, z'
loop_
 _atom_site_type_symbol
 _atom_site_label
 _atom_site_symmetry_multiplicity
 _atom_site_fract_x
 _atom_site_fract_y
 _atom_site_fract_z
 _atom_site_occupancy
  Li  Li0  1  0.330801  0.663974  0.900740  1
  Li  Li1  1  0.994732  0.997615  0.988581  1
  Li  Li2  1  0.999152  0.000532  0.491892  1
  Li  Li3  1  0.669005  0.334646  0.404584  1
  Fe  Fe4  1  0.170415  0.831116  0.213708  1
  Fe  Fe5  1  0.170970  0.339225  0.214190  1
  Fe  Fe6  1  0.338313  0.171033  0.714769  1
  Ni  Ni7  1  0.658497  0.829484  0.212895  1
  Ni  Ni8  1  0.828983  0.659889  0.712837  1
  Ni  Ni9  1  0.826024  0.166970  0.713108  1
  Sb  Sb10  1  0.336646  0.669830  0.487591  1
  Sb  Sb11  1  0.666915  0.331248  0.984532  1
  O  O12  1  0.169626  0.837365  0.595255  1
  O  O13  1  0.034991  0.517585  0.344515  1
  O  O14  1  0.331646  0.665012  0.108853  1
  O  O15  1  0.996123  0.998279  0.302716  1
  O  O16  1  0.988136  0.996461  0.798653  1
  O  O17  1  0.176053  0.337474  0.594068  1
  O  O18  1  0.479454  0.967602  0.348471  1
  O  O19  1  0.482719  0.516484  0.347895  1
  O  O20  1  0.335806  0.168055  0.096962  1
  O  O21  1  0.678266  0.844005  0.593975  1
  O  O22  1  0.514993  0.482100  0.846947  1
  O  O23  1  0.505844  0.028535  0.847823  1
  O  O24  1  0.676440  0.336299  0.615359  1
  O  O25  1  0.840133  0.668871  0.091845  1
  O  O26  1  0.961578  0.472949  0.841428  1
  O  O27  1  0.837739  0.167667  0.093649  1
