# generated using pymatgen
data_Li12VNi3P4(CO7)4
_symmetry_space_group_name_H-M   'P 1'
_cell_length_a   8.36412884
_cell_length_b   10.01529943
_cell_length_c   6.48830260
_cell_angle_alpha   90.00000000
_cell_angle_beta   90.00000000
_cell_angle_gamma   84.83115048
_symmetry_Int_Tables_number   1
_chemical_formula_structural   Li12VNi3P4(CO7)4
_chemical_formula_sum   'Li12 V1 Ni3 P4 C4 O28'
_cell_volume   541.31006276
_cell_formula_units_Z   1
loop_
 _symmetry_equiv_pos_site_id
 _symmetry_equiv_pos_as_xyz
  1  'x, y, z'
loop_
 _atom_site_type_symbol
 _atom_site_label
 _atom_site_symmetry_multiplicity
 _atom_site_fract_x
 _atom_site_fract_y
 _atom_site_fract_z
 _atom_site_occupancy
  Li  Li0  1  0.098950  0.384708  0.250000  1
  Li  Li1  1  0.098515  0.883987  0.250000  1
  Li  Li2  1  0.278484  0.124109  0.022239  1
  Li  Li3  1  0.278484  0.124109  0.477761  1
  Li  Li4  1  0.279136  0.623536  0.020662  1
  Li  Li5  1  0.279136  0.623536  0.479338  1
  Li  Li6  1  0.720279  0.370782  0.524448  1
  Li  Li7  1  0.720279  0.370782  0.975552  1
  Li  Li8  1  0.721405  0.879183  0.522018  1
  Li  Li9  1  0.721405  0.879183  0.977982  1
  Li  Li10  1  0.900595  0.115674  0.750000  1
  Li  Li11  1  0.899765  0.616192  0.750000  1
  V  V12  1  0.671381  0.603950  0.250000  1
  Ni  Ni13  1  0.332473  0.396078  0.750000  1
  Ni  Ni14  1  0.332148  0.896246  0.750000  1
  Ni  Ni15  1  0.666043  0.103746  0.250000  1
  P  P16  1  0.412814  0.360168  0.250000  1
  P  P17  1  0.413465  0.863183  0.250000  1
  P  P18  1  0.584649  0.137395  0.750000  1
  P  P19  1  0.584829  0.637992  0.750000  1
  C  C20  1  0.039512  0.350533  0.750000  1
  C  C21  1  0.039556  0.850658  0.750000  1
  C  C22  1  0.958929  0.149918  0.250000  1
  C  C23  1  0.965828  0.651372  0.250000  1
  O  O24  1  0.074281  0.474356  0.750000  1
  O  O25  1  0.106013  0.182275  0.250000  1
  O  O26  1  0.074743  0.974174  0.750000  1
  O  O27  1  0.159106  0.257359  0.750000  1
  O  O28  1  0.114080  0.679761  0.250000  1
  O  O29  1  0.159104  0.757168  0.750000  1
  O  O30  1  0.308298  0.411685  0.063033  1
  O  O31  1  0.308298  0.411685  0.436967  1
  O  O32  1  0.309202  0.914775  0.062755  1
  O  O33  1  0.309202  0.914775  0.437245  1
  O  O34  1  0.417636  0.083021  0.750000  1
  O  O35  1  0.437114  0.203539  0.250000  1
  O  O36  1  0.418353  0.582398  0.750000  1
  O  O37  1  0.433930  0.706917  0.250000  1
  O  O38  1  0.560810  0.294407  0.750000  1
  O  O39  1  0.580106  0.413187  0.250000  1
  O  O40  1  0.559435  0.794570  0.750000  1
  O  O41  1  0.581422  0.916411  0.250000  1
  O  O42  1  0.689951  0.087357  0.936783  1
  O  O43  1  0.689951  0.087357  0.563217  1
  O  O44  1  0.691873  0.586508  0.566808  1
  O  O45  1  0.691873  0.586508  0.933192  1
  O  O46  1  0.839250  0.243177  0.250000  1
  O  O47  1  0.892855  0.318427  0.750000  1
  O  O48  1  0.849918  0.747220  0.250000  1
  O  O49  1  0.924595  0.026492  0.250000  1
  O  O50  1  0.892682  0.819177  0.750000  1
  O  O51  1  0.927859  0.528290  0.250000  1
