# generated using pymatgen
data_V3OF11
_symmetry_space_group_name_H-M   'P 1'
_cell_length_a   5.45826897
_cell_length_b   5.25811989
_cell_length_c   14.81944450
_cell_angle_alpha   90.00000000
_cell_angle_beta   100.26649051
_cell_angle_gamma   90.00000000
_symmetry_Int_Tables_number   1
_chemical_formula_structural   V3OF11
_chemical_formula_sum   'V6 O2 F22'
_cell_volume   418.51187013
_cell_formula_units_Z   2
loop_
 _symmetry_equiv_pos_site_id
 _symmetry_equiv_pos_as_xyz
  1  'x, y, z'
loop_
 _atom_site_type_symbol
 _atom_site_label
 _atom_site_symmetry_multiplicity
 _atom_site_fract_x
 _atom_site_fract_y
 _atom_site_fract_z
 _atom_site_occupancy
  V  V0  1  0.040155  0.975936  0.003137  1
  V  V1  1  0.126512  0.475936  0.330196  1
  V  V2  1  0.333396  0.999647  0.666759  1
  V  V3  1  0.510949  0.492649  0.999370  1
  V  V4  1  0.655718  0.992649  0.333963  1
  V  V5  1  0.833271  0.499647  0.666574  1
  O  O6  1  0.291789  0.795236  0.022419  1
  O  O7  1  0.874878  0.295236  0.310914  1
  F  F8  1  0.021772  0.196669  0.641836  1
  F  F9  1  0.195753  0.287620  0.975799  1
  F  F10  1  0.144894  0.696669  0.691497  1
  F  F11  1  0.031907  0.093927  0.114722  1
  F  F12  1  0.227669  0.427113  0.449012  1
  F  F13  1  0.372649  0.087329  0.783612  1
  F  F14  1  0.134759  0.593927  0.218612  1
  F  F15  1  0.291631  0.914468  0.549608  1
  F  F16  1  0.452243  0.588121  0.883014  1
  F  F17  1  0.355999  0.209134  0.308165  1
  F  F18  1  0.522202  0.303164  0.642007  1
  F  F19  1  0.693885  0.206254  0.976664  1
  F  F20  1  0.472782  0.706254  0.356670  1
  F  F21  1  0.644465  0.803164  0.691326  1
  F  F22  1  0.537790  0.422734  0.117714  1
  F  F23  1  0.714423  0.088121  0.450319  1
  F  F24  1  0.875035  0.414468  0.783726  1
  F  F25  1  0.628876  0.922734  0.215620  1
  F  F26  1  0.794017  0.587329  0.549721  1
  F  F27  1  0.938998  0.927113  0.884321  1
  F  F28  1  0.810668  0.709134  0.025168  1
  F  F29  1  0.970913  0.787620  0.357534  1
