# generated using pymatgen
data_LiCr2P3O13
_symmetry_space_group_name_H-M   'P 1'
_cell_length_a   8.42668039
_cell_length_b   8.73412295
_cell_length_c   8.73400088
_cell_angle_alpha   106.98955139
_cell_angle_beta   69.80278726
_cell_angle_gamma   69.80486912
_symmetry_Int_Tables_number   1
_chemical_formula_structural   LiCr2P3O13
_chemical_formula_sum   'Li2 Cr4 P6 O26'
_cell_volume   500.65410575
_cell_formula_units_Z   2
loop_
 _symmetry_equiv_pos_site_id
 _symmetry_equiv_pos_as_xyz
  1  'x, y, z'
loop_
 _atom_site_type_symbol
 _atom_site_label
 _atom_site_symmetry_multiplicity
 _atom_site_fract_x
 _atom_site_fract_y
 _atom_site_fract_z
 _atom_site_occupancy
  Li  Li0  1  0.500000  0.000000  0.000000  1
  Li  Li1  1  0.000000  0.500000  0.500000  1
  Cr  Cr2  1  0.827169  0.828946  0.162548  1
  Cr  Cr3  1  0.672629  0.337648  0.671150  1
  Cr  Cr4  1  0.327371  0.662352  0.328850  1
  Cr  Cr5  1  0.172831  0.171054  0.837452  1
  P  P6  1  0.750058  0.509378  0.990482  1
  P  P7  1  0.943864  0.148798  0.241346  1
  P  P8  1  0.444165  0.741037  0.648699  1
  P  P9  1  0.555835  0.258963  0.351301  1
  P  P10  1  0.056135  0.851202  0.758654  1
  P  P11  1  0.249942  0.490622  0.009518  1
  O  O12  1  0.885834  0.855465  0.897648  1
  O  O13  1  0.926874  0.389563  0.998809  1
  O  O14  1  0.964711  0.957168  0.201092  1
  O  O15  1  0.795043  0.438226  0.786961  1
  O  O16  1  0.769614  0.806515  0.344825  1
  O  O17  1  0.905077  0.254327  0.439637  1
  O  O18  1  0.614042  0.602362  0.644381  1
  O  O19  1  0.729985  0.155321  0.693784  1
  O  O20  1  0.405147  0.939634  0.754468  1
  O  O21  1  0.704904  0.713010  0.061807  1
  O  O22  1  0.750030  0.263295  0.236728  1
  O  O23  1  0.426687  0.499112  0.889651  1
  O  O24  1  0.464731  0.701217  0.457166  1
  O  O25  1  0.535269  0.298783  0.542834  1
  O  O26  1  0.573313  0.500888  0.110349  1
  O  O27  1  0.249970  0.736705  0.763272  1
  O  O28  1  0.295096  0.286990  0.938193  1
  O  O29  1  0.594853  0.060366  0.245532  1
  O  O30  1  0.270015  0.844679  0.306216  1
  O  O31  1  0.385958  0.397638  0.355619  1
  O  O32  1  0.094923  0.745673  0.560363  1
  O  O33  1  0.230386  0.193485  0.655175  1
  O  O34  1  0.204957  0.561774  0.213039  1
  O  O35  1  0.035289  0.042832  0.798908  1
  O  O36  1  0.073126  0.610437  0.001191  1
  O  O37  1  0.114166  0.144535  0.102352  1
