# generated using pymatgen
data_Li2Cu2(Si2O5)3
_symmetry_space_group_name_H-M   'P 1'
_cell_length_a   11.22073662
_cell_length_b   11.22073662
_cell_length_c   10.18600103
_cell_angle_alpha   90.00000000
_cell_angle_beta   90.00000000
_cell_angle_gamma   79.88411617
_symmetry_Int_Tables_number   1
_chemical_formula_structural   Li2Cu2(Si2O5)3
_chemical_formula_sum   'Li8 Cu8 Si24 O60'
_cell_volume   1262.53118166
_cell_formula_units_Z   4
loop_
 _symmetry_equiv_pos_site_id
 _symmetry_equiv_pos_as_xyz
  1  'x, y, z'
loop_
 _atom_site_type_symbol
 _atom_site_label
 _atom_site_symmetry_multiplicity
 _atom_site_fract_x
 _atom_site_fract_y
 _atom_site_fract_z
 _atom_site_occupancy
  Li  Li0  1  0.496189  0.996189  0.250000  1
  Li  Li1  1  0.003811  0.503811  0.750000  1
  Li  Li2  1  0.597133  0.597133  0.742969  1
  Li  Li3  1  0.902867  0.902867  0.242969  1
  Li  Li4  1  0.402867  0.402867  0.257031  1
  Li  Li5  1  0.097133  0.097133  0.757031  1
  Li  Li6  1  0.996189  0.496189  0.250000  1
  Li  Li7  1  0.503811  0.003811  0.750000  1
  Cu  Cu8  1  0.247675  0.752325  0.000000  1
  Cu  Cu9  1  0.157865  0.657865  0.250000  1
  Cu  Cu10  1  0.342135  0.842135  0.750000  1
  Cu  Cu11  1  0.252325  0.747675  0.500000  1
  Cu  Cu12  1  0.747675  0.252325  0.500000  1
  Cu  Cu13  1  0.842135  0.342135  0.750000  1
  Cu  Cu14  1  0.657865  0.157865  0.250000  1
  Cu  Cu15  1  0.752325  0.247675  0.000000  1
  Si  Si16  1  0.181063  0.958072  0.187073  1
  Si  Si17  1  0.041928  0.818937  0.812927  1
  Si  Si18  1  0.579795  0.805288  0.543969  1
  Si  Si19  1  0.194712  0.420205  0.456031  1
  Si  Si20  1  0.079795  0.305288  0.956031  1
  Si  Si21  1  0.694712  0.920205  0.043969  1
  Si  Si22  1  0.318937  0.541928  0.687073  1
  Si  Si23  1  0.458072  0.681063  0.312927  1
  Si  Si24  1  0.760737  0.982401  0.515733  1
  Si  Si25  1  0.517599  0.739263  0.015733  1
  Si  Si26  1  0.017599  0.239263  0.484267  1
  Si  Si27  1  0.260737  0.482401  0.984267  1
  Si  Si28  1  0.982401  0.760737  0.515733  1
  Si  Si29  1  0.739263  0.517599  0.015733  1
  Si  Si30  1  0.239263  0.017599  0.484267  1
  Si  Si31  1  0.482401  0.260737  0.984267  1
  Si  Si32  1  0.681063  0.458072  0.312927  1
  Si  Si33  1  0.541928  0.318937  0.687073  1
  Si  Si34  1  0.920205  0.694712  0.043969  1
  Si  Si35  1  0.420205  0.194712  0.456031  1
  Si  Si36  1  0.805288  0.579795  0.543969  1
  Si  Si37  1  0.305288  0.079795  0.956031  1
  Si  Si38  1  0.958072  0.181063  0.187073  1
  Si  Si39  1  0.818937  0.041928  0.812927  1
  O  O40  1  0.244767  0.976872  0.328774  1
  O  O41  1  0.023128  0.755233  0.671226  1
  O  O42  1  0.154714  0.824113  0.155349  1
  O  O43  1  0.175887  0.845286  0.844651  1
  O  O44  1  0.093478  0.763759  0.416937  1
  O  O45  1  0.236241  0.906522  0.583063  1
  O  O46  1  0.263759  0.593478  0.083063  1
  O  O47  1  0.406522  0.736241  0.916937  1
  O  O48  1  0.345286  0.675887  0.655349  1
  O  O49  1  0.324113  0.654714  0.344651  1
  O  O50  1  0.656763  0.987456  0.180365  1
  O  O51  1  0.012544  0.343237  0.819635  1
  O  O52  1  0.156763  0.487456  0.319635  1
  O  O53  1  0.512544  0.843237  0.680365  1
  O  O54  1  0.222623  0.505491  0.579313  1
  O  O55  1  0.994509  0.277377  0.079313  1
  O  O56  1  0.722623  0.005491  0.920687  1
  O  O57  1  0.494509  0.777377  0.420687  1
  O  O58  1  0.143703  0.416573  0.010651  1
  O  O59  1  0.643703  0.916573  0.489349  1
  O  O60  1  0.083427  0.356297  0.510651  1
  O  O61  1  0.583427  0.856297  0.989349  1
  O  O62  1  0.476872  0.744767  0.171226  1
  O  O63  1  0.255233  0.523128  0.828774  1
  O  O64  1  0.618163  0.618163  0.982386  1
  O  O65  1  0.950920  0.950920  0.818139  1
  O  O66  1  0.881837  0.881837  0.482386  1
  O  O67  1  0.320411  0.320411  0.428022  1
  O  O68  1  0.049080  0.049080  0.181861  1
  O  O69  1  0.179589  0.179589  0.928022  1
  O  O70  1  0.450920  0.450920  0.681861  1
  O  O71  1  0.118163  0.118163  0.517614  1
  O  O72  1  0.381837  0.381837  0.017614  1
  O  O73  1  0.820411  0.820411  0.071978  1
  O  O74  1  0.549080  0.549080  0.318139  1
  O  O75  1  0.679589  0.679589  0.571978  1
  O  O76  1  0.744767  0.476872  0.171226  1
  O  O77  1  0.523128  0.255233  0.828774  1
  O  O78  1  0.856297  0.583427  0.989349  1
  O  O79  1  0.416573  0.143703  0.010651  1
  O  O80  1  0.356297  0.083427  0.510651  1
  O  O81  1  0.916573  0.643703  0.489349  1
  O  O82  1  0.005491  0.722623  0.920687  1
  O  O83  1  0.777377  0.494509  0.420687  1
  O  O84  1  0.505491  0.222623  0.579313  1
  O  O85  1  0.277377  0.994509  0.079313  1
  O  O86  1  0.987456  0.656763  0.180365  1
  O  O87  1  0.487456  0.156763  0.319635  1
  O  O88  1  0.343237  0.012544  0.819635  1
  O  O89  1  0.843237  0.512544  0.680365  1
  O  O90  1  0.654714  0.324113  0.344651  1
  O  O91  1  0.675887  0.345286  0.655349  1
  O  O92  1  0.593478  0.263759  0.083063  1
  O  O93  1  0.736241  0.406522  0.916937  1
  O  O94  1  0.763759  0.093478  0.416937  1
  O  O95  1  0.906522  0.236241  0.583063  1
  O  O96  1  0.824113  0.154714  0.155349  1
  O  O97  1  0.845286  0.175887  0.844651  1
  O  O98  1  0.976872  0.244767  0.328774  1
  O  O99  1  0.755233  0.023128  0.671226  1
