# generated using pymatgen
data_BaNb3NO7
_symmetry_space_group_name_H-M   'P 1'
_cell_length_a   9.13810481
_cell_length_b   10.77595061
_cell_length_c   3.89330411
_cell_angle_alpha   79.65230752
_cell_angle_beta   89.99101252
_cell_angle_gamma   90.25319562
_symmetry_Int_Tables_number   1
_chemical_formula_structural   BaNb3NO7
_chemical_formula_sum   'Ba2 Nb6 N2 O14'
_cell_volume   377.14132001
_cell_formula_units_Z   2
loop_
 _symmetry_equiv_pos_site_id
 _symmetry_equiv_pos_as_xyz
  1  'x, y, z'
loop_
 _atom_site_type_symbol
 _atom_site_label
 _atom_site_symmetry_multiplicity
 _atom_site_fract_x
 _atom_site_fract_y
 _atom_site_fract_z
 _atom_site_occupancy
  Ba  Ba0  1  0.244074  0.973621  0.019240  1
  Ba  Ba1  1  0.754091  0.032810  0.988263  1
  Nb  Nb2  1  0.051582  0.258292  0.371693  1
  Nb  Nb3  1  0.226997  0.467290  0.766093  1
  Nb  Nb4  1  0.439934  0.264019  0.369094  1
  Nb  Nb5  1  0.542427  0.724727  0.639755  1
  Nb  Nb6  1  0.747364  0.519820  0.241688  1
  Nb  Nb7  1  0.935386  0.739109  0.633933  1
  N  N8  1  0.097521  0.316074  0.842584  1
  N  N9  1  0.930962  0.124355  0.440067  1
  O  O10  1  0.069971  0.866441  0.570430  1
  O  O11  1  0.088178  0.593096  0.706923  1
  O  O12  1  0.270709  0.435700  0.281907  1
  O  O13  1  0.257387  0.161255  0.418932  1
  O  O14  1  0.407950  0.593167  0.702580  1
  O  O15  1  0.413431  0.303736  0.847804  1
  O  O16  1  0.426379  0.866272  0.574008  1
  O  O17  1  0.569311  0.134206  0.436334  1
  O  O18  1  0.595342  0.696714  0.153902  1
  O  O19  1  0.591347  0.410374  0.294357  1
  O  O20  1  0.746615  0.576537  0.713704  1
  O  O21  1  0.754372  0.835108  0.587117  1
  O  O22  1  0.897224  0.408236  0.298902  1
  O  O23  1  0.909194  0.692883  0.156665  1
