# generated using pymatgen
data_Fe3Cu2Te(PO4)6
_symmetry_space_group_name_H-M   'P 1'
_cell_length_a   8.66792989
_cell_length_b   8.66793030
_cell_length_c   8.66793087
_cell_angle_alpha   59.97424634
_cell_angle_beta   59.97424143
_cell_angle_gamma   59.97424925
_symmetry_Int_Tables_number   1
_chemical_formula_structural   Fe3Cu2Te(PO4)6
_chemical_formula_sum   'Fe3 Cu2 Te1 P6 O24'
_cell_volume   460.23276656
_cell_formula_units_Z   1
loop_
 _symmetry_equiv_pos_site_id
 _symmetry_equiv_pos_as_xyz
  1  'x, y, z'
loop_
 _atom_site_type_symbol
 _atom_site_label
 _atom_site_symmetry_multiplicity
 _atom_site_fract_x
 _atom_site_fract_y
 _atom_site_fract_z
 _atom_site_occupancy
  Fe  Fe0  1  0.144600  0.144600  0.144600  1
  Fe  Fe1  1  0.355478  0.355478  0.355478  1
  Fe  Fe2  1  0.642905  0.642905  0.642905  1
  Cu  Cu3  1  0.009318  0.009318  0.009318  1
  Cu  Cu4  1  0.500127  0.500127  0.500127  1
  Te  Te5  1  0.857016  0.857016  0.857016  1
  P  P6  1  0.252918  0.536869  0.955204  1
  P  P7  1  0.536869  0.955204  0.252918  1
  P  P8  1  0.955204  0.252918  0.536869  1
  P  P9  1  0.045175  0.744865  0.453733  1
  P  P10  1  0.453733  0.045175  0.744865  1
  P  P11  1  0.744865  0.453733  0.045175  1
  O  O12  1  0.115746  0.299377  0.511630  1
  O  O13  1  0.299377  0.511630  0.115746  1
  O  O14  1  0.056925  0.914199  0.268563  1
  O  O15  1  0.511630  0.115746  0.299377  1
  O  O16  1  0.014149  0.803944  0.619519  1
  O  O17  1  0.236537  0.583347  0.445773  1
  O  O18  1  0.268563  0.056925  0.914199  1
  O  O19  1  0.445773  0.236537  0.583347  1
  O  O20  1  0.185639  0.386114  0.993921  1
  O  O21  1  0.583347  0.445773  0.236537  1
  O  O22  1  0.079096  0.738976  0.941344  1
  O  O23  1  0.386114  0.993921  0.185639  1
  O  O24  1  0.619519  0.014149  0.803944  1
  O  O25  1  0.914199  0.268563  0.056925  1
  O  O26  1  0.409056  0.563447  0.760324  1
  O  O27  1  0.803944  0.619519  0.014149  1
  O  O28  1  0.563447  0.760324  0.409056  1
  O  O29  1  0.738976  0.941344  0.079096  1
  O  O30  1  0.760324  0.409056  0.563447  1
  O  O31  1  0.993921  0.185639  0.386114  1
  O  O32  1  0.502464  0.883044  0.688661  1
  O  O33  1  0.941344  0.079096  0.738976  1
  O  O34  1  0.688661  0.502464  0.883044  1
  O  O35  1  0.883044  0.688661  0.502464  1
