# generated using pymatgen
data_Li3Fe4(PO4)6
_symmetry_space_group_name_H-M   'P 1'
_cell_length_a   8.64030523
_cell_length_b   8.83092874
_cell_length_c   8.72625777
_cell_angle_alpha   60.35242444
_cell_angle_beta   59.98166555
_cell_angle_gamma   89.75255287
_symmetry_Int_Tables_number   1
_chemical_formula_structural   Li3Fe4(PO4)6
_chemical_formula_sum   'Li3 Fe4 P6 O24'
_cell_volume   474.16720748
_cell_formula_units_Z   1
loop_
 _symmetry_equiv_pos_site_id
 _symmetry_equiv_pos_as_xyz
  1  'x, y, z'
loop_
 _atom_site_type_symbol
 _atom_site_label
 _atom_site_symmetry_multiplicity
 _atom_site_fract_x
 _atom_site_fract_y
 _atom_site_fract_z
 _atom_site_occupancy
  Li  Li0  1  0.347280  0.554823  0.616660  1
  Li  Li1  1  0.030934  0.050190  0.605239  1
  Li  Li2  1  0.741293  0.342945  0.361249  1
  Fe  Fe3  1  0.352092  0.070940  0.799853  1
  Fe  Fe4  1  0.854142  0.568939  0.788410  1
  Fe  Fe5  1  0.647954  0.933867  0.201996  1
  Fe  Fe6  1  0.156016  0.435426  0.201067  1
  P  P7  1  0.531321  0.741499  0.717774  1
  P  P8  1  0.246823  0.756024  0.284715  1
  P  P9  1  0.755581  0.241407  0.717099  1
  P  P10  1  0.041052  0.258512  0.996297  1
  P  P11  1  0.474631  0.255409  0.280901  1
  P  P12  1  0.955424  0.752541  0.002588  1
  O  O13  1  0.121003  0.928023  0.873129  1
  O  O14  1  0.027470  0.445731  0.845633  1
  O  O15  1  0.490535  0.898732  0.744985  1
  O  O16  1  0.058751  0.728157  0.480123  1
  O  O17  1  0.370484  0.555304  0.903461  1
  O  O18  1  0.234373  0.262561  0.830073  1
  O  O19  1  0.288909  0.943972  0.091937  1
  O  O20  1  0.547989  0.772170  0.518609  1
  O  O21  1  0.723460  0.740261  0.691078  1
  O  O22  1  0.947088  0.765248  0.821525  1
  O  O23  1  0.399049  0.749023  0.330290  1
  O  O24  1  0.236703  0.603330  0.249377  1
  O  O25  1  0.759402  0.399439  0.746198  1
  O  O26  1  0.037610  0.257753  0.176199  1
  O  O27  1  0.599211  0.241162  0.678053  1
  O  O28  1  0.277336  0.257108  0.325199  1
  O  O29  1  0.726066  0.053956  0.902772  1
  O  O30  1  0.474229  0.218451  0.474324  1
  O  O31  1  0.767642  0.747540  0.175123  1
  O  O32  1  0.635186  0.442072  0.091347  1
  O  O33  1  0.938790  0.272313  0.516523  1
  O  O34  1  0.506813  0.099689  0.247085  1
  O  O35  1  0.978611  0.568635  0.137015  1
  O  O36  1  0.877828  0.089493  0.113470  1
