# generated using pymatgen
data_Li2Nb4ZnO12
_symmetry_space_group_name_H-M   'P 1'
_cell_length_a   11.89757066
_cell_length_b   7.71807078
_cell_length_c   7.69029221
_cell_angle_alpha   93.72579229
_cell_angle_beta   92.51589577
_cell_angle_gamma   104.99620151
_symmetry_Int_Tables_number   1
_chemical_formula_structural   Li2Nb4ZnO12
_chemical_formula_sum   'Li6 Nb12 Zn3 O36'
_cell_volume   679.32777219
_cell_formula_units_Z   3
loop_
 _symmetry_equiv_pos_site_id
 _symmetry_equiv_pos_as_xyz
  1  'x, y, z'
loop_
 _atom_site_type_symbol
 _atom_site_label
 _atom_site_symmetry_multiplicity
 _atom_site_fract_x
 _atom_site_fract_y
 _atom_site_fract_z
 _atom_site_occupancy
  Li  Li0  1  0.476401  0.956316  0.780871  1
  Li  Li1  1  0.813135  0.619452  0.781690  1
  Li  Li2  1  0.816702  0.132288  0.281833  1
  Li  Li3  1  0.149264  0.797127  0.784192  1
  Li  Li4  1  0.480776  0.463061  0.782790  1
  Li  Li5  1  0.145769  0.292739  0.781604  1
  Nb  Nb6  1  0.670076  0.843468  0.511880  1
  Nb  Nb7  1  0.668938  0.829330  0.995265  1
  Nb  Nb8  1  0.330760  0.666382  0.496735  1
  Nb  Nb9  1  0.663505  0.340586  0.500558  1
  Nb  Nb10  1  0.334951  0.662272  0.995705  1
  Nb  Nb11  1  0.669048  0.322640  0.994608  1
  Nb  Nb12  1  0.002187  0.503728  0.506087  1
  Nb  Nb13  1  0.334573  0.170776  0.504813  1
  Nb  Nb14  1  0.004909  0.499073  0.999864  1
  Nb  Nb15  1  0.336840  0.165040  0.002637  1
  Nb  Nb16  1  -0.000040  -0.002217  0.496890  1
  Nb  Nb17  1  0.995796  0.993571  0.990492  1
  Zn  Zn18  1  0.483187  0.956794  0.276099  1
  Zn  Zn19  1  0.811445  0.626060  0.272883  1
  Zn  Zn20  1  0.145767  0.289777  0.274272  1
  O  O21  1  0.963831  0.747637  0.415156  1
  O  O22  1  0.840535  0.870518  0.918892  1
  O  O23  1  0.722864  0.815198  0.232371  1
  O  O24  1  0.634883  0.899847  0.739663  1
  O  O25  1  0.971686  0.568250  0.735480  1
  O  O26  1  0.510972  0.843669  0.040560  1
  O  O27  1  0.846091  0.509136  0.041157  1
  O  O28  1  0.384211  0.960732  0.542468  1
  O  O29  1  0.721020  0.629746  0.541083  1
  O  O30  1  0.513289  0.740422  0.425166  1
  O  O31  1  0.845300  0.386490  0.420169  1
  O  O32  1  0.307666  0.921574  0.913824  1
  O  O33  1  0.636745  0.585682  0.919017  1
  O  O34  1  0.983309  0.258354  0.921217  1
  O  O35  1  0.318395  0.732742  0.233754  1
  O  O36  1  0.654265  0.406830  0.232817  1
  O  O37  1  0.976203  0.072064  0.230529  1
  O  O38  1  0.055302  0.988835  0.732335  1
  O  O39  1  0.390919  0.656589  0.731088  1
  O  O40  1  0.718553  0.335793  0.734643  1
  O  O41  1  0.051321  0.793129  0.024700  1
  O  O42  1  0.383453  0.453819  0.022556  1
  O  O43  1  0.719332  0.122198  0.049506  1
  O  O44  1  0.177104  0.669692  0.548531  1
  O  O45  1  0.508090  0.336320  0.546235  1
  O  O46  1  0.843539  0.003305  0.522365  1
  O  O47  1  0.298600  0.417769  0.415444  1
  O  O48  1  0.637733  0.089746  0.413874  1
  O  O49  1  0.176621  0.552342  0.916268  1
  O  O50  1  0.510637  0.212054  0.919295  1
  O  O51  1  0.055732  0.475811  0.235547  1
  O  O52  1  0.389952  0.139034  0.234975  1
  O  O53  1  0.304886  0.232172  0.735644  1
  O  O54  1  0.179940  0.174325  0.044577  1
  O  O55  1  0.052331  0.293479  0.542413  1
  O  O56  1  0.175591  0.068081  0.421295  1
