# generated using pymatgen
data_Li4FeCo9O20
_symmetry_space_group_name_H-M   'P 1'
_cell_length_a   7.51605288
_cell_length_b   4.90562614
_cell_length_c   10.03872511
_cell_angle_alpha   85.33695147
_cell_angle_beta   80.81027439
_cell_angle_gamma   71.03581747
_symmetry_Int_Tables_number   1
_chemical_formula_structural   Li4FeCo9O20
_chemical_formula_sum   'Li4 Fe1 Co9 O20'
_cell_volume   345.38272502
_cell_formula_units_Z   1
loop_
 _symmetry_equiv_pos_site_id
 _symmetry_equiv_pos_as_xyz
  1  'x, y, z'
loop_
 _atom_site_type_symbol
 _atom_site_label
 _atom_site_symmetry_multiplicity
 _atom_site_fract_x
 _atom_site_fract_y
 _atom_site_fract_z
 _atom_site_occupancy
  Li  Li0  1  0.079486  0.696869  0.502652  1
  Li  Li1  1  0.517698  0.498022  0.499067  1
  Li  Li2  1  0.580297  0.204934  0.000122  1
  Li  Li3  1  0.016701  0.984721  0.996858  1
  Fe  Fe4  1  0.156184  0.054241  0.252772  1
  Co  Co5  1  0.050239  0.349140  0.750164  1
  Co  Co6  1  0.352001  0.451904  0.248170  1
  Co  Co7  1  0.250059  0.748609  0.751625  1
  Co  Co8  1  0.448722  0.148976  0.748554  1
  Co  Co9  1  0.552767  0.850105  0.249837  1
  Co  Co10  1  0.749121  0.250263  0.251177  1
  Co  Co11  1  0.650109  0.550539  0.751484  1
  Co  Co12  1  0.948352  0.651220  0.248506  1
  Co  Co13  1  0.849620  0.950722  0.748136  1
  O  O14  1  0.071084  0.014812  0.651671  1
  O  O15  1  0.129196  0.403964  0.353250  1
  O  O16  1  0.164204  0.712541  0.147459  1
  O  O17  1  0.028633  0.684779  0.848071  1
  O  O18  1  0.227531  0.071682  0.848050  1
  O  O19  1  0.381996  0.132369  0.147399  1
  O  O20  1  0.268404  0.431882  0.648965  1
  O  O21  1  0.338473  0.756991  0.355222  1
  O  O22  1  0.530199  0.184884  0.347586  1
  O  O23  1  0.434471  0.472760  0.847644  1
  O  O24  1  0.572206  0.516646  0.152190  1
  O  O25  1  0.470519  0.811703  0.653114  1
  O  O26  1  0.666882  0.231038  0.652168  1
  O  O27  1  0.729877  0.575529  0.347347  1
  O  O28  1  0.770311  0.931004  0.148549  1
  O  O29  1  0.631197  0.882101  0.846503  1
  O  O30  1  0.960894  0.328253  0.150512  1
  O  O31  1  0.829325  0.268834  0.850572  1
  O  O32  1  0.869891  0.626348  0.653091  1
  O  O33  1  0.922552  0.963648  0.351233  1
