# generated using pymatgen
data_Li2MnO2F
_symmetry_space_group_name_H-M   'P 1'
_cell_length_a   2.99000841
_cell_length_b   2.99000833
_cell_length_c   14.41583459
_cell_angle_alpha   90.00000000
_cell_angle_beta   90.00000000
_cell_angle_gamma   59.99999895
_symmetry_Int_Tables_number   1
_chemical_formula_structural   Li2MnO2F
_chemical_formula_sum   'Li4 Mn2 O4 F2'
_cell_volume   111.61311399
_cell_formula_units_Z   2
loop_
 _symmetry_equiv_pos_site_id
 _symmetry_equiv_pos_as_xyz
  1  'x, y, z'
loop_
 _atom_site_type_symbol
 _atom_site_label
 _atom_site_symmetry_multiplicity
 _atom_site_fract_x
 _atom_site_fract_y
 _atom_site_fract_z
 _atom_site_occupancy
  Li  Li0  1  0.000000  0.000000  0.994180  1
  Li  Li1  1  0.333333  0.333333  0.833333  1
  Li  Li2  1  0.333333  0.333333  0.333333  1
  Li  Li3  1  0.666667  0.666667  0.672487  1
  Mn  Mn4  1  0.000000  0.000000  0.502153  1
  Mn  Mn5  1  0.666667  0.666667  0.164514  1
  O  O6  1  0.000000  0.000000  0.242679  1
  O  O7  1  0.333333  0.333333  0.087590  1
  O  O8  1  0.333333  0.333333  0.579077  1
  O  O9  1  0.666667  0.666667  0.423988  1
  F  F10  1  0.000000  0.000000  0.752559  1
  F  F11  1  0.666667  0.666667  0.914107  1
