# generated using pymatgen
data_SeO2
_symmetry_space_group_name_H-M   'P 1'
_cell_length_a   5.20306999
_cell_length_b   8.71289833
_cell_length_c   8.71289833
_cell_angle_alpha   90.00000000
_cell_angle_beta   90.00000000
_cell_angle_gamma   90.00000000
_symmetry_Int_Tables_number   1
_chemical_formula_structural   SeO2
_chemical_formula_sum   'Se8 O16'
_cell_volume   394.98896306
_cell_formula_units_Z   8
loop_
 _symmetry_equiv_pos_site_id
 _symmetry_equiv_pos_as_xyz
  1  'x, y, z'
loop_
 _atom_site_type_symbol
 _atom_site_label
 _atom_site_symmetry_multiplicity
 _atom_site_fract_x
 _atom_site_fract_y
 _atom_site_fract_z
 _atom_site_occupancy
  O  O0  1  0.500000  0.320245  0.553877  1
  O  O1  1  0.500000  0.679755  0.446123  1
  O  O2  1  0.000000  0.553877  0.679755  1
  O  O3  1  0.000000  0.446123  0.320245  1
  O  O4  1  0.000000  0.053877  0.820245  1
  O  O5  1  0.500000  0.179755  0.053877  1
  O  O6  1  0.500000  0.820245  0.946123  1
  O  O7  1  0.000000  0.946123  0.179755  1
  O  O8  1  0.250000  0.138087  0.361913  1
  O  O9  1  0.750000  0.638087  0.138087  1
  O  O10  1  0.750000  0.361913  0.861913  1
  O  O11  1  0.250000  0.861913  0.638087  1
  O  O12  1  0.750000  0.861913  0.638087  1
  O  O13  1  0.250000  0.361913  0.861913  1
  O  O14  1  0.250000  0.638087  0.138087  1
  O  O15  1  0.750000  0.138087  0.361913  1
  Se  Se16  1  0.500000  0.287162  0.367377  1
  Se  Se17  1  0.500000  0.712838  0.632623  1
  Se  Se18  1  0.000000  0.367377  0.712838  1
  Se  Se19  1  0.000000  0.632623  0.287162  1
  Se  Se20  1  0.000000  0.867377  0.787162  1
  Se  Se21  1  0.500000  0.212838  0.867377  1
  Se  Se22  1  0.500000  0.787162  0.132623  1
  Se  Se23  1  0.000000  0.132623  0.212838  1
