# generated using pymatgen
data_Li5V3P8O29
_symmetry_space_group_name_H-M   'P 1'
_cell_length_a   9.72092815
_cell_length_b   9.75748927
_cell_length_c   14.09300288
_cell_angle_alpha   90.44016074
_cell_angle_beta   90.30135655
_cell_angle_gamma   60.39203393
_symmetry_Int_Tables_number   1
_chemical_formula_structural   Li5V3P8O29
_chemical_formula_sum   'Li10 V6 P16 O58'
_cell_volume   1162.16735269
_cell_formula_units_Z   2
loop_
 _symmetry_equiv_pos_site_id
 _symmetry_equiv_pos_as_xyz
  1  'x, y, z'
loop_
 _atom_site_type_symbol
 _atom_site_label
 _atom_site_symmetry_multiplicity
 _atom_site_fract_x
 _atom_site_fract_y
 _atom_site_fract_z
 _atom_site_occupancy
  Li  Li0  1  0.765605  0.908924  0.555399  1
  Li  Li1  1  0.901932  0.338706  0.557890  1
  Li  Li2  1  0.762149  0.334847  0.061791  1
  Li  Li3  1  0.334481  0.898393  0.062825  1
  Li  Li4  1  0.331969  0.769381  0.558406  1
  Li  Li5  1  0.670992  0.092459  0.942604  1
  Li  Li6  1  0.099083  0.667716  0.436833  1
  Li  Li7  1  0.095636  0.228862  0.943326  1
  Li  Li8  1  0.017550  0.921293  0.012342  1
  Li  Li9  1  0.974425  0.048918  0.494025  1
  V  V10  1  0.563297  0.435414  0.252539  1
  V  V11  1  0.433265  0.566376  0.751777  1
  V  V12  1  0.565109  0.998531  0.745045  1
  V  V13  1  0.434127  0.001719  0.252072  1
  V  V14  1  0.997287  0.568088  0.245272  1
  V  V15  1  0.000962  0.435785  0.753083  1
  P  P16  1  0.914276  0.779358  0.839027  1
  P  P17  1  0.778801  0.913300  0.341746  1
  P  P18  1  0.912474  0.313422  0.341142  1
  P  P19  1  0.664276  0.664606  0.130806  1
  P  P20  1  0.666841  0.663664  0.631065  1
  P  P21  1  0.770498  0.315249  0.844824  1
  P  P22  1  0.694653  0.223040  0.659603  1
  P  P23  1  0.313784  0.913658  0.843359  1
  P  P24  1  0.689859  0.086595  0.158119  1
  P  P25  1  0.313762  0.775349  0.343583  1
  P  P26  1  0.221530  0.692574  0.160811  1
  P  P27  1  0.328391  0.337882  0.368314  1
  P  P28  1  0.339466  0.328039  0.867600  1
  P  P29  1  0.086621  0.686018  0.656047  1
  P  P30  1  0.217968  0.085930  0.660594  1
  P  P31  1  0.087403  0.224613  0.158772  1
  O  O32  1  0.004632  0.769109  0.565744  1
  O  O33  1  0.922585  0.744403  0.335966  1
  O  O34  1  0.778929  0.012566  0.068195  1
  O  O35  1  0.740260  0.916525  0.834930  1
  O  O36  1  0.919195  0.618058  0.828342  1
  O  O37  1  0.807180  0.672444  0.176986  1
  O  O38  1  0.918908  0.465652  0.330169  1
  O  O39  1  0.997379  0.226402  0.070352  1
  O  O40  1  0.917702  0.336396  0.842887  1
  O  O41  1  0.678627  0.810048  0.667967  1
  O  O42  1  0.623357  0.910628  0.328467  1
  O  O43  1  0.811040  0.511884  0.672057  1
  O  O44  1  0.668593  0.649027  0.025358  1
  O  O45  1  0.658452  0.661484  0.525206  1
  O  O46  1  0.672061  0.511039  0.174887  1
  O  O47  1  0.469935  0.911692  0.828198  1
  O  O48  1  0.509455  0.811785  0.167616  1
  O  O49  1  0.739209  0.344580  0.331526  1
  O  O50  1  0.790416  0.198934  0.758711  1
  O  O51  1  0.803535  0.209446  0.580817  1
  O  O52  1  0.760979  0.239076  0.935126  1
  O  O53  1  0.618371  0.474896  0.825471  1
  O  O54  1  0.510971  0.676390  0.675316  1
  O  O55  1  0.656925  0.260625  0.162234  1
  O  O56  1  0.471312  0.618788  0.327854  1
  O  O57  1  0.342917  0.915402  0.336945  1
  O  O58  1  0.797771  0.003588  0.250176  1
  O  O59  1  0.791697  0.989610  0.431851  1
  O  O60  1  0.201461  0.995605  0.579440  1
  O  O61  1  0.661079  0.083469  0.656542  1
  O  O62  1  0.540912  0.383604  0.669313  1
  O  O63  1  0.338739  0.743743  0.832990  1
  O  O64  1  0.476282  0.339085  0.318280  1
  O  O65  1  0.384078  0.541302  0.169073  1
  O  O66  1  0.208046  0.798252  0.080583  1
  O  O67  1  0.232561  0.773916  0.434242  1
  O  O68  1  0.198047  0.792141  0.258055  1
  O  O69  1  0.257517  0.662601  0.660205  1
  O  O70  1  0.490452  0.184968  0.824936  1
  O  O71  1  0.535339  0.081288  0.169711  1
  O  O72  1  0.335634  0.476900  0.818148  1
  O  O73  1  0.346050  0.330744  0.972977  1
  O  O74  1  0.338418  0.342657  0.473252  1
  O  O75  1  0.183590  0.491954  0.329502  1
  O  O76  1  0.379683  0.080022  0.669022  1
  O  O77  1  0.327315  0.192717  0.323011  1
  O  O78  1  0.085951  0.655395  0.160501  1
  O  O79  1  0.992612  0.801196  0.743054  1
  O  O80  1  0.998831  0.793777  0.922251  1
  O  O81  1  0.091557  0.529288  0.672526  1
  O  O82  1  0.189715  0.322055  0.830771  1
  O  O83  1  0.093055  0.377772  0.172181  1
  O  O84  1  0.254652  0.078977  0.158524  1
  O  O85  1  0.231167  0.990647  0.935032  1
  O  O86  1  0.195396  0.013266  0.758709  1
  O  O87  1  0.081313  0.259557  0.662077  1
  O  O88  1  0.981106  0.227128  0.431908  1
  O  O89  1  0.001975  0.201464  0.250982  1
