# generated using pymatgen
data_Li3Fe4(BO3)4
_symmetry_space_group_name_H-M   'P 1'
_cell_length_a   5.23497348
_cell_length_b   9.07736007
_cell_length_c   11.37272735
_cell_angle_alpha   67.39167087
_cell_angle_beta   77.75598249
_cell_angle_gamma   90.03262673
_symmetry_Int_Tables_number   1
_chemical_formula_structural   Li3Fe4(BO3)4
_chemical_formula_sum   'Li6 Fe8 B8 O24'
_cell_volume   485.52810389
_cell_formula_units_Z   2
loop_
 _symmetry_equiv_pos_site_id
 _symmetry_equiv_pos_as_xyz
  1  'x, y, z'
loop_
 _atom_site_type_symbol
 _atom_site_label
 _atom_site_symmetry_multiplicity
 _atom_site_fract_x
 _atom_site_fract_y
 _atom_site_fract_z
 _atom_site_occupancy
  Li  Li0  1  0.971997  0.972157  0.393767  1
  Li  Li1  1  0.703985  0.720668  0.908859  1
  Li  Li2  1  0.510714  0.490974  0.666739  1
  Li  Li3  1  0.740438  0.754272  0.163924  1
  Li  Li4  1  0.469276  0.461851  0.411231  1
  Li  Li5  1  0.018581  0.000060  0.657812  1
  Fe  Fe6  1  0.970835  0.648274  0.385937  1
  Fe  Fe7  1  0.737232  0.077891  0.876603  1
  Fe  Fe8  1  0.521365  0.841400  0.631071  1
  Fe  Fe9  1  0.761382  0.424165  0.134080  1
  Fe  Fe10  1  0.225195  0.548115  0.886380  1
  Fe  Fe11  1  0.463355  0.146824  0.380534  1
  Fe  Fe12  1  0.031479  0.347472  0.634666  1
  Fe  Fe13  1  0.271187  0.943583  0.122849  1
  B  B14  1  0.978599  0.314051  0.376680  1
  B  B15  1  0.731442  0.399680  0.877203  1
  B  B16  1  0.528233  0.186630  0.623676  1
  B  B17  1  0.769036  0.095153  0.136846  1
  B  B18  1  0.480288  0.817036  0.372305  1
  B  B19  1  0.231337  0.886691  0.881140  1
  B  B20  1  0.020888  0.686394  0.624093  1
  B  B21  1  0.262620  0.608369  0.129200  1
  O  O22  1  0.975992  0.897751  0.866770  1
  O  O23  1  0.895301  0.294956  0.844611  1
  O  O24  1  0.823564  0.499514  0.933240  1
  O  O25  1  0.910329  0.827657  0.614636  1
  O  O26  1  0.895475  0.574309  0.593052  1
  O  O27  1  0.760680  0.158541  0.666369  1
  O  O28  1  0.738574  0.345891  0.333848  1
  O  O29  1  0.489069  0.412522  0.852700  1
  O  O30  1  0.386050  0.779435  0.844538  1
  O  O31  1  0.592476  0.920607  0.413553  1
  O  O32  1  0.605277  0.686849  0.360555  1
  O  O33  1  0.346587  0.980567  0.932927  1
  O  O34  1  0.648317  0.986945  0.099520  1
  O  O35  1  0.419171  0.330926  0.606542  1
  O  O36  1  0.408291  0.073525  0.592944  1
  O  O37  1  0.628573  0.211081  0.165698  1
  O  O38  1  0.531945  0.604459  0.121732  1
  O  O39  1  0.256086  0.655041  0.662516  1
  O  O40  1  0.239197  0.845123  0.336362  1
  O  O41  1  0.092863  0.425299  0.410952  1
  O  O42  1  0.086776  0.175068  0.385433  1
  O  O43  1  0.128436  0.505059  0.095965  1
  O  O44  1  0.123102  0.722011  0.165194  1
  O  O45  1  0.022141  0.081329  0.147787  1
