# generated using pymatgen
data_CoBO3
_symmetry_space_group_name_H-M   'P 1'
_cell_length_a   6.06790415
_cell_length_b   5.30994056
_cell_length_c   5.26661239
_cell_angle_alpha   55.25993159
_cell_angle_beta   110.21140531
_cell_angle_gamma   83.38993936
_symmetry_Int_Tables_number   1
_chemical_formula_structural   CoBO3
_chemical_formula_sum   'Co2 B2 O6'
_cell_volume   119.66911291
_cell_formula_units_Z   2
loop_
 _symmetry_equiv_pos_site_id
 _symmetry_equiv_pos_as_xyz
  1  'x, y, z'
loop_
 _atom_site_type_symbol
 _atom_site_label
 _atom_site_symmetry_multiplicity
 _atom_site_fract_x
 _atom_site_fract_y
 _atom_site_fract_z
 _atom_site_occupancy
  Co  Co0  1  0.735822  0.212515  0.147249  1
  Co  Co1  1  0.264178  0.787485  0.852751  1
  B  B2  1  0.741750  0.900353  0.823404  1
  B  B3  1  0.258250  0.099647  0.176596  1
  O  O4  1  0.635543  0.671779  0.955512  1
  O  O5  1  0.868868  0.893638  0.651765  1
  O  O6  1  0.712541  0.143667  0.847323  1
  O  O7  1  0.287459  0.856333  0.152677  1
  O  O8  1  0.131132  0.106362  0.348235  1
  O  O9  1  0.364457  0.328221  0.044488  1
