# generated using pymatgen
data_Mo2P3Pb2BrO15
_symmetry_space_group_name_H-M   'P 1'
_cell_length_a   9.29947739
_cell_length_b   9.29947682
_cell_length_c   17.85991684
_cell_angle_alpha   104.94180276
_cell_angle_beta   104.94180169
_cell_angle_gamma   90.55176606
_symmetry_Int_Tables_number   1
_chemical_formula_structural   Mo2P3Pb2BrO15
_chemical_formula_sum   'Mo8 P12 Pb8 Br4 O60'
_cell_volume   1437.04949138
_cell_formula_units_Z   4
loop_
 _symmetry_equiv_pos_site_id
 _symmetry_equiv_pos_as_xyz
  1  'x, y, z'
loop_
 _atom_site_type_symbol
 _atom_site_label
 _atom_site_symmetry_multiplicity
 _atom_site_fract_x
 _atom_site_fract_y
 _atom_site_fract_z
 _atom_site_occupancy
  Mo  Mo0  1  0.647403  0.155356  0.293819  1
  Mo  Mo1  1  0.606411  0.610205  0.209038  1
  Mo  Mo2  1  0.360205  0.856411  0.709038  1
  Mo  Mo3  1  0.905356  0.897403  0.793819  1
  Mo  Mo4  1  0.103584  0.111538  0.206181  1
  Mo  Mo5  1  0.861538  0.353584  0.706181  1
  Mo  Mo6  1  0.401167  0.397373  0.790962  1
  Mo  Mo7  1  0.147373  0.651167  0.290962  1
  P  P8  1  0.132719  0.126980  0.750132  1
  P  P9  1  0.628179  0.121089  0.740357  1
  P  P10  1  0.078683  0.078683  1.000000  1
  P  P11  1  0.575339  0.575339  1.000000  1
  P  P12  1  0.132587  0.626847  0.749868  1
  P  P13  1  0.380732  0.887822  0.259643  1
  P  P14  1  0.871089  0.878179  0.240357  1
  P  P15  1  0.325339  0.825339  0.500000  1
  P  P16  1  0.828683  0.328683  0.500000  1
  P  P17  1  0.637822  0.630732  0.759643  1
  P  P18  1  0.376847  0.382587  0.249868  1
  P  P19  1  0.876980  0.382719  0.250132  1
  Pb  Pb20  1  0.820761  0.820761  0.000000  1
  Pb  Pb21  1  0.570761  0.070761  0.500000  1
  Pb  Pb22  1  0.324089  0.324089  0.000000  1
  Pb  Pb23  1  0.057629  0.054895  0.438488  1
  Pb  Pb24  1  0.804895  0.307629  0.938488  1
  Pb  Pb25  1  0.369141  0.866408  0.061512  1
  Pb  Pb26  1  0.616408  0.619141  0.561512  1
  Pb  Pb27  1  0.074089  0.574089  0.500000  1
  Br  Br28  1  0.871758  0.873222  0.505319  1
  Br  Br29  1  0.116439  0.617903  0.994681  1
  Br  Br30  1  0.623222  0.121758  0.005319  1
  Br  Br31  1  0.367903  0.366439  0.494681  1
  O  O32  1  0.412752  0.912297  0.810758  1
  O  O33  1  0.048290  0.037030  0.074451  1
  O  O34  1  0.444134  0.439528  0.190124  1
  O  O35  1  0.060971  0.744369  0.804471  1
  O  O36  1  0.742854  0.558154  0.004848  1
  O  O37  1  0.442542  0.763209  0.202876  1
  O  O38  1  0.553306  0.738007  0.995152  1
  O  O39  1  0.298778  0.778435  0.573955  1
  O  O40  1  0.709725  0.519113  0.701514  1
  O  O41  1  0.488007  0.803306  0.495152  1
  O  O42  1  0.962579  0.973839  0.925549  1
  O  O43  1  0.575756  0.553947  0.812813  1
  O  O44  1  0.507500  0.004559  0.319311  1
  O  O45  1  0.994126  0.307995  0.501037  1
  O  O46  1  0.057995  0.244126  0.001037  1
  O  O47  1  0.806959  0.493090  0.498963  1
  O  O48  1  0.494369  0.310971  0.304471  1
  O  O49  1  0.137747  0.138895  0.580744  1
  O  O50  1  0.662297  0.662752  0.310758  1
  O  O51  1  0.761368  0.455906  0.195788  1
  O  O52  1  0.513209  0.692542  0.702876  1
  O  O53  1  0.303947  0.825756  0.312813  1
  O  O54  1  0.006500  0.189898  0.695529  1
  O  O55  1  0.260118  0.565580  0.804212  1
  O  O56  1  0.939898  0.256500  0.195529  1
  O  O57  1  0.723839  0.212579  0.425549  1
  O  O58  1  0.474822  0.454480  0.926045  1
  O  O59  1  0.013940  0.498930  0.695393  1
  O  O60  1  0.758212  0.067599  0.798486  1
  O  O61  1  0.528435  0.548778  0.073955  1
  O  O62  1  0.068547  0.053537  0.804607  1
  O  O63  1  0.896904  0.391455  0.808634  1
  O  O64  1  0.308154  0.992854  0.504848  1
  O  O65  1  0.205906  0.011368  0.695788  1
  O  O66  1  0.817599  0.008212  0.298486  1
  O  O67  1  0.989666  0.810333  0.297124  1
  O  O68  1  0.803537  0.318547  0.304607  1
  O  O69  1  0.249404  0.254010  0.809876  1
  O  O70  1  0.101539  0.601994  0.189242  1
  O  O71  1  0.838270  0.832821  0.691366  1
  O  O72  1  0.315580  0.510118  0.304212  1
  O  O73  1  0.888895  0.387747  0.080744  1
  O  O74  1  0.351994  0.351539  0.689242  1
  O  O75  1  0.141455  0.146904  0.308634  1
  O  O76  1  0.204480  0.724822  0.426045  1
  O  O77  1  0.189528  0.694133  0.690124  1
  O  O78  1  0.787030  0.298290  0.574451  1
  O  O79  1  0.243090  0.056959  0.998963  1
  O  O80  1  0.938189  0.935248  0.180689  1
  O  O81  1  0.582821  0.088270  0.191366  1
  O  O82  1  0.004010  0.499404  0.309876  1
  O  O83  1  0.248930  0.263940  0.195393  1
  O  O84  1  0.307003  0.808151  0.919256  1
  O  O85  1  0.741135  0.762943  0.187187  1
  O  O86  1  0.512943  0.991135  0.687187  1
  O  O87  1  0.685248  0.188189  0.680689  1
  O  O88  1  0.560333  0.239666  0.797124  1
  O  O89  1  0.754559  0.757500  0.819311  1
  O  O90  1  0.269113  0.959725  0.201514  1
  O  O91  1  0.558151  0.557003  0.419256  1
