# generated using pymatgen
data_Li3LaNiO4
_symmetry_space_group_name_H-M   'P 1'
_cell_length_a   9.79225844
_cell_length_b   7.41278005
_cell_length_c   5.88309345
_cell_angle_alpha   100.26006205
_cell_angle_beta   76.98285943
_cell_angle_gamma   94.96691276
_symmetry_Int_Tables_number   1
_chemical_formula_structural   Li3LaNiO4
_chemical_formula_sum   'Li12 La4 Ni4 O16'
_cell_volume   408.93316583
_cell_formula_units_Z   4
loop_
 _symmetry_equiv_pos_site_id
 _symmetry_equiv_pos_as_xyz
  1  'x, y, z'
loop_
 _atom_site_type_symbol
 _atom_site_label
 _atom_site_symmetry_multiplicity
 _atom_site_fract_x
 _atom_site_fract_y
 _atom_site_fract_z
 _atom_site_occupancy
  Li  Li0  1  0.124702  0.195123  0.972769  1
  Li  Li1  1  0.097889  0.938751  0.319795  1
  Li  Li2  1  0.128786  0.549558  0.040321  1
  Li  Li3  1  0.375681  0.945716  0.970892  1
  Li  Li4  1  0.402465  0.566115  0.677217  1
  Li  Li5  1  0.346846  0.683969  0.324120  1
  Li  Li6  1  0.653154  0.316031  0.675880  1
  Li  Li7  1  0.597535  0.433885  0.322783  1
  Li  Li8  1  0.624319  0.054284  0.029108  1
  Li  Li9  1  0.871214  0.450442  0.959679  1
  Li  Li10  1  0.902111  0.061248  0.680205  1
  Li  Li11  1  0.875298  0.804877  0.027231  1
  La  La12  1  0.122798  0.372267  0.520003  1
  La  La13  1  0.375834  0.122443  0.505256  1
  La  La14  1  0.624166  0.877557  0.494744  1
  La  La15  1  0.877202  0.627733  0.479997  1
  Ni  Ni16  1  0.150340  0.813711  0.685818  1
  Ni  Ni17  1  0.376575  0.306056  0.037204  1
  Ni  Ni18  1  0.623425  0.693944  0.962796  1
  Ni  Ni19  1  0.849660  0.186289  0.314182  1
  O  O20  1  0.019514  0.635266  0.830212  1
  O  O21  1  0.112467  0.066491  0.656163  1
  O  O22  1  0.270681  0.383254  0.821469  1
  O  O23  1  0.135547  0.680323  0.358818  1
  O  O24  1  0.356391  0.821824  0.656960  1
  O  O25  1  0.235237  0.120684  0.184677  1
  O  O26  1  0.515618  0.140515  0.820557  1
  O  O27  1  0.391648  0.432555  0.348503  1
  O  O28  1  0.608352  0.567445  0.651497  1
  O  O29  1  0.484382  0.859485  0.179443  1
  O  O30  1  0.764763  0.879316  0.815323  1
  O  O31  1  0.643609  0.178176  0.343040  1
  O  O32  1  0.864453  0.319677  0.641182  1
  O  O33  1  0.729319  0.616746  0.178531  1
  O  O34  1  0.887533  0.933509  0.343837  1
  O  O35  1  0.980486  0.364734  0.169788  1
