# generated using pymatgen
data_Li2MnSO4F3
_symmetry_space_group_name_H-M   'P 1'
_cell_length_a   7.29394296
_cell_length_b   9.54927907
_cell_length_c   7.48034155
_cell_angle_alpha   90.00000000
_cell_angle_beta   90.09631887
_cell_angle_gamma   90.00000000
_symmetry_Int_Tables_number   1
_chemical_formula_structural   Li2MnSO4F3
_chemical_formula_sum   'Li8 Mn4 S4 O16 F12'
_cell_volume   521.01924191
_cell_formula_units_Z   4
loop_
 _symmetry_equiv_pos_site_id
 _symmetry_equiv_pos_as_xyz
  1  'x, y, z'
loop_
 _atom_site_type_symbol
 _atom_site_label
 _atom_site_symmetry_multiplicity
 _atom_site_fract_x
 _atom_site_fract_y
 _atom_site_fract_z
 _atom_site_occupancy
  Li  Li0  1  0.225961  0.301437  0.841946  1
  Li  Li1  1  0.225961  0.198563  0.341946  1
  Li  Li2  1  0.285820  0.694947  0.841133  1
  Li  Li3  1  0.285820  0.805053  0.341133  1
  Li  Li4  1  0.714180  0.194947  0.658867  1
  Li  Li5  1  0.714180  0.305053  0.158867  1
  Li  Li6  1  0.774039  0.801437  0.658054  1
  Li  Li7  1  0.774039  0.698563  0.158054  1
  Mn  Mn8  1  0.000000  0.500000  0.500000  1
  Mn  Mn9  1  0.000000  0.000000  0.000000  1
  Mn  Mn10  1  0.500000  0.500000  0.500000  1
  Mn  Mn11  1  0.500000  0.000000  0.000000  1
  S  S12  1  0.250676  0.000358  0.666662  1
  S  S13  1  0.250676  0.499642  0.166662  1
  S  S14  1  0.749324  0.500358  0.833338  1
  S  S15  1  0.749324  0.999642  0.333338  1
  O  O16  1  0.124145  0.083587  0.789204  1
  O  O17  1  0.124145  0.416413  0.289204  1
  O  O18  1  0.154354  0.897543  0.558391  1
  O  O19  1  0.154354  0.602457  0.058391  1
  O  O20  1  0.349649  0.104123  0.561782  1
  O  O21  1  0.349649  0.395877  0.061782  1
  O  O22  1  0.376315  0.916223  0.790212  1
  O  O23  1  0.376315  0.583777  0.290212  1
  O  O24  1  0.623685  0.416223  0.709788  1
  O  O25  1  0.623685  0.083777  0.209788  1
  O  O26  1  0.650351  0.604123  0.938218  1
  O  O27  1  0.650351  0.895877  0.438218  1
  O  O28  1  0.845646  0.397543  0.941609  1
  O  O29  1  0.845646  0.102457  0.441609  1
  O  O30  1  0.875855  0.583587  0.710796  1
  O  O31  1  0.875855  0.916413  0.210796  1
  F  F32  1  0.024547  0.820821  0.907994  1
  F  F33  1  0.024547  0.679179  0.407994  1
  F  F34  1  0.250634  0.499040  0.663980  1
  F  F35  1  0.250634  0.000960  0.163980  1
  F  F36  1  0.477246  0.179695  0.905988  1
  F  F37  1  0.477246  0.320305  0.405988  1
  F  F38  1  0.522754  0.679695  0.594012  1
  F  F39  1  0.522754  0.820305  0.094012  1
  F  F40  1  0.749366  0.999040  0.836020  1
  F  F41  1  0.749366  0.500960  0.336020  1
  F  F42  1  0.975453  0.320821  0.592006  1
  F  F43  1  0.975453  0.179178  0.092006  1
