# generated using pymatgen
data_Li2Fe3BiO8
_symmetry_space_group_name_H-M   'P 1'
_cell_length_a   8.69862174
_cell_length_b   8.72909407
_cell_length_c   8.71965586
_cell_angle_alpha   90.47035147
_cell_angle_beta   89.59006546
_cell_angle_gamma   89.82211295
_symmetry_Int_Tables_number   1
_chemical_formula_structural   Li2Fe3BiO8
_chemical_formula_sum   'Li8 Fe12 Bi4 O32'
_cell_volume   662.05038375
_cell_formula_units_Z   4
loop_
 _symmetry_equiv_pos_site_id
 _symmetry_equiv_pos_as_xyz
  1  'x, y, z'
loop_
 _atom_site_type_symbol
 _atom_site_label
 _atom_site_symmetry_multiplicity
 _atom_site_fract_x
 _atom_site_fract_y
 _atom_site_fract_z
 _atom_site_occupancy
  Li  Li0  1  0.997840  0.005615  0.000173  1
  Li  Li1  1  0.252952  0.244470  0.248118  1
  Li  Li2  1  0.255266  0.747075  0.750100  1
  Li  Li3  1  0.498270  0.000928  0.501269  1
  Li  Li4  1  0.497909  0.499094  0.999078  1
  Li  Li5  1  0.747624  0.245929  0.750784  1
  Li  Li6  1  0.751185  0.748553  0.254353  1
  Li  Li7  1  0.997580  0.503411  0.498574  1
  Fe  Fe8  1  0.109912  0.143145  0.628277  1
  Fe  Fe9  1  0.126890  0.390358  0.865535  1
  Fe  Fe10  1  0.136064  0.626062  0.112738  1
  Fe  Fe11  1  0.357490  0.375623  0.609527  1
  Fe  Fe12  1  0.375845  0.608397  0.361721  1
  Fe  Fe13  1  0.392232  0.860201  0.121154  1
  Fe  Fe14  1  0.606984  0.358385  0.376171  1
  Fe  Fe15  1  0.623105  0.108821  0.140843  1
  Fe  Fe16  1  0.643740  0.876964  0.888934  1
  Fe  Fe17  1  0.858051  0.125890  0.388248  1
  Fe  Fe18  1  0.878023  0.884813  0.634400  1
  Fe  Fe19  1  0.893689  0.643896  0.873222  1
  Bi  Bi20  1  0.126064  0.875907  0.374541  1
  Bi  Bi21  1  0.376577  0.123765  0.875283  1
  Bi  Bi22  1  0.623059  0.623727  0.624903  1
  Bi  Bi23  1  0.870408  0.373251  0.126719  1
  O  O24  1  0.101534  0.121240  0.386925  1
  O  O25  1  0.103598  0.895221  0.624042  1
  O  O26  1  0.126412  0.614780  0.889104  1
  O  O27  1  0.116533  0.165195  0.862688  1
  O  O28  1  0.133667  0.402707  0.090222  1
  O  O29  1  0.125511  0.372933  0.639718  1
  O  O30  1  0.132928  0.625921  0.339645  1
  O  O31  1  0.143860  0.852482  0.124915  1
  O  O32  1  0.342179  0.137985  0.620850  1
  O  O33  1  0.345079  0.384897  0.850330  1
  O  O34  1  0.354095  0.630054  0.127946  1
  O  O35  1  0.368782  0.612044  0.596969  1
  O  O36  1  0.369898  0.851067  0.363640  1
  O  O37  1  0.375536  0.379916  0.380144  1
  O  O38  1  0.385378  0.093028  0.130281  1
  O  O39  1  0.403834  0.868690  0.886753  1
  O  O40  1  0.594337  0.369386  0.614107  1
  O  O41  1  0.607536  0.598929  0.367760  1
  O  O42  1  0.620332  0.876738  0.120161  1
  O  O43  1  0.618863  0.348668  0.139212  1
  O  O44  1  0.630166  0.111246  0.903063  1
  O  O45  1  0.630431  0.128653  0.370799  1
  O  O46  1  0.654712  0.882031  0.649879  1
  O  O47  1  0.661185  0.638207  0.881461  1
  O  O48  1  0.850917  0.358621  0.382564  1
  O  O49  1  0.861780  0.119331  0.152984  1
  O  O50  1  0.876389  0.874080  0.857229  1
  O  O51  1  0.877535  0.883041  0.407764  1
  O  O52  1  0.886306  0.664960  0.637341  1
  O  O53  1  0.880804  0.103832  0.621333  1
  O  O54  1  0.906778  0.404990  0.865998  1
  O  O55  1  0.916342  0.634986  0.109647  1
