# generated using pymatgen
data_Mn2OF3
_symmetry_space_group_name_H-M   'P 1'
_cell_length_a   9.47971093
_cell_length_b   5.80770532
_cell_length_c   5.80770532
_cell_angle_alpha   72.11314292
_cell_angle_beta   86.32839542
_cell_angle_gamma   86.32839542
_symmetry_Int_Tables_number   1
_chemical_formula_structural   Mn2OF3
_chemical_formula_sum   'Mn8 O4 F12'
_cell_volume   303.33428214
_cell_formula_units_Z   4
loop_
 _symmetry_equiv_pos_site_id
 _symmetry_equiv_pos_as_xyz
  1  'x, y, z'
loop_
 _atom_site_type_symbol
 _atom_site_label
 _atom_site_symmetry_multiplicity
 _atom_site_fract_x
 _atom_site_fract_y
 _atom_site_fract_z
 _atom_site_occupancy
  Mn  Mn0  1  0.884833  0.646190  0.646190  1
  Mn  Mn1  1  0.608245  0.885856  0.885856  1
  Mn  Mn2  1  0.762932  0.254497  0.254497  1
  Mn  Mn3  1  0.500000  0.500000  0.500000  1
  Mn  Mn4  1  0.237068  0.745502  0.745502  1
  Mn  Mn5  1  0.391755  0.114144  0.114144  1
  Mn  Mn6  1  0.115167  0.353810  0.353810  1
  Mn  Mn7  1  0.000000  0.000000  0.000000  1
  O  O8  1  0.500000  0.188065  0.811935  1
  O  O9  1  0.972432  0.205709  0.205709  1
  O  O10  1  0.027568  0.794291  0.794291  1
  O  O11  1  0.500000  0.811935  0.188065  1
  F  F12  1  0.732605  0.575497  0.952862  1
  F  F13  1  0.732605  0.952862  0.575497  1
  F  F14  1  0.458079  0.721678  0.721678  1
  F  F15  1  0.734446  0.483059  0.483059  1
  F  F16  1  0.218641  0.976673  0.976673  1
  F  F17  1  0.781359  0.023327  0.023327  1
  F  F18  1  0.265554  0.516941  0.516941  1
  F  F19  1  0.541921  0.278322  0.278322  1
  F  F20  1  0.000000  0.306240  0.693760  1
  F  F21  1  0.267395  0.047138  0.424503  1
  F  F22  1  0.000000  0.693760  0.306240  1
  F  F23  1  0.267395  0.424503  0.047138  1
