# generated using pymatgen
data_Co3(OF2)2
_symmetry_space_group_name_H-M   'P 1'
_cell_length_a   4.66753222
_cell_length_b   7.63225513
_cell_length_c   5.61794661
_cell_angle_alpha   93.21509852
_cell_angle_beta   91.17849473
_cell_angle_gamma   88.40667656
_symmetry_Int_Tables_number   1
_chemical_formula_structural   Co3(OF2)2
_chemical_formula_sum   'Co6 O4 F8'
_cell_volume   199.70409853
_cell_formula_units_Z   2
loop_
 _symmetry_equiv_pos_site_id
 _symmetry_equiv_pos_as_xyz
  1  'x, y, z'
loop_
 _atom_site_type_symbol
 _atom_site_label
 _atom_site_symmetry_multiplicity
 _atom_site_fract_x
 _atom_site_fract_y
 _atom_site_fract_z
 _atom_site_occupancy
  Co  Co0  1  0.486302  0.005481  0.491640  1
  Co  Co1  1  0.493233  0.335825  0.835106  1
  Co  Co2  1  0.538257  0.665973  0.175911  1
  Co  Co3  1  0.970671  0.674739  0.669157  1
  Co  Co4  1  0.006154  0.338227  0.328583  1
  Co  Co5  1  0.973891  0.977785  0.003362  1
  O  O6  1  0.791348  0.762447  0.980378  1
  O  O7  1  0.684522  0.773446  0.452533  1
  O  O8  1  0.713070  0.445784  0.150144  1
  O  O9  1  0.302223  0.228556  0.520729  1
  F  F10  1  0.818086  0.432296  0.640683  1
  F  F11  1  0.799093  0.101205  0.288717  1
  F  F12  1  0.699485  0.097541  0.788075  1
  F  F13  1  0.311166  0.578681  0.886383  1
  F  F14  1  0.311380  0.887800  0.188861  1
  F  F15  1  0.189130  0.217598  0.029322  1
  F  F16  1  0.185251  0.904515  0.702540  1
  F  F17  1  0.226738  0.572102  0.367877  1
