# generated using pymatgen
data_Na3CaAl3Si3CO15
_symmetry_space_group_name_H-M   'P 1'
_cell_length_a   12.55402264
_cell_length_b   12.55402258
_cell_length_c   5.73906147
_cell_angle_alpha   90.00000000
_cell_angle_beta   90.00000000
_cell_angle_gamma   120.00000014
_symmetry_Int_Tables_number   1
_chemical_formula_structural   Na3CaAl3Si3CO15
_chemical_formula_sum   'Na6 Ca2 Al6 Si6 C2 O30'
_cell_volume   783.31658259
_cell_formula_units_Z   2
loop_
 _symmetry_equiv_pos_site_id
 _symmetry_equiv_pos_as_xyz
  1  'x, y, z'
loop_
 _atom_site_type_symbol
 _atom_site_label
 _atom_site_symmetry_multiplicity
 _atom_site_fract_x
 _atom_site_fract_y
 _atom_site_fract_z
 _atom_site_occupancy
  Na  Na0  1  0.969972  0.481983  0.692699  1
  Na  Na1  1  0.030028  0.518017  0.192699  1
  Na  Na2  1  0.518017  0.487990  0.692699  1
  Na  Na3  1  0.481983  0.512010  0.192699  1
  Na  Na4  1  0.487990  0.969972  0.192699  1
  Na  Na5  1  0.512010  0.030028  0.692699  1
  Ca  Ca6  1  0.333333  0.666667  0.664310  1
  Ca  Ca7  1  0.666667  0.333333  0.164310  1
  Al  Al8  1  0.004025  0.741045  0.220099  1
  Al  Al9  1  0.262980  0.004025  0.720099  1
  Al  Al10  1  0.741045  0.737020  0.720099  1
  Al  Al11  1  0.258955  0.262980  0.220099  1
  Al  Al12  1  0.737020  0.995975  0.220099  1
  Al  Al13  1  0.995975  0.258955  0.720099  1
  Si  Si14  1  0.269495  0.003360  0.220580  1
  Si  Si15  1  0.266134  0.269495  0.720580  1
  Si  Si16  1  0.003360  0.733866  0.720580  1
  Si  Si17  1  -0.003360  0.266134  0.220580  1
  Si  Si18  1  0.733866  0.730505  0.220580  1
  Si  Si19  1  0.730505  -0.003360  0.720580  1
  C  C20  1  0.333333  0.666667  0.277452  1
  C  C21  1  0.666667  0.333333  0.777452  1
  O  O22  1  0.626396  0.217065  0.804416  1
  O  O23  1  0.409331  0.626396  0.304416  1
  O  O24  1  0.648472  -0.009354  0.959136  1
  O  O25  1  0.653451  0.000117  0.479974  1
  O  O26  1  0.733020  0.869807  0.716036  1
  O  O27  1  0.746922  0.863941  0.226524  1
  O  O28  1  0.869807  0.136787  0.216036  1
  O  O29  1  0.653334  0.653451  -0.020026  1
  O  O30  1  0.657826  0.648472  0.459136  1
  O  O31  1  0.863941  0.117019  0.726524  1
  O  O32  1  -0.009354  0.342174  0.459136  1
  O  O33  1  0.000117  0.346666  -0.020026  1
  O  O34  1  0.217065  0.590669  0.304416  1
  O  O35  1  0.882981  0.746922  0.726524  1
  O  O36  1  0.863213  0.733020  0.216036  1
  O  O37  1  0.136787  0.266980  0.716036  1
  O  O38  1  0.117019  0.253078  0.226524  1
  O  O39  1  0.782935  0.409331  0.804416  1
  O  O40  1  -0.000117  0.653334  0.479974  1
  O  O41  1  0.009354  0.657826  0.959136  1
  O  O42  1  0.136059  0.882981  0.226524  1
  O  O43  1  0.342174  0.351528  0.959136  1
  O  O44  1  0.346666  0.346549  0.479974  1
  O  O45  1  0.130192  0.863213  0.716036  1
  O  O46  1  0.253078  0.136059  0.726524  1
  O  O47  1  0.266980  0.130192  0.216036  1
  O  O48  1  0.346549  -0.000117  -0.020026  1
  O  O49  1  0.351528  0.009354  0.459136  1
  O  O50  1  0.590669  0.373604  0.804416  1
  O  O51  1  0.373604  0.782935  0.304416  1
