# generated using pymatgen
data_H10C5S2N2(O2F3)2
_symmetry_space_group_name_H-M   'P 1'
_cell_length_a   7.74026520
_cell_length_b   14.48547241
_cell_length_c   12.73333590
_cell_angle_alpha   90.00000000
_cell_angle_beta   106.52928476
_cell_angle_gamma   90.00000000
_symmetry_Int_Tables_number   1
_chemical_formula_structural   H10C5S2N2(O2F3)2
_chemical_formula_sum   'H40 C20 S8 N8 O16 F24'
_cell_volume   1368.67977856
_cell_formula_units_Z   4
loop_
 _symmetry_equiv_pos_site_id
 _symmetry_equiv_pos_as_xyz
  1  'x, y, z'
loop_
 _atom_site_type_symbol
 _atom_site_label
 _atom_site_symmetry_multiplicity
 _atom_site_fract_x
 _atom_site_fract_y
 _atom_site_fract_z
 _atom_site_occupancy
  H  H0  1  0.103929  0.182045  0.415921  1
  H  H1  1  0.896071  0.682045  0.084079  1
  H  H2  1  0.896071  0.817955  0.584079  1
  H  H3  1  0.103929  0.317955  0.915921  1
  H  H4  1  0.369774  0.218134  0.368904  1
  H  H5  1  0.630226  0.718134  0.131096  1
  H  H6  1  0.630226  0.781866  0.631096  1
  H  H7  1  0.369774  0.281866  0.868904  1
  H  H8  1  0.306881  0.309118  0.446929  1
  H  H9  1  0.693119  0.809118  0.053071  1
  H  H10  1  0.693119  0.690882  0.553071  1
  H  H11  1  0.306881  0.190882  0.946929  1
  H  H12  1  0.488803  0.231735  0.511964  1
  H  H13  1  0.511197  0.731735  0.988036  1
  H  H14  1  0.511197  0.768265  0.488036  1
  H  H15  1  0.488803  0.268265  0.011964  1
  H  H16  1  0.145553  0.274155  0.576631  1
  H  H17  1  0.854447  0.774155  0.923369  1
  H  H18  1  0.854447  0.725845  0.423369  1
  H  H19  1  0.145553  0.225845  0.076631  1
  H  H20  1  0.080996  0.157151  0.594101  1
  H  H21  1  0.919004  0.657151  0.905899  1
  H  H22  1  0.919004  0.842849  0.405899  1
  H  H23  1  0.080996  0.342849  0.094101  1
  H  H24  1  0.312563  0.193179  0.650002  1
  H  H25  1  0.687437  0.693179  0.849998  1
  H  H26  1  0.687437  0.806821  0.349998  1
  H  H27  1  0.312563  0.306821  0.150002  1
  H  H28  1  0.410153  0.068654  0.543677  1
  H  H29  1  0.589847  0.568654  0.956323  1
  H  H30  1  0.589847  0.931346  0.456323  1
  H  H31  1  0.410153  0.431346  0.043677  1
  H  H32  1  0.301460  0.061543  0.398510  1
  H  H33  1  0.698540  0.561543  0.101490  1
  H  H34  1  0.698540  0.938457  0.601490  1
  H  H35  1  0.301460  0.438457  0.898510  1
  H  H36  1  0.178752  0.032731  0.494969  1
  H  H37  1  0.821248  0.532731  0.005031  1
  H  H38  1  0.821248  0.967269  0.505031  1
  H  H39  1  0.178752  0.467269  0.994969  1
  C  C40  1  0.746336  0.364641  0.362360  1
  C  C41  1  0.253664  0.864641  0.137640  1
  C  C42  1  0.253664  0.635359  0.637640  1
  C  C43  1  0.746336  0.135359  0.862360  1
  C  C44  1  0.772224  0.048585  0.180208  1
  C  C45  1  0.227776  0.548585  0.319792  1
  C  C46  1  0.227776  0.951415  0.819792  1
  C  C47  1  0.772224  0.451415  0.680208  1
  C  C48  1  0.188407  0.201809  0.582692  1
  C  C49  1  0.811593  0.701809  0.917308  1
  C  C50  1  0.811593  0.798191  0.417308  1
  C  C51  1  0.188407  0.298191  0.082692  1
  C  C52  1  0.358317  0.238534  0.449511  1
  C  C53  1  0.641683  0.738534  0.050489  1
  C  C54  1  0.641683  0.761466  0.550489  1
  C  C55  1  0.358317  0.261466  0.949511  1
  C  C56  1  0.282886  0.077033  0.478761  1
  C  C57  1  0.717114  0.577033  0.021239  1
  C  C58  1  0.717114  0.922967  0.521239  1
  C  C59  1  0.282886  0.422967  0.978761  1
  S  S60  1  0.797329  0.300270  0.246739  1
  S  S61  1  0.202671  0.800270  0.253261  1
  S  S62  1  0.202671  0.699730  0.753261  1
  S  S63  1  0.797329  0.199730  0.746739  1
  S  S64  1  0.699307  0.117813  0.284557  1
  S  S65  1  0.300693  0.617813  0.215443  1
  S  S66  1  0.300693  0.882187  0.715443  1
  S  S67  1  0.699307  0.382187  0.784557  1
  N  N68  1  0.224908  0.175538  0.477521  1
  N  N69  1  0.775092  0.675538  0.022479  1
  N  N70  1  0.775092  0.824462  0.522479  1
  N  N71  1  0.224908  0.324462  0.977521  1
  N  N72  1  0.657752  0.216707  0.227868  1
  N  N73  1  0.342248  0.716707  0.272132  1
  N  N74  1  0.342248  0.783293  0.772132  1
  N  N75  1  0.657752  0.283293  0.727868  1
  O  O76  1  0.986660  0.275819  0.288655  1
  O  O77  1  0.013340  0.775819  0.211345  1
  O  O78  1  0.013340  0.724181  0.711345  1
  O  O79  1  0.986660  0.224181  0.788655  1
  O  O80  1  0.744682  0.362150  0.154331  1
  O  O81  1  0.255318  0.862150  0.345669  1
  O  O82  1  0.255318  0.637850  0.845669  1
  O  O83  1  0.744682  0.137850  0.654331  1
  O  O84  1  0.853692  0.112791  0.381576  1
  O  O85  1  0.146308  0.612791  0.118424  1
  O  O86  1  0.146308  0.887209  0.618424  1
  O  O87  1  0.853692  0.387209  0.881576  1
  O  O88  1  0.532920  0.076021  0.289244  1
  O  O89  1  0.467080  0.576021  0.210756  1
  O  O90  1  0.467080  0.923979  0.710756  1
  O  O91  1  0.532920  0.423979  0.789244  1
  F  F92  1  0.784345  0.310309  0.453065  1
  F  F93  1  0.215655  0.810309  0.046935  1
  F  F94  1  0.215655  0.689691  0.546935  1
  F  F95  1  0.784345  0.189691  0.953065  1
  F  F96  1  0.570341  0.388342  0.336376  1
  F  F97  1  0.429659  0.888342  0.163624  1
  F  F98  1  0.429659  0.611658  0.663624  1
  F  F99  1  0.570341  0.111658  0.836376  1
  F  F100  1  0.847486  0.441963  0.386103  1
  F  F101  1  0.152514  0.941963  0.113897  1
  F  F102  1  0.152514  0.558037  0.613897  1
  F  F103  1  0.847486  0.058037  0.886103  1
  F  F104  1  0.923613  0.085289  0.164019  1
  F  F105  1  0.076387  0.585289  0.335981  1
  F  F106  1  0.076387  0.914711  0.835981  1
  F  F107  1  0.923613  0.414711  0.664019  1
  F  F108  1  0.808316  0.960721  0.216372  1
  F  F109  1  0.191684  0.460721  0.283628  1
  F  F110  1  0.191684  0.039279  0.783628  1
  F  F111  1  0.808316  0.539279  0.716372  1
  F  F112  1  0.642462  0.046376  0.083352  1
  F  F113  1  0.357538  0.546376  0.416648  1
  F  F114  1  0.357538  0.953624  0.916648  1
  F  F115  1  0.642462  0.453624  0.583352  1
