# generated using pymatgen
data_Li3Fe3NiO8
_symmetry_space_group_name_H-M   'P 1'
_cell_length_a   5.97447394
_cell_length_b   5.94538596
_cell_length_c   5.91709587
_cell_angle_alpha   120.19913939
_cell_angle_beta   60.08227169
_cell_angle_gamma   90.05938866
_symmetry_Int_Tables_number   1
_chemical_formula_structural   Li3Fe3NiO8
_chemical_formula_sum   'Li3 Fe3 Ni1 O8'
_cell_volume   148.43209853
_cell_formula_units_Z   1
loop_
 _symmetry_equiv_pos_site_id
 _symmetry_equiv_pos_as_xyz
  1  'x, y, z'
loop_
 _atom_site_type_symbol
 _atom_site_label
 _atom_site_symmetry_multiplicity
 _atom_site_fract_x
 _atom_site_fract_y
 _atom_site_fract_z
 _atom_site_occupancy
  Li  Li0  1  0.500001  -0.000001  0.500000  1
  Li  Li1  1  0.500000  0.499999  0.499998  1
  Li  Li2  1  0.499998  0.499999  -0.000000  1
  Fe  Fe3  1  -0.000004  -0.000020  0.499981  1
  Fe  Fe4  1  0.000016  0.500007  0.500006  1
  Fe  Fe5  1  -0.000007  0.500022  0.000020  1
  Ni  Ni6  1  -0.000001  -0.000003  -0.000000  1
  O  O7  1  0.217924  0.277823  0.012771  1
  O  O8  1  0.223376  0.266790  0.533573  1
  O  O9  1  0.223570  0.755641  0.511406  1
  O  O10  1  0.217647  0.734427  0.012540  1
  O  O11  1  0.782352  0.265573  0.987461  1
  O  O12  1  0.776429  0.244358  0.488594  1
  O  O13  1  0.776626  0.733209  0.466423  1
  O  O14  1  0.782075  0.722175  0.987227  1
