# generated using pymatgen
data_Ba4In2O7
_symmetry_space_group_name_H-M   'P 1'
_cell_length_a   6.02921942
_cell_length_b   14.86090737
_cell_length_c   6.04465507
_cell_angle_alpha   89.95623892
_cell_angle_beta   90.00303057
_cell_angle_gamma   101.76825917
_symmetry_Int_Tables_number   1
_chemical_formula_structural   Ba4In2O7
_chemical_formula_sum   'Ba8 In4 O14'
_cell_volume   530.21482073
_cell_formula_units_Z   2
loop_
 _symmetry_equiv_pos_site_id
 _symmetry_equiv_pos_as_xyz
  1  'x, y, z'
loop_
 _atom_site_type_symbol
 _atom_site_label
 _atom_site_symmetry_multiplicity
 _atom_site_fract_x
 _atom_site_fract_y
 _atom_site_fract_z
 _atom_site_occupancy
  Ba  Ba0  1  0.931915  0.860944  0.999315  1
  Ba  Ba1  1  0.801576  0.602771  0.999864  1
  Ba  Ba2  1  0.568085  0.139056  0.500685  1
  Ba  Ba3  1  0.698424  0.397229  0.500136  1
  Ba  Ba4  1  0.068645  0.140379  0.000949  1
  Ba  Ba5  1  0.202886  0.406596  0.000536  1
  Ba  Ba6  1  0.297114  0.593404  0.499464  1
  Ba  Ba7  1  0.431355  0.859621  0.499051  1
  In  In8  1  0.642057  0.285850  0.000091  1
  In  In9  1  0.371715  0.741970  0.999582  1
  In  In10  1  0.857943  0.714150  0.499909  1
  In  In11  1  0.128285  0.258030  0.500418  1
  O  O12  1  0.865869  0.250204  0.242004  1
  O  O13  1  0.714943  0.429572  0.999647  1
  O  O14  1  0.865827  0.250093  0.758561  1
  O  O15  1  0.785057  0.570428  0.500353  1
  O  O16  1  0.382870  0.250285  0.242109  1
  O  O17  1  0.294411  0.588274  0.000176  1
  O  O18  1  0.634131  0.749796  0.257996  1
  O  O19  1  0.448570  0.896171  0.999670  1
  O  O20  1  0.382725  0.250164  0.758403  1
  O  O21  1  0.634173  0.749907  0.741439  1
  O  O22  1  0.117130  0.749715  0.257891  1
  O  O23  1  0.205589  0.411726  0.499824  1
  O  O24  1  0.051430  0.103829  0.500330  1
  O  O25  1  0.117275  0.749836  0.741597  1
