# generated using pymatgen
data_MnSn(PO4)2
_symmetry_space_group_name_H-M   'P 1'
_cell_length_a   10.19477871
_cell_length_b   6.11676256
_cell_length_c   5.05329552
_cell_angle_alpha   90.00000000
_cell_angle_beta   89.75899716
_cell_angle_gamma   90.00000000
_symmetry_Int_Tables_number   1
_chemical_formula_structural   MnSn(PO4)2
_chemical_formula_sum   'Mn2 Sn2 P4 O16'
_cell_volume   315.11587365
_cell_formula_units_Z   2
loop_
 _symmetry_equiv_pos_site_id
 _symmetry_equiv_pos_as_xyz
  1  'x, y, z'
loop_
 _atom_site_type_symbol
 _atom_site_label
 _atom_site_symmetry_multiplicity
 _atom_site_fract_x
 _atom_site_fract_y
 _atom_site_fract_z
 _atom_site_occupancy
  Mn  Mn0  1  0.227140  0.750000  0.455451  1
  Mn  Mn1  1  0.772860  0.250000  0.544549  1
  Sn  Sn2  1  0.278565  0.250000  0.965710  1
  Sn  Sn3  1  0.721435  0.750000  0.034290  1
  P  P4  1  0.099303  0.250000  0.400998  1
  P  P5  1  0.406689  0.750000  0.922743  1
  P  P6  1  0.593311  0.250000  0.077257  1
  P  P7  1  0.900697  0.750000  0.599002  1
  O  O8  1  0.046152  0.750000  0.645188  1
  O  O9  1  0.128111  0.250000  0.702238  1
  O  O10  1  0.173658  0.055443  0.254007  1
  O  O11  1  0.173658  0.444557  0.254007  1
  O  O12  1  0.333369  0.949666  0.787050  1
  O  O13  1  0.333369  0.550334  0.787050  1
  O  O14  1  0.396818  0.750000  0.220035  1
  O  O15  1  0.448499  0.250000  0.176828  1
  O  O16  1  0.551501  0.750000  0.823172  1
  O  O17  1  0.603182  0.250000  0.779965  1
  O  O18  1  0.666631  0.050334  0.212950  1
  O  O19  1  0.666631  0.449666  0.212950  1
  O  O20  1  0.826342  0.555443  0.745993  1
  O  O21  1  0.826342  0.944557  0.745993  1
  O  O22  1  0.871889  0.750000  0.297762  1
  O  O23  1  0.953848  0.250000  0.354812  1
