# generated using pymatgen
data_Y2CuH5S2O12F
_symmetry_space_group_name_H-M   'P 1'
_cell_length_a   12.87591166
_cell_length_b   6.81364798
_cell_length_c   13.16631538
_cell_angle_alpha   90.00000000
_cell_angle_beta   101.56397922
_cell_angle_gamma   90.00000000
_symmetry_Int_Tables_number   1
_chemical_formula_structural   Y2CuH5S2O12F
_chemical_formula_sum   'Y8 Cu4 H20 S8 O48 F4'
_cell_volume   1131.65929413
_cell_formula_units_Z   4
loop_
 _symmetry_equiv_pos_site_id
 _symmetry_equiv_pos_as_xyz
  1  'x, y, z'
loop_
 _atom_site_type_symbol
 _atom_site_label
 _atom_site_symmetry_multiplicity
 _atom_site_fract_x
 _atom_site_fract_y
 _atom_site_fract_z
 _atom_site_occupancy
  Y  Y0  1  0.188443  0.797599  0.963689  1
  Y  Y1  1  0.688443  0.702401  0.463689  1
  Y  Y2  1  0.811557  0.202401  0.036311  1
  Y  Y3  1  0.311557  0.297599  0.536311  1
  Y  Y4  1  0.995752  0.738065  0.680936  1
  Y  Y5  1  0.495752  0.761935  0.180936  1
  Y  Y6  1  0.004248  0.261935  0.319064  1
  Y  Y7  1  0.504248  0.238065  0.819064  1
  Cu  Cu8  1  0.226167  0.578581  0.738547  1
  Cu  Cu9  1  0.726167  0.921419  0.238547  1
  Cu  Cu10  1  0.773833  0.421419  0.261453  1
  Cu  Cu11  1  0.273833  0.078581  0.761453  1
  H  H12  1  0.248936  0.804313  0.211260  1
  H  H13  1  0.748936  0.695687  0.711260  1
  H  H14  1  0.751064  0.195687  0.788740  1
  H  H15  1  0.251064  0.304313  0.288740  1
  H  H16  1  0.033321  0.265883  0.887412  1
  H  H17  1  0.533321  0.234117  0.387412  1
  H  H18  1  0.966679  0.734117  0.112588  1
  H  H19  1  0.466679  0.765883  0.612588  1
  H  H20  1  0.013950  0.203192  0.762958  1
  H  H21  1  0.513950  0.296808  0.262958  1
  H  H22  1  0.986050  0.796808  0.237042  1
  H  H23  1  0.486050  0.703192  0.737042  1
  H  H24  1  0.085713  0.733664  0.184717  1
  H  H25  1  0.585713  0.766336  0.684717  1
  H  H26  1  0.914287  0.266336  0.815283  1
  H  H27  1  0.414287  0.233664  0.315283  1
  H  H28  1  0.336664  0.477181  0.309033  1
  H  H29  1  0.836664  0.022819  0.809033  1
  H  H30  1  0.663336  0.522819  0.690967  1
  H  H31  1  0.163336  0.977181  0.190967  1
  S  S32  1  0.970192  0.771403  0.414126  1
  S  S33  1  0.470192  0.728597  0.914126  1
  S  S34  1  0.029808  0.228597  0.585874  1
  S  S35  1  0.529808  0.271403  0.085874  1
  S  S36  1  0.887846  0.726821  0.923152  1
  S  S37  1  0.387846  0.773179  0.423152  1
  S  S38  1  0.112154  0.273179  0.076848  1
  S  S39  1  0.612154  0.226821  0.576848  1
  O  O40  1  0.355494  0.697782  0.905453  1
  O  O41  1  0.855494  0.802218  0.405453  1
  O  O42  1  0.644506  0.302218  0.094547  1
  O  O43  1  0.144506  0.197782  0.594547  1
  O  O44  1  0.031600  0.802817  0.520110  1
  O  O45  1  0.531600  0.697183  0.020110  1
  O  O46  1  0.968400  0.197183  0.479890  1
  O  O47  1  0.468400  0.302817  0.979890  1
  O  O48  1  0.992172  0.083785  0.659192  1
  O  O49  1  0.492172  0.416215  0.159192  1
  O  O50  1  0.007828  0.916215  0.340808  1
  O  O51  1  0.507828  0.583785  0.840808  1
  O  O52  1  0.006413  0.426364  0.621063  1
  O  O53  1  0.506413  0.073636  0.121063  1
  O  O54  1  0.993587  0.573636  0.378937  1
  O  O55  1  0.493587  0.926364  0.878937  1
  O  O56  1  0.001340  0.750687  0.976718  1
  O  O57  1  0.501340  0.749313  0.476718  1
  O  O58  1  0.998660  0.249313  0.023282  1
  O  O59  1  0.498660  0.250687  0.523282  1
  O  O60  1  0.882103  0.770664  0.807405  1
  O  O61  1  0.382103  0.729336  0.307405  1
  O  O62  1  0.117897  0.229336  0.192595  1
  O  O63  1  0.617897  0.270664  0.692595  1
  O  O64  1  0.847142  0.529483  0.934474  1
  O  O65  1  0.347142  0.970517  0.434474  1
  O  O66  1  0.152858  0.470517  0.065526  1
  O  O67  1  0.652858  0.029483  0.565526  1
  O  O68  1  0.823973  0.875698  0.964491  1
  O  O69  1  0.323973  0.624302  0.464491  1
  O  O70  1  0.176027  0.124302  0.035509  1
  O  O71  1  0.676027  0.375698  0.535509  1
  O  O72  1  0.174830  0.836199  0.179627  1
  O  O73  1  0.674830  0.663801  0.679627  1
  O  O74  1  0.825170  0.163801  0.820373  1
  O  O75  1  0.325170  0.336199  0.320373  1
  O  O76  1  0.125957  0.656294  0.808191  1
  O  O77  1  0.625957  0.843706  0.308191  1
  O  O78  1  0.874043  0.343706  0.191809  1
  O  O79  1  0.374043  0.156294  0.691809  1
  O  O80  1  0.186484  0.008224  0.841041  1
  O  O81  1  0.686484  0.491776  0.341041  1
  O  O82  1  0.813516  0.991776  0.158959  1
  O  O83  1  0.313516  0.508224  0.658959  1
  O  O84  1  0.003699  0.699746  0.183403  1
  O  O85  1  0.503699  0.800254  0.683403  1
  O  O86  1  0.996301  0.300254  0.816597  1
  O  O87  1  0.496301  0.199746  0.316597  1
  F  F88  1  0.333739  0.795205  0.093766  1
  F  F89  1  0.833739  0.704795  0.593766  1
  F  F90  1  0.666261  0.204795  0.906234  1
  F  F91  1  0.166261  0.295205  0.406234  1
