# generated using pymatgen
data_Li2Fe3(SiO4)2
_symmetry_space_group_name_H-M   'P 1'
_cell_length_a   5.06315726
_cell_length_b   8.94267930
_cell_length_c   13.58591748
_cell_angle_alpha   69.85444734
_cell_angle_beta   80.13441802
_cell_angle_gamma   89.03940748
_symmetry_Int_Tables_number   1
_chemical_formula_structural   Li2Fe3(SiO4)2
_chemical_formula_sum   'Li6 Fe9 Si6 O24'
_cell_volume   568.37785137
_cell_formula_units_Z   3
loop_
 _symmetry_equiv_pos_site_id
 _symmetry_equiv_pos_as_xyz
  1  'x, y, z'
loop_
 _atom_site_type_symbol
 _atom_site_label
 _atom_site_symmetry_multiplicity
 _atom_site_fract_x
 _atom_site_fract_y
 _atom_site_fract_z
 _atom_site_occupancy
  Li  Li0  1  0.455921  0.415376  0.222269  1
  Li  Li1  1  0.385621  0.062312  0.314109  1
  Li  Li2  1  0.257434  0.946734  0.531056  1
  Li  Li3  1  0.481083  0.759985  0.143566  1
  Li  Li4  1  0.732467  0.011570  0.641516  1
  Li  Li5  1  0.627387  0.869001  0.901158  1
  Fe  Fe6  1  0.012379  0.980823  0.005355  1
  Fe  Fe7  1  0.274535  0.283762  0.506343  1
  Fe  Fe8  1  0.200538  0.736227  0.813460  1
  Fe  Fe9  1  0.287698  0.482240  0.654109  1
  Fe  Fe10  1  0.929579  0.234273  0.167018  1
  Fe  Fe11  1  0.594873  0.501875  0.964106  1
  Fe  Fe12  1  0.691366  0.263022  0.810475  1
  Fe  Fe13  1  0.923343  0.565443  0.309023  1
  Fe  Fe14  1  0.849974  0.827980  0.459697  1
  Si  Si15  1  0.026999  0.613697  0.066003  1
  Si  Si16  1  0.493459  0.132766  0.065245  1
  Si  Si17  1  0.197589  0.096535  0.749369  1
  Si  Si18  1  0.378503  0.676598  0.398087  1
  Si  Si19  1  0.825330  0.188511  0.406149  1
  Si  Si20  1  0.757262  0.648400  0.713704  1
  O  O21  1  0.043562  0.048987  0.411162  1
  O  O22  1  0.006963  0.344359  0.402006  1
  O  O23  1  0.174277  0.579535  0.170108  1
  O  O24  1  0.071347  0.713309  0.374339  1
  O  O25  1  0.378278  0.979307  0.041623  1
  O  O26  1  0.071202  0.117519  0.642482  1
  O  O27  1  0.313260  0.180762  0.162021  1
  O  O28  1  0.379401  0.508035  0.500979  1
  O  O29  1  0.399658  0.945687  0.777708  1
  O  O30  1  0.476208  0.829107  0.427911  1
  O  O31  1  0.558581  0.648960  0.292981  1
  O  O32  1  0.382674  0.254741  0.735885  1
  O  O33  1  0.279580  0.643790  0.965155  1
  O  O34  1  0.429647  0.629360  0.720234  1
  O  O35  1  0.787931  0.086097  0.100362  1
  O  O36  1  0.579892  0.128895  0.510170  1
  O  O37  1  0.678845  0.236280  0.299732  1
  O  O38  1  0.822357  0.460484  0.081822  1
  O  O39  1  0.830629  0.766190  0.039215  1
  O  O40  1  0.531242  0.290254  0.952183  1
  O  O41  1  0.892061  0.803412  0.613438  1
  O  O42  1  0.808635  0.674548  0.825510  1
  O  O43  1  0.881264  0.477398  0.711013  1
  O  O44  1  0.936268  0.068754  0.849341  1
