# generated using pymatgen
data_Li4Fe3Cu3(SbO8)2
_symmetry_space_group_name_H-M   'P 1'
_cell_length_a   5.97985163
_cell_length_b   5.96076868
_cell_length_c   9.73722511
_cell_angle_alpha   89.99738058
_cell_angle_beta   89.60489983
_cell_angle_gamma   119.88977465
_symmetry_Int_Tables_number   1
_chemical_formula_structural   Li4Fe3Cu3(SbO8)2
_chemical_formula_sum   'Li4 Fe3 Cu3 Sb2 O16'
_cell_volume   300.90263601
_cell_formula_units_Z   1
loop_
 _symmetry_equiv_pos_site_id
 _symmetry_equiv_pos_as_xyz
  1  'x, y, z'
loop_
 _atom_site_type_symbol
 _atom_site_label
 _atom_site_symmetry_multiplicity
 _atom_site_fract_x
 _atom_site_fract_y
 _atom_site_fract_z
 _atom_site_occupancy
  Li  Li0  1  0.321151  0.660499  0.905991  1
  Li  Li1  1  0.999254  0.999415  0.990486  1
  Li  Li2  1  0.009441  0.004851  0.487461  1
  Li  Li3  1  0.671992  0.336036  0.403840  1
  Fe  Fe4  1  0.660516  0.830274  0.213307  1
  Fe  Fe5  1  0.830095  0.660538  0.713828  1
  Fe  Fe6  1  0.830199  0.169737  0.713780  1
  Cu  Cu7  1  0.173557  0.832747  0.213319  1
  Cu  Cu8  1  0.173554  0.340921  0.213351  1
  Cu  Cu9  1  0.341933  0.170957  0.712169  1
  Sb  Sb10  1  0.338590  0.669388  0.486509  1
  Sb  Sb11  1  0.660514  0.330205  0.986940  1
  O  O12  1  0.162235  0.829434  0.592877  1
  O  O13  1  0.042155  0.521342  0.344650  1
  O  O14  1  0.326606  0.663389  0.113273  1
  O  O15  1  0.008368  0.004059  0.297656  1
  O  O16  1  0.007507  0.003752  0.801391  1
  O  O17  1  0.162186  0.332986  0.592838  1
  O  O18  1  0.495368  0.970539  0.349589  1
  O  O19  1  0.494785  0.524392  0.349379  1
  O  O20  1  0.322600  0.161176  0.093090  1
  O  O21  1  0.668249  0.834117  0.596487  1
  O  O22  1  0.515577  0.484398  0.846699  1
  O  O23  1  0.515819  0.031108  0.846764  1
  O  O24  1  0.665588  0.332904  0.608542  1
  O  O25  1  0.820730  0.663389  0.093114  1
  O  O26  1  0.960216  0.480110  0.847273  1
  O  O27  1  0.821213  0.157637  0.093236  1
