# generated using pymatgen
data_Li4Sb2C4SO16
_symmetry_space_group_name_H-M   'P 1'
_cell_length_a   10.40217285
_cell_length_b   9.58041892
_cell_length_c   9.81322722
_cell_angle_alpha   116.77209739
_cell_angle_beta   57.27250172
_cell_angle_gamma   119.51876577
_symmetry_Int_Tables_number   1
_chemical_formula_structural   Li4Sb2C4SO16
_chemical_formula_sum   'Li8 Sb4 C8 S2 O32'
_cell_volume   692.91748344
_cell_formula_units_Z   2
loop_
 _symmetry_equiv_pos_site_id
 _symmetry_equiv_pos_as_xyz
  1  'x, y, z'
loop_
 _atom_site_type_symbol
 _atom_site_label
 _atom_site_symmetry_multiplicity
 _atom_site_fract_x
 _atom_site_fract_y
 _atom_site_fract_z
 _atom_site_occupancy
  Li  Li0  1  0.929523  0.174997  0.320460  1
  Li  Li1  1  0.919827  0.147220  0.939102  1
  Li  Li2  1  0.935665  0.568163  0.286416  1
  Li  Li3  1  0.731232  0.454688  0.074507  1
  Li  Li4  1  0.298839  0.168147  0.928764  1
  Li  Li5  1  0.374005  0.595773  0.961712  1
  Li  Li6  1  0.060955  0.441386  0.671962  1
  Li  Li7  1  0.090861  0.800886  0.673891  1
  Sb  Sb8  1  0.488922  0.009053  0.012857  1
  Sb  Sb9  1  0.510394  0.013153  0.501801  1
  Sb  Sb10  1  0.492409  0.492063  0.488773  1
  Sb  Sb11  1  0.008807  0.975585  0.484617  1
  C  C12  1  0.726337  0.161606  0.697850  1
  C  C13  1  0.689702  0.242013  0.257597  1
  C  C14  1  0.255809  0.201618  0.677546  1
  C  C15  1  0.301781  0.257527  0.261380  1
  C  C16  1  0.696039  0.775539  0.735204  1
  C  C17  1  0.753711  0.790234  0.337091  1
  C  C18  1  0.322559  0.784719  0.758478  1
  C  C19  1  0.237729  0.799593  0.305536  1
  S  S20  1  0.871955  0.613856  0.862052  1
  S  S21  1  0.115733  0.368287  0.112768  1
  O  O22  1  0.863296  0.184217  0.682840  1
  O  O23  1  0.694013  0.113347  0.266449  1
  O  O24  1  0.711983  0.158467  0.570592  1
  O  O25  1  0.738046  0.264347  0.115890  1
  O  O26  1  0.593902  0.144061  0.836361  1
  O  O27  1  0.939021  0.558907  0.673270  1
  O  O28  1  0.943755  0.548928  0.911332  1
  O  O29  1  0.637228  0.348992  0.400925  1
  O  O30  1  0.370551  0.198235  0.693435  1
  O  O31  1  0.310246  0.142513  0.119631  1
  O  O32  1  0.930038  0.798057  0.905217  1
  O  O33  1  0.694127  0.540686  0.947018  1
  O  O34  1  0.824740  0.777981  0.586838  1
  O  O35  1  0.767196  0.646722  0.282525  1
  O  O36  1  0.444512  0.341845  0.274854  1
  O  O37  1  0.111225  0.101202  0.725282  1
  O  O38  1  0.583931  0.638847  0.753894  1
  O  O39  1  0.877627  0.927154  0.352395  1
  O  O40  1  0.287455  0.312388  0.609045  1
  O  O41  1  0.171878  0.280180  0.374898  1
  O  O42  1  0.291379  0.406859  0.058846  1
  O  O43  1  0.041861  0.181899  0.069781  1
  O  O44  1  0.616572  0.803876  0.385657  1
  O  O45  1  0.696200  0.916574  0.847518  1
  O  O46  1  0.280010  0.641260  0.668400  1
  O  O47  1  0.097740  0.443033  0.022478  1
  O  O48  1  0.026138  0.429455  0.296308  1
  O  O49  1  0.358747  0.771216  0.173128  1
  O  O50  1  0.366230  0.804060  0.872803  1
  O  O51  1  0.231194  0.853639  0.454468  1
  O  O52  1  0.327948  0.915813  0.742069  1
  O  O53  1  0.108418  0.785585  0.291945  1
