# generated using pymatgen
data_Li3VPCO7
_symmetry_space_group_name_H-M   'P 1'
_cell_length_a   8.65361966
_cell_length_b   9.69203224
_cell_length_c   6.50960524
_cell_angle_alpha   90.00000000
_cell_angle_beta   90.00000000
_cell_angle_gamma   88.08669730
_symmetry_Int_Tables_number   1
_chemical_formula_structural   Li3VPCO7
_chemical_formula_sum   'Li12 V4 P4 C4 O28'
_cell_volume   545.66376554
_cell_formula_units_Z   4
loop_
 _symmetry_equiv_pos_site_id
 _symmetry_equiv_pos_as_xyz
  1  'x, y, z'
loop_
 _atom_site_type_symbol
 _atom_site_label
 _atom_site_symmetry_multiplicity
 _atom_site_fract_x
 _atom_site_fract_y
 _atom_site_fract_z
 _atom_site_occupancy
  Li  Li0  1  0.110231  0.384436  0.241461  1
  Li  Li1  1  0.110231  0.884436  0.258539  1
  Li  Li2  1  0.290646  0.122547  0.483297  1
  Li  Li3  1  0.290646  0.622547  0.016703  1
  Li  Li4  1  0.371404  0.385228  0.756795  1
  Li  Li5  1  0.371404  0.885228  0.743205  1
  Li  Li6  1  0.628596  0.114772  0.243205  1
  Li  Li7  1  0.628596  0.614772  0.256795  1
  Li  Li8  1  0.709354  0.377453  0.516703  1
  Li  Li9  1  0.709354  0.877453  0.983297  1
  Li  Li10  1  0.889769  0.115564  0.758539  1
  Li  Li11  1  0.889769  0.615564  0.741461  1
  V  V12  1  0.248124  0.112714  0.981885  1
  V  V13  1  0.248124  0.612714  0.518115  1
  V  V14  1  0.751876  0.387286  0.018115  1
  V  V15  1  0.751876  0.887286  0.481885  1
  P  P16  1  0.407805  0.359085  0.239202  1
  P  P17  1  0.407805  0.859085  0.260798  1
  P  P18  1  0.592195  0.140915  0.760798  1
  P  P19  1  0.592195  0.640915  0.739202  1
  C  C20  1  0.053556  0.363788  0.743677  1
  C  C21  1  0.053556  0.863788  0.756323  1
  C  C22  1  0.946444  0.136212  0.256323  1
  C  C23  1  0.946444  0.636212  0.243677  1
  O  O24  1  0.074419  0.493670  0.704690  1
  O  O25  1  0.088764  0.176598  0.228859  1
  O  O26  1  0.074419  0.993670  0.795310  1
  O  O27  1  0.166613  0.274908  0.754097  1
  O  O28  1  0.088764  0.676598  0.271141  1
  O  O29  1  0.166613  0.774908  0.745903  1
  O  O30  1  0.312180  0.420543  0.058853  1
  O  O31  1  0.318371  0.404907  0.436622  1
  O  O32  1  0.318371  0.904907  0.063378  1
  O  O33  1  0.312180  0.920543  0.441147  1
  O  O34  1  0.422542  0.094172  0.750028  1
  O  O35  1  0.408557  0.197878  0.225338  1
  O  O36  1  0.422542  0.594172  0.749972  1
  O  O37  1  0.408557  0.697878  0.274662  1
  O  O38  1  0.591443  0.302122  0.774662  1
  O  O39  1  0.577458  0.405828  0.249972  1
  O  O40  1  0.591443  0.802122  0.725338  1
  O  O41  1  0.577458  0.905828  0.250028  1
  O  O42  1  0.687820  0.079457  0.941147  1
  O  O43  1  0.681629  0.095093  0.563378  1
  O  O44  1  0.687820  0.579457  0.558853  1
  O  O45  1  0.681629  0.595093  0.936622  1
  O  O46  1  0.833387  0.225092  0.245903  1
  O  O47  1  0.911236  0.323402  0.771141  1
  O  O48  1  0.833387  0.725092  0.254097  1
  O  O49  1  0.925581  0.006330  0.295310  1
  O  O50  1  0.911236  0.823402  0.728859  1
  O  O51  1  0.925581  0.506330  0.204690  1
