# generated using pymatgen
data_Li4Ti2V3(Fe2O9)2
_symmetry_space_group_name_H-M   'P 1'
_cell_length_a   9.13239903
_cell_length_b   25.56661385
_cell_length_c   2.96500481
_cell_angle_alpha   90.00000342
_cell_angle_beta   90.00008503
_cell_angle_gamma   90.00781054
_symmetry_Int_Tables_number   1
_chemical_formula_structural   Li4Ti2V3(Fe2O9)2
_chemical_formula_sum   'Li8 Ti4 V6 Fe8 O36'
_cell_volume   692.28271737
_cell_formula_units_Z   2
loop_
 _symmetry_equiv_pos_site_id
 _symmetry_equiv_pos_as_xyz
  1  'x, y, z'
loop_
 _atom_site_type_symbol
 _atom_site_label
 _atom_site_symmetry_multiplicity
 _atom_site_fract_x
 _atom_site_fract_y
 _atom_site_fract_z
 _atom_site_occupancy
  Li  Li0  1  0.196207  0.990622  0.000001  1
  Li  Li1  1  0.194106  0.185146  0.000003  1
  Li  Li2  1  0.305488  0.684977  0.999995  1
  Li  Li3  1  0.303953  0.490690  0.000000  1
  Li  Li4  1  0.696131  0.509275  0.000000  1
  Li  Li5  1  0.695409  0.315463  0.000002  1
  Li  Li6  1  0.804582  0.815290  0.999993  1
  Li  Li7  1  0.803946  0.009274  0.000001  1
  Ti  Ti8  1  0.996007  0.099698  0.999999  1
  Ti  Ti9  1  0.504062  0.599723  0.000001  1
  Ti  Ti10  1  0.496020  0.400279  0.999998  1
  Ti  Ti11  1  0.004006  0.900248  0.000002  1
  V  V12  1  0.000092  0.500012  0.999999  1
  V  V13  1  0.149883  0.809107  0.500001  1
  V  V14  1  0.349980  0.309153  0.500000  1
  V  V15  1  0.500005  0.000003  0.000000  1
  V  V16  1  0.650133  0.690874  0.499999  1
  V  V17  1  0.849835  0.190837  0.500000  1
  Fe  Fe18  1  0.007521  0.304570  0.000003  1
  Fe  Fe19  1  0.147679  0.587507  0.500001  1
  Fe  Fe20  1  0.352334  0.087493  0.499998  1
  Fe  Fe21  1  0.492347  0.804578  0.000001  1
  Fe  Fe22  1  0.507365  0.195387  0.000001  1
  Fe  Fe23  1  0.647521  0.912526  0.500004  1
  Fe  Fe24  1  0.852585  0.412521  0.499993  1
  Fe  Fe25  1  0.992563  0.695344  -0.000001  1
  O  O26  1  0.997433  0.425772  -0.000002  1
  O  O27  1  0.002773  0.574235  0.000001  1
  O  O28  1  0.058379  0.943516  0.500001  1
  O  O29  1  0.044218  0.156745  0.500001  1
  O  O30  1  0.118040  0.666174  0.500003  1
  O  O31  1  0.088958  0.762788  -0.000001  1
  O  O32  1  0.149484  0.504639  0.499998  1
  O  O33  1  0.150900  0.289693  0.499999  1
  O  O34  1  0.184552  0.858650  -0.000001  1
  O  O35  1  0.202036  0.085832  0.000001  1
  O  O36  1  0.297946  0.585909  -0.000001  1
  O  O37  1  0.315423  0.358701  -0.000001  1
  O  O38  1  0.348982  0.789657  0.499999  1
  O  O39  1  0.350621  0.004604  0.500000  1
  O  O40  1  0.410867  0.262823  0.000000  1
  O  O41  1  0.381964  0.166179  0.500000  1
  O  O42  1  0.455817  0.656761  0.499999  1
  O  O43  1  0.441775  0.443566  0.500000  1
  O  O44  1  0.497226  0.074227  0.999999  1
  O  O45  1  0.502675  0.925763  0.000001  1
  O  O46  1  0.558419  0.556449  0.500000  1
  O  O47  1  0.544231  0.343257  0.500001  1
  O  O48  1  0.617837  0.833818  0.500000  1
  O  O49  1  0.589007  0.737189  0.000001  1
  O  O50  1  0.649451  0.995358  0.499999  1
  O  O51  1  0.650841  0.210244  0.500003  1
  O  O52  1  0.684625  0.641344  0.000001  1
  O  O53  1  0.702272  0.413984  0.000001  1
  O  O54  1  0.797855  0.914041  0.000002  1
  O  O55  1  0.815359  0.141313  0.999999  1
  O  O56  1  0.849180  0.710235  0.499999  1
  O  O57  1  0.850627  0.495347  0.500001  1
  O  O58  1  0.911181  0.237135  1.000000  1
  O  O59  1  0.882070  0.333807  0.500001  1
  O  O60  1  0.955690  0.843213  0.499999  1
  O  O61  1  0.941529  0.056436  0.500000  1
