# generated using pymatgen
data_Li3Bi2(PO4)3
_symmetry_space_group_name_H-M   'P 1'
_cell_length_a   9.30885036
_cell_length_b   13.14515127
_cell_length_c   9.23725349
_cell_angle_alpha   90.00000000
_cell_angle_beta   90.00000000
_cell_angle_gamma   89.48106975
_symmetry_Int_Tables_number   1
_chemical_formula_structural   Li3Bi2(PO4)3
_chemical_formula_sum   'Li12 Bi8 P12 O48'
_cell_volume   1130.28167495
_cell_formula_units_Z   4
loop_
 _symmetry_equiv_pos_site_id
 _symmetry_equiv_pos_as_xyz
  1  'x, y, z'
loop_
 _atom_site_type_symbol
 _atom_site_label
 _atom_site_symmetry_multiplicity
 _atom_site_fract_x
 _atom_site_fract_y
 _atom_site_fract_z
 _atom_site_occupancy
  Li  Li0  1  0.082327  0.692843  0.111801  1
  Li  Li1  1  0.075396  0.743647  0.714403  1
  Li  Li2  1  0.209386  0.179299  0.769980  1
  Li  Li3  1  0.290614  0.320701  0.269980  1
  Li  Li4  1  0.424604  0.756353  0.214403  1
  Li  Li5  1  0.417673  0.807157  0.611801  1
  Li  Li6  1  0.582327  0.192843  0.388199  1
  Li  Li7  1  0.575396  0.243647  0.785597  1
  Li  Li8  1  0.709386  0.679299  0.730020  1
  Li  Li9  1  0.790614  0.820701  0.230020  1
  Li  Li10  1  0.924604  0.256353  0.285597  1
  Li  Li11  1  0.917673  0.307157  0.888199  1
  Bi  Bi12  1  0.239688  0.101458  0.446663  1
  Bi  Bi13  1  0.246453  0.900020  0.040415  1
  Bi  Bi14  1  0.253547  0.599980  0.540415  1
  Bi  Bi15  1  0.260312  0.398542  0.946663  1
  Bi  Bi16  1  0.739688  0.601458  0.053337  1
  Bi  Bi17  1  0.746453  0.400020  0.459585  1
  Bi  Bi18  1  0.753547  0.099980  0.959585  1
  Bi  Bi19  1  0.760312  0.898542  0.553337  1
  P  P20  1  0.046601  0.489387  0.241633  1
  P  P21  1  0.097411  0.834780  0.390198  1
  P  P22  1  0.097521  0.168029  0.092227  1
  P  P23  1  0.402479  0.331971  0.592227  1
  P  P24  1  0.402589  0.665220  0.890198  1
  P  P25  1  0.453399  0.010613  0.741633  1
  P  P26  1  0.546601  0.989387  0.258367  1
  P  P27  1  0.597411  0.334780  0.109802  1
  P  P28  1  0.597521  0.668029  0.407773  1
  P  P29  1  0.902479  0.831971  0.907773  1
  P  P30  1  0.902589  0.165220  0.609802  1
  P  P31  1  0.953399  0.510613  0.758367  1
  O  O32  1  0.018546  0.435151  0.871101  1
  O  O33  1  0.064221  0.591775  0.710090  1
  O  O34  1  0.069663  0.815159  0.899224  1
  O  O35  1  0.069711  0.173794  0.610294  1
  O  O36  1  0.098386  0.554842  0.369631  1
  O  O37  1  0.156349  0.789637  0.245388  1
  O  O38  1  0.177818  0.431172  0.175479  1
  O  O39  1  0.140846  0.947405  0.401408  1
  O  O40  1  0.136442  0.055398  0.071929  1
  O  O41  1  0.155585  0.209005  0.238831  1
  O  O42  1  0.149940  0.231863  0.960344  1
  O  O43  1  0.159961  0.774669  0.523133  1
  O  O44  1  0.340039  0.725331  0.023133  1
  O  O45  1  0.350060  0.268137  0.460344  1
  O  O46  1  0.344415  0.290995  0.738831  1
  O  O47  1  0.363558  0.444602  0.571929  1
  O  O48  1  0.359154  0.552595  0.901408  1
  O  O49  1  0.322182  0.068828  0.675479  1
  O  O50  1  0.343651  0.710363  0.745388  1
  O  O51  1  0.401614  0.945158  0.869631  1
  O  O52  1  0.430289  0.326206  0.110294  1
  O  O53  1  0.430337  0.684841  0.399224  1
  O  O54  1  0.435779  0.908225  0.210090  1
  O  O55  1  0.481454  0.064849  0.371101  1
  O  O56  1  0.518546  0.935151  0.628899  1
  O  O57  1  0.564221  0.091775  0.789910  1
  O  O58  1  0.569663  0.315159  0.600776  1
  O  O59  1  0.569711  0.673794  0.889706  1
  O  O60  1  0.598386  0.054842  0.130369  1
  O  O61  1  0.656349  0.289637  0.254612  1
  O  O62  1  0.677818  0.931172  0.324521  1
  O  O63  1  0.640846  0.447405  0.098592  1
  O  O64  1  0.636442  0.555398  0.428071  1
  O  O65  1  0.655585  0.709005  0.261169  1
  O  O66  1  0.649940  0.731863  0.539656  1
  O  O67  1  0.659961  0.274669  0.976867  1
  O  O68  1  0.840039  0.225331  0.476867  1
  O  O69  1  0.850060  0.768137  0.039656  1
  O  O70  1  0.844415  0.790995  0.761169  1
  O  O71  1  0.863558  0.944602  0.928071  1
  O  O72  1  0.859154  0.052595  0.598592  1
  O  O73  1  0.822182  0.568828  0.824521  1
  O  O74  1  0.843651  0.210363  0.754612  1
  O  O75  1  0.901614  0.445158  0.630369  1
  O  O76  1  0.930289  0.826206  0.389706  1
  O  O77  1  0.930337  0.184841  0.100776  1
  O  O78  1  0.935779  0.408225  0.289910  1
  O  O79  1  0.981454  0.564849  0.128899  1
