# generated using pymatgen
data_LiCoSiO4
_symmetry_space_group_name_H-M   'P 1'
_cell_length_a   5.96744374
_cell_length_b   11.25381984
_cell_length_c   5.20816005
_cell_angle_alpha   89.99150619
_cell_angle_beta   89.99940705
_cell_angle_gamma   90.00057119
_symmetry_Int_Tables_number   1
_chemical_formula_structural   LiCoSiO4
_chemical_formula_sum   'Li4 Co4 Si4 O16'
_cell_volume   349.76198828
_cell_formula_units_Z   4
loop_
 _symmetry_equiv_pos_site_id
 _symmetry_equiv_pos_as_xyz
  1  'x, y, z'
loop_
 _atom_site_type_symbol
 _atom_site_label
 _atom_site_symmetry_multiplicity
 _atom_site_fract_x
 _atom_site_fract_y
 _atom_site_fract_z
 _atom_site_occupancy
  Li  Li0  1  0.483970  0.172569  0.697297  1
  Li  Li1  1  0.484017  0.672508  0.802771  1
  Li  Li2  1  0.984034  0.327492  0.197222  1
  Li  Li3  1  0.983982  0.827434  0.302712  1
  Co  Co4  1  0.257470  0.422118  0.822936  1
  Co  Co5  1  0.257454  0.922142  0.677078  1
  Co  Co6  1  0.757450  0.077852  0.322922  1
  Co  Co7  1  0.757470  0.577882  0.177055  1
  Si  Si8  1  0.250482  0.077531  0.183930  1
  Si  Si9  1  0.250498  0.577532  0.316068  1
  Si  Si10  1  0.750498  0.422475  0.683935  1
  Si  Si11  1  0.750483  0.922464  0.816070  1
  O  O12  1  0.025101  0.157311  0.250752  1
  O  O13  1  0.025109  0.657316  0.249244  1
  O  O14  1  0.271961  0.062430  0.870658  1
  O  O15  1  0.232884  0.446295  0.178017  1
  O  O16  1  0.232885  0.946285  0.322010  1
  O  O17  1  0.271958  0.562436  0.629357  1
  O  O18  1  0.474580  0.147624  0.289179  1
  O  O19  1  0.474593  0.647631  0.210780  1
  O  O20  1  0.525101  0.842688  0.749249  1
  O  O21  1  0.525109  0.342686  0.750755  1
  O  O22  1  0.732881  0.053715  0.677991  1
  O  O23  1  0.771959  0.437570  0.370648  1
  O  O24  1  0.732885  0.553706  0.821983  1
  O  O25  1  0.771965  0.937566  0.129343  1
  O  O26  1  0.974591  0.352369  0.789218  1
  O  O27  1  0.974576  0.852373  0.710819  1
