# generated using pymatgen
data_LiCrBO3
_symmetry_space_group_name_H-M   'P 1'
_cell_length_a   8.21791832
_cell_length_b   8.21889164
_cell_length_c   3.17296029
_cell_angle_alpha   90.00000000
_cell_angle_beta   90.00000000
_cell_angle_gamma   120.00536280
_symmetry_Int_Tables_number   1
_chemical_formula_structural   LiCrBO3
_chemical_formula_sum   'Li3 Cr3 B3 O9'
_cell_volume   185.58670959
_cell_formula_units_Z   3
loop_
 _symmetry_equiv_pos_site_id
 _symmetry_equiv_pos_as_xyz
  1  'x, y, z'
loop_
 _atom_site_type_symbol
 _atom_site_label
 _atom_site_symmetry_multiplicity
 _atom_site_fract_x
 _atom_site_fract_y
 _atom_site_fract_z
 _atom_site_occupancy
  Li  Li0  1  0.289359  0.018150  0.500000  1
  Li  Li1  1  0.981834  0.271159  0.500000  1
  Li  Li2  1  0.728851  0.710663  0.500000  1
  Cr  Cr3  1  0.017430  0.623354  0.000000  1
  Cr  Cr4  1  0.605917  0.982530  0.000000  1
  Cr  Cr5  1  0.376460  0.394043  0.000000  1
  B  B6  1  0.333373  0.666810  0.500000  1
  B  B7  1  -0.000001  -0.000035  0.000000  1
  B  B8  1  0.666781  0.333303  0.500000  1
  O  O9  1  0.215857  0.743523  0.500000  1
  O  O10  1  0.256446  0.472363  0.500000  1
  O  O11  1  0.527671  0.784170  0.500000  1
  O  O12  1  0.195359  0.082172  0.000000  1
  O  O13  1  0.556532  0.417075  0.500000  1
  O  O14  1  0.886882  0.804694  0.000000  1
  O  O15  1  0.582920  0.139515  0.500000  1
  O  O16  1  0.860457  0.443366  0.500000  1
  O  O17  1  0.917872  0.113144  0.000000  1
