# generated using pymatgen
data_LiFe3OF5
_symmetry_space_group_name_H-M   'P 1'
_cell_length_a   5.94209254
_cell_length_b   5.94209212
_cell_length_c   7.60411364
_cell_angle_alpha   71.77959826
_cell_angle_beta   108.22039598
_cell_angle_gamma   107.07642853
_symmetry_Int_Tables_number   1
_chemical_formula_structural   LiFe3OF5
_chemical_formula_sum   'Li2 Fe6 O2 F10'
_cell_volume   236.46278034
_cell_formula_units_Z   2
loop_
 _symmetry_equiv_pos_site_id
 _symmetry_equiv_pos_as_xyz
  1  'x, y, z'
loop_
 _atom_site_type_symbol
 _atom_site_label
 _atom_site_symmetry_multiplicity
 _atom_site_fract_x
 _atom_site_fract_y
 _atom_site_fract_z
 _atom_site_occupancy
  Li  Li0  1  0.636395  0.884429  0.123476  1
  Li  Li1  1  0.115571  0.363605  0.123476  1
  Fe  Fe2  1  0.326336  0.673664  0.823316  1
  Fe  Fe3  1  0.000720  0.999280  0.487167  1
  Fe  Fe4  1  0.663342  0.336658  0.664177  1
  Fe  Fe5  1  0.648135  0.351865  0.172618  1
  Fe  Fe6  1  0.288302  0.711698  0.337568  1
  Fe  Fe7  1  0.042881  0.957119  0.986687  1
  O  O8  1  0.064611  0.935389  0.268166  1
  O  O9  1  0.268995  0.731005  0.046295  1
  F  F10  1  0.299980  0.295363  0.989008  1
  F  F11  1  0.704637  0.700020  0.989008  1
  F  F12  1  0.762021  0.237979  0.978927  1
  F  F13  1  0.427723  0.572277  0.631576  1
  F  F14  1  0.952657  0.623429  0.663049  1
  F  F15  1  0.376571  0.047343  0.663049  1
  F  F16  1  0.902829  0.097171  0.691729  1
  F  F17  1  0.621751  0.987130  0.329346  1
  F  F18  1  0.012870  0.378249  0.329346  1
  F  F19  1  0.548542  0.451458  0.361875  1
