# generated using pymatgen
data_CrSb3(PO4)6
_symmetry_space_group_name_H-M   'P 1'
_cell_length_a   8.88932523
_cell_length_b   8.88932506
_cell_length_c   8.88932539
_cell_angle_alpha   58.02285518
_cell_angle_beta   58.02285574
_cell_angle_gamma   58.02285339
_symmetry_Int_Tables_number   1
_chemical_formula_structural   CrSb3(PO4)6
_chemical_formula_sum   'Cr1 Sb3 P6 O24'
_cell_volume   474.17269240
_cell_formula_units_Z   1
loop_
 _symmetry_equiv_pos_site_id
 _symmetry_equiv_pos_as_xyz
  1  'x, y, z'
loop_
 _atom_site_type_symbol
 _atom_site_label
 _atom_site_symmetry_multiplicity
 _atom_site_fract_x
 _atom_site_fract_y
 _atom_site_fract_z
 _atom_site_occupancy
  Cr  Cr0  1  0.857157  0.857157  0.857157  1
  Sb  Sb1  1  0.143250  0.143250  0.143250  1
  Sb  Sb2  1  0.356463  0.356463  0.356463  1
  Sb  Sb3  1  0.643514  0.643514  0.643514  1
  P  P4  1  0.037050  0.751057  0.466924  1
  P  P5  1  0.466924  0.037050  0.751057  1
  P  P6  1  0.751057  0.466924  0.037050  1
  P  P7  1  0.245726  0.542505  0.961269  1
  P  P8  1  0.542505  0.961269  0.245726  1
  P  P9  1  0.961269  0.245726  0.542505  1
  O  O10  1  0.133194  0.277269  0.512299  1
  O  O11  1  0.277269  0.512299  0.133194  1
  O  O12  1  0.059793  0.923703  0.279801  1
  O  O13  1  0.512299  0.133194  0.277269  1
  O  O14  1  0.218913  0.575721  0.439234  1
  O  O15  1  0.011281  0.776234  0.633529  1
  O  O16  1  0.279801  0.059793  0.923703  1
  O  O17  1  0.439234  0.218913  0.575721  1
  O  O18  1  0.575721  0.439234  0.218913  1
  O  O19  1  0.228460  0.364025  0.986139  1
  O  O20  1  0.076487  0.716974  0.940456  1
  O  O21  1  0.364025  0.986139  0.228460  1
  O  O22  1  0.633529  0.011281  0.776234  1
  O  O23  1  0.923703  0.279801  0.059793  1
  O  O24  1  0.776234  0.633529  0.011281  1
  O  O25  1  0.426769  0.556339  0.782385  1
  O  O26  1  0.556339  0.782385  0.426769  1
  O  O27  1  0.716974  0.940456  0.076487  1
  O  O28  1  0.986139  0.228460  0.364025  1
  O  O29  1  0.782385  0.426769  0.556339  1
  O  O30  1  0.483813  0.867587  0.724682  1
  O  O31  1  0.940456  0.076487  0.716974  1
  O  O32  1  0.724682  0.483813  0.867587  1
  O  O33  1  0.867587  0.724682  0.483813  1
