# generated using pymatgen
data_Li2Ti2Mn5O12
_symmetry_space_group_name_H-M   'P 1'
_cell_length_a   5.09140969
_cell_length_b   9.11311506
_cell_length_c   10.36222404
_cell_angle_alpha   90.00000309
_cell_angle_beta   101.73592817
_cell_angle_gamma   89.99999516
_symmetry_Int_Tables_number   1
_chemical_formula_structural   Li2Ti2Mn5O12
_chemical_formula_sum   'Li4 Ti4 Mn10 O24'
_cell_volume   470.74196035
_cell_formula_units_Z   2
loop_
 _symmetry_equiv_pos_site_id
 _symmetry_equiv_pos_as_xyz
  1  'x, y, z'
loop_
 _atom_site_type_symbol
 _atom_site_label
 _atom_site_symmetry_multiplicity
 _atom_site_fract_x
 _atom_site_fract_y
 _atom_site_fract_z
 _atom_site_occupancy
  Li  Li0  1  0.754489  0.083503  0.516156  1
  Li  Li1  1  0.504610  0.424056  0.745822  1
  Li  Li2  1  0.745511  0.583503  0.983844  1
  Li  Li3  1  0.995390  0.924056  0.754178  1
  Ti  Ti4  1  0.011982  0.249983  0.757993  1
  Ti  Ti5  1  0.491941  0.250788  0.243212  1
  Ti  Ti6  1  0.008059  0.750788  0.256788  1
  Ti  Ti7  1  0.488018  0.749983  0.742007  1
  Mn  Mn8  1  0.002094  0.083231  0.259811  1
  Mn  Mn9  1  0.494939  0.074872  0.745562  1
  Mn  Mn10  1  0.255027  0.276200  0.514009  1
  Mn  Mn11  1  0.004635  0.419187  0.247497  1
  Mn  Mn12  1  0.743938  0.244999  0.988685  1
  Mn  Mn13  1  0.005061  0.574872  0.754438  1
  Mn  Mn14  1  0.497906  0.583232  0.240189  1
  Mn  Mn15  1  0.244973  0.776200  0.985991  1
  Mn  Mn16  1  0.756062  0.744999  0.511315  1
  Mn  Mn17  1  0.495365  0.919187  0.252503  1
  O  O18  1  0.130960  0.102850  0.639135  1
  O  O19  1  0.370971  0.110745  0.361004  1
  O  O20  1  0.372165  0.225012  0.855174  1
  O  O21  1  0.133482  0.262760  0.142812  1
  O  O22  1  0.634139  0.085886  0.154283  1
  O  O23  1  0.848984  0.097061  0.854069  1
  O  O24  1  0.114350  0.409901  0.653259  1
  O  O25  1  0.625082  0.225285  0.639520  1
  O  O26  1  0.372332  0.419611  0.344931  1
  O  O27  1  0.873574  0.236283  0.363043  1
  O  O28  1  0.651205  0.397025  0.137563  1
  O  O29  1  0.882168  0.411446  0.857930  1
  O  O30  1  0.129029  0.610745  0.138996  1
  O  O31  1  0.369040  0.602850  0.860865  1
  O  O32  1  0.127835  0.725012  0.644826  1
  O  O33  1  0.651016  0.597061  0.645931  1
  O  O34  1  0.366518  0.762760  0.357188  1
  O  O35  1  0.865861  0.585886  0.345717  1
  O  O36  1  0.127669  0.919611  0.155069  1
  O  O37  1  0.874918  0.725285  0.860480  1
  O  O38  1  0.385650  0.909901  0.846741  1
  O  O39  1  0.626426  0.736283  0.136957  1
  O  O40  1  0.617832  0.911446  0.642070  1
  O  O41  1  0.848795  0.897025  0.362437  1
