# generated using pymatgen
data_Li7Ti2P7O24
_symmetry_space_group_name_H-M   'P 1'
_cell_length_a   15.28489600
_cell_length_b   5.17231363
_cell_length_c   11.75608318
_cell_angle_alpha   90.00000000
_cell_angle_beta   97.37278960
_cell_angle_gamma   90.00000000
_symmetry_Int_Tables_number   1
_chemical_formula_structural   Li7Ti2P7O24
_chemical_formula_sum   'Li14 Ti4 P14 O48'
_cell_volume   921.73146110
_cell_formula_units_Z   2
loop_
 _symmetry_equiv_pos_site_id
 _symmetry_equiv_pos_as_xyz
  1  'x, y, z'
loop_
 _atom_site_type_symbol
 _atom_site_label
 _atom_site_symmetry_multiplicity
 _atom_site_fract_x
 _atom_site_fract_y
 _atom_site_fract_z
 _atom_site_occupancy
  Li  Li0  1  0.057899  0.724312  0.517929  1
  Li  Li1  1  0.137938  0.818130  0.888613  1
  Li  Li2  1  0.057899  0.275688  0.017929  1
  Li  Li3  1  0.137938  0.181870  0.388613  1
  Li  Li4  1  0.410853  0.151223  0.551469  1
  Li  Li5  1  0.410853  0.848777  0.051469  1
  Li  Li6  1  0.500000  0.708703  0.750000  1
  Li  Li7  1  0.500000  0.291297  0.250000  1
  Li  Li8  1  0.589147  0.151223  0.948531  1
  Li  Li9  1  0.589147  0.848777  0.448531  1
  Li  Li10  1  0.862062  0.818130  0.611387  1
  Li  Li11  1  0.942101  0.724312  0.982071  1
  Li  Li12  1  0.862062  0.181870  0.111388  1
  Li  Li13  1  0.942101  0.275688  0.482071  1
  Ti  Ti14  1  0.277765  0.645709  0.687570  1
  Ti  Ti15  1  0.277765  0.354291  0.187570  1
  Ti  Ti16  1  0.722235  0.645709  0.812430  1
  Ti  Ti17  1  0.722235  0.354291  0.312430  1
  P  P18  1  0.000000  0.427244  0.750000  1
  P  P19  1  0.000000  0.572756  0.250000  1
  P  P20  1  0.137780  0.126348  0.655301  1
  P  P21  1  0.137780  0.873652  0.155301  1
  P  P22  1  0.275667  0.383636  0.949615  1
  P  P23  1  0.275667  0.616364  0.449615  1
  P  P24  1  0.392620  0.155751  0.802413  1
  P  P25  1  0.392620  0.844249  0.302413  1
  P  P26  1  0.607380  0.155751  0.697587  1
  P  P27  1  0.607380  0.844249  0.197587  1
  P  P28  1  0.724333  0.383636  0.550385  1
  P  P29  1  0.724333  0.616364  0.050385  1
  P  P30  1  0.862220  0.126348  0.844699  1
  P  P31  1  0.862220  0.873652  0.344699  1
  O  O32  1  0.014063  0.571130  0.862458  1
  O  O33  1  0.014063  0.428870  0.362458  1
  O  O34  1  0.080824  0.227473  0.755754  1
  O  O35  1  0.077100  0.101553  0.543641  1
  O  O36  1  0.080824  0.772527  0.255754  1
  O  O37  1  0.077100  0.898447  0.043641  1
  O  O38  1  0.170311  0.868017  0.711821  1
  O  O39  1  0.200933  0.261951  0.005585  1
  O  O40  1  0.210261  0.320400  0.649340  1
  O  O41  1  0.170311  0.131983  0.211821  1
  O  O42  1  0.200933  0.738049  0.505585  1
  O  O43  1  0.247761  0.596557  0.863041  1
  O  O44  1  0.210261  0.679600  0.149340  1
  O  O45  1  0.247761  0.403443  0.363041  1
  O  O46  1  0.315048  0.140736  0.885368  1
  O  O47  1  0.315048  0.859264  0.385368  1
  O  O48  1  0.361978  0.974739  0.700469  1
  O  O49  1  0.347507  0.527014  0.546705  1
  O  O50  1  0.397044  0.442121  0.767036  1
  O  O51  1  0.361978  0.025261  0.200469  1
  O  O52  1  0.347507  0.472986  0.046705  1
  O  O53  1  0.397044  0.557879  0.267036  1
  O  O54  1  0.474209  0.049910  0.875343  1
  O  O55  1  0.474209  0.950090  0.375343  1
  O  O56  1  0.525791  0.049910  0.624657  1
  O  O57  1  0.525791  0.950090  0.124657  1
  O  O58  1  0.602956  0.442121  0.732964  1
  O  O59  1  0.652493  0.527014  0.953295  1
  O  O60  1  0.638022  0.974739  0.799531  1
  O  O61  1  0.602956  0.557879  0.232964  1
  O  O62  1  0.652493  0.472986  0.453295  1
  O  O63  1  0.638022  0.025261  0.299531  1
  O  O64  1  0.684952  0.140736  0.614632  1
  O  O65  1  0.684952  0.859264  0.114632  1
  O  O66  1  0.752239  0.596557  0.636959  1
  O  O67  1  0.789739  0.320400  0.850660  1
  O  O68  1  0.752239  0.403443  0.136959  1
  O  O69  1  0.799067  0.261951  0.494415  1
  O  O70  1  0.829689  0.868017  0.788179  1
  O  O71  1  0.789739  0.679600  0.350660  1
  O  O72  1  0.799067  0.738049  0.994415  1
  O  O73  1  0.829689  0.131983  0.288179  1
  O  O74  1  0.922900  0.101553  0.956359  1
  O  O75  1  0.919176  0.227473  0.744246  1
  O  O76  1  0.922900  0.898447  0.456359  1
  O  O77  1  0.919176  0.772527  0.244246  1
  O  O78  1  0.985937  0.571130  0.637542  1
  O  O79  1  0.985937  0.428870  0.137542  1
