# generated using pymatgen
data_NiH18C4S6(N2O)4
_symmetry_space_group_name_H-M   'P 1'
_cell_length_a   19.31207642
_cell_length_b   10.56892932
_cell_length_c   9.08787043
_cell_angle_alpha   90.00000000
_cell_angle_beta   90.00000000
_cell_angle_gamma   90.00000000
_symmetry_Int_Tables_number   1
_chemical_formula_structural   NiH18C4S6(N2O)4
_chemical_formula_sum   'Ni4 H72 C16 S24 N32 O16'
_cell_volume   1854.90679150
_cell_formula_units_Z   4
loop_
 _symmetry_equiv_pos_site_id
 _symmetry_equiv_pos_as_xyz
  1  'x, y, z'
loop_
 _atom_site_type_symbol
 _atom_site_label
 _atom_site_symmetry_multiplicity
 _atom_site_fract_x
 _atom_site_fract_y
 _atom_site_fract_z
 _atom_site_occupancy
  Ni  Ni0  1  0.903390  0.575580  0.437153  1
  Ni  Ni1  1  0.596610  0.424420  0.937153  1
  Ni  Ni2  1  0.403390  0.924420  0.562847  1
  Ni  Ni3  1  0.096610  0.075580  0.062847  1
  H  H4  1  0.157403  0.546401  0.294202  1
  H  H5  1  0.342597  0.453599  0.794202  1
  H  H6  1  0.657403  0.953599  0.705798  1
  H  H7  1  0.842597  0.046401  0.205798  1
  H  H8  1  0.179362  0.698671  0.351671  1
  H  H9  1  0.320638  0.301329  0.851671  1
  H  H10  1  0.679362  0.801329  0.648329  1
  H  H11  1  0.820638  0.198671  0.148329  1
  H  H12  1  0.004612  0.787135  0.424166  1
  H  H13  1  0.495388  0.212865  0.924166  1
  H  H14  1  0.504612  0.712865  0.575834  1
  H  H15  1  0.995388  0.287135  0.075834  1
  H  H16  1  0.090287  0.841071  0.419504  1
  H  H17  1  0.409713  0.158929  0.919504  1
  H  H18  1  0.590287  0.658929  0.580496  1
  H  H19  1  0.909713  0.341071  0.080496  1
  H  H20  1  0.851825  0.487431  0.730814  1
  H  H21  1  0.648175  0.512569  0.230814  1
  H  H22  1  0.351825  0.012569  0.269186  1
  H  H23  1  0.148175  0.987431  0.769186  1
  H  H24  1  0.803799  0.372638  0.827704  1
  H  H25  1  0.696201  0.627362  0.327704  1
  H  H26  1  0.303799  0.127362  0.172296  1
  H  H27  1  0.196201  0.872638  0.672296  1
  H  H28  1  0.835619  0.124917  0.577193  1
  H  H29  1  0.664381  0.875083  0.077193  1
  H  H30  1  0.335619  0.375083  0.422807  1
  H  H31  1  0.164381  0.624917  0.922807  1
  H  H32  1  0.794106  0.170041  0.737482  1
  H  H33  1  0.705894  0.829959  0.237482  1
  H  H34  1  0.294106  0.329959  0.262518  1
  H  H35  1  0.205894  0.670041  0.762518  1
  H  H36  1  0.045326  0.504087  0.963331  1
  H  H37  1  0.454674  0.495913  0.463331  1
  H  H38  1  0.545326  0.995913  0.036669  1
  H  H39  1  0.954674  0.004087  0.536669  1
  H  H40  1  0.981405  0.621035  0.972705  1
  H  H41  1  0.518595  0.378965  0.472705  1
  H  H42  1  0.481405  0.878965  0.027295  1
  H  H43  1  0.018595  0.121035  0.527295  1
  H  H44  1  0.023265  0.450993  0.582074  1
  H  H45  1  0.476735  0.549007  0.082074  1
  H  H46  1  0.523265  0.049007  0.417926  1
  H  H47  1  0.976735  0.950993  0.917926  1
  H  H48  1  0.061270  0.393150  0.744587  1
  H  H49  1  0.438730  0.606850  0.244587  1
  H  H50  1  0.561270  0.106850  0.255413  1
  H  H51  1  0.938730  0.893150  0.755413  1
  H  H52  1  0.788972  0.693074  0.883627  1
  H  H53  1  0.711028  0.306926  0.383627  1
  H  H54  1  0.288972  0.806926  0.116373  1
  H  H55  1  0.211028  0.193074  0.616373  1
  H  H56  1  0.759988  0.550232  0.958258  1
  H  H57  1  0.740012  0.449768  0.458258  1
  H  H58  1  0.259988  0.949768  0.041742  1
  H  H59  1  0.240012  0.050232  0.541742  1
  H  H60  1  0.870125  0.806244  0.999769  1
  H  H61  1  0.629875  0.193756  0.499769  1
  H  H62  1  0.370125  0.693756  0.000231  1
  H  H63  1  0.129875  0.306244  0.500231  1
  H  H64  1  0.909282  0.754133  0.160503  1
  H  H65  1  0.590718  0.245867  0.660503  1
  H  H66  1  0.409282  0.745867  0.839497  1
  H  H67  1  0.090718  0.254133  0.339497  1
  H  H68  1  0.730653  0.035795  0.371590  1
  H  H69  1  0.769347  0.964205  0.871590  1
  H  H70  1  0.230653  0.464205  0.628410  1
  H  H71  1  0.269347  0.535795  0.128410  1
  H  H72  1  0.676586  0.091125  0.263026  1
  H  H73  1  0.823414  0.908875  0.763026  1
  H  H74  1  0.176586  0.408875  0.736974  1
  H  H75  1  0.323414  0.591125  0.236974  1
  C  C76  1  0.074947  0.654450  0.362249  1
  C  C77  1  0.425053  0.345550  0.862249  1
  C  C78  1  0.574947  0.845550  0.637751  1
  C  C79  1  0.925053  0.154450  0.137751  1
  C  C80  1  0.849428  0.311896  0.635635  1
  C  C81  1  0.650572  0.688104  0.135635  1
  C  C82  1  0.349428  0.188104  0.364365  1
  C  C83  1  0.150572  0.811896  0.864365  1
  C  C84  1  0.997070  0.546059  0.767735  1
  C  C85  1  0.502930  0.453941  0.267735  1
  C  C86  1  0.497070  0.953941  0.232265  1
  C  C87  1  0.002930  0.046059  0.732265  1
  C  C88  1  0.840977  0.632294  0.068508  1
  C  C89  1  0.659023  0.367706  0.568508  1
  C  C90  1  0.340977  0.867706  0.931492  1
  C  C91  1  0.159023  0.132294  0.431492  1
  S  S92  1  0.014957  0.538233  0.324588  1
  S  S93  1  0.485043  0.461767  0.824588  1
  S  S94  1  0.514957  0.961767  0.675412  1
  S  S95  1  0.985043  0.038233  0.175412  1
  S  S96  1  0.893431  0.351528  0.477966  1
  S  S97  1  0.606569  0.648472  0.977966  1
  S  S98  1  0.393431  0.148472  0.522034  1
  S  S99  1  0.106569  0.851528  0.022034  1
  S  S100  1  0.938096  0.643103  0.682620  1
  S  S101  1  0.561904  0.356897  0.182620  1
  S  S102  1  0.438096  0.856897  0.317380  1
  S  S103  1  0.061904  0.143103  0.817380  1
  S  S104  1  0.843244  0.519018  0.203778  1
  S  S105  1  0.656756  0.480982  0.703778  1
  S  S106  1  0.343244  0.980982  0.796222  1
  S  S107  1  0.156756  0.019018  0.296222  1
  S  S108  1  0.782029  0.683652  0.531077  1
  S  S109  1  0.717971  0.316348  0.031077  1
  S  S110  1  0.282029  0.816348  0.468923  1
  S  S111  1  0.217971  0.183652  0.968923  1
  S  S112  1  0.834935  0.833487  0.446806  1
  S  S113  1  0.665065  0.166513  0.946806  1
  S  S114  1  0.334935  0.666513  0.553194  1
  S  S115  1  0.165065  0.333487  0.053194  1
  N  N116  1  0.142071  0.631194  0.336524  1
  N  N117  1  0.357929  0.368806  0.836524  1
  N  N118  1  0.642071  0.868806  0.663476  1
  N  N119  1  0.857929  0.131194  0.163476  1
  N  N120  1  0.056093  0.767299  0.414936  1
  N  N121  1  0.443907  0.232701  0.914936  1
  N  N122  1  0.556093  0.732701  0.585064  1
  N  N123  1  0.943907  0.267299  0.085064  1
  N  N124  1  0.835485  0.396047  0.741630  1
  N  N125  1  0.664515  0.603953  0.241630  1
  N  N126  1  0.335485  0.103953  0.258370  1
  N  N127  1  0.164515  0.896047  0.758370  1
  N  N128  1  0.827893  0.192723  0.654943  1
  N  N129  1  0.672107  0.807277  0.154943  1
  N  N130  1  0.327893  0.307277  0.345057  1
  N  N131  1  0.172107  0.692723  0.845057  1
  N  N132  1  0.006175  0.552726  0.913664  1
  N  N133  1  0.493825  0.447274  0.413664  1
  N  N134  1  0.506175  0.947274  0.086336  1
  N  N135  1  0.993825  0.052726  0.586336  1
  N  N136  1  0.033437  0.460851  0.691515  1
  N  N137  1  0.466563  0.539149  0.191515  1
  N  N138  1  0.533437  0.039149  0.308485  1
  N  N139  1  0.966563  0.960851  0.808485  1
  N  N140  1  0.795290  0.621485  0.958185  1
  N  N141  1  0.704710  0.378515  0.458185  1
  N  N142  1  0.295290  0.878515  0.041815  1
  N  N143  1  0.204710  0.121485  0.541815  1
  N  N144  1  0.885228  0.731292  0.064137  1
  N  N145  1  0.614772  0.268708  0.564137  1
  N  N146  1  0.385228  0.768708  0.935863  1
  N  N147  1  0.114772  0.231292  0.435863  1
  O  O148  1  0.900764  0.778239  0.384671  1
  O  O149  1  0.599236  0.221761  0.884671  1
  O  O150  1  0.400764  0.721761  0.615329  1
  O  O151  1  0.099236  0.278239  0.115329  1
  O  O152  1  0.852452  0.925329  0.565266  1
  O  O153  1  0.647548  0.074671  0.065266  1
  O  O154  1  0.352452  0.574671  0.434734  1
  O  O155  1  0.147548  0.425329  0.934734  1
  O  O156  1  0.793909  0.897264  0.330179  1
  O  O157  1  0.706091  0.102736  0.830179  1
  O  O158  1  0.293909  0.602736  0.669821  1
  O  O159  1  0.206091  0.397264  0.169821  1
  O  O160  1  0.695836  0.103162  0.362245  1
  O  O161  1  0.804164  0.896838  0.862245  1
  O  O162  1  0.195836  0.396838  0.637755  1
  O  O163  1  0.304164  0.603162  0.137755  1
