# generated using pymatgen
data_Li6Fe5(P2O7)4
_symmetry_space_group_name_H-M   'P 1'
_cell_length_a   13.19485754
_cell_length_b   9.12298911
_cell_length_c   10.52983579
_cell_angle_alpha   66.86033189
_cell_angle_beta   88.17507623
_cell_angle_gamma   72.89029561
_symmetry_Int_Tables_number   1
_chemical_formula_structural   Li6Fe5(P2O7)4
_chemical_formula_sum   'Li12 Fe10 P16 O56'
_cell_volume   1108.91448322
_cell_formula_units_Z   2
loop_
 _symmetry_equiv_pos_site_id
 _symmetry_equiv_pos_as_xyz
  1  'x, y, z'
loop_
 _atom_site_type_symbol
 _atom_site_label
 _atom_site_symmetry_multiplicity
 _atom_site_fract_x
 _atom_site_fract_y
 _atom_site_fract_z
 _atom_site_occupancy
  Li  Li0  1  0.027126  0.818763  0.010312  1
  Li  Li1  1  0.810437  0.922639  0.125449  1
  Li  Li2  1  0.425538  0.113690  0.406919  1
  Li  Li3  1  0.472874  0.181237  0.989688  1
  Li  Li4  1  0.074462  0.886310  0.593081  1
  Li  Li5  1  0.750000  0.500000  0.500000  1
  Li  Li6  1  0.297643  0.901401  0.133364  1
  Li  Li7  1  0.918772  0.124449  0.414454  1
  Li  Li8  1  0.581228  0.875551  0.585546  1
  Li  Li9  1  0.202357  0.098599  0.866636  1
  Li  Li10  1  0.689563  0.077361  0.874551  1
  Li  Li11  1  0.250000  0.500000  0.500000  1
  Fe  Fe12  1  0.816777  0.515275  0.754925  1
  Fe  Fe13  1  0.143063  0.098202  0.290599  1
  Fe  Fe14  1  0.861721  0.898782  0.713499  1
  Fe  Fe15  1  0.638279  0.101218  0.286501  1
  Fe  Fe16  1  0.509558  0.804060  0.992983  1
  Fe  Fe17  1  0.317543  0.504876  0.756977  1
  Fe  Fe18  1  0.356937  0.901798  0.709401  1
  Fe  Fe19  1  0.683223  0.484725  0.245075  1
  Fe  Fe20  1  0.990442  0.195940  0.007017  1
  Fe  Fe21  1  0.182457  0.495124  0.243023  1
  P  P22  1  0.278783  0.712918  0.960775  1
  P  P23  1  0.433872  0.456853  0.190302  1
  P  P24  1  0.149544  0.202644  0.555482  1
  P  P25  1  0.066128  0.543147  0.809698  1
  P  P26  1  0.350456  0.797356  0.444518  1
  P  P27  1  0.721359  0.287395  0.035987  1
  P  P28  1  0.778641  0.712605  0.964013  1
  P  P29  1  0.460207  0.179593  0.695377  1
  P  P30  1  0.960638  0.192316  0.699912  1
  P  P31  1  0.652481  0.192695  0.558683  1
  P  P32  1  0.221217  0.287082  0.039225  1
  P  P33  1  0.558096  0.558939  0.807902  1
  P  P34  1  0.539362  0.807684  0.300088  1
  P  P35  1  0.039793  0.820407  0.304623  1
  P  P36  1  0.847519  0.807305  0.441317  1
  P  P37  1  0.941904  0.441061  0.192098  1
  O  O38  1  0.691350  0.334789  0.460977  1
  O  O39  1  0.988371  0.924933  0.151371  1
  O  O40  1  0.014557  0.098431  0.851422  1
  O  O41  1  0.727078  0.279028  0.185300  1
  O  O42  1  0.868771  0.917860  0.509009  1
  O  O43  1  0.511629  0.075067  0.848629  1
  O  O44  1  0.488879  0.272791  0.215588  1
  O  O45  1  0.628290  0.455869  0.957284  1
  O  O46  1  0.450103  0.065520  0.623951  1
  O  O47  1  0.958940  0.722286  0.391765  1
  O  O48  1  0.855322  0.327533  0.683164  1
  O  O49  1  0.481268  0.465315  0.805400  1
  O  O50  1  0.863437  0.418669  0.303059  1
  O  O51  1  0.677304  0.697489  0.036465  1
  O  O52  1  0.460884  0.709209  0.395434  1
  O  O53  1  0.774902  0.912865  0.305069  1
  O  O54  1  0.512598  0.558011  0.171472  1
  O  O55  1  0.192060  0.340072  0.458346  1
  O  O56  1  0.268513  0.726002  0.810796  1
  O  O57  1  0.725098  0.087135  0.694931  1
  O  O58  1  0.772922  0.720972  0.814700  1
  O  O59  1  0.871710  0.544131  0.042716  1
  O  O60  1  0.322836  0.854531  0.963318  1
  O  O61  1  0.644678  0.672467  0.316836  1
  O  O62  1  0.130847  0.462913  0.963872  1
  O  O63  1  0.151184  0.525265  0.711050  1
  O  O64  1  0.808650  0.665211  0.539023  1
  O  O65  1  0.356604  0.316166  0.680861  1
  O  O66  1  0.018732  0.534685  0.194600  1
  O  O67  1  0.039116  0.290791  0.604566  1
  O  O68  1  0.541060  0.277714  0.608235  1
  O  O69  1  0.812628  0.859579  0.965729  1
  O  O70  1  0.687372  0.140421  0.034271  1
  O  O71  1  0.348816  0.474735  0.288950  1
  O  O72  1  0.636563  0.581331  0.696941  1
  O  O73  1  0.631229  0.082140  0.490991  1
  O  O74  1  0.278064  0.908334  0.308307  1
  O  O75  1  0.369153  0.537087  0.036128  1
  O  O76  1  0.231487  0.273998  0.189204  1
  O  O77  1  0.374176  0.906027  0.512531  1
  O  O78  1  0.485443  0.901569  0.148578  1
  O  O79  1  0.997612  0.269941  0.180792  1
  O  O80  1  0.179751  0.710957  0.037973  1
  O  O81  1  0.125824  0.093973  0.487469  1
  O  O82  1  0.822696  0.302511  0.963535  1
  O  O83  1  0.011121  0.727209  0.784412  1
  O  O84  1  0.502388  0.730059  0.819208  1
  O  O85  1  0.548794  0.929533  0.363236  1
  O  O86  1  0.951206  0.070467  0.636764  1
  O  O87  1  0.987402  0.441989  0.828528  1
  O  O88  1  0.221936  0.091666  0.691693  1
  O  O89  1  0.320249  0.289043  0.962027  1
  O  O90  1  0.307940  0.659928  0.541654  1
  O  O91  1  0.177164  0.145469  0.036682  1
  O  O92  1  0.143396  0.683834  0.319139  1
  O  O93  1  0.049897  0.934480  0.376049  1
