# generated using pymatgen
data_Na2Sb4O11
_symmetry_space_group_name_H-M   'P 1'
_cell_length_a   6.32597231
_cell_length_b   6.32119134
_cell_length_c   12.56611909
_cell_angle_alpha   75.42350899
_cell_angle_beta   90.00000000
_cell_angle_gamma   59.97497205
_symmetry_Int_Tables_number   1
_chemical_formula_structural   Na2Sb4O11
_chemical_formula_sum   'Na4 Sb8 O22'
_cell_volume   416.27364065
_cell_formula_units_Z   2
loop_
 _symmetry_equiv_pos_site_id
 _symmetry_equiv_pos_as_xyz
  1  'x, y, z'
loop_
 _atom_site_type_symbol
 _atom_site_label
 _atom_site_symmetry_multiplicity
 _atom_site_fract_x
 _atom_site_fract_y
 _atom_site_fract_z
 _atom_site_occupancy
  Na  Na0  1  0.331974  0.834704  0.997101  1
  Na  Na1  1  0.833321  0.834704  0.497101  1
  Na  Na2  1  0.166679  0.165296  0.502899  1
  Na  Na3  1  0.668026  0.165296  0.002899  1
  Sb  Sb4  1  0.610207  0.640650  0.749750  1
  Sb  Sb5  1  0.250855  0.359350  0.750250  1
  Sb  Sb6  1  0.500000  0.500000  0.500000  1
  Sb  Sb7  1  0.749145  0.640650  0.249750  1
  Sb  Sb8  1  0.389793  0.359350  0.250250  1
  Sb  Sb9  1  0.000000  0.500000  0.000000  1
  Sb  Sb10  1  0.891859  0.000000  0.750000  1
  Sb  Sb11  1  0.108141  0.000000  0.250000  1
  O  O12  1  0.950089  0.843561  0.913636  1
  O  O13  1  0.251115  0.741320  0.750317  1
  O  O14  1  0.906743  0.688137  0.718347  1
  O  O15  1  0.708852  0.533897  0.913340  1
  O  O16  1  0.206351  0.843561  0.413636  1
  O  O17  1  0.551590  0.706795  0.586069  1
  O  O18  1  0.007566  0.741320  0.250318  1
  O  O19  1  0.258387  0.293205  0.913931  1
  O  O20  1  0.242749  0.466103  0.586660  1
  O  O21  1  0.594880  0.311864  0.781653  1
  O  O22  1  0.405120  0.688137  0.218347  1
  O  O23  1  0.757251  0.533897  0.413340  1
  O  O24  1  0.741614  0.706795  0.086069  1
  O  O25  1  0.992434  0.258680  0.749683  1
  O  O26  1  0.448410  0.293205  0.413931  1
  O  O27  1  0.793649  0.156439  0.586364  1
  O  O28  1  0.291148  0.466103  0.086660  1
  O  O29  1  0.093257  0.311864  0.281653  1
  O  O30  1  0.508303  1.000000  0.750000  1
  O  O31  1  0.748885  0.258680  0.249683  1
  O  O32  1  0.049911  0.156439  0.086364  1
  O  O33  1  0.491697  0.000000  0.250000  1
