# generated using pymatgen
data_Li2MnPO5
_symmetry_space_group_name_H-M   'P 1'
_cell_length_a   5.48504513
_cell_length_b   5.48504513
_cell_length_c   8.26211533
_cell_angle_alpha   64.10174912
_cell_angle_beta   115.89825088
_cell_angle_gamma   90.55113274
_symmetry_Int_Tables_number   1
_chemical_formula_structural   Li2MnPO5
_chemical_formula_sum   'Li4 Mn2 P2 O10'
_cell_volume   196.04631736
_cell_formula_units_Z   2
loop_
 _symmetry_equiv_pos_site_id
 _symmetry_equiv_pos_as_xyz
  1  'x, y, z'
loop_
 _atom_site_type_symbol
 _atom_site_label
 _atom_site_symmetry_multiplicity
 _atom_site_fract_x
 _atom_site_fract_y
 _atom_site_fract_z
 _atom_site_occupancy
  Li  Li0  1  0.098828  0.826887  0.713404  1
  Li  Li1  1  0.173113  0.901172  0.213404  1
  Li  Li2  1  0.826887  0.098828  0.786596  1
  Li  Li3  1  0.901172  0.173113  0.286596  1
  Mn  Mn4  1  0.000000  0.500000  0.500000  1
  Mn  Mn5  1  0.500000  0.000000  0.000000  1
  P  P6  1  0.610394  0.610394  0.750000  1
  P  P7  1  0.389606  0.389606  0.250000  1
  O  O8  1  0.286634  0.693057  0.604173  1
  O  O9  1  0.673260  0.769116  0.872074  1
  O  O10  1  0.153041  0.153041  0.750000  1
  O  O11  1  0.306943  0.713366  0.104173  1
  O  O12  1  0.769116  0.673260  0.627926  1
  O  O13  1  0.230884  0.326740  0.372074  1
  O  O14  1  0.693057  0.286634  0.895827  1
  O  O15  1  0.846959  0.846959  0.250000  1
  O  O16  1  0.326740  0.230884  0.127926  1
  O  O17  1  0.713366  0.306943  0.395827  1
