# generated using pymatgen
data_H12OsC4N(OF)3
_symmetry_space_group_name_H-M   'P 1'
_cell_length_a   10.79201131
_cell_length_b   10.79201131
_cell_length_c   11.60960663
_cell_angle_alpha   57.52168249
_cell_angle_beta   122.47831751
_cell_angle_gamma   101.16236209
_symmetry_Int_Tables_number   1
_chemical_formula_structural   H12OsC4N(OF)3
_chemical_formula_sum   'H48 Os4 C16 N4 O12 F12'
_cell_volume   953.68628858
_cell_formula_units_Z   4
loop_
 _symmetry_equiv_pos_site_id
 _symmetry_equiv_pos_as_xyz
  1  'x, y, z'
loop_
 _atom_site_type_symbol
 _atom_site_label
 _atom_site_symmetry_multiplicity
 _atom_site_fract_x
 _atom_site_fract_y
 _atom_site_fract_z
 _atom_site_occupancy
  H  H0  1  0.330064  0.319150  0.385273  1
  H  H1  1  0.319150  0.330064  0.114727  1
  H  H2  1  0.669936  0.680850  0.614727  1
  H  H3  1  0.680850  0.669936  0.885273  1
  H  H4  1  0.341067  0.120921  0.503140  1
  H  H5  1  0.120921  0.341067  0.996860  1
  H  H6  1  0.658933  0.879079  0.496860  1
  H  H7  1  0.879079  0.658933  0.003140  1
  H  H8  1  0.446868  0.200377  0.407931  1
  H  H9  1  0.200377  0.446868  0.092069  1
  H  H10  1  0.553132  0.799623  0.592069  1
  H  H11  1  0.799623  0.553132  0.907931  1
  H  H12  1  0.904002  0.875771  0.132530  1
  H  H13  1  0.875771  0.904002  0.367470  1
  H  H14  1  0.095998  0.124229  0.867470  1
  H  H15  1  0.124229  0.095998  0.632530  1
  H  H16  1  0.707462  0.890266  0.002330  1
  H  H17  1  0.890266  0.707462  0.497670  1
  H  H18  1  0.292538  0.109734  0.997670  1
  H  H19  1  0.109734  0.292538  0.502330  1
  H  H20  1  0.778160  0.007768  0.083329  1
  H  H21  1  0.007768  0.778160  0.416671  1
  H  H22  1  0.221840  0.992232  0.916671  1
  H  H23  1  0.992232  0.221840  0.583329  1
  H  H24  1  0.616657  0.918728  0.194606  1
  H  H25  1  0.918728  0.616657  0.305394  1
  H  H26  1  0.383343  0.081272  0.805394  1
  H  H27  1  0.081272  0.383343  0.694606  1
  H  H28  1  0.545592  0.801428  0.112294  1
  H  H29  1  0.801428  0.545592  0.387706  1
  H  H30  1  0.454408  0.198572  0.887706  1
  H  H31  1  0.198572  0.454408  0.612294  1
  H  H32  1  0.624571  0.723248  0.321735  1
  H  H33  1  0.723248  0.624571  0.178265  1
  H  H34  1  0.375429  0.276752  0.678265  1
  H  H35  1  0.276752  0.375429  0.821735  1
  H  H36  1  0.334066  0.058474  0.272819  1
  H  H37  1  0.058474  0.334066  0.227181  1
  H  H38  1  0.665934  0.941526  0.727181  1
  H  H39  1  0.941526  0.665934  0.772819  1
  H  H40  1  0.229550  0.979263  0.370228  1
  H  H41  1  0.979263  0.229550  0.129772  1
  H  H42  1  0.770450  0.020737  0.629772  1
  H  H43  1  0.020737  0.770450  0.870228  1
  H  H44  1  0.135428  0.073726  0.156303  1
  H  H45  1  0.073726  0.135428  0.343697  1
  H  H46  1  0.864572  0.926274  0.843697  1
  H  H47  1  0.926274  0.864572  0.656303  1
  Os  Os48  1  0.734395  0.332818  0.701692  1
  Os  Os49  1  0.332818  0.734395  0.798308  1
  Os  Os50  1  0.265605  0.667182  0.298308  1
  Os  Os51  1  0.667182  0.265605  0.201692  1
  C  C52  1  0.342294  0.213506  0.397377  1
  C  C53  1  0.213506  0.342294  0.102623  1
  C  C54  1  0.657706  0.786494  0.602623  1
  C  C55  1  0.786494  0.657706  0.897377  1
  C  C56  1  0.794013  0.897642  0.106527  1
  C  C57  1  0.897642  0.794013  0.393473  1
  C  C58  1  0.205987  0.102358  0.893473  1
  C  C59  1  0.102358  0.205987  0.606527  1
  C  C60  1  0.631233  0.808595  0.216826  1
  C  C61  1  0.808595  0.631233  0.283174  1
  C  C62  1  0.368767  0.191405  0.783174  1
  C  C63  1  0.191405  0.368767  0.716826  1
  C  C64  1  0.230212  0.070846  0.263638  1
  C  C65  1  0.070846  0.230212  0.236362  1
  C  C66  1  0.769788  0.929154  0.736362  1
  C  C67  1  0.929154  0.769788  0.763638  1
  N  N68  1  0.214817  0.214817  0.250000  1
  N  N69  1  0.785183  0.785183  0.750000  1
  N  N70  1  0.782440  0.782440  0.250000  1
  N  N71  1  0.217560  0.217560  0.750000  1
  O  O72  1  0.621069  0.468481  0.503510  1
  O  O73  1  0.468481  0.621069  0.996490  1
  O  O74  1  0.378931  0.531519  0.496490  1
  O  O75  1  0.531519  0.378931  0.003510  1
  O  O76  1  0.638654  0.182259  0.714832  1
  O  O77  1  0.182259  0.638654  0.785168  1
  O  O78  1  0.361346  0.817741  0.285168  1
  O  O79  1  0.817741  0.361346  0.214832  1
  O  O80  1  0.697230  0.382980  0.799837  1
  O  O81  1  0.382980  0.697230  0.700163  1
  O  O82  1  0.302770  0.617020  0.200163  1
  O  O83  1  0.617020  0.302770  0.299837  1
  F  F84  1  0.889581  0.470766  0.712047  1
  F  F85  1  0.470766  0.889581  0.787953  1
  F  F86  1  0.110419  0.529234  0.287953  1
  F  F87  1  0.529234  0.110419  0.212047  1
  F  F88  1  0.910391  0.196172  0.912371  1
  F  F89  1  0.196172  0.910391  0.587629  1
  F  F90  1  0.089609  0.803828  0.087629  1
  F  F91  1  0.803828  0.089609  0.412371  1
  F  F92  1  0.838532  0.278964  0.632690  1
  F  F93  1  0.278964  0.838532  0.867310  1
  F  F94  1  0.161468  0.721036  0.367310  1
  F  F95  1  0.721036  0.161468  0.132690  1
