# generated using pymatgen
data_K2Eu2O3
_symmetry_space_group_name_H-M   'P 1'
_cell_length_a   7.03851124
_cell_length_b   7.15194383
_cell_length_c   7.08311191
_cell_angle_alpha   90.00000000
_cell_angle_beta   117.50658266
_cell_angle_gamma   90.00000000
_symmetry_Int_Tables_number   1
_chemical_formula_structural   K2Eu2O3
_chemical_formula_sum   'K4 Eu4 O6'
_cell_volume   316.25103338
_cell_formula_units_Z   2
loop_
 _symmetry_equiv_pos_site_id
 _symmetry_equiv_pos_as_xyz
  1  'x, y, z'
loop_
 _atom_site_type_symbol
 _atom_site_label
 _atom_site_symmetry_multiplicity
 _atom_site_fract_x
 _atom_site_fract_y
 _atom_site_fract_z
 _atom_site_occupancy
  Eu  Eu0  1  0.329592  0.376327  0.569610  1
  Eu  Eu1  1  0.670408  0.876327  0.930390  1
  Eu  Eu2  1  0.329592  0.123673  0.069610  1
  Eu  Eu3  1  0.670408  0.623673  0.430390  1
  K  K4  1  0.175210  0.647060  0.926371  1
  K  K5  1  0.175210  0.852940  0.426371  1
  K  K6  1  0.824790  0.147060  0.573629  1
  K  K7  1  0.824790  0.352940  0.073629  1
  O  O8  1  0.000000  0.500000  0.500000  1
  O  O9  1  0.000000  0.000000  0.000000  1
  O  O10  1  0.401271  0.102948  0.771932  1
  O  O11  1  0.598729  0.602948  0.728068  1
  O  O12  1  0.401271  0.397052  0.271932  1
  O  O13  1  0.598729  0.897052  0.228068  1
