# generated using pymatgen
data_Li9V12Fe7O48
_symmetry_space_group_name_H-M   'P 1'
_cell_length_a   5.10463889
_cell_length_b   10.18038522
_cell_length_c   17.40312314
_cell_angle_alpha   89.85665402
_cell_angle_beta   89.31323185
_cell_angle_gamma   90.02192394
_symmetry_Int_Tables_number   1
_chemical_formula_structural   Li9V12Fe7O48
_chemical_formula_sum   'Li9 V12 Fe7 O48'
_cell_volume   904.32353778
_cell_formula_units_Z   1
loop_
 _symmetry_equiv_pos_site_id
 _symmetry_equiv_pos_as_xyz
  1  'x, y, z'
loop_
 _atom_site_type_symbol
 _atom_site_label
 _atom_site_symmetry_multiplicity
 _atom_site_fract_x
 _atom_site_fract_y
 _atom_site_fract_z
 _atom_site_occupancy
  Li  Li0  1  0.096274  0.251312  0.251501  1
  Li  Li1  1  0.248978  0.415892  0.971157  1
  Li  Li2  1  0.254100  0.581306  0.472124  1
  Li  Li3  1  0.256606  0.918680  0.472897  1
  Li  Li4  1  0.234830  0.251358  0.802316  1
  Li  Li5  1  0.758865  0.751643  0.190639  1
  Li  Li6  1  0.749627  0.917998  0.028262  1
  Li  Li7  1  0.743287  0.250287  0.701064  1
  Li  Li8  1  0.904105  0.751315  0.748145  1
  V  V9  1  0.219743  0.747861  0.942462  1
  V  V10  1  0.224529  0.029816  0.654776  1
  V  V11  1  0.220680  0.470237  0.653485  1
  V  V12  1  0.288560  0.526515  0.152388  1
  V  V13  1  0.283088  0.974398  0.156687  1
  V  V14  1  0.288710  0.250841  0.443086  1
  V  V15  1  0.718101  0.749855  0.559296  1
  V  V16  1  0.715264  0.475297  0.844451  1
  V  V17  1  0.712834  0.026165  0.847928  1
  V  V18  1  0.772836  0.530712  0.343587  1
  V  V19  1  0.772658  0.969693  0.344823  1
  V  V20  1  0.780092  0.248198  0.057094  1
  Fe  Fe21  1  0.239557  0.751030  0.298200  1
  Fe  Fe22  1  0.237966  0.069302  0.975231  1
  Fe  Fe23  1  0.403788  0.750507  0.750299  1
  Fe  Fe24  1  0.596767  0.249725  0.248760  1
  Fe  Fe25  1  0.759260  0.070869  0.527791  1
  Fe  Fe26  1  0.756020  0.429473  0.526714  1
  Fe  Fe27  1  0.760477  0.569283  0.023623  1
  O  O28  1  0.061468  0.237419  0.994870  1
  O  O29  1  0.062431  0.618797  0.364954  1
  O  O30  1  0.060733  0.881112  0.367292  1
  O  O31  1  0.110493  0.634057  0.211208  1
  O  O32  1  0.088320  0.870285  0.215860  1
  O  O33  1  0.089348  0.118342  0.466466  1
  O  O34  1  0.088083  0.383650  0.465258  1
  O  O35  1  0.088642  0.007933  0.075269  1
  O  O36  1  0.083055  0.491941  0.075960  1
  O  O37  1  0.162662  0.747447  0.843762  1
  O  O38  1  0.165084  0.616851  0.703142  1
  O  O39  1  0.165846  0.882376  0.704216  1
  O  O40  1  0.352956  0.118171  0.207452  1
  O  O41  1  0.358527  0.384881  0.203736  1
  O  O42  1  0.360212  0.252187  0.345673  1
  O  O43  1  0.428342  0.500116  0.573610  1
  O  O44  1  0.432140  0.003009  0.575047  1
  O  O45  1  0.398884  0.889583  0.965897  1
  O  O46  1  0.433038  0.621091  0.964054  1
  O  O47  1  0.392687  0.131428  0.713523  1
  O  O48  1  0.400307  0.368843  0.710007  1
  O  O49  1  0.424100  0.113543  0.879195  1
  O  O50  1  0.443556  0.385283  0.870475  1
  O  O51  1  0.453869  0.749824  0.499812  1
  O  O52  1  0.580395  0.249859  0.507086  1
  O  O53  1  0.577880  0.611161  0.121038  1
  O  O54  1  0.558813  0.890686  0.130412  1
  O  O55  1  0.563597  0.630605  0.290877  1
  O  O56  1  0.556795  0.869409  0.295108  1
  O  O57  1  0.567332  0.122596  0.034821  1
  O  O58  1  0.602320  0.390734  0.033310  1
  O  O59  1  0.601900  0.012224  0.428276  1
  O  O60  1  0.599585  0.489611  0.427086  1
  O  O61  1  0.641634  0.751304  0.657524  1
  O  O62  1  0.642673  0.618440  0.792772  1
  O  O63  1  0.642367  0.884660  0.795913  1
  O  O64  1  0.833445  0.114458  0.293810  1
  O  O65  1  0.834892  0.386321  0.292886  1
  O  O66  1  0.835162  0.248493  0.155895  1
  O  O67  1  0.913957  0.510485  0.926526  1
  O  O68  1  0.920661  0.990257  0.925404  1
  O  O69  1  0.913499  0.609369  0.538027  1
  O  O70  1  0.913210  0.890177  0.537671  1
  O  O71  1  0.886018  0.130298  0.789450  1
  O  O72  1  0.909581  0.376685  0.787028  1
  O  O73  1  0.932971  0.112531  0.625055  1
  O  O74  1  0.931830  0.384603  0.623577  1
  O  O75  1  0.937090  0.737301  0.004928  1
