# generated using pymatgen
data_LiVP2HO8
_symmetry_space_group_name_H-M   'P 1'
_cell_length_a   9.36242136
_cell_length_b   9.34636251
_cell_length_c   7.48070695
_cell_angle_alpha   97.96877476
_cell_angle_beta   97.92932612
_cell_angle_gamma   117.49468633
_symmetry_Int_Tables_number   1
_chemical_formula_structural   LiVP2HO8
_chemical_formula_sum   'Li4 V4 P8 H4 O32'
_cell_volume   559.65325374
_cell_formula_units_Z   4
loop_
 _symmetry_equiv_pos_site_id
 _symmetry_equiv_pos_as_xyz
  1  'x, y, z'
loop_
 _atom_site_type_symbol
 _atom_site_label
 _atom_site_symmetry_multiplicity
 _atom_site_fract_x
 _atom_site_fract_y
 _atom_site_fract_z
 _atom_site_occupancy
  Li  Li0  1  0.266773  0.137244  0.854639  1
  Li  Li1  1  0.637535  0.268758  0.354635  1
  Li  Li2  1  0.138972  0.769555  0.350945  1
  Li  Li3  1  0.727752  0.856561  0.144760  1
  V  V4  1  0.997691  0.494242  0.994659  1
  V  V5  1  0.495611  0.501592  0.500183  1
  V  V6  1  0.995977  0.001809  0.500633  1
  V  V7  1  0.498216  0.995264  0.995171  1
  P  P8  1  0.261022  0.110335  0.232293  1
  P  P9  1  0.238548  0.395105  0.763737  1
  P  P10  1  0.607443  0.264154  0.734891  1
  P  P11  1  0.107243  0.760461  0.736741  1
  P  P12  1  0.391857  0.739441  0.268679  1
  P  P13  1  0.892913  0.242219  0.265801  1
  P  P14  1  0.759329  0.605851  0.230659  1
  P  P15  1  0.736135  0.890070  0.762285  1
  H  H16  1  0.504220  0.007888  0.505316  1
  H  H17  1  0.003756  0.506955  0.503729  1
  H  H18  1  0.482482  0.490235  0.990665  1
  H  H19  1  0.983470  0.989569  0.989917  1
  O  O20  1  0.154205  0.207906  0.653505  1
  O  O21  1  0.107615  0.434606  0.817027  1
  O  O22  1  0.148266  0.087000  0.050647  1
  O  O23  1  0.000677  0.330063  0.136504  1
  O  O24  1  0.491183  0.164698  0.854704  1
  O  O25  1  0.352486  0.398017  0.937786  1
  O  O26  1  0.405295  0.082958  0.189036  1
  O  O27  1  0.343509  0.291610  0.351527  1
  O  O28  1  0.593271  0.149662  0.555146  1
  O  O29  1  0.089929  0.650569  0.552133  1
  O  O30  1  0.833132  0.001616  0.640072  1
  O  O31  1  0.330908  0.504092  0.638101  1
  O  O32  1  0.569610  0.397043  0.682847  1
  O  O33  1  0.080837  0.903944  0.688868  1
  O  O34  1  0.291139  0.846362  0.853263  1
  O  O35  1  0.787884  0.345566  0.854384  1
  O  O36  1  0.207747  0.656066  0.155020  1
  O  O37  1  0.705525  0.155971  0.155535  1
  O  O38  1  0.922336  0.099866  0.312255  1
  O  O39  1  0.434305  0.608384  0.318087  1
  O  O40  1  0.666551  0.491694  0.355408  1
  O  O41  1  0.164957  0.994402  0.355187  1
  O  O42  1  0.401282  0.858083  0.439254  1
  O  O43  1  0.904692  0.356847  0.441430  1
  O  O44  1  0.653036  0.707758  0.650874  1
  O  O45  1  0.604931  0.930989  0.816875  1
  O  O46  1  0.646228  0.601169  0.061035  1
  O  O47  1  0.505866  0.832236  0.141433  1
  O  O48  1  0.997547  0.665215  0.859132  1
  O  O49  1  0.849403  0.909355  0.947385  1
  O  O50  1  0.902690  0.579256  0.188006  1
  O  O51  1  0.844112  0.791771  0.351051  1
