# generated using pymatgen
data_LiTiP2O7
_symmetry_space_group_name_H-M   'P 1'
_cell_length_a   5.27045301
_cell_length_b   8.20202958
_cell_length_c   13.39785875
_cell_angle_alpha   90.00000000
_cell_angle_beta   90.05058717
_cell_angle_gamma   90.00000000
_symmetry_Int_Tables_number   1
_chemical_formula_structural   LiTiP2O7
_chemical_formula_sum   'Li4 Ti4 P8 O28'
_cell_volume   579.16792497
_cell_formula_units_Z   4
loop_
 _symmetry_equiv_pos_site_id
 _symmetry_equiv_pos_as_xyz
  1  'x, y, z'
loop_
 _atom_site_type_symbol
 _atom_site_label
 _atom_site_symmetry_multiplicity
 _atom_site_fract_x
 _atom_site_fract_y
 _atom_site_fract_z
 _atom_site_occupancy
  Li  Li0  1  0.198665  0.763525  0.255912  1
  Li  Li1  1  0.301335  0.263525  0.244088  1
  Li  Li2  1  0.698665  0.736475  0.755912  1
  Li  Li3  1  0.801335  0.236475  0.744088  1
  Ti  Ti4  1  0.202033  0.650705  0.875768  1
  Ti  Ti5  1  0.297967  0.150705  0.624232  1
  Ti  Ti6  1  0.702033  0.849295  0.375768  1
  Ti  Ti7  1  0.797967  0.349295  0.124232  1
  P  P8  1  0.194113  0.796056  0.522099  1
  P  P9  1  0.220698  0.542174  0.677994  1
  P  P10  1  0.279302  0.042174  0.822006  1
  P  P11  1  0.305887  0.296056  0.977901  1
  P  P12  1  0.694113  0.703944  0.022099  1
  P  P13  1  0.720698  0.957826  0.177994  1
  P  P14  1  0.779302  0.457826  0.322006  1
  P  P15  1  0.805887  0.203944  0.477901  1
  O  O16  1  0.970428  0.936498  0.233110  1
  O  O17  1  0.016942  0.635727  0.737554  1
  O  O18  1  0.088152  0.180972  0.493623  1
  O  O19  1  0.192197  0.414217  0.900221  1
  O  O20  1  0.141060  0.363458  0.663404  1
  O  O21  1  0.150579  0.294975  0.075748  1
  O  O22  1  0.236662  0.613720  0.566402  1
  O  O23  1  0.263338  0.113720  0.933598  1
  O  O24  1  0.349421  0.794975  0.424252  1
  O  O25  1  0.358940  0.863458  0.836596  1
  O  O26  1  0.307803  0.914217  0.599779  1
  O  O27  1  0.411848  0.680972  0.006377  1
  O  O28  1  0.483058  0.135727  0.762446  1
  O  O29  1  0.529572  0.436498  0.266890  1
  O  O30  1  0.470428  0.563502  0.733110  1
  O  O31  1  0.516942  0.864273  0.237554  1
  O  O32  1  0.588152  0.319028  0.993623  1
  O  O33  1  0.692197  0.085783  0.400221  1
  O  O34  1  0.641060  0.136542  0.163404  1
  O  O35  1  0.650579  0.205025  0.575748  1
  O  O36  1  0.736662  0.886280  0.066402  1
  O  O37  1  0.763338  0.386280  0.433598  1
  O  O38  1  0.849421  0.705025  0.924252  1
  O  O39  1  0.858940  0.636542  0.336596  1
  O  O40  1  0.807803  0.585783  0.099779  1
  O  O41  1  0.911848  0.819028  0.506377  1
  O  O42  1  0.983058  0.364273  0.262446  1
  O  O43  1  0.029572  0.063502  0.766890  1
