# generated using pymatgen
data_NaCrAsCO7
_symmetry_space_group_name_H-M   'P 1'
_cell_length_a   9.26561309
_cell_length_b   6.47245533
_cell_length_c   5.37264476
_cell_angle_alpha   90.00000000
_cell_angle_beta   87.27337290
_cell_angle_gamma   90.00000000
_symmetry_Int_Tables_number   1
_chemical_formula_structural   NaCrAsCO7
_chemical_formula_sum   'Na2 Cr2 As2 C2 O14'
_cell_volume   321.83953731
_cell_formula_units_Z   2
loop_
 _symmetry_equiv_pos_site_id
 _symmetry_equiv_pos_as_xyz
  1  'x, y, z'
loop_
 _atom_site_type_symbol
 _atom_site_label
 _atom_site_symmetry_multiplicity
 _atom_site_fract_x
 _atom_site_fract_y
 _atom_site_fract_z
 _atom_site_occupancy
  Na  Na0  1  0.217271  0.484727  0.230570  1
  Na  Na1  1  0.782729  0.984727  0.769430  1
  Cr  Cr2  1  0.333576  0.762460  0.792329  1
  Cr  Cr3  1  0.666424  0.262460  0.207671  1
  As  As4  1  0.434557  0.254688  0.716983  1
  As  As5  1  0.565443  0.754688  0.283017  1
  C  C6  1  0.079516  0.744332  0.726406  1
  C  C7  1  0.920484  0.244332  0.273594  1
  O  O8  1  0.048384  0.250761  0.321576  1
  O  O9  1  0.134575  0.750274  0.948572  1
  O  O10  1  0.189325  0.733911  0.549279  1
  O  O11  1  0.319879  0.050229  0.792603  1
  O  O12  1  0.325016  0.456135  0.808144  1
  O  O13  1  0.410065  0.740830  0.122796  1
  O  O14  1  0.476596  0.269505  0.402912  1
  O  O15  1  0.523404  0.769505  0.597088  1
  O  O16  1  0.589935  0.240830  0.877204  1
  O  O17  1  0.674984  0.956135  0.191856  1
  O  O18  1  0.680121  0.550229  0.207397  1
  O  O19  1  0.810675  0.233911  0.450721  1
  O  O20  1  0.865425  0.250274  0.051428  1
  O  O21  1  0.951616  0.750761  0.678424  1
