# generated using pymatgen
data_SiH8(NF3)2
_symmetry_space_group_name_H-M   'P 1'
_cell_length_a   5.93892096
_cell_length_b   5.93893457
_cell_length_c   9.62094114
_cell_angle_alpha   89.99990525
_cell_angle_beta   90.00012490
_cell_angle_gamma   120.00083316
_symmetry_Int_Tables_number   1
_chemical_formula_structural   SiH8(NF3)2
_chemical_formula_sum   'Si2 H16 N4 F12'
_cell_volume   293.87363770
_cell_formula_units_Z   2
loop_
 _symmetry_equiv_pos_site_id
 _symmetry_equiv_pos_as_xyz
  1  'x, y, z'
loop_
 _atom_site_type_symbol
 _atom_site_label
 _atom_site_symmetry_multiplicity
 _atom_site_fract_x
 _atom_site_fract_y
 _atom_site_fract_z
 _atom_site_occupancy
  Si  Si0  1  0.333336  0.666671  0.248134  1
  Si  Si1  1  0.666666  0.333334  0.748135  1
  H  H2  1  0.094617  0.905384  0.546413  1
  H  H3  1  0.144442  0.572221  0.904715  1
  H  H4  1  -0.000000  0.000000  0.188259  1
  H  H5  1  0.000000  -0.000000  0.688259  1
  H  H6  1  0.094618  0.189234  0.546413  1
  H  H7  1  0.333331  0.666662  0.762897  1
  H  H8  1  0.427779  0.855556  0.904712  1
  H  H9  1  0.189235  0.094618  0.046413  1
  H  H10  1  0.427777  0.572222  0.904715  1
  H  H11  1  0.572223  0.427778  0.404712  1
  H  H12  1  0.810765  0.905382  0.546413  1
  H  H13  1  0.905382  0.810766  0.046413  1
  H  H14  1  0.572221  0.144443  0.404715  1
  H  H15  1  0.666669  0.333331  0.262897  1
  H  H16  1  0.855558  0.427779  0.404715  1
  H  H17  1  0.905383  0.094616  0.046413  1
  N  N18  1  -0.000001  0.000000  0.081266  1
  N  N19  1  1.000000  0.000000  0.581266  1
  N  N20  1  0.333333  0.666665  0.869764  1
  N  N21  1  0.666668  0.333333  0.369765  1
  F  F22  1  0.196373  0.803639  0.352650  1
  F  F23  1  0.059681  0.529844  0.146077  1
  F  F24  1  0.470162  0.940324  0.146075  1
  F  F25  1  0.196362  0.392725  0.352644  1
  F  F26  1  0.470161  0.529851  0.146072  1
  F  F27  1  0.607279  0.803641  0.352646  1
  F  F28  1  0.392726  0.196359  0.852645  1
  F  F29  1  0.529837  0.470156  0.646075  1
  F  F30  1  0.803639  0.607274  0.852645  1
  F  F31  1  0.529842  0.059682  0.646076  1
  F  F32  1  0.940318  0.470165  0.646075  1
  F  F33  1  0.803632  0.196361  0.852647  1
