# generated using pymatgen
data_NiH36C12S6(I2O3)2
_symmetry_space_group_name_H-M   'P 1'
_cell_length_a   9.71779762
_cell_length_b   9.71776286
_cell_length_c   9.71770029
_cell_angle_alpha   76.77767028
_cell_angle_beta   76.77432862
_cell_angle_gamma   76.77423181
_symmetry_Int_Tables_number   1
_chemical_formula_structural   NiH36C12S6(I2O3)2
_chemical_formula_sum   'Ni1 H36 C12 S6 I4 O6'
_cell_volume   854.46081725
_cell_formula_units_Z   1
loop_
 _symmetry_equiv_pos_site_id
 _symmetry_equiv_pos_as_xyz
  1  'x, y, z'
loop_
 _atom_site_type_symbol
 _atom_site_label
 _atom_site_symmetry_multiplicity
 _atom_site_fract_x
 _atom_site_fract_y
 _atom_site_fract_z
 _atom_site_occupancy
  Ni  Ni0  1  0.999985  0.000002  0.999995  1
  H  H1  1  0.197206  0.955730  0.406078  1
  H  H2  1  0.109254  0.828762  0.543364  1
  H  H3  1  0.299493  0.937838  0.672407  1
  H  H4  1  0.117640  0.615722  0.339752  1
  H  H5  1  0.044273  0.593919  0.802792  1
  H  H6  1  0.253190  0.764186  0.406580  1
  H  H7  1  0.479377  0.964143  0.660400  1
  H  H8  1  0.456642  0.890743  0.171244  1
  H  H9  1  0.327596  0.700510  0.062163  1
  H  H10  1  0.235819  0.593418  0.746807  1
  H  H11  1  0.035856  0.339606  0.520636  1
  H  H12  1  0.171242  0.456631  0.890745  1
  H  H13  1  0.384279  0.660240  0.882365  1
  H  H14  1  0.062166  0.327595  0.700518  1
  H  H15  1  0.660240  0.882375  0.384265  1
  H  H16  1  0.593921  0.802799  0.044293  1
  H  H17  1  0.339608  0.520622  0.035857  1
  H  H18  1  0.593426  0.746806  0.235829  1
  H  H19  1  0.406573  0.253194  0.764172  1
  H  H20  1  0.660389  0.479382  0.964142  1
  H  H21  1  0.406079  0.197202  0.955708  1
  H  H22  1  0.339760  0.117624  0.615737  1
  H  H23  1  0.937835  0.672403  0.299484  1
  H  H24  1  0.615722  0.339760  0.117634  1
  H  H25  1  0.828759  0.543367  0.109256  1
  H  H26  1  0.964146  0.660393  0.479365  1
  H  H27  1  0.764181  0.406581  0.253194  1
  H  H28  1  0.672404  0.299493  0.937836  1
  H  H29  1  0.543350  0.109253  0.828757  1
  H  H30  1  0.520621  0.035858  0.339606  1
  H  H31  1  0.746812  0.235814  0.593419  1
  H  H32  1  0.955728  0.406080  0.197209  1
  H  H33  1  0.882362  0.384278  0.660247  1
  H  H34  1  0.700507  0.062162  0.327592  1
  H  H35  1  0.890747  0.171238  0.456632  1
  H  H36  1  0.802796  0.044270  0.593920  1
  C  C37  1  0.162602  0.851505  0.430409  1
  C  C38  1  0.011557  0.683376  0.364704  1
  C  C39  1  0.148508  0.569579  0.837389  1
  C  C40  1  0.635265  0.988432  0.316604  1
  C  C41  1  0.316630  0.635272  0.988445  1
  C  C42  1  0.569607  0.837396  0.148524  1
  C  C43  1  0.430385  0.162604  0.851478  1
  C  C44  1  0.683368  0.364732  0.011553  1
  C  C45  1  0.364731  0.011569  0.683399  1
  C  C46  1  0.851491  0.430421  0.162611  1
  C  C47  1  0.988439  0.316626  0.635298  1
  C  C48  1  0.837401  0.148497  0.569585  1
  S  S49  1  0.031207  0.868201  0.321335  1
  S  S50  1  0.131795  0.678674  0.968778  1
  S  S51  1  0.678675  0.968788  0.131794  1
  S  S52  1  0.321313  0.031213  0.868210  1
  S  S53  1  0.868201  0.321325  0.031223  1
  S  S54  1  0.968788  0.131800  0.678666  1
  I  I55  1  0.572410  0.572407  0.572415  1
  I  I56  1  0.427595  0.427592  0.427584  1
  I  I57  1  0.262548  0.262546  0.262522  1
  I  I58  1  0.737458  0.737455  0.737483  1
  O  O59  1  0.113558  0.892352  0.165982  1
  O  O60  1  0.107654  0.834017  0.886420  1
  O  O61  1  0.834020  0.886429  0.107651  1
  O  O62  1  0.165962  0.113565  0.892347  1
  O  O63  1  0.892331  0.165980  0.113580  1
  O  O64  1  0.886419  0.107656  0.834012  1
