# generated using pymatgen
data_Li4FeNi3O8
_symmetry_space_group_name_H-M   'P 1'
_cell_length_a   5.78742386
_cell_length_b   5.82420586
_cell_length_c   5.90382562
_cell_angle_alpha   119.99801866
_cell_angle_beta   119.60056101
_cell_angle_gamma   61.21007652
_symmetry_Int_Tables_number   1
_chemical_formula_structural   Li4FeNi3O8
_chemical_formula_sum   'Li4 Fe1 Ni3 O8'
_cell_volume   142.39039699
_cell_formula_units_Z   1
loop_
 _symmetry_equiv_pos_site_id
 _symmetry_equiv_pos_as_xyz
  1  'x, y, z'
loop_
 _atom_site_type_symbol
 _atom_site_label
 _atom_site_symmetry_multiplicity
 _atom_site_fract_x
 _atom_site_fract_y
 _atom_site_fract_z
 _atom_site_occupancy
  Li  Li0  1  0.499991  0.500025  0.500012  1
  Li  Li1  1  0.999994  0.500022  0.500015  1
  Li  Li2  1  0.499981  -0.000006  0.499985  1
  Li  Li3  1  0.999999  0.000001  0.499996  1
  Fe  Fe4  1  0.499971  -0.000033  0.000002  1
  Ni  Ni5  1  0.500089  0.499861  -0.000032  1
  Ni  Ni6  1  0.000056  0.500016  0.000060  1
  Ni  Ni7  1  -0.000098  0.000098  -0.000036  1
  O  O8  1  0.715772  0.746972  0.229556  1
  O  O9  1  0.252730  0.720665  0.220710  1
  O  O10  1  0.773868  0.746205  0.786208  1
  O  O11  1  0.768280  0.226174  0.237684  1
  O  O12  1  0.231670  0.773888  0.762331  1
  O  O13  1  0.226127  0.253844  0.213864  1
  O  O14  1  0.747333  0.279302  0.779226  1
  O  O15  1  0.284234  0.252951  0.770414  1
