# generated using pymatgen
data_CaNdMn2O6
_symmetry_space_group_name_H-M   'P 1'
_cell_length_a   5.45571871
_cell_length_b   5.50210491
_cell_length_c   23.05982696
_cell_angle_alpha   89.95970957
_cell_angle_beta   90.00500488
_cell_angle_gamma   90.02722516
_symmetry_Int_Tables_number   1
_chemical_formula_structural   CaNdMn2O6
_chemical_formula_sum   'Ca6 Nd6 Mn12 O36'
_cell_volume   692.20817363
_cell_formula_units_Z   6
loop_
 _symmetry_equiv_pos_site_id
 _symmetry_equiv_pos_as_xyz
  1  'x, y, z'
loop_
 _atom_site_type_symbol
 _atom_site_label
 _atom_site_symmetry_multiplicity
 _atom_site_fract_x
 _atom_site_fract_y
 _atom_site_fract_z
 _atom_site_occupancy
  Ca  Ca0  1  0.490097  0.458932  0.419644  1
  Ca  Ca1  1  0.511504  0.538867  0.581082  1
  Ca  Ca2  1  0.511655  0.539500  0.915662  1
  Ca  Ca3  1  0.989385  0.039543  0.251987  1
  Ca  Ca4  1  0.989314  0.040187  0.582004  1
  Ca  Ca5  1  0.987972  0.039463  0.916002  1
  Nd  Nd6  1  0.009459  0.961225  0.082438  1
  Nd  Nd7  1  0.009171  0.960182  0.418280  1
  Nd  Nd8  1  0.007972  0.960073  0.749196  1
  Nd  Nd9  1  0.491306  0.460871  0.081944  1
  Nd  Nd10  1  0.492386  0.460352  0.749011  1
  Nd  Nd11  1  0.511283  0.539005  0.252617  1
  Mn  Mn12  1  0.999778  0.498834  0.168120  1
  Mn  Mn13  1  0.999534  0.498673  0.501343  1
  Mn  Mn14  1  0.500428  0.000412  0.168232  1
  Mn  Mn15  1  0.500816  0.999121  0.997153  1
  Mn  Mn16  1  0.500961  0.000091  0.501333  1
  Mn  Mn17  1  0.500645  0.999359  0.663841  1
  Mn  Mn18  1  0.500668  0.998869  0.835090  1
  Mn  Mn19  1  0.499919  0.001447  0.334533  1
  Mn  Mn20  1  0.998811  0.499308  0.997138  1
  Mn  Mn21  1  0.001701  0.497651  0.334823  1
  Mn  Mn22  1  0.999331  0.499735  0.663598  1
  Mn  Mn23  1  0.999209  0.498601  0.834954  1
  O  O24  1  0.080279  0.479795  0.251013  1
  O  O25  1  0.084849  0.475011  0.916112  1
  O  O26  1  0.084040  0.476857  0.582834  1
  O  O27  1  0.216043  0.215895  0.348044  1
  O  O28  1  0.220223  0.219528  0.015331  1
  O  O29  1  0.221549  0.220563  0.150974  1
  O  O30  1  0.215961  0.215829  0.485949  1
  O  O31  1  0.220829  0.220334  0.681651  1
  O  O32  1  0.221156  0.219251  0.817287  1
  O  O33  1  0.278519  0.720393  0.015392  1
  O  O34  1  0.281599  0.717598  0.151930  1
  O  O35  1  0.280463  0.719884  0.484558  1
  O  O36  1  0.285091  0.714394  0.348611  1
  O  O37  1  0.278357  0.720724  0.681843  1
  O  O38  1  0.280090  0.719853  0.817272  1
  O  O39  1  0.418158  0.980728  0.251097  1
  O  O40  1  0.414885  0.975044  0.915963  1
  O  O41  1  0.417095  0.975152  0.582869  1
  O  O42  1  0.576991  0.013598  0.083114  1
  O  O43  1  0.577967  0.018911  0.417431  1
  O  O44  1  0.575362  0.013722  0.749526  1
  O  O45  1  0.715373  0.283603  0.514041  1
  O  O46  1  0.712940  0.287398  0.180247  1
  O  O47  1  0.718560  0.282205  0.319532  1
  O  O48  1  0.711341  0.288061  0.653559  1
  O  O49  1  0.712108  0.286501  0.846125  1
  O  O50  1  0.711320  0.288141  0.986857  1
  O  O51  1  0.781615  0.782263  0.181628  1
  O  O52  1  0.783940  0.782296  0.319184  1
  O  O53  1  0.789207  0.788238  0.513118  1
  O  O54  1  0.787459  0.786923  0.846146  1
  O  O55  1  0.787766  0.787491  0.653727  1
  O  O56  1  0.787709  0.787911  0.986977  1
  O  O57  1  0.924068  0.514586  0.083350  1
  O  O58  1  0.918622  0.517994  0.417189  1
  O  O59  1  0.925162  0.513017  0.749493  1
