# generated using pymatgen
data_VO2
_symmetry_space_group_name_H-M   'P 1'
_cell_length_a   7.72902197
_cell_length_b   8.59806472
_cell_length_c   8.64903425
_cell_angle_alpha   90.17193088
_cell_angle_beta   89.96367591
_cell_angle_gamma   90.06496942
_symmetry_Int_Tables_number   1
_chemical_formula_structural   VO2
_chemical_formula_sum   'V16 O32'
_cell_volume   574.76530884
_cell_formula_units_Z   16
loop_
 _symmetry_equiv_pos_site_id
 _symmetry_equiv_pos_as_xyz
  1  'x, y, z'
loop_
 _atom_site_type_symbol
 _atom_site_label
 _atom_site_symmetry_multiplicity
 _atom_site_fract_x
 _atom_site_fract_y
 _atom_site_fract_z
 _atom_site_occupancy
  V  V0  1  0.371656  0.460903  0.747406  1
  V  V1  1  0.875206  0.749308  0.055667  1
  V  V2  1  0.125877  0.240076  0.550091  1
  V  V3  1  0.627097  0.961875  0.249746  1
  V  V4  1  0.124700  0.537465  0.250786  1
  V  V5  1  0.624121  0.260623  0.547572  1
  V  V6  1  0.876736  0.449278  0.757473  1
  V  V7  1  0.374283  0.752107  0.054724  1
  V  V8  1  0.376298  0.758096  0.452351  1
  V  V9  1  0.873225  0.049804  0.758240  1
  V  V10  1  0.623352  0.254090  0.943077  1
  V  V11  1  0.126623  0.240177  0.951169  1
  V  V12  1  0.626058  0.550526  0.242500  1
  V  V13  1  0.377814  0.050603  0.757467  1
  V  V14  1  0.122046  0.943550  0.251357  1
  V  V15  1  0.874405  0.748778  0.462343  1
  O  O16  1  0.618791  0.403243  0.745373  1
  O  O17  1  0.130644  0.401511  0.747612  1
  O  O18  1  0.118583  0.750152  0.402390  1
  O  O19  1  0.875478  0.251799  0.602866  1
  O  O20  1  0.875791  0.252322  0.899527  1
  O  O21  1  0.868279  0.902340  0.250549  1
  O  O22  1  0.631201  0.742492  0.401293  1
  O  O23  1  0.125385  0.752805  0.101376  1
  O  O24  1  0.369272  0.599736  0.252234  1
  O  O25  1  0.625593  0.101525  0.748473  1
  O  O26  1  0.375120  0.245679  0.600976  1
  O  O27  1  0.380925  0.901298  0.255535  1
  O  O28  1  0.881255  0.597081  0.250119  1
  O  O29  1  0.624326  0.746564  0.102515  1
  O  O30  1  0.125395  0.100854  0.748379  1
  O  O31  1  0.374441  0.249055  0.899910  1
  O  O32  1  0.625504  0.083983  0.406815  1
  O  O33  1  0.125572  0.415639  0.405520  1
  O  O34  1  0.875762  0.593805  0.584229  1
  O  O35  1  0.874668  0.911466  0.900018  1
  O  O36  1  0.624820  0.411247  0.099171  1
  O  O37  1  0.125495  0.099307  0.088152  1
  O  O38  1  0.375962  0.902996  0.586609  1
  O  O39  1  0.374978  0.583926  0.900243  1
  O  O40  1  0.125760  0.417761  0.092932  1
  O  O41  1  0.624533  0.404560  0.412900  1
  O  O42  1  0.624183  0.083805  0.097318  1
  O  O43  1  0.375286  0.911189  0.900751  1
  O  O44  1  0.125170  0.098043  0.410983  1
  O  O45  1  0.873752  0.906696  0.582033  1
  O  O46  1  0.874639  0.586492  0.900320  1
  O  O47  1  0.373942  0.583371  0.590910  1
