# generated using pymatgen
data_Li3BiS4
_symmetry_space_group_name_H-M   'P 1'
_cell_length_a   7.14167428
_cell_length_b   10.10778604
_cell_length_c   9.77378427
_cell_angle_alpha   90.00000000
_cell_angle_beta   90.00000000
_cell_angle_gamma   90.00000000
_symmetry_Int_Tables_number   1
_chemical_formula_structural   Li3BiS4
_chemical_formula_sum   'Li12 Bi4 S16'
_cell_volume   705.53543058
_cell_formula_units_Z   4
loop_
 _symmetry_equiv_pos_site_id
 _symmetry_equiv_pos_as_xyz
  1  'x, y, z'
loop_
 _atom_site_type_symbol
 _atom_site_label
 _atom_site_symmetry_multiplicity
 _atom_site_fract_x
 _atom_site_fract_y
 _atom_site_fract_z
 _atom_site_occupancy
  Li  Li0  1  0.227733  0.587730  0.215828  1
  Li  Li1  1  0.227733  0.912270  0.215828  1
  Li  Li2  1  0.191480  0.250000  0.391706  1
  Li  Li3  1  0.308520  0.750000  0.891706  1
  Li  Li4  1  0.272267  0.412270  0.715828  1
  Li  Li5  1  0.272267  0.087730  0.715828  1
  Li  Li6  1  0.727733  0.587730  0.284172  1
  Li  Li7  1  0.727733  0.912270  0.284172  1
  Li  Li8  1  0.691480  0.250000  0.108294  1
  Li  Li9  1  0.808520  0.750000  0.608294  1
  Li  Li10  1  0.772267  0.087730  0.784172  1
  Li  Li11  1  0.772267  0.412270  0.784172  1
  Bi  Bi12  1  0.248345  0.250000  0.018294  1
  Bi  Bi13  1  0.251654  0.750000  0.518294  1
  Bi  Bi14  1  0.748345  0.250000  0.481706  1
  Bi  Bi15  1  0.751655  0.750000  0.981706  1
  S  S16  1  0.005802  0.750000  0.805172  1
  S  S17  1  0.142590  0.478391  0.483529  1
  S  S18  1  0.142590  0.021609  0.483529  1
  S  S19  1  0.037665  0.250000  0.801173  1
  S  S20  1  0.462335  0.750000  0.301173  1
  S  S21  1  0.357410  0.978391  0.983529  1
  S  S22  1  0.357410  0.521609  0.983529  1
  S  S23  1  0.494198  0.250000  0.305172  1
  S  S24  1  0.505802  0.750000  0.694828  1
  S  S25  1  0.642590  0.478391  0.016471  1
  S  S26  1  0.642590  0.021609  0.016471  1
  S  S27  1  0.537665  0.250000  0.698827  1
  S  S28  1  0.962335  0.750000  0.198827  1
  S  S29  1  0.857410  0.978391  0.516471  1
  S  S30  1  0.857410  0.521609  0.516471  1
  S  S31  1  0.994198  0.250000  0.194828  1
