# generated using pymatgen
data_V2O3F2
_symmetry_space_group_name_H-M   'P 1'
_cell_length_a   5.10159390
_cell_length_b   5.67092801
_cell_length_c   7.67839795
_cell_angle_alpha   121.98116143
_cell_angle_beta   111.96068621
_cell_angle_gamma   82.58197650
_symmetry_Int_Tables_number   1
_chemical_formula_structural   V2O3F2
_chemical_formula_sum   'V4 O6 F4'
_cell_volume   174.08096277
_cell_formula_units_Z   2
loop_
 _symmetry_equiv_pos_site_id
 _symmetry_equiv_pos_as_xyz
  1  'x, y, z'
loop_
 _atom_site_type_symbol
 _atom_site_label
 _atom_site_symmetry_multiplicity
 _atom_site_fract_x
 _atom_site_fract_y
 _atom_site_fract_z
 _atom_site_occupancy
  V  V0  1  0.193748  0.563010  0.223667  1
  V  V1  1  0.413669  0.033979  0.820690  1
  V  V2  1  0.586331  0.966021  0.179310  1
  V  V3  1  0.806252  0.436990  0.776333  1
  O  O4  1  0.132704  0.298996  0.910024  1
  O  O5  1  0.314259  0.811837  0.924215  1
  O  O6  1  0.527931  0.235382  0.712181  1
  O  O7  1  0.472069  0.764618  0.287819  1
  O  O8  1  0.685741  0.188163  0.075785  1
  O  O9  1  0.867296  0.701004  0.089976  1
  F  F10  1  0.142289  0.775411  0.514234  1
  F  F11  1  0.324143  0.275073  0.294289  1
  F  F12  1  0.675857  0.724927  0.705711  1
  F  F13  1  0.857711  0.224589  0.485766  1
