# generated using pymatgen
data_KHoCoSi2O7
_symmetry_space_group_name_H-M   'P 1'
_cell_length_a   8.10950346
_cell_length_b   8.59137336
_cell_length_c   9.97826451
_cell_angle_alpha   90.00000000
_cell_angle_beta   90.00000000
_cell_angle_gamma   108.56830305
_symmetry_Int_Tables_number   1
_chemical_formula_structural   KHoCoSi2O7
_chemical_formula_sum   'K4 Ho4 Co4 Si8 O28'
_cell_volume   659.01436286
_cell_formula_units_Z   4
loop_
 _symmetry_equiv_pos_site_id
 _symmetry_equiv_pos_as_xyz
  1  'x, y, z'
loop_
 _atom_site_type_symbol
 _atom_site_label
 _atom_site_symmetry_multiplicity
 _atom_site_fract_x
 _atom_site_fract_y
 _atom_site_fract_z
 _atom_site_occupancy
  K  K0  1  0.292951  0.742106  0.917905  1
  K  K1  1  0.207121  0.257974  0.417902  1
  K  K2  1  0.707049  0.257894  0.917905  1
  K  K3  1  0.792879  0.742026  0.417902  1
  Ho  Ho4  1  0.750328  0.204674  0.492634  1
  Ho  Ho5  1  0.249672  0.795326  0.492634  1
  Ho  Ho6  1  0.250291  0.204657  0.992631  1
  Ho  Ho7  1  0.749709  0.795343  0.992631  1
  Co  Co8  1  0.000000  0.500000  0.204103  1
  Co  Co9  1  0.500000  0.000000  0.215017  1
  Co  Co10  1  0.000000  0.000000  0.715020  1
  Co  Co11  1  0.500000  0.500000  0.704176  1
  Si  Si12  1  0.603700  0.873506  0.675522  1
  Si  Si13  1  0.896320  0.126517  0.175509  1
  Si  Si14  1  0.425630  0.644649  0.263281  1
  Si  Si15  1  0.396300  0.126494  0.675522  1
  Si  Si16  1  0.103680  0.873483  0.175509  1
  Si  Si17  1  0.925632  0.644643  0.763324  1
  Si  Si18  1  0.074368  0.355357  0.763324  1
  Si  Si19  1  0.574370  0.355351  0.263281  1
  O  O20  1  0.710533  0.038893  0.100413  1
  O  O21  1  0.000000  0.000000  0.112790  1
  O  O22  1  0.508702  0.179636  0.348106  1
  O  O23  1  0.121880  0.883755  0.336074  1
  O  O24  1  0.878120  0.116245  0.336074  1
  O  O25  1  0.500000  0.500000  0.329322  1
  O  O26  1  0.217814  0.584482  0.306745  1
  O  O27  1  0.008673  0.179617  0.848109  1
  O  O28  1  0.782186  0.415518  0.306745  1
  O  O29  1  0.531136  0.300984  0.620594  1
  O  O30  1  0.210522  0.038871  0.600397  1
  O  O31  1  -0.001905  0.319007  0.610826  1
  O  O32  1  0.968844  0.699017  0.120548  1
  O  O33  1  0.500000  0.000000  0.612791  1
  O  O34  1  0.991327  0.820383  0.848109  1
  O  O35  1  1.001905  0.680993  0.610826  1
  O  O36  1  0.000000  0.500000  0.829367  1
  O  O37  1  0.289467  0.961107  0.100413  1
  O  O38  1  0.282177  0.415499  0.806813  1
  O  O39  1  0.717823  0.584501  0.806813  1
  O  O40  1  0.501937  0.681020  0.110801  1
  O  O41  1  0.378057  0.116175  0.836072  1
  O  O42  1  0.621943  0.883825  0.836072  1
  O  O43  1  0.491298  0.820364  0.348106  1
  O  O44  1  0.789478  0.961129  0.600397  1
  O  O45  1  0.468864  0.699016  0.620594  1
  O  O46  1  0.031156  0.300983  0.120548  1
  O  O47  1  0.498063  0.318980  0.110801  1
