# generated using pymatgen
data_Na3FeBPO7
_symmetry_space_group_name_H-M   'P 1'
_cell_length_a   8.94305683
_cell_length_b   6.69572435
_cell_length_c   5.24472130
_cell_angle_alpha   90.00000000
_cell_angle_beta   89.05796160
_cell_angle_gamma   90.00000000
_symmetry_Int_Tables_number   1
_chemical_formula_structural   Na3FeBPO7
_chemical_formula_sum   'Na6 Fe2 B2 P2 O14'
_cell_volume   314.01274011
_cell_formula_units_Z   2
loop_
 _symmetry_equiv_pos_site_id
 _symmetry_equiv_pos_as_xyz
  1  'x, y, z'
loop_
 _atom_site_type_symbol
 _atom_site_label
 _atom_site_symmetry_multiplicity
 _atom_site_fract_x
 _atom_site_fract_y
 _atom_site_fract_z
 _atom_site_occupancy
  Na  Na0  1  0.075469  0.250000  0.756816  1
  Na  Na1  1  0.252188  0.001881  0.250083  1
  Na  Na2  1  0.252188  0.498119  0.250083  1
  Na  Na3  1  0.747812  0.501881  0.749917  1
  Na  Na4  1  0.747812  0.998119  0.749917  1
  Na  Na5  1  0.924531  0.750000  0.243184  1
  Fe  Fe6  1  0.338398  0.750000  0.778267  1
  Fe  Fe7  1  0.661602  0.250000  0.221733  1
  B  B8  1  0.065265  0.750000  0.736596  1
  B  B9  1  0.934735  0.250000  0.263404  1
  P  P10  1  0.422910  0.250000  0.710930  1
  P  P11  1  0.577090  0.750000  0.289070  1
  O  O12  1  0.083573  0.250000  0.293923  1
  O  O13  1  0.137379  0.750000  0.972972  1
  O  O14  1  0.170948  0.750000  0.532520  1
  O  O15  1  0.325516  0.064250  0.777325  1
  O  O16  1  0.325516  0.435750  0.777325  1
  O  O17  1  0.461487  0.250000  0.417507  1
  O  O18  1  0.429668  0.750000  0.138493  1
  O  O19  1  0.570332  0.250000  0.861507  1
  O  O20  1  0.538513  0.750000  0.582493  1
  O  O21  1  0.674484  0.564250  0.222675  1
  O  O22  1  0.674484  0.935750  0.222675  1
  O  O23  1  0.829052  0.250000  0.467480  1
  O  O24  1  0.862621  0.250000  0.027028  1
  O  O25  1  0.916427  0.750000  0.706077  1
