# generated using pymatgen
data_Ti3Fe2Cu(PO4)6
_symmetry_space_group_name_H-M   'P 1'
_cell_length_a   8.52973586
_cell_length_b   8.52973591
_cell_length_c   8.52973569
_cell_angle_alpha   61.18826824
_cell_angle_beta   61.18826621
_cell_angle_gamma   61.18826526
_symmetry_Int_Tables_number   1
_chemical_formula_structural   Ti3Fe2Cu(PO4)6
_chemical_formula_sum   'Ti3 Fe2 Cu1 P6 O24'
_cell_volume   450.55573556
_cell_formula_units_Z   1
loop_
 _symmetry_equiv_pos_site_id
 _symmetry_equiv_pos_as_xyz
  1  'x, y, z'
loop_
 _atom_site_type_symbol
 _atom_site_label
 _atom_site_symmetry_multiplicity
 _atom_site_fract_x
 _atom_site_fract_y
 _atom_site_fract_z
 _atom_site_occupancy
  Ti  Ti0  1  0.142203  0.142203  0.142203  1
  Ti  Ti1  1  0.355314  0.355314  0.355314  1
  Ti  Ti2  1  0.645174  0.645174  0.645174  1
  Fe  Fe3  1  0.996307  0.996307  0.996307  1
  Fe  Fe4  1  0.498834  0.498834  0.498834  1
  Cu  Cu5  1  0.854844  0.854844  0.854844  1
  P  P6  1  0.045595  0.752062  0.457454  1
  P  P7  1  0.457454  0.045595  0.752062  1
  P  P8  1  0.250623  0.543298  0.955605  1
  P  P9  1  0.543298  0.955605  0.250623  1
  P  P10  1  0.955605  0.250623  0.543298  1
  P  P11  1  0.752062  0.457454  0.045595  1
  O  O12  1  0.114097  0.326665  0.487200  1
  O  O13  1  0.326665  0.487200  0.114097  1
  O  O14  1  0.057786  0.909809  0.257898  1
  O  O15  1  0.487200  0.114097  0.326665  1
  O  O16  1  0.018472  0.813688  0.608213  1
  O  O17  1  0.240536  0.588731  0.432295  1
  O  O18  1  0.257898  0.057786  0.909809  1
  O  O19  1  0.432295  0.240536  0.588731  1
  O  O20  1  0.185298  0.379937  0.001945  1
  O  O21  1  0.588731  0.432295  0.240536  1
  O  O22  1  0.096883  0.735633  0.948678  1
  O  O23  1  0.379937  0.001945  0.185298  1
  O  O24  1  0.608213  0.018472  0.813688  1
  O  O25  1  0.909809  0.257898  0.057786  1
  O  O26  1  0.413495  0.552377  0.761359  1
  O  O27  1  0.813688  0.608213  0.018472  1
  O  O28  1  0.552377  0.761359  0.413495  1
  O  O29  1  0.735633  0.948678  0.096883  1
  O  O30  1  0.761359  0.413495  0.552377  1
  O  O31  1  0.001945  0.185298  0.379937  1
  O  O32  1  0.503934  0.880074  0.687683  1
  O  O33  1  0.948678  0.096883  0.735633  1
  O  O34  1  0.687683  0.503934  0.880074  1
  O  O35  1  0.880074  0.687683  0.503934  1
