# generated using pymatgen
data_Hf2N2O
_symmetry_space_group_name_H-M   'P 1'
_cell_length_a   8.74461049
_cell_length_b   8.74565977
_cell_length_c   8.71262826
_cell_angle_alpha   109.33063701
_cell_angle_beta   109.49587272
_cell_angle_gamma   109.63246374
_symmetry_Int_Tables_number   1
_chemical_formula_structural   Hf2N2O
_chemical_formula_sum   'Hf16 N16 O8'
_cell_volume   512.64293671
_cell_formula_units_Z   8
loop_
 _symmetry_equiv_pos_site_id
 _symmetry_equiv_pos_as_xyz
  1  'x, y, z'
loop_
 _atom_site_type_symbol
 _atom_site_label
 _atom_site_symmetry_multiplicity
 _atom_site_fract_x
 _atom_site_fract_y
 _atom_site_fract_z
 _atom_site_occupancy
  Hf  Hf0  1  0.490862  0.990458  0.988826  1
  Hf  Hf1  1  0.748618  0.283704  0.541750  1
  Hf  Hf2  1  0.719524  0.465782  0.241991  1
  Hf  Hf3  1  0.212971  0.964493  0.250647  1
  Hf  Hf4  1  0.248590  0.213246  0.952475  1
  Hf  Hf5  1  0.999177  0.512419  0.998291  1
  Hf  Hf6  1  0.973008  0.258211  0.224104  1
  Hf  Hf7  1  0.002643  0.001152  0.499989  1
  Hf  Hf8  1  0.493575  0.498414  0.510273  1
  Hf  Hf9  1  0.530131  0.745238  0.283131  1
  Hf  Hf10  1  0.032529  0.747353  0.780317  1
  Hf  Hf11  1  0.472241  0.258619  0.719265  1
  Hf  Hf12  1  0.752148  0.784882  0.044846  1
  Hf  Hf13  1  0.286186  0.538998  0.754460  1
  Hf  Hf14  1  0.780809  0.028583  0.746643  1
  Hf  Hf15  1  0.251312  0.708570  0.462171  1
  N  N16  1  0.511762  0.239658  0.971792  1
  N  N17  1  0.770882  0.726283  0.265867  1
  N  N18  1  0.492248  0.768881  0.037317  1
  N  N19  1  0.728425  0.254019  0.771302  1
  N  N20  1  0.464788  0.226712  0.450176  1
  N  N21  1  0.009470  0.045842  0.273993  1
  N  N22  1  0.963363  0.506155  0.235939  1
  N  N23  1  0.229708  0.456522  0.466276  1
  N  N24  1  0.955148  0.729130  0.985583  1
  N  N25  1  0.272736  0.741001  0.228787  1
  N  N26  1  0.540934  0.773065  0.547314  1
  N  N27  1  0.987597  0.955196  0.728366  1
  N  N28  1  0.226299  0.271546  0.738344  1
  N  N29  1  0.550278  0.535370  0.774721  1
  N  N30  1  0.029522  0.487197  0.755796  1
  N  N31  1  0.263869  0.781736  0.727387  1
  O  O32  1  0.728036  0.998005  0.957705  1
  O  O33  1  0.742403  0.223412  0.277303  1
  O  O34  1  0.762424  0.035895  0.485868  1
  O  O35  1  0.273781  0.006919  0.044175  1
  O  O36  1  0.770619  0.539581  0.525000  1
  O  O37  1  0.051237  0.269056  0.020377  1
  O  O38  1  0.446252  0.464146  0.223173  1
  O  O39  1  0.233893  0.964548  0.508259  1
