# generated using pymatgen
data_LiMn3(NiO4)2
_symmetry_space_group_name_H-M   'P 1'
_cell_length_a   5.84588020
_cell_length_b   5.95560697
_cell_length_c   5.95560697
_cell_angle_alpha   59.52695773
_cell_angle_beta   60.60761602
_cell_angle_gamma   60.60761602
_symmetry_Int_Tables_number   1
_chemical_formula_structural   LiMn3(NiO4)2
_chemical_formula_sum   'Li1 Mn3 Ni2 O8'
_cell_volume   147.40453580
_cell_formula_units_Z   1
loop_
 _symmetry_equiv_pos_site_id
 _symmetry_equiv_pos_as_xyz
  1  'x, y, z'
loop_
 _atom_site_type_symbol
 _atom_site_label
 _atom_site_symmetry_multiplicity
 _atom_site_fract_x
 _atom_site_fract_y
 _atom_site_fract_z
 _atom_site_occupancy
  Li  Li0  1  0.885179  0.864821  0.864821  1
  Mn  Mn1  1  0.115271  0.134729  0.134729  1
  Mn  Mn2  1  0.992555  0.503633  0.503633  1
  Mn  Mn3  1  0.500179  0.503633  0.503633  1
  Ni  Ni4  1  0.501143  0.501163  0.996553  1
  Ni  Ni5  1  0.501143  0.996553  0.501163  1
  O  O6  1  0.248245  0.273479  0.273479  1
  O  O7  1  0.704796  0.273479  0.273479  1
  O  O8  1  0.253111  0.716043  0.277735  1
  O  O9  1  0.253111  0.277735  0.716043  1
  O  O10  1  0.748575  0.719454  0.283397  1
  O  O11  1  0.748575  0.283397  0.719454  1
  O  O12  1  0.754769  0.725941  0.725941  1
  O  O13  1  0.293349  0.725941  0.725941  1
