# generated using pymatgen
data_LiFe4(BO3)4
_symmetry_space_group_name_H-M   'P 1'
_cell_length_a   5.23620175
_cell_length_b   9.11799361
_cell_length_c   10.22588371
_cell_angle_alpha   90.03453047
_cell_angle_beta   90.35626084
_cell_angle_gamma   89.22304663
_symmetry_Int_Tables_number   1
_chemical_formula_structural   LiFe4(BO3)4
_chemical_formula_sum   'Li2 Fe8 B8 O24'
_cell_volume   488.16666467
_cell_formula_units_Z   2
loop_
 _symmetry_equiv_pos_site_id
 _symmetry_equiv_pos_as_xyz
  1  'x, y, z'
loop_
 _atom_site_type_symbol
 _atom_site_label
 _atom_site_symmetry_multiplicity
 _atom_site_fract_x
 _atom_site_fract_y
 _atom_site_fract_z
 _atom_site_occupancy
  Li  Li0  1  0.839259  0.821829  0.669383  1
  Li  Li1  1  0.810508  0.827326  0.172509  1
  Fe  Fe2  1  0.830587  0.167163  0.627501  1
  Fe  Fe3  1  0.826344  0.491368  0.126175  1
  Fe  Fe4  1  0.676736  0.008301  0.881031  1
  Fe  Fe5  1  0.668211  0.336244  0.374833  1
  Fe  Fe6  1  0.332084  0.656312  0.626406  1
  Fe  Fe7  1  0.328639  0.003500  0.127934  1
  Fe  Fe8  1  0.175346  0.843428  0.383418  1
  Fe  Fe9  1  0.171969  0.507513  0.880053  1
  B  B10  1  0.842052  0.503218  0.624936  1
  B  B11  1  0.834549  0.164434  0.130982  1
  B  B12  1  0.660002  0.007402  0.372023  1
  B  B13  1  0.670573  0.336915  0.873965  1
  B  B14  1  0.332966  0.994729  0.630798  1
  B  B15  1  0.324421  0.673039  0.126015  1
  B  B16  1  0.162159  0.500113  0.376660  1
  B  B17  1  0.184299  0.830860  0.875246  1
  O  O18  1  0.913789  0.493373  0.321029  1
  O  O19  1  0.931293  0.846189  0.852955  1
  O  O20  1  0.780190  0.213670  0.816427  1
  O  O21  1  0.745937  0.136915  0.432609  1
  O  O22  1  0.812718  0.887821  0.358643  1
  O  O23  1  0.832415  0.438887  0.934720  1
  O  O24  1  0.693332  0.627749  0.626038  1
  O  O25  1  0.691540  0.042831  0.092551  1
  O  O26  1  0.759228  0.373311  0.569038  1
  O  O27  1  0.706240  0.292656  0.173285  1
  O  O28  1  0.585396  0.655642  0.133651  1
  O  O29  1  0.595728  0.995108  0.659171  1
  O  O30  1  0.412720  0.006482  0.322171  1
  O  O31  1  0.415780  0.359457  0.874254  1
  O  O32  1  0.309665  0.700727  0.828866  1
  O  O33  1  0.231437  0.627763  0.440526  1
  O  O34  1  0.323368  0.383722  0.367650  1
  O  O35  1  0.332304  0.935467  0.938170  1
  O  O36  1  0.170069  0.562031  0.075494  1
  O  O37  1  0.179253  0.114943  0.635751  1
  O  O38  1  0.223654  0.859521  0.594705  1
  O  O39  1  0.198555  0.800251  0.167824  1
  O  O40  1  0.091425  0.157762  0.126882  1
  O  O41  1  0.085091  0.505858  0.682041  1
