# generated using pymatgen
data_Li4MnFe3(BO3)4
_symmetry_space_group_name_H-M   'P 1'
_cell_length_a   9.36348768
_cell_length_b   5.23226119
_cell_length_c   6.21758623
_cell_angle_alpha   64.51496235
_cell_angle_beta   80.11811990
_cell_angle_gamma   104.55525069
_symmetry_Int_Tables_number   1
_chemical_formula_structural   Li4MnFe3(BO3)4
_chemical_formula_sum   'Li4 Mn1 Fe3 B4 O12'
_cell_volume   252.13752223
_cell_formula_units_Z   1
loop_
 _symmetry_equiv_pos_site_id
 _symmetry_equiv_pos_as_xyz
  1  'x, y, z'
loop_
 _atom_site_type_symbol
 _atom_site_label
 _atom_site_symmetry_multiplicity
 _atom_site_fract_x
 _atom_site_fract_y
 _atom_site_fract_z
 _atom_site_occupancy
  Li  Li0  1  0.118301  0.629037  0.554466  1
  Li  Li1  1  0.616133  0.626306  0.057528  1
  Li  Li2  1  0.381721  0.367832  0.948108  1
  Li  Li3  1  0.882656  0.371040  0.444570  1
  Mn  Mn4  1  0.696689  0.749937  0.532652  1
  Fe  Fe5  1  0.199911  0.745059  0.032230  1
  Fe  Fe6  1  0.300091  0.254610  0.467506  1
  Fe  Fe7  1  0.802025  0.258271  0.962405  1
  B  B8  1  0.036158  0.079074  0.221461  1
  B  B9  1  0.464887  0.924471  0.274008  1
  B  B10  1  0.534207  0.073626  0.727705  1
  B  B11  1  0.965574  0.923573  0.776460  1
  O  O12  1  0.031985  0.795352  0.263030  1
  O  O13  1  0.178396  0.314584  0.138410  1
  O  O14  1  0.104757  0.875220  0.719327  1
  O  O15  1  0.323184  0.686273  0.360856  1
  O  O16  1  0.468529  0.205579  0.236855  1
  O  O17  1  0.603581  0.876225  0.216379  1
  O  O18  1  0.395946  0.127755  0.779323  1
  O  O19  1  0.526260  0.787033  0.771378  1
  O  O20  1  0.677120  0.304254  0.643461  1
  O  O21  1  0.898558  0.131254  0.273482  1
  O  O22  1  0.823727  0.686964  0.863069  1
  O  O23  1  0.969605  0.206672  0.735335  1
