# generated using pymatgen
data_Li2MnP3O10
_symmetry_space_group_name_H-M   'P 1'
_cell_length_a   11.85031636
_cell_length_b   8.06054159
_cell_length_c   9.95099004
_cell_angle_alpha   90.00000000
_cell_angle_beta   93.84283996
_cell_angle_gamma   90.00000000
_symmetry_Int_Tables_number   1
_chemical_formula_structural   Li2MnP3O10
_chemical_formula_sum   'Li8 Mn4 P12 O40'
_cell_volume   948.38113864
_cell_formula_units_Z   4
loop_
 _symmetry_equiv_pos_site_id
 _symmetry_equiv_pos_as_xyz
  1  'x, y, z'
loop_
 _atom_site_type_symbol
 _atom_site_label
 _atom_site_symmetry_multiplicity
 _atom_site_fract_x
 _atom_site_fract_y
 _atom_site_fract_z
 _atom_site_occupancy
  Li  Li0  1  0.143257  0.457516  0.393326  1
  Li  Li1  1  0.143257  0.042484  0.893326  1
  Li  Li2  1  0.439773  0.106125  0.907365  1
  Li  Li3  1  0.439773  0.393875  0.407365  1
  Li  Li4  1  0.560227  0.606125  0.592635  1
  Li  Li5  1  0.560227  0.893875  0.092635  1
  Li  Li6  1  0.856743  0.957516  0.106674  1
  Li  Li7  1  0.856743  0.542484  0.606674  1
  Mn  Mn8  1  0.168236  0.862403  0.632118  1
  Mn  Mn9  1  0.168236  0.637597  0.132118  1
  Mn  Mn10  1  0.831764  0.362403  0.867882  1
  Mn  Mn11  1  0.831764  0.137597  0.367882  1
  P  P12  1  0.060263  0.575120  0.806051  1
  P  P13  1  0.060263  0.924880  0.306051  1
  P  P14  1  0.271545  0.431132  0.909637  1
  P  P15  1  0.271545  0.068868  0.409637  1
  P  P16  1  0.335342  0.787614  0.936062  1
  P  P17  1  0.335342  0.712386  0.436062  1
  P  P18  1  0.664658  0.287614  0.563938  1
  P  P19  1  0.664658  0.212386  0.063938  1
  P  P20  1  0.728455  0.931132  0.590363  1
  P  P21  1  0.728455  0.568868  0.090363  1
  P  P22  1  0.939737  0.075120  0.693949  1
  P  P23  1  0.939737  0.424880  0.193949  1
  O  O24  1  0.070912  0.669930  0.936428  1
  O  O25  1  0.056279  0.994474  0.726572  1
  O  O26  1  0.083852  0.665281  0.675183  1
  O  O27  1  0.070912  0.830070  0.436428  1
  O  O28  1  0.056279  0.505526  0.226572  1
  O  O29  1  0.083852  0.834719  0.175183  1
  O  O30  1  0.154092  0.424712  0.815080  1
  O  O31  1  0.154092  0.075288  0.315080  1
  O  O32  1  0.254961  0.893605  0.845396  1
  O  O33  1  0.239853  0.058033  0.556347  1
  O  O34  1  0.295454  0.733009  0.579954  1
  O  O35  1  0.254961  0.606395  0.345396  1
  O  O36  1  0.239853  0.441967  0.056347  1
  O  O37  1  0.295454  0.766991  0.079954  1
  O  O38  1  0.333948  0.599618  0.869406  1
  O  O39  1  0.336836  0.283036  0.873345  1
  O  O40  1  0.333948  0.900382  0.369406  1
  O  O41  1  0.336836  0.216964  0.373345  1
  O  O42  1  0.454451  0.854468  0.941053  1
  O  O43  1  0.454451  0.645532  0.441053  1
  O  O44  1  0.545549  0.354468  0.558947  1
  O  O45  1  0.545549  0.145532  0.058947  1
  O  O46  1  0.663164  0.783036  0.626655  1
  O  O47  1  0.666052  0.099618  0.630594  1
  O  O48  1  0.663164  0.716964  0.126655  1
  O  O49  1  0.666052  0.400382  0.130594  1
  O  O50  1  0.704546  0.233009  0.920046  1
  O  O51  1  0.760147  0.558033  0.943653  1
  O  O52  1  0.745039  0.393605  0.654604  1
  O  O53  1  0.704546  0.266991  0.420046  1
  O  O54  1  0.760147  0.941967  0.443653  1
  O  O55  1  0.745039  0.106395  0.154604  1
  O  O56  1  0.845908  0.924712  0.684920  1
  O  O57  1  0.845908  0.575288  0.184920  1
  O  O58  1  0.916148  0.165281  0.824817  1
  O  O59  1  0.943721  0.494474  0.773428  1
  O  O60  1  0.929088  0.169930  0.563572  1
  O  O61  1  0.916148  0.334719  0.324817  1
  O  O62  1  0.943721  0.005526  0.273428  1
  O  O63  1  0.929088  0.330070  0.063572  1
