# generated using pymatgen
data_LiFeCO3F2
_symmetry_space_group_name_H-M   'P 1'
_cell_length_a   6.46656497
_cell_length_b   8.56993479
_cell_length_c   5.93161178
_cell_angle_alpha   90.00000000
_cell_angle_beta   90.00000000
_cell_angle_gamma   90.00000000
_symmetry_Int_Tables_number   1
_chemical_formula_structural   LiFeCO3F2
_chemical_formula_sum   'Li4 Fe4 C4 O12 F8'
_cell_volume   328.71829953
_cell_formula_units_Z   4
loop_
 _symmetry_equiv_pos_site_id
 _symmetry_equiv_pos_as_xyz
  1  'x, y, z'
loop_
 _atom_site_type_symbol
 _atom_site_label
 _atom_site_symmetry_multiplicity
 _atom_site_fract_x
 _atom_site_fract_y
 _atom_site_fract_z
 _atom_site_occupancy
  Li  Li0  1  0.250000  0.271862  0.699237  1
  Li  Li1  1  0.250000  0.228138  0.199237  1
  Li  Li2  1  0.750000  0.728138  0.300763  1
  Li  Li3  1  0.750000  0.771862  0.800763  1
  Fe  Fe4  1  0.250000  0.576683  0.003663  1
  Fe  Fe5  1  0.250000  0.923317  0.503663  1
  Fe  Fe6  1  0.750000  0.076683  0.496337  1
  Fe  Fe7  1  0.750000  0.423317  0.996337  1
  C  C8  1  0.250000  0.560005  0.459239  1
  C  C9  1  0.250000  0.939995  0.959239  1
  C  C10  1  0.750000  0.060005  0.040761  1
  C  C11  1  0.750000  0.439995  0.540761  1
  O  O12  1  0.250000  0.047222  0.803817  1
  O  O13  1  0.250000  0.452778  0.303817  1
  O  O14  1  0.250000  0.518479  0.665171  1
  O  O15  1  0.250000  0.981521  0.165171  1
  O  O16  1  0.250000  0.799441  0.880948  1
  O  O17  1  0.250000  0.700559  0.380948  1
  O  O18  1  0.750000  0.018479  0.834829  1
  O  O19  1  0.750000  0.200559  0.119052  1
  O  O20  1  0.750000  0.299441  0.619052  1
  O  O21  1  0.750000  0.481521  0.334829  1
  O  O22  1  0.750000  0.547222  0.696183  1
  O  O23  1  0.750000  0.952778  0.196183  1
  F  F24  1  0.050476  0.140805  0.456242  1
  F  F25  1  0.050476  0.359195  0.956243  1
  F  F26  1  0.449524  0.140805  0.456242  1
  F  F27  1  0.449524  0.359195  0.956243  1
  F  F28  1  0.550476  0.859195  0.543757  1
  F  F29  1  0.550476  0.640805  0.043758  1
  F  F30  1  0.949524  0.640805  0.043758  1
  F  F31  1  0.949524  0.859195  0.543757  1
