# generated using pymatgen
data_Ho2(SeO4)3
_symmetry_space_group_name_H-M   'P 1'
_cell_length_a   9.91677305
_cell_length_b   9.91683727
_cell_length_c   9.91679440
_cell_angle_alpha   58.06667103
_cell_angle_beta   58.06657346
_cell_angle_gamma   58.06654827
_symmetry_Int_Tables_number   1
_chemical_formula_structural   Ho2(SeO4)3
_chemical_formula_sum   'Ho4 Se6 O24'
_cell_volume   659.03119110
_cell_formula_units_Z   2
loop_
 _symmetry_equiv_pos_site_id
 _symmetry_equiv_pos_as_xyz
  1  'x, y, z'
loop_
 _atom_site_type_symbol
 _atom_site_label
 _atom_site_symmetry_multiplicity
 _atom_site_fract_x
 _atom_site_fract_y
 _atom_site_fract_z
 _atom_site_occupancy
  Ho  Ho0  1  0.644002  0.644019  0.644022  1
  Ho  Ho1  1  0.355985  0.355994  0.355978  1
  Ho  Ho2  1  0.143999  0.144000  0.144016  1
  Ho  Ho3  1  0.855993  0.856004  0.855990  1
  Se  Se4  1  0.038349  0.750116  0.461728  1
  Se  Se5  1  0.538280  0.961645  0.249885  1
  Se  Se6  1  0.249882  0.538275  0.961638  1
  Se  Se7  1  0.750117  0.461728  0.038353  1
  Se  Se8  1  0.461720  0.038355  0.750120  1
  Se  Se9  1  0.961635  0.249895  0.538276  1
  O  O10  1  0.064112  0.918575  0.289228  1
  O  O11  1  0.010624  0.773769  0.629779  1
  O  O12  1  0.370222  0.989373  0.226235  1
  O  O13  1  0.081426  0.710775  0.935878  1
  O  O14  1  0.210765  0.581192  0.436272  1
  O  O15  1  0.489534  0.870023  0.726578  1
  O  O16  1  0.273431  0.510466  0.129970  1
  O  O17  1  0.563738  0.789238  0.418805  1
  O  O18  1  0.710776  0.935887  0.081427  1
  O  O19  1  0.418803  0.563731  0.789227  1
  O  O20  1  0.226231  0.370220  0.989370  1
  O  O21  1  0.129976  0.273436  0.510458  1
  O  O22  1  0.870017  0.726570  0.489544  1
  O  O23  1  0.773766  0.629782  0.010629  1
  O  O24  1  0.581191  0.436267  0.210768  1
  O  O25  1  0.289225  0.064118  0.918578  1
  O  O26  1  0.436259  0.210766  0.581191  1
  O  O27  1  0.726567  0.489543  0.870021  1
  O  O28  1  0.510461  0.129981  0.273431  1
  O  O29  1  0.789229  0.418817  0.563736  1
  O  O30  1  0.918575  0.289226  0.064115  1
  O  O31  1  0.629777  0.010632  0.773766  1
  O  O32  1  0.989363  0.226244  0.370220  1
  O  O33  1  0.935872  0.081440  0.710770  1
