# generated using pymatgen
data_Li3CrPCO7
_symmetry_space_group_name_H-M   'P 1'
_cell_length_a   9.51209929
_cell_length_b   9.98235451
_cell_length_c   6.47610899
_cell_angle_alpha   90.00000000
_cell_angle_beta   90.00000000
_cell_angle_gamma   63.71185479
_symmetry_Int_Tables_number   1
_chemical_formula_structural   Li3CrPCO7
_chemical_formula_sum   'Li12 Cr4 P4 C4 O28'
_cell_volume   551.33000970
_cell_formula_units_Z   4
loop_
 _symmetry_equiv_pos_site_id
 _symmetry_equiv_pos_as_xyz
  1  'x, y, z'
loop_
 _atom_site_type_symbol
 _atom_site_label
 _atom_site_symmetry_multiplicity
 _atom_site_fract_x
 _atom_site_fract_y
 _atom_site_fract_z
 _atom_site_occupancy
  Li  Li0  1  0.890025  0.441170  0.757773  1
  Li  Li1  1  0.890025  0.941170  0.742227  1
  Li  Li2  1  0.705246  0.263441  0.521556  1
  Li  Li3  1  0.705246  0.763441  0.978444  1
  Li  Li4  1  0.643899  0.066073  0.255575  1
  Li  Li5  1  0.643899  0.566073  0.244425  1
  Li  Li6  1  0.356101  0.433927  0.755575  1
  Li  Li7  1  0.356101  0.933927  0.744425  1
  Li  Li8  1  0.294754  0.236559  0.021557  1
  Li  Li9  1  0.294754  0.736559  0.478444  1
  Li  Li10  1  0.109975  0.058830  0.257773  1
  Li  Li11  1  0.109975  0.558830  0.242227  1
  Cr  Cr12  1  0.740989  0.253458  0.014296  1
  Cr  Cr13  1  0.740989  0.753458  0.485704  1
  Cr  Cr14  1  0.259011  0.246542  0.514296  1
  Cr  Cr15  1  0.259011  0.746542  0.985704  1
  P  P16  1  0.588688  0.067301  0.750728  1
  P  P17  1  0.588688  0.567301  0.749272  1
  P  P18  1  0.411312  0.432699  0.250728  1
  P  P19  1  0.411312  0.932699  0.249272  1
  C  C20  1  0.961651  0.372163  0.252688  1
  C  C21  1  0.961651  0.872162  0.247312  1
  C  C22  1  0.038349  0.127837  0.752688  1
  C  C23  1  0.038349  0.627838  0.747312  1
  O  O24  1  0.937490  0.008524  0.243385  1
  O  O25  1  0.937490  0.508524  0.256615  1
  O  O26  1  0.893804  0.237045  0.770312  1
  O  O27  1  0.848016  0.334969  0.234508  1
  O  O28  1  0.893804  0.737045  0.729688  1
  O  O29  1  0.848016  0.834969  0.265492  1
  O  O30  1  0.684832  0.077351  0.940875  1
  O  O31  1  0.686985  0.069740  0.561658  1
  O  O32  1  0.686985  0.569740  0.938342  1
  O  O33  1  0.684832  0.577351  0.559125  1
  O  O34  1  0.579258  0.299470  0.251155  1
  O  O35  1  0.574048  0.418775  0.739462  1
  O  O36  1  0.579258  0.799470  0.248845  1
  O  O37  1  0.574048  0.918775  0.760538  1
  O  O38  1  0.425952  0.081225  0.239462  1
  O  O39  1  0.420742  0.200530  0.751155  1
  O  O40  1  0.425952  0.581225  0.260538  1
  O  O41  1  0.420742  0.700530  0.748845  1
  O  O42  1  0.313015  0.430260  0.061658  1
  O  O43  1  0.315168  0.422649  0.440875  1
  O  O44  1  0.315168  0.922649  0.059125  1
  O  O45  1  0.313015  0.930260  0.438342  1
  O  O46  1  0.151984  0.165031  0.734508  1
  O  O47  1  0.106196  0.262955  0.270312  1
  O  O48  1  0.151984  0.665031  0.765492  1
  O  O49  1  0.106196  0.762955  0.229688  1
  O  O50  1  0.062510  0.491476  0.743385  1
  O  O51  1  0.062510  0.991476  0.756615  1
