# generated using pymatgen
data_Li5V3P8O29
_symmetry_space_group_name_H-M   'P 1'
_cell_length_a   9.83058056
_cell_length_b   9.80948484
_cell_length_c   13.94375407
_cell_angle_alpha   90.00455946
_cell_angle_beta   89.97550091
_cell_angle_gamma   60.04176371
_symmetry_Int_Tables_number   1
_chemical_formula_structural   Li5V3P8O29
_chemical_formula_sum   'Li10 V6 P16 O58'
_cell_volume   1164.97944487
_cell_formula_units_Z   2
loop_
 _symmetry_equiv_pos_site_id
 _symmetry_equiv_pos_as_xyz
  1  'x, y, z'
loop_
 _atom_site_type_symbol
 _atom_site_label
 _atom_site_symmetry_multiplicity
 _atom_site_fract_x
 _atom_site_fract_y
 _atom_site_fract_z
 _atom_site_occupancy
  Li  Li0  1  0.914034  0.774715  0.057904  1
  Li  Li1  1  0.905291  0.322023  0.561715  1
  Li  Li2  1  0.664685  0.669252  0.881432  1
  Li  Li3  1  0.773594  0.311456  0.060130  1
  Li  Li4  1  0.315373  0.908925  0.057531  1
  Li  Li5  1  0.677683  0.227035  0.442519  1
  Li  Li6  1  0.323061  0.769326  0.563611  1
  Li  Li7  1  0.088517  0.685212  0.441130  1
  Li  Li8  1  0.228341  0.093463  0.441105  1
  Li  Li9  1  0.096265  0.227941  0.937854  1
  V  V10  1  0.565720  0.433229  0.247590  1
  V  V11  1  0.429947  0.566397  0.754943  1
  V  V12  1  0.573304  0.003244  0.748712  1
  V  V13  1  0.436440  0.000361  0.250265  1
  V  V14  1  0.001117  0.568401  0.250704  1
  V  V15  1  0.000008  0.433214  0.746778  1
  P  P16  1  0.910557  0.770299  0.842043  1
  P  P17  1  0.769908  0.915460  0.343890  1
  P  P18  1  0.911429  0.320129  0.341138  1
  P  P19  1  0.667783  0.666811  0.126626  1
  P  P20  1  0.663039  0.669031  0.626556  1
  P  P21  1  0.771275  0.319446  0.843377  1
  P  P22  1  0.681177  0.234005  0.659530  1
  P  P23  1  0.320924  0.910438  0.842124  1
  P  P24  1  0.685203  0.083950  0.156332  1
  P  P25  1  0.320719  0.767344  0.342847  1
  P  P26  1  0.230720  0.683897  0.157862  1
  P  P27  1  0.333629  0.333895  0.372956  1
  P  P28  1  0.331918  0.330363  0.873425  1
  P  P29  1  0.086484  0.683896  0.657443  1
  P  P30  1  0.233518  0.085415  0.658056  1
  P  P31  1  0.089479  0.231561  0.158214  1
  O  O32  1  0.004409  0.754272  0.566181  1
  O  O33  1  0.915224  0.748261  0.341358  1
  O  O34  1  0.762878  0.992477  0.069211  1
  O  O35  1  0.742258  0.918293  0.833851  1
  O  O36  1  0.886645  0.626673  0.825070  1
  O  O37  1  0.812700  0.673965  0.165212  1
  O  O38  1  0.901500  0.480210  0.322981  1
  O  O39  1  0.002239  0.239295  0.068158  1
  O  O40  1  0.920825  0.337011  0.838298  1
  O  O41  1  0.662778  0.816115  0.674711  1
  O  O42  1  0.617726  0.905164  0.322823  1
  O  O43  1  0.812967  0.514443  0.664503  1
  O  O44  1  0.662242  0.670476  0.018786  1
  O  O45  1  0.661872  0.672278  0.519915  1
  O  O46  1  0.672850  0.513597  0.164776  1
  O  O47  1  0.485403  0.893380  0.827043  1
  O  O48  1  0.513629  0.816787  0.167966  1
  O  O49  1  0.745804  0.337893  0.339452  1
  O  O50  1  0.791098  0.211947  0.750999  1
  O  O51  1  0.760966  0.239826  0.569119  1
  O  O52  1  0.763642  0.245026  0.933886  1
  O  O53  1  0.628147  0.487117  0.825790  1
  O  O54  1  0.511936  0.670461  0.667690  1
  O  O55  1  0.663620  0.251234  0.158792  1
  O  O56  1  0.479979  0.621023  0.324092  1
  O  O57  1  0.337190  0.917652  0.338493  1
  O  O58  1  0.790606  0.999744  0.249955  1
  O  O59  1  0.757591  0.007206  0.430784  1
  O  O60  1  0.243602  0.997206  0.567702  1
  O  O61  1  0.660528  0.087137  0.663216  1
  O  O62  1  0.522901  0.383550  0.674523  1
  O  O63  1  0.340940  0.745585  0.841082  1
  O  O64  1  0.485935  0.325812  0.332856  1
  O  O65  1  0.381244  0.521784  0.175731  1
  O  O66  1  0.238385  0.768547  0.072242  1
  O  O67  1  0.242865  0.761057  0.434092  1
  O  O68  1  0.206949  0.787400  0.254244  1
  O  O69  1  0.252181  0.664087  0.661437  1
  O  O70  1  0.479036  0.180732  0.824600  1
  O  O71  1  0.522568  0.095146  0.177923  1
  O  O72  1  0.335669  0.476598  0.829085  1
  O  O73  1  0.338490  0.322587  0.979495  1
  O  O74  1  0.331292  0.327177  0.479697  1
  O  O75  1  0.186605  0.487010  0.333123  1
  O  O76  1  0.382992  0.094228  0.676654  1
  O  O77  1  0.328970  0.182931  0.329305  1
  O  O78  1  0.084521  0.661731  0.160436  1
  O  O79  1  0.999083  0.789915  0.750318  1
  O  O80  1  0.991348  0.763977  0.932533  1
  O  O81  1  0.095461  0.522782  0.678633  1
  O  O82  1  0.183933  0.328534  0.833635  1
  O  O83  1  0.102255  0.378077  0.176539  1
  O  O84  1  0.255321  0.081519  0.160997  1
  O  O85  1  0.241463  0.002584  0.930875  1
  O  O86  1  0.211676  0.998952  0.750053  1
  O  O87  1  0.084380  0.250147  0.657215  1
  O  O88  1  0.999733  0.242458  0.431412  1
  O  O89  1  0.000013  0.209304  0.249838  1
