# generated using pymatgen
data_Na6Fe2B4SO16
_symmetry_space_group_name_H-M   'P 1'
_cell_length_a   10.00670924
_cell_length_b   10.00670884
_cell_length_c   10.00670933
_cell_angle_alpha   60.00000077
_cell_angle_beta   60.00000031
_cell_angle_gamma   59.99999868
_symmetry_Int_Tables_number   1
_chemical_formula_structural   Na6Fe2B4SO16
_chemical_formula_sum   'Na12 Fe4 B8 S2 O32'
_cell_volume   708.53095807
_cell_formula_units_Z   2
loop_
 _symmetry_equiv_pos_site_id
 _symmetry_equiv_pos_as_xyz
  1  'x, y, z'
loop_
 _atom_site_type_symbol
 _atom_site_label
 _atom_site_symmetry_multiplicity
 _atom_site_fract_x
 _atom_site_fract_y
 _atom_site_fract_z
 _atom_site_occupancy
  Na  Na0  1  0.092997  0.657003  0.092997  1
  Na  Na1  1  0.092997  0.092997  0.657003  1
  Na  Na2  1  0.092997  0.657003  0.657003  1
  Na  Na3  1  0.657003  0.092997  0.092997  1
  Na  Na4  1  0.342997  0.907003  0.342997  1
  Na  Na5  1  0.342997  0.342997  0.907003  1
  Na  Na6  1  0.657003  0.657003  0.092997  1
  Na  Na7  1  0.657003  0.092997  0.657003  1
  Na  Na8  1  0.342997  0.907003  0.907003  1
  Na  Na9  1  0.907003  0.342997  0.342997  1
  Na  Na10  1  0.907003  0.342997  0.907003  1
  Na  Na11  1  0.907003  0.907003  0.342997  1
  Fe  Fe12  1  0.000000  0.500000  0.500000  1
  Fe  Fe13  1  0.500000  0.000000  0.500000  1
  Fe  Fe14  1  0.500000  0.500000  0.000000  1
  Fe  Fe15  1  0.500000  0.500000  0.500000  1
  B  B16  1  0.287374  0.287374  0.287374  1
  B  B17  1  0.287374  0.287374  0.637878  1
  B  B18  1  0.287374  0.637878  0.287374  1
  B  B19  1  0.637878  0.287374  0.287374  1
  B  B20  1  0.362122  0.712626  0.712626  1
  B  B21  1  0.712626  0.362122  0.712626  1
  B  B22  1  0.712626  0.712626  0.362122  1
  B  B23  1  0.712626  0.712626  0.712626  1
  S  S24  1  0.125000  0.125000  0.125000  1
  S  S25  1  0.875000  0.875000  0.875000  1
  O  O26  1  0.063948  0.063948  0.063948  1
  O  O27  1  0.063948  0.308155  0.063948  1
  O  O28  1  0.063948  0.063948  0.308155  1
  O  O29  1  0.308155  0.063948  0.063948  1
  O  O30  1  0.135875  0.406305  0.315278  1
  O  O31  1  0.315278  0.135875  0.406305  1
  O  O32  1  0.135875  0.315278  0.642541  1
  O  O33  1  0.406305  0.315278  0.135875  1
  O  O34  1  0.135875  0.642541  0.406305  1
  O  O35  1  0.315278  0.642541  0.135875  1
  O  O36  1  0.406305  0.135875  0.642541  1
  O  O37  1  0.315278  0.406305  0.642541  1
  O  O38  1  0.642541  0.135875  0.315278  1
  O  O39  1  0.406305  0.642541  0.315278  1
  O  O40  1  0.642541  0.406305  0.135875  1
  O  O41  1  0.357459  0.684722  0.593695  1
  O  O42  1  0.642541  0.315278  0.406305  1
  O  O43  1  0.357459  0.593695  0.864125  1
  O  O44  1  0.593695  0.357459  0.684722  1
  O  O45  1  0.357459  0.864125  0.684722  1
  O  O46  1  0.684722  0.593695  0.357459  1
  O  O47  1  0.593695  0.864125  0.357459  1
  O  O48  1  0.684722  0.357459  0.864125  1
  O  O49  1  0.864125  0.357459  0.593695  1
  O  O50  1  0.593695  0.684722  0.864125  1
  O  O51  1  0.864125  0.684722  0.357459  1
  O  O52  1  0.684722  0.864125  0.593695  1
  O  O53  1  0.864125  0.593695  0.684722  1
  O  O54  1  0.691845  0.936052  0.936052  1
  O  O55  1  0.936052  0.936052  0.691845  1
  O  O56  1  0.936052  0.691845  0.936052  1
  O  O57  1  0.936052  0.936052  0.936052  1
