# generated using pymatgen
data_Li2MnCo3O8
_symmetry_space_group_name_H-M   'P 1'
_cell_length_a   5.82807662
_cell_length_b   5.69379679
_cell_length_c   5.65596202
_cell_angle_alpha   59.77847571
_cell_angle_beta   62.36813893
_cell_angle_gamma   90.00000000
_symmetry_Int_Tables_number   1
_chemical_formula_structural   Li2MnCo3O8
_chemical_formula_sum   'Li2 Mn1 Co3 O8'
_cell_volume   136.83695241
_cell_formula_units_Z   1
loop_
 _symmetry_equiv_pos_site_id
 _symmetry_equiv_pos_as_xyz
  1  'x, y, z'
loop_
 _atom_site_type_symbol
 _atom_site_label
 _atom_site_symmetry_multiplicity
 _atom_site_fract_x
 _atom_site_fract_y
 _atom_site_fract_z
 _atom_site_occupancy
  Li  Li0  1  0.500000  0.500000  0.500000  1
  Li  Li1  1  0.500000  0.000000  0.500000  1
  Mn  Mn2  1  0.000000  0.000000  0.000000  1
  Co  Co3  1  0.000000  0.500000  0.000000  1
  Co  Co4  1  0.000000  0.500000  0.500000  1
  Co  Co5  1  0.000000  0.000000  0.500000  1
  O  O6  1  0.202241  0.729672  0.031601  1
  O  O7  1  0.202241  0.238727  0.031601  1
  O  O8  1  0.204588  0.729943  0.540113  1
  O  O9  1  0.209927  0.232339  0.535323  1
  O  O10  1  0.790073  0.767661  0.464677  1
  O  O11  1  0.795412  0.270057  0.459887  1
  O  O12  1  0.797759  0.761273  0.968399  1
  O  O13  1  0.797759  0.270328  0.968399  1
