# generated using pymatgen
data_Nb3Ni(PO4)6
_symmetry_space_group_name_H-M   'P 1'
_cell_length_a   9.00886017
_cell_length_b   9.00886030
_cell_length_c   9.00886009
_cell_angle_alpha   58.49838602
_cell_angle_beta   58.49838486
_cell_angle_gamma   58.49838889
_symmetry_Int_Tables_number   1
_chemical_formula_structural   Nb3Ni(PO4)6
_chemical_formula_sum   'Nb3 Ni1 P6 O24'
_cell_volume   499.24512717
_cell_formula_units_Z   1
loop_
 _symmetry_equiv_pos_site_id
 _symmetry_equiv_pos_as_xyz
  1  'x, y, z'
loop_
 _atom_site_type_symbol
 _atom_site_label
 _atom_site_symmetry_multiplicity
 _atom_site_fract_x
 _atom_site_fract_y
 _atom_site_fract_z
 _atom_site_occupancy
  Nb  Nb0  1  0.140350  0.140350  0.140350  1
  Nb  Nb1  1  0.358482  0.358482  0.358482  1
  Nb  Nb2  1  0.640112  0.640112  0.640112  1
  Ni  Ni3  1  0.856867  0.856867  0.856867  1
  P  P4  1  0.032107  0.750685  0.472509  1
  P  P5  1  0.472509  0.032107  0.750685  1
  P  P6  1  0.750685  0.472509  0.032107  1
  P  P7  1  0.241485  0.540363  0.965644  1
  P  P8  1  0.540363  0.965644  0.241485  1
  P  P9  1  0.965644  0.241485  0.540363  1
  O  O10  1  0.132746  0.284186  0.499044  1
  O  O11  1  0.284186  0.499044  0.132746  1
  O  O12  1  0.062002  0.920113  0.289491  1
  O  O13  1  0.499044  0.132746  0.284186  1
  O  O14  1  0.209539  0.580612  0.432412  1
  O  O15  1  0.012062  0.776005  0.634306  1
  O  O16  1  0.289491  0.062002  0.920113  1
  O  O17  1  0.432412  0.209539  0.580612  1
  O  O18  1  0.580612  0.432412  0.209539  1
  O  O19  1  0.219625  0.364590  0.997052  1
  O  O20  1  0.078261  0.715446  0.940023  1
  O  O21  1  0.364590  0.997052  0.219625  1
  O  O22  1  0.634306  0.012062  0.776005  1
  O  O23  1  0.920113  0.289491  0.062002  1
  O  O24  1  0.776005  0.634306  0.012062  1
  O  O25  1  0.420531  0.560983  0.790693  1
  O  O26  1  0.560983  0.790693  0.420531  1
  O  O27  1  0.715446  0.940023  0.078261  1
  O  O28  1  0.997052  0.219625  0.364590  1
  O  O29  1  0.790693  0.420531  0.560983  1
  O  O30  1  0.497735  0.864694  0.719241  1
  O  O31  1  0.940023  0.078261  0.715446  1
  O  O32  1  0.719241  0.497735  0.864694  1
  O  O33  1  0.864694  0.719241  0.497735  1
