# generated using pymatgen
data_LiCu3(CO3)3
_symmetry_space_group_name_H-M   'P 1'
_cell_length_a   8.16819043
_cell_length_b   8.13307945
_cell_length_c   6.51842614
_cell_angle_alpha   90.00000000
_cell_angle_beta   90.00000000
_cell_angle_gamma   120.20355461
_symmetry_Int_Tables_number   1
_chemical_formula_structural   LiCu3(CO3)3
_chemical_formula_sum   'Li2 Cu6 C6 O18'
_cell_volume   374.24825759
_cell_formula_units_Z   2
loop_
 _symmetry_equiv_pos_site_id
 _symmetry_equiv_pos_as_xyz
  1  'x, y, z'
loop_
 _atom_site_type_symbol
 _atom_site_label
 _atom_site_symmetry_multiplicity
 _atom_site_fract_x
 _atom_site_fract_y
 _atom_site_fract_z
 _atom_site_occupancy
  Li  Li0  1  0.974699  0.677343  0.250000  1
  Li  Li1  1  0.704354  0.024908  0.750000  1
  Cu  Cu2  1  0.021605  0.366236  0.995487  1
  Cu  Cu3  1  0.021605  0.366236  0.504513  1
  Cu  Cu4  1  0.346727  0.989399  0.494270  1
  Cu  Cu5  1  0.346727  0.989399  0.005730  1
  Cu  Cu6  1  0.625587  0.634895  0.996864  1
  Cu  Cu7  1  0.625587  0.634895  0.503136  1
  C  C8  1  0.329501  0.669226  0.250000  1
  C  C9  1  0.342176  0.675546  0.750000  1
  C  C10  1  0.993152  0.994257  0.999682  1
  C  C11  1  0.993152  0.994257  0.500318  1
  C  C12  1  0.671091  0.334214  0.999664  1
  C  C13  1  0.671091  0.334214  0.500336  1
  O  O14  1  0.074993  0.895032  0.470639  1
  O  O15  1  0.074993  0.895032  0.029361  1
  O  O16  1  0.142860  0.556380  0.250000  1
  O  O17  1  0.161053  0.564001  0.750000  1
  O  O18  1  0.396537  0.852073  0.250000  1
  O  O19  1  0.416705  0.861431  0.750000  1
  O  O20  1  0.093344  0.176201  0.507354  1
  O  O21  1  0.093344  0.176201  0.992646  1
  O  O22  1  0.438888  0.598432  0.250000  1
  O  O23  1  0.455683  0.606514  0.750000  1
  O  O24  1  0.810559  0.909367  0.976406  1
  O  O25  1  0.810559  0.909367  0.523594  1
  O  O26  1  0.492020  0.267044  0.993720  1
  O  O27  1  0.492020  0.267044  0.506280  1
  O  O28  1  0.782655  0.515838  0.025883  1
  O  O29  1  0.782655  0.515838  0.474117  1
  O  O30  1  0.743308  0.224947  0.978796  1
  O  O31  1  0.743308  0.224947  0.521204  1
