# generated using pymatgen
data_Li9Mg12Fe(PO4)12
_symmetry_space_group_name_H-M   'P 1'
_cell_length_a   13.93719871
_cell_length_b   8.17130273
_cell_length_c   11.31850744
_cell_angle_alpha   87.49069711
_cell_angle_beta   59.17069616
_cell_angle_gamma   84.35198421
_symmetry_Int_Tables_number   1
_chemical_formula_structural   Li9Mg12Fe(PO4)12
_chemical_formula_sum   'Li9 Mg12 Fe1 P12 O48'
_cell_volume   1101.46237578
_cell_formula_units_Z   1
loop_
 _symmetry_equiv_pos_site_id
 _symmetry_equiv_pos_as_xyz
  1  'x, y, z'
loop_
 _atom_site_type_symbol
 _atom_site_label
 _atom_site_symmetry_multiplicity
 _atom_site_fract_x
 _atom_site_fract_y
 _atom_site_fract_z
 _atom_site_occupancy
  Li  Li0  1  0.978859  0.021561  0.093438  1
  Li  Li1  1  0.922299  0.467935  0.082484  1
  Li  Li2  1  0.308630  0.962964  0.935426  1
  Li  Li3  1  0.469970  0.572520  0.911667  1
  Li  Li4  1  0.221231  0.343726  0.606220  1
  Li  Li5  1  0.357249  0.021168  0.470729  1
  Li  Li6  1  0.656948  0.477831  0.025491  1
  Li  Li7  1  0.047688  0.537044  0.426958  1
  Li  Li8  1  0.846598  0.062429  0.645947  1
  Mg  Mg9  1  0.930645  0.780416  0.366176  1
  Mg  Mg10  1  0.192549  0.275474  0.125091  1
  Mg  Mg11  1  0.128997  0.756112  0.846991  1
  Mg  Mg12  1  0.254150  0.705836  0.436370  1
  Mg  Mg13  1  0.414686  0.196906  0.652984  1
  Mg  Mg14  1  0.640426  0.067415  0.951272  1
  Mg  Mg15  1  0.369282  0.071167  0.171850  1
  Mg  Mg16  1  0.563543  0.687761  0.332005  1
  Mg  Mg17  1  0.790306  0.448405  0.440114  1
  Mg  Mg18  1  0.985049  0.115144  0.832669  1
  Mg  Mg19  1  0.848448  0.797786  0.024817  1
  Mg  Mg20  1  0.069860  0.204519  0.502130  1
  Fe  Fe21  1  0.663813  0.935160  0.602239  1
  P  P22  1  0.993194  0.156299  0.302110  1
  P  P23  1  0.509302  0.760844  0.136595  1
  P  P24  1  0.897724  0.439515  0.757617  1
  P  P25  1  0.275758  0.313175  0.349420  1
  P  P26  1  0.361435  0.799887  0.660448  1
  P  P27  1  0.762187  0.750469  0.299594  1
  P  P28  1  0.159861  0.347707  0.860046  1
  P  P29  1  0.568758  0.275140  0.317302  1
  P  P30  1  0.743869  0.744986  0.753524  1
  P  P31  1  0.182366  0.661837  0.085894  1
  P  P32  1  0.605075  0.252808  0.724836  1
  P  P33  1  0.048921  0.828964  0.630426  1
  O  O34  1  0.913040  0.553687  0.421378  1
  O  O35  1  0.987187  0.981703  0.258615  1
  O  O36  1  0.101928  0.679766  0.235502  1
  O  O37  1  0.158735  0.241975  0.975214  1
  O  O38  1  0.227996  0.183295  0.477331  1
  O  O39  1  0.263194  0.510768  0.037144  1
  O  O40  1  0.292532  0.083980  0.077541  1
  O  O41  1  0.816751  0.860908  0.797030  1
  O  O42  1  0.560873  0.177401  0.198763  1
  O  O43  1  0.987811  0.916048  0.933872  1
  O  O44  1  0.103575  0.524721  0.917005  1
  O  O45  1  0.083770  0.767570  0.485320  1
  O  O46  1  0.183541  0.794522  0.988709  1
  O  O47  1  0.277843  0.469504  0.425399  1
  O  O48  1  0.319336  0.912267  0.331928  1
  O  O49  1  0.094322  0.270863  0.801000  1
  O  O50  1  0.364103  0.762470  0.232870  1
  O  O51  1  0.281258  0.357723  0.731922  1
  O  O52  1  0.343541  0.993110  0.679326  1
  O  O53  1  0.513830  0.344010  0.850841  1
  O  O54  1  0.471706  0.206460  0.449950  1
  O  O55  1  0.605131  0.261239  0.065986  1
  O  O56  1  0.514437  0.937443  0.069381  1
  O  O57  1  0.152892  0.776737  0.648363  1
  O  O58  1  0.876603  0.257942  0.304709  1
  O  O59  1  0.442175  0.786015  0.824473  1
  O  O60  1  0.685596  0.359056  0.610496  1
  O  O61  1  0.421820  0.771022  0.497952  1
  O  O62  1  0.534517  0.626318  0.030799  1
  O  O63  1  0.562191  0.458613  0.288287  1
  O  O64  1  0.554024  0.138636  0.660717  1
  O  O65  1  0.676978  0.113606  0.758298  1
  O  O66  1  0.698394  0.830046  0.228855  1
  O  O67  1  0.763943  0.870450  0.401710  1
  O  O68  1  0.794579  0.547825  0.759345  1
  O  O69  1  0.929026  0.548308  0.846952  1
  O  O70  1  0.950909  0.152979  0.461583  1
  O  O71  1  0.698008  0.600390  0.379622  1
  O  O72  1  0.890232  0.246389  0.167257  1
  O  O73  1  0.472408  0.742312  0.683631  1
  O  O74  1  0.167573  0.344592  0.329903  1
  O  O75  1  0.757892  0.904072  0.946009  1
  O  O76  1  0.830656  0.557947  0.993290  1
  O  O77  1  0.807113  0.812864  0.601195  1
  O  O78  1  0.884587  0.703138  0.183843  1
  O  O79  1  0.858779  0.275271  0.826264  1
  O  O80  1  0.018269  0.020930  0.648295  1
  O  O81  1  0.001388  0.422196  0.615246  1
