# generated using pymatgen
data_Li6V3P8O29
_symmetry_space_group_name_H-M   'P 1'
_cell_length_a   9.82897988
_cell_length_b   9.83805130
_cell_length_c   13.89698053
_cell_angle_alpha   89.94644407
_cell_angle_beta   90.04847954
_cell_angle_gamma   59.89992143
_symmetry_Int_Tables_number   1
_chemical_formula_structural   Li6V3P8O29
_chemical_formula_sum   'Li12 V6 P16 O58'
_cell_volume   1162.59664825
_cell_formula_units_Z   2
loop_
 _symmetry_equiv_pos_site_id
 _symmetry_equiv_pos_as_xyz
  1  'x, y, z'
loop_
 _atom_site_type_symbol
 _atom_site_label
 _atom_site_symmetry_multiplicity
 _atom_site_fract_x
 _atom_site_fract_y
 _atom_site_fract_z
 _atom_site_occupancy
  Li  Li0  1  0.907996  0.776452  0.059896  1
  Li  Li1  1  0.770409  0.906151  0.561283  1
  Li  Li2  1  0.906540  0.321664  0.559889  1
  Li  Li3  1  0.668475  0.667080  0.882782  1
  Li  Li4  1  0.772650  0.312979  0.061201  1
  Li  Li5  1  0.319396  0.907864  0.062055  1
  Li  Li6  1  0.677293  0.227327  0.439501  1
  Li  Li7  1  0.321800  0.771631  0.559994  1
  Li  Li8  1  0.226704  0.677872  0.940632  1
  Li  Li9  1  0.093959  0.678931  0.439810  1
  Li  Li10  1  0.228836  0.094626  0.438723  1
  Li  Li11  1  0.092664  0.227854  0.940419  1
  V  V12  1  0.567423  0.430292  0.249597  1
  V  V13  1  0.435450  0.564147  0.750312  1
  V  V14  1  0.566479  0.003902  0.753164  1
  V  V15  1  0.434588  0.000040  0.249227  1
  V  V16  1  0.000984  0.565833  0.250646  1
  V  V17  1  0.001802  0.433779  0.749618  1
  P  P18  1  0.909947  0.771404  0.841824  1
  P  P19  1  0.768498  0.913081  0.343469  1
  P  P20  1  0.911781  0.319559  0.341581  1
  P  P21  1  0.667974  0.664678  0.126201  1
  P  P22  1  0.666586  0.668129  0.626876  1
  P  P23  1  0.772141  0.317116  0.844317  1
  P  P24  1  0.682299  0.230926  0.658661  1
  P  P25  1  0.318514  0.910741  0.842399  1
  P  P26  1  0.683085  0.085272  0.157275  1
  P  P27  1  0.320704  0.767659  0.340977  1
  P  P28  1  0.231146  0.680554  0.157070  1
  P  P29  1  0.332713  0.333368  0.373575  1
  P  P30  1  0.332559  0.334416  0.873659  1
  P  P31  1  0.088320  0.681128  0.657294  1
  P  P32  1  0.232187  0.086695  0.656711  1
  P  P33  1  0.087913  0.231692  0.158277  1
  O  O34  1  0.996847  0.759872  0.567525  1
  O  O35  1  0.917029  0.749017  0.342510  1
  O  O36  1  0.769066  0.993141  0.071733  1
  O  O37  1  0.744737  0.916481  0.840161  1
  O  O38  1  0.889960  0.624992  0.826787  1
  O  O39  1  0.815757  0.670284  0.166023  1
  O  O40  1  0.897591  0.480114  0.324005  1
  O  O41  1  0.998933  0.241224  0.067841  1
  O  O42  1  0.921119  0.333108  0.841784  1
  O  O43  1  0.670628  0.814922  0.668033  1
  O  O44  1  0.620252  0.901082  0.324971  1
  O  O45  1  0.815774  0.515041  0.668982  1
  O  O46  1  0.669358  0.665815  0.017530  1
  O  O47  1  0.667491  0.664350  0.519635  1
  O  O48  1  0.675551  0.511155  0.164319  1
  O  O49  1  0.485492  0.886812  0.826287  1
  O  O50  1  0.514331  0.812028  0.164456  1
  O  O51  1  0.747809  0.333645  0.341494  1
  O  O52  1  0.790528  0.210476  0.751196  1
  O  O53  1  0.760456  0.242727  0.568249  1
  O  O54  1  0.757777  0.245719  0.934799  1
  O  O55  1  0.627798  0.485490  0.825168  1
  O  O56  1  0.514425  0.670314  0.668477  1
  O  O57  1  0.662010  0.253195  0.159674  1
  O  O58  1  0.480350  0.617944  0.323506  1
  O  O59  1  0.337642  0.915875  0.340671  1
  O  O60  1  0.787376  0.005892  0.254016  1
  O  O61  1  0.756788  0.000996  0.434728  1
  O  O62  1  0.242564  0.996363  0.566803  1
  O  O63  1  0.666273  0.083067  0.658766  1
  O  O64  1  0.521738  0.380753  0.674028  1
  O  O65  1  0.332611  0.747510  0.843828  1
  O  O66  1  0.486424  0.325975  0.333237  1
  O  O67  1  0.378817  0.520980  0.175153  1
  O  O68  1  0.242590  0.760035  0.066954  1
  O  O69  1  0.241978  0.757782  0.431516  1
  O  O70  1  0.210077  0.791155  0.249318  1
  O  O71  1  0.250987  0.667988  0.657835  1
  O  O72  1  0.477843  0.189368  0.828243  1
  O  O73  1  0.521548  0.098006  0.175058  1
  O  O74  1  0.331212  0.486869  0.832898  1
  O  O75  1  0.324786  0.337006  0.980420  1
  O  O76  1  0.329781  0.337772  0.481008  1
  O  O77  1  0.184118  0.488559  0.331695  1
  O  O78  1  0.382801  0.093731  0.674161  1
  O  O79  1  0.324565  0.187959  0.333255  1
  O  O80  1  0.082221  0.667086  0.157675  1
  O  O81  1  0.999703  0.789554  0.750149  1
  O  O82  1  0.002757  0.755181  0.931278  1
  O  O83  1  0.100528  0.520869  0.673915  1
  O  O84  1  0.181341  0.334083  0.830867  1
  O  O85  1  0.099263  0.379828  0.174185  1
  O  O86  1  0.252722  0.082058  0.159075  1
  O  O87  1  0.241526  0.003101  0.931981  1
  O  O88  1  0.211359  0.998824  0.749945  1
  O  O89  1  0.083772  0.250246  0.656785  1
  O  O90  1  0.001615  0.240728  0.432206  1
  O  O91  1  -0.000007  0.208574  0.250018  1
