# generated using pymatgen
data_KPrPCO7
_symmetry_space_group_name_H-M   'P 1'
_cell_length_a   10.49537400
_cell_length_b   7.23414643
_cell_length_c   5.77213447
_cell_angle_alpha   90.00000000
_cell_angle_beta   90.60592745
_cell_angle_gamma   90.00000000
_symmetry_Int_Tables_number   1
_chemical_formula_structural   KPrPCO7
_chemical_formula_sum   'K2 Pr2 P2 C2 O14'
_cell_volume   438.22522080
_cell_formula_units_Z   2
loop_
 _symmetry_equiv_pos_site_id
 _symmetry_equiv_pos_as_xyz
  1  'x, y, z'
loop_
 _atom_site_type_symbol
 _atom_site_label
 _atom_site_symmetry_multiplicity
 _atom_site_fract_x
 _atom_site_fract_y
 _atom_site_fract_z
 _atom_site_occupancy
  K  K0  1  0.232537  0.447800  0.241456  1
  K  K1  1  0.767463  0.947800  0.758544  1
  Pr  Pr2  1  0.369585  0.780966  0.780658  1
  Pr  Pr3  1  0.630415  0.280966  0.219342  1
  P  P4  1  0.428962  0.271924  0.715427  1
  P  P5  1  0.571038  0.771924  0.284573  1
  C  C6  1  0.085805  0.726720  0.725883  1
  C  C7  1  0.914195  0.226720  0.274117  1
  O  O8  1  0.034428  0.228418  0.305495  1
  O  O9  1  0.133351  0.725764  0.932131  1
  O  O10  1  0.162586  0.727945  0.552889  1
  O  O11  1  0.348861  0.099398  0.772625  1
  O  O12  1  0.358480  0.449277  0.791789  1
  O  O13  1  0.437626  0.757426  0.161020  1
  O  O14  1  0.453215  0.282211  0.449315  1
  O  O15  1  0.546785  0.782211  0.550685  1
  O  O16  1  0.562374  0.257426  0.838980  1
  O  O17  1  0.641520  0.949277  0.208211  1
  O  O18  1  0.651139  0.599398  0.227375  1
  O  O19  1  0.837414  0.227945  0.447111  1
  O  O20  1  0.866649  0.225764  0.067869  1
  O  O21  1  0.965572  0.728418  0.694505  1
