# generated using pymatgen
data_K2Cu3(MoO4)4
_symmetry_space_group_name_H-M   'P 1'
_cell_length_a   5.21501270
_cell_length_b   14.94075328
_cell_length_c   20.34645017
_cell_angle_alpha   90.00000000
_cell_angle_beta   94.89361148
_cell_angle_gamma   90.00000000
_symmetry_Int_Tables_number   1
_chemical_formula_structural   K2Cu3(MoO4)4
_chemical_formula_sum   'K8 Cu12 Mo16 O64'
_cell_volume   1579.53966898
_cell_formula_units_Z   4
loop_
 _symmetry_equiv_pos_site_id
 _symmetry_equiv_pos_as_xyz
  1  'x, y, z'
loop_
 _atom_site_type_symbol
 _atom_site_label
 _atom_site_symmetry_multiplicity
 _atom_site_fract_x
 _atom_site_fract_y
 _atom_site_fract_z
 _atom_site_occupancy
  K  K0  1  0.251542  0.126469  0.717033  1
  K  K1  1  0.308942  0.476556  0.404451  1
  K  K2  1  0.748458  0.626469  0.782967  1
  K  K3  1  0.691058  0.523444  0.595549  1
  K  K4  1  0.251542  0.373531  0.217033  1
  K  K5  1  0.748458  0.873531  0.282967  1
  K  K6  1  0.691058  0.976556  0.095549  1
  K  K7  1  0.308942  0.023444  0.904451  1
  Cu  Cu8  1  0.688218  0.823889  0.566978  1
  Cu  Cu9  1  0.688218  0.676111  0.066978  1
  Cu  Cu10  1  0.793776  0.435188  0.894090  1
  Cu  Cu11  1  0.311782  0.323889  0.933022  1
  Cu  Cu12  1  0.206224  0.564812  0.105910  1
  Cu  Cu13  1  0.311782  0.176111  0.433022  1
  Cu  Cu14  1  0.793776  0.064812  0.394090  1
  Cu  Cu15  1  0.241969  0.704434  0.322469  1
  Cu  Cu16  1  0.758031  0.204434  0.177531  1
  Cu  Cu17  1  0.758031  0.295566  0.677531  1
  Cu  Cu18  1  0.206224  0.935188  0.605910  1
  Cu  Cu19  1  0.241969  0.795566  0.822469  1
  Mo  Mo20  1  0.804845  0.678563  0.434665  1
  Mo  Mo21  1  0.692303  0.418724  0.070851  1
  Mo  Mo22  1  0.692303  0.081276  0.570851  1
  Mo  Mo23  1  0.284797  0.397433  0.773405  1
  Mo  Mo24  1  0.781872  0.228166  0.838985  1
  Mo  Mo25  1  0.307697  0.918724  0.429149  1
  Mo  Mo26  1  0.715203  0.602567  0.226595  1
  Mo  Mo27  1  0.195155  0.321437  0.565335  1
  Mo  Mo28  1  0.218128  0.728166  0.661015  1
  Mo  Mo29  1  0.781872  0.271834  0.338985  1
  Mo  Mo30  1  0.715203  0.897433  0.726595  1
  Mo  Mo31  1  0.307697  0.581276  0.929149  1
  Mo  Mo32  1  0.195155  0.178563  0.065335  1
  Mo  Mo33  1  0.804845  0.821437  0.934665  1
  Mo  Mo34  1  0.284797  0.102567  0.273405  1
  Mo  Mo35  1  0.218128  0.771834  0.161015  1
  O  O36  1  0.861335  0.158785  0.623450  1
  O  O37  1  0.002640  0.639722  0.669695  1
  O  O38  1  0.997360  0.360278  0.330305  1
  O  O39  1  0.310582  0.077993  0.033541  1
  O  O40  1  0.440762  0.687716  0.607919  1
  O  O41  1  0.921768  0.811259  0.766566  1
  O  O42  1  0.002640  0.860278  0.169695  1
  O  O43  1  0.388141  0.752263  0.242851  1
  O  O44  1  0.393102  0.870530  0.510429  1
  O  O45  1  0.571881  0.724336  0.373355  1
  O  O46  1  0.997360  0.139722  0.830305  1
  O  O47  1  0.600937  0.546664  0.893625  1
  O  O48  1  0.109144  0.016397  0.438806  1
  O  O49  1  0.100730  0.647621  0.397576  1
  O  O50  1  0.606898  0.129470  0.489571  1
  O  O51  1  0.915447  0.986586  0.708919  1
  O  O52  1  0.986853  0.174847  0.374863  1
  O  O53  1  0.899270  0.352379  0.602424  1
  O  O54  1  0.611859  0.252263  0.257149  1
  O  O55  1  0.899270  0.147621  0.102424  1
  O  O56  1  0.144541  0.258428  0.998629  1
  O  O57  1  0.611859  0.247737  0.757149  1
  O  O58  1  0.986853  0.325153  0.874863  1
  O  O59  1  0.559238  0.312284  0.392081  1
  O  O60  1  0.393102  0.629470  0.010429  1
  O  O61  1  0.399063  0.453336  0.106375  1
  O  O62  1  0.084553  0.013414  0.291081  1
  O  O63  1  0.513472  0.868626  0.644999  1
  O  O64  1  0.606898  0.370530  0.989571  1
  O  O65  1  0.486528  0.368626  0.855001  1
  O  O66  1  0.890856  0.516397  0.061194  1
  O  O67  1  0.428119  0.275664  0.626645  1
  O  O68  1  0.138665  0.658785  0.876550  1
  O  O69  1  0.861335  0.341215  0.123450  1
  O  O70  1  0.388141  0.747737  0.742851  1
  O  O71  1  0.486528  0.131374  0.355001  1
  O  O72  1  0.100730  0.852379  0.897576  1
  O  O73  1  0.109144  0.483603  0.938806  1
  O  O74  1  0.600937  0.953336  0.393625  1
  O  O75  1  0.915447  0.513414  0.208919  1
  O  O76  1  0.428119  0.224336  0.126645  1
  O  O77  1  0.078232  0.311259  0.733434  1
  O  O78  1  0.504590  0.941666  0.781585  1
  O  O79  1  0.399063  0.046664  0.606375  1
  O  O80  1  0.921768  0.688741  0.266566  1
  O  O81  1  0.078232  0.188741  0.233434  1
  O  O82  1  0.440762  0.812284  0.107919  1
  O  O83  1  0.310582  0.422007  0.533541  1
  O  O84  1  0.138665  0.841215  0.376550  1
  O  O85  1  0.504590  0.558334  0.281585  1
  O  O86  1  0.013147  0.825153  0.625137  1
  O  O87  1  0.571881  0.775664  0.873355  1
  O  O88  1  0.495410  0.441666  0.718415  1
  O  O89  1  0.855459  0.741572  0.001371  1
  O  O90  1  0.855459  0.758428  0.501371  1
  O  O91  1  0.559238  0.187716  0.892081  1
  O  O92  1  0.013147  0.674847  0.125137  1
  O  O93  1  0.689418  0.577993  0.466459  1
  O  O94  1  0.144541  0.241572  0.498629  1
  O  O95  1  0.689418  0.922007  0.966459  1
  O  O96  1  0.495410  0.058334  0.218415  1
  O  O97  1  0.084553  0.486586  0.791081  1
  O  O98  1  0.513472  0.631374  0.144999  1
  O  O99  1  0.890856  0.983603  0.561194  1
