# generated using pymatgen
data_AgH2C2N3O
_symmetry_space_group_name_H-M   'P 1'
_cell_length_a   6.59418947
_cell_length_b   9.95903814
_cell_length_c   13.20437976
_cell_angle_alpha   90.00000000
_cell_angle_beta   90.00000000
_cell_angle_gamma   90.00000000
_symmetry_Int_Tables_number   1
_chemical_formula_structural   AgH2C2N3O
_chemical_formula_sum   'Ag8 H16 C16 N24 O8'
_cell_volume   867.15518118
_cell_formula_units_Z   8
loop_
 _symmetry_equiv_pos_site_id
 _symmetry_equiv_pos_as_xyz
  1  'x, y, z'
loop_
 _atom_site_type_symbol
 _atom_site_label
 _atom_site_symmetry_multiplicity
 _atom_site_fract_x
 _atom_site_fract_y
 _atom_site_fract_z
 _atom_site_occupancy
  Ag  Ag0  1  0.554591  0.210181  0.327680  1
  Ag  Ag1  1  0.054591  0.289819  0.672320  1
  Ag  Ag2  1  0.445409  0.710181  0.172320  1
  Ag  Ag3  1  0.945409  0.789819  0.827680  1
  Ag  Ag4  1  0.445409  0.789819  0.672320  1
  Ag  Ag5  1  0.945409  0.710181  0.327680  1
  Ag  Ag6  1  0.554591  0.289819  0.827680  1
  Ag  Ag7  1  0.054591  0.210181  0.172320  1
  H  H8  1  0.149215  0.255134  0.418414  1
  H  H9  1  0.649215  0.244866  0.581586  1
  H  H10  1  0.850785  0.755134  0.081586  1
  H  H11  1  0.350785  0.744866  0.918414  1
  H  H12  1  0.850785  0.744866  0.581586  1
  H  H13  1  0.350785  0.755134  0.418414  1
  H  H14  1  0.149215  0.244866  0.918414  1
  H  H15  1  0.649215  0.255134  0.081586  1
  H  H16  1  0.984375  0.381939  0.464772  1
  H  H17  1  0.484375  0.118061  0.535228  1
  H  H18  1  0.015625  0.881939  0.035228  1
  H  H19  1  0.515625  0.618061  0.964772  1
  H  H20  1  0.015625  0.618061  0.535228  1
  H  H21  1  0.515625  0.881939  0.464772  1
  H  H22  1  0.984375  0.118061  0.964772  1
  H  H23  1  0.484375  0.381939  0.035228  1
  C  C24  1  0.558573  0.505641  0.344601  1
  C  C25  1  0.058573  0.994359  0.655399  1
  C  C26  1  0.441427  0.005641  0.155399  1
  C  C27  1  0.941427  0.494359  0.844601  1
  C  C28  1  0.441427  0.494359  0.655399  1
  C  C29  1  0.941427  0.005641  0.344601  1
  C  C30  1  0.558573  0.994359  0.844601  1
  C  C31  1  0.058573  0.505641  0.155399  1
  C  C32  1  0.247946  0.450826  0.407161  1
  C  C33  1  0.747946  0.049174  0.592839  1
  C  C34  1  0.752054  0.950826  0.092839  1
  C  C35  1  0.252054  0.549174  0.907161  1
  C  C36  1  0.752054  0.549174  0.592839  1
  C  C37  1  0.252054  0.950826  0.407161  1
  C  C38  1  0.247946  0.049174  0.907161  1
  C  C39  1  0.747946  0.450826  0.092839  1
  N  N40  1  0.678324  0.589083  0.321729  1
  N  N41  1  0.178324  0.910917  0.678271  1
  N  N42  1  0.321676  0.089083  0.178271  1
  N  N43  1  0.821676  0.410917  0.821729  1
  N  N44  1  0.321676  0.410917  0.678271  1
  N  N45  1  0.821676  0.089083  0.321729  1
  N  N46  1  0.678324  0.910917  0.821729  1
  N  N47  1  0.178324  0.589083  0.178271  1
  N  N48  1  0.430720  0.410158  0.364217  1
  N  N49  1  0.930720  0.089842  0.635783  1
  N  N50  1  0.569280  0.910158  0.135783  1
  N  N51  1  0.069280  0.589842  0.864217  1
  N  N52  1  0.569280  0.589842  0.635783  1
  N  N53  1  0.069280  0.910158  0.364217  1
  N  N54  1  0.430720  0.089842  0.864217  1
  N  N55  1  0.930720  0.410158  0.135783  1
  N  N56  1  0.109080  0.354227  0.422897  1
  N  N57  1  0.609080  0.145773  0.577103  1
  N  N58  1  0.890920  0.854227  0.077103  1
  N  N59  1  0.390920  0.645773  0.922897  1
  N  N60  1  0.890920  0.645773  0.577103  1
  N  N61  1  0.390920  0.854227  0.422897  1
  N  N62  1  0.109080  0.145773  0.922897  1
  N  N63  1  0.609080  0.354227  0.077103  1
  O  O64  1  0.213549  0.572638  0.429296  1
  O  O65  1  0.713549  0.927362  0.570704  1
  O  O66  1  0.786451  0.072638  0.070704  1
  O  O67  1  0.286451  0.427362  0.929296  1
  O  O68  1  0.786451  0.427362  0.570704  1
  O  O69  1  0.286451  0.072638  0.429296  1
  O  O70  1  0.213549  0.927362  0.929296  1
  O  O71  1  0.713549  0.572638  0.070704  1
