# generated using pymatgen
data_Li2Cu4Si4O13
_symmetry_space_group_name_H-M   'P 1'
_cell_length_a   10.09796620
_cell_length_b   7.64794182
_cell_length_c   7.11102703
_cell_angle_alpha   84.75821298
_cell_angle_beta   92.63025166
_cell_angle_gamma   109.39503117
_symmetry_Int_Tables_number   1
_chemical_formula_structural   Li2Cu4Si4O13
_chemical_formula_sum   'Li4 Cu8 Si8 O26'
_cell_volume   515.77317971
_cell_formula_units_Z   2
loop_
 _symmetry_equiv_pos_site_id
 _symmetry_equiv_pos_as_xyz
  1  'x, y, z'
loop_
 _atom_site_type_symbol
 _atom_site_label
 _atom_site_symmetry_multiplicity
 _atom_site_fract_x
 _atom_site_fract_y
 _atom_site_fract_z
 _atom_site_occupancy
  Li  Li0  1  0.114385  0.614002  0.205033  1
  Li  Li1  1  0.425816  0.433870  0.761494  1
  Li  Li2  1  0.574184  0.566130  0.238506  1
  Li  Li3  1  0.885615  0.385998  0.794967  1
  Cu  Cu4  1  0.999460  0.823710  0.907966  1
  Cu  Cu5  1  0.015341  0.807396  0.440174  1
  Cu  Cu6  1  0.381730  0.821713  0.412059  1
  Cu  Cu7  1  0.361228  0.783844  0.951794  1
  Cu  Cu8  1  0.638772  0.216156  0.048206  1
  Cu  Cu9  1  0.618270  0.178287  0.587941  1
  Cu  Cu10  1  0.984659  0.192604  0.559826  1
  Cu  Cu11  1  0.000540  0.176290  0.092034  1
  Si  Si12  1  0.171286  0.588578  0.715589  1
  Si  Si13  1  0.289113  0.404482  0.289466  1
  Si  Si14  1  0.278969  0.116833  0.611754  1
  Si  Si15  1  0.285232  0.100296  0.052025  1
  Si  Si16  1  0.714768  0.899704  0.947975  1
  Si  Si17  1  0.721031  0.883167  0.388246  1
  Si  Si18  1  0.710887  0.595518  0.710534  1
  Si  Si19  1  0.828714  0.411422  0.284411  1
  O  O20  1  0.116704  0.008315  0.090412  1
  O  O21  1  0.068183  0.372428  0.740581  1
  O  O22  1  0.164017  0.688903  0.499511  1
  O  O23  1  0.144690  0.704561  0.894235  1
  O  O24  1  0.123762  0.361827  0.246250  1
  O  O25  1  0.109686  0.019111  0.584313  1
  O  O26  1  0.373169  0.962624  0.121378  1
  O  O27  1  0.387582  0.015151  0.563661  1
  O  O28  1  0.337323  0.615074  0.766853  1
  O  O29  1  0.385253  0.623359  0.259456  1
  O  O30  1  0.313452  0.171482  0.829391  1
  O  O31  1  0.324145  0.328137  0.504240  1
  O  O32  1  0.355080  0.298659  0.147001  1
  O  O33  1  0.644920  0.701341  0.852999  1
  O  O34  1  0.675855  0.671863  0.495760  1
  O  O35  1  0.686548  0.828518  0.170609  1
  O  O36  1  0.614747  0.376641  0.740544  1
  O  O37  1  0.662677  0.384926  0.233147  1
  O  O38  1  0.612418  0.984849  0.436339  1
  O  O39  1  0.626831  0.037376  0.878622  1
  O  O40  1  0.890314  0.980889  0.415687  1
  O  O41  1  0.876238  0.638173  0.753750  1
  O  O42  1  0.855310  0.295439  0.105765  1
  O  O43  1  0.835983  0.311097  0.500489  1
  O  O44  1  0.931817  0.627572  0.259419  1
  O  O45  1  0.883296  0.991685  0.909588  1
