# generated using pymatgen
data_Ca5Al11TlSi13O48
_symmetry_space_group_name_H-M   'P 1'
_cell_length_a   12.54557741
_cell_length_b   12.39592094
_cell_length_c   12.32089408
_cell_angle_alpha   90.38432816
_cell_angle_beta   89.72695870
_cell_angle_gamma   90.50276829
_symmetry_Int_Tables_number   1
_chemical_formula_structural   Ca5Al11TlSi13O48
_chemical_formula_sum   'Ca5 Al11 Tl1 Si13 O48'
_cell_volume   1915.93324872
_cell_formula_units_Z   1
loop_
 _symmetry_equiv_pos_site_id
 _symmetry_equiv_pos_as_xyz
  1  'x, y, z'
loop_
 _atom_site_type_symbol
 _atom_site_label
 _atom_site_symmetry_multiplicity
 _atom_site_fract_x
 _atom_site_fract_y
 _atom_site_fract_z
 _atom_site_occupancy
  Ca  Ca0  1  0.779192  0.192350  0.199409  1
  Ca  Ca1  1  0.778053  0.187077  0.805004  1
  Ca  Ca2  1  0.787801  0.798099  0.191474  1
  Ca  Ca3  1  0.816502  0.805778  0.818148  1
  Ca  Ca4  1  0.192970  0.996573  0.003216  1
  Al  Al5  1  0.612047  0.187468  0.003902  1
  Al  Al6  1  0.616357  0.000707  0.185088  1
  Al  Al7  1  0.619726  0.813634  0.993650  1
  Al  Al8  1  0.615897  0.996692  0.811310  1
  Al  Al9  1  0.829395  0.003244  0.363560  1
  Al  Al10  1  0.833853  0.357587  0.000885  1
  Al  Al11  1  0.821911  0.626014  0.003976  1
  Al  Al12  1  0.823428  0.006428  0.631782  1
  Al  Al13  1  0.005729  0.628832  0.185625  1
  Al  Al14  1  0.004170  0.624619  0.812616  1
  Al  Al15  1  0.999723  0.819245  0.630912  1
  Tl  Tl16  1  0.591893  0.615579  0.620157  1
  Si  Si17  1  0.179692  0.000927  0.373070  1
  Si  Si18  1  0.179175  0.372133  0.000116  1
  Si  Si19  1  0.182523  0.625085  0.996549  1
  Si  Si20  1  0.180763  0.000241  0.626149  1
  Si  Si21  1  0.353977  0.184147  0.001421  1
  Si  Si22  1  0.354679  0.816290  0.997954  1
  Si  Si23  1  0.356042  0.997483  0.184215  1
  Si  Si24  1  0.352664  0.999468  0.816435  1
  Si  Si25  1  0.008804  0.188116  0.370537  1
  Si  Si26  1  0.009136  0.186629  0.628382  1
  Si  Si27  1  0.006551  0.366410  0.187112  1
  Si  Si28  1  0.007466  0.361422  0.815503  1
  Si  Si29  1  0.002860  0.821018  0.363479  1
  O  O30  1  0.998608  0.218215  0.499491  1
  O  O31  1  0.993135  0.490841  0.214538  1
  O  O32  1  0.023948  0.295442  0.700616  1
  O  O33  1  0.010157  0.707323  0.303470  1
  O  O34  1  0.988433  0.811454  0.491421  1
  O  O35  1  0.989176  0.697857  0.695526  1
  O  O36  1  0.113017  0.111271  0.351271  1
  O  O37  1  0.114963  0.112589  0.644714  1
  O  O38  1  0.111037  0.342529  0.109104  1
  O  O39  1  0.119286  0.653571  0.106361  1
  O  O40  1  0.112816  0.337742  0.891978  1
  O  O41  1  0.121619  0.650867  0.885993  1
  O  O42  1  0.115192  0.896079  0.662318  1
  O  O43  1  0.110565  0.896480  0.335478  1
  O  O44  1  0.222059  0.496524  0.998069  1
  O  O45  1  0.221788  0.997342  0.498281  1
  O  O46  1  0.280319  0.288963  0.002944  1
  O  O47  1  0.286337  0.009445  0.705605  1
  O  O48  1  0.292894  0.702792  0.996373  1
  O  O49  1  0.283407  0.005181  0.291691  1
  O  O50  1  0.315814  0.101134  0.104610  1
  O  O51  1  0.310504  0.101854  0.899144  1
  O  O52  1  0.309787  0.894833  0.103858  1
  O  O53  1  0.304939  0.897388  0.896923  1
  O  O54  1  0.478441  0.989439  0.210487  1
  O  O55  1  0.475401  0.216617  0.998093  1
  O  O56  1  0.476167  0.990934  0.793848  1
  O  O57  1  0.479285  0.805890  0.993560  1
  O  O58  1  0.633264  0.127426  0.128093  1
  O  O59  1  0.641590  0.109924  0.891092  1
  O  O60  1  0.655804  0.887375  0.110728  1
  O  O61  1  0.656081  0.872863  0.867312  1
  O  O62  1  0.709563  0.030666  0.710930  1
  O  O63  1  0.721083  0.275482  0.000045  1
  O  O64  1  0.705523  0.705405  0.004193  1
  O  O65  1  0.719379  0.013728  0.279422  1
  O  O66  1  0.806867  0.489713  0.001265  1
  O  O67  1  0.800925  0.000436  0.496776  1
  O  O68  1  0.899880  0.126920  0.671740  1
  O  O69  1  0.888351  0.674651  0.121937  1
  O  O70  1  0.894244  0.671317  0.890522  1
  O  O71  1  0.889239  0.894326  0.684586  1
  O  O72  1  0.900800  0.126450  0.325670  1
  O  O73  1  0.901339  0.312413  0.124055  1
  O  O74  1  0.902800  0.307129  0.879694  1
  O  O75  1  0.899095  0.887882  0.310694  1
  O  O76  1  0.022828  0.297464  0.299865  1
  O  O77  1  0.992071  0.485341  0.790781  1
