# generated using pymatgen
data_Li3Mn2P2(CO7)2
_symmetry_space_group_name_H-M   'P 1'
_cell_length_a   8.31817389
_cell_length_b   10.12126829
_cell_length_c   6.48090060
_cell_angle_alpha   90.29365503
_cell_angle_beta   89.72708304
_cell_angle_gamma   85.61078009
_symmetry_Int_Tables_number   1
_chemical_formula_structural   Li3Mn2P2(CO7)2
_chemical_formula_sum   'Li6 Mn4 P4 C4 O28'
_cell_volume   544.01540594
_cell_formula_units_Z   2
loop_
 _symmetry_equiv_pos_site_id
 _symmetry_equiv_pos_as_xyz
  1  'x, y, z'
loop_
 _atom_site_type_symbol
 _atom_site_label
 _atom_site_symmetry_multiplicity
 _atom_site_fract_x
 _atom_site_fract_y
 _atom_site_fract_z
 _atom_site_occupancy
  Li  Li0  1  0.259730  0.129428  0.022684  1
  Li  Li1  1  0.255711  0.123928  0.480728  1
  Li  Li2  1  0.277976  0.619813  0.444827  1
  Li  Li3  1  0.728923  0.364696  0.968612  1
  Li  Li4  1  0.736301  0.883084  0.533838  1
  Li  Li5  1  0.902483  0.617136  0.752298  1
  Mn  Mn6  1  0.329720  0.402001  0.749187  1
  Mn  Mn7  1  0.331726  0.896095  0.755551  1
  Mn  Mn8  1  0.670133  0.101640  0.251027  1
  Mn  Mn9  1  0.671284  0.603118  0.250162  1
  P  P10  1  0.419986  0.362515  0.242633  1
  P  P11  1  0.422595  0.866604  0.259471  1
  P  P12  1  0.578698  0.138226  0.755213  1
  P  P13  1  0.579598  0.639546  0.743866  1
  C  C14  1  0.042946  0.355004  0.752994  1
  C  C15  1  0.052190  0.850978  0.739290  1
  C  C16  1  0.952874  0.141806  0.248457  1
  C  C17  1  0.953525  0.646044  0.258990  1
  O  O18  1  0.086377  0.476656  0.742985  1
  O  O19  1  0.099648  0.163797  0.249669  1
  O  O20  1  0.099251  0.971159  0.757033  1
  O  O21  1  0.170922  0.265931  0.740686  1
  O  O22  1  0.096252  0.670015  0.277471  1
  O  O23  1  0.175535  0.760271  0.738778  1
  O  O24  1  0.310066  0.393635  0.057137  1
  O  O25  1  0.323475  0.414392  0.434185  1
  O  O26  1  0.327688  0.914570  0.066607  1
  O  O27  1  0.313469  0.917956  0.442072  1
  O  O28  1  0.409701  0.078238  0.754898  1
  O  O29  1  0.454765  0.206904  0.258147  1
  O  O30  1  0.419672  0.573250  0.732602  1
  O  O31  1  0.457528  0.713043  0.271352  1
  O  O32  1  0.541554  0.291373  0.759276  1
  O  O33  1  0.583042  0.425234  0.221011  1
  O  O34  1  0.538760  0.792400  0.738592  1
  O  O35  1  0.588385  0.926020  0.272639  1
  O  O36  1  0.678854  0.094524  0.944013  1
  O  O37  1  0.679479  0.088679  0.565826  1
  O  O38  1  0.696634  0.600905  0.563736  1
  O  O39  1  0.685748  0.596433  0.931475  1
  O  O40  1  0.834326  0.235235  0.234164  1
  O  O41  1  0.903743  0.323799  0.774924  1
  O  O42  1  0.831481  0.738337  0.263391  1
  O  O43  1  0.899478  0.024232  0.262465  1
  O  O44  1  0.910563  0.819154  0.723898  1
  O  O45  1  0.900982  0.527366  0.234954  1
