# generated using pymatgen
data_AgH8O5
_symmetry_space_group_name_H-M   'P 1'
_cell_length_a   6.31191733
_cell_length_b   6.44803119
_cell_length_c   13.01579898
_cell_angle_alpha   90.00000000
_cell_angle_beta   90.00000000
_cell_angle_gamma   90.00000000
_symmetry_Int_Tables_number   1
_chemical_formula_structural   AgH8O5
_chemical_formula_sum   'Ag4 H32 O20'
_cell_volume   529.73572720
_cell_formula_units_Z   4
loop_
 _symmetry_equiv_pos_site_id
 _symmetry_equiv_pos_as_xyz
  1  'x, y, z'
loop_
 _atom_site_type_symbol
 _atom_site_label
 _atom_site_symmetry_multiplicity
 _atom_site_fract_x
 _atom_site_fract_y
 _atom_site_fract_z
 _atom_site_occupancy
  Ag  Ag0  1  0.005005  0.749215  0.500283  1
  Ag  Ag1  1  0.494995  0.250785  0.000283  1
  Ag  Ag2  1  0.505005  0.750785  0.499717  1
  Ag  Ag3  1  0.994995  0.249215  0.999717  1
  H  H4  1  0.041903  0.702030  0.810977  1
  H  H5  1  0.201241  0.530543  0.765714  1
  H  H6  1  0.220573  0.062604  0.340457  1
  H  H7  1  0.230785  0.364360  0.603755  1
  H  H8  1  0.231800  0.838181  0.293007  1
  H  H9  1  0.241624  0.565038  0.936857  1
  H  H10  1  0.243945  0.125371  0.637837  1
  H  H11  1  0.244597  0.197510  0.162306  1
  H  H12  1  0.255403  0.802490  0.662306  1
  H  H13  1  0.256055  0.874629  0.137837  1
  H  H14  1  0.258376  0.434962  0.436857  1
  H  H15  1  0.268200  0.161819  0.793007  1
  H  H16  1  0.269215  0.635640  0.103755  1
  H  H17  1  0.279427  0.937396  0.840457  1
  H  H18  1  0.298759  0.469456  0.265714  1
  H  H19  1  0.458097  0.297970  0.310977  1
  H  H20  1  0.541903  0.797970  0.189023  1
  H  H21  1  0.701241  0.969457  0.234286  1
  H  H22  1  0.720573  0.437396  0.659543  1
  H  H23  1  0.730785  0.135640  0.396245  1
  H  H24  1  0.731800  0.661819  0.706993  1
  H  H25  1  0.741624  0.934962  0.063143  1
  H  H26  1  0.743945  0.374629  0.362163  1
  H  H27  1  0.744597  0.302490  0.837694  1
  H  H28  1  0.755403  0.697510  0.337694  1
  H  H29  1  0.756055  0.625371  0.862163  1
  H  H30  1  0.758376  0.065038  0.563143  1
  H  H31  1  0.768200  0.338181  0.206993  1
  H  H32  1  0.769215  0.864360  0.896245  1
  H  H33  1  0.779427  0.562604  0.159543  1
  H  H34  1  0.798759  0.030544  0.734286  1
  H  H35  1  0.958097  0.202030  0.689023  1
  O  O36  1  0.196241  0.664987  0.800755  1
  O  O37  1  0.210061  0.270041  0.665607  1
  O  O38  1  0.236765  0.915112  0.358057  1
  O  O39  1  0.242926  0.108821  0.100649  1
  O  O40  1  0.244479  0.489558  0.003014  1
  O  O41  1  0.255521  0.510442  0.503014  1
  O  O42  1  0.257074  0.891179  0.600650  1
  O  O43  1  0.263235  0.084888  0.858057  1
  O  O44  1  0.289939  0.729959  0.165607  1
  O  O45  1  0.303759  0.335013  0.300755  1
  O  O46  1  0.696241  0.835013  0.199245  1
  O  O47  1  0.710061  0.229959  0.334393  1
  O  O48  1  0.736765  0.584888  0.641943  1
  O  O49  1  0.742926  0.391179  0.899350  1
  O  O50  1  0.744479  0.010442  0.996986  1
  O  O51  1  0.755521  0.989558  0.496986  1
  O  O52  1  0.757074  0.608821  0.399351  1
  O  O53  1  0.763235  0.415112  0.141943  1
  O  O54  1  0.789939  0.770041  0.834393  1
  O  O55  1  0.803759  0.164987  0.699245  1
