# generated using pymatgen
data_Sr4Ta2O9
_symmetry_space_group_name_H-M   'P 1'
_cell_length_a   5.94612676
_cell_length_b   5.94616195
_cell_length_c   15.38651984
_cell_angle_alpha   89.99996417
_cell_angle_beta   89.99978213
_cell_angle_gamma   120.00035519
_symmetry_Int_Tables_number   1
_chemical_formula_structural   Sr4Ta2O9
_chemical_formula_sum   'Sr8 Ta4 O18'
_cell_volume   471.12958283
_cell_formula_units_Z   2
loop_
 _symmetry_equiv_pos_site_id
 _symmetry_equiv_pos_as_xyz
  1  'x, y, z'
loop_
 _atom_site_type_symbol
 _atom_site_label
 _atom_site_symmetry_multiplicity
 _atom_site_fract_x
 _atom_site_fract_y
 _atom_site_fract_z
 _atom_site_occupancy
  Sr  Sr0  1  0.333320  0.666665  0.027809  1
  Sr  Sr1  1  0.333321  0.666676  0.301052  1
  Sr  Sr2  1  0.333327  0.666665  0.801053  1
  Sr  Sr3  1  0.333332  0.666663  0.527808  1
  Sr  Sr4  1  0.666649  0.333332  0.198947  1
  Sr  Sr5  1  0.666663  0.333330  0.698947  1
  Sr  Sr6  1  0.666658  0.333336  0.472191  1
  Sr  Sr7  1  0.666661  0.333335  0.972193  1
  Ta  Ta8  1  0.999980  0.999997  0.149519  1
  Ta  Ta9  1  0.999994  0.000004  0.350480  1
  Ta  Ta10  1  1.000000  0.999997  0.649520  1
  Ta  Ta11  1  0.000002  0.000001  0.850481  1
  O  O12  1  0.000004  0.751606  0.749998  1
  O  O13  1  0.039865  0.730563  0.407099  1
  O  O14  1  0.269452  0.960141  0.907093  1
  O  O15  1  0.039865  0.309307  0.907097  1
  O  O16  1  0.999981  0.248395  0.250000  1
  O  O17  1  0.248396  0.248398  0.749998  1
  O  O18  1  0.269444  0.309319  0.407095  1
  O  O19  1  0.690683  0.960134  0.407099  1
  O  O20  1  0.309297  0.269438  0.092904  1
  O  O21  1  0.248380  0.000007  0.250002  1
  O  O22  1  0.690686  0.730544  0.907092  1
  O  O23  1  0.309306  0.039866  0.592903  1
  O  O24  1  0.730546  0.690687  0.592905  1
  O  O25  1  0.751590  0.751600  0.250002  1
  O  O26  1  0.960128  0.690691  0.092906  1
  O  O27  1  0.730538  0.039863  0.092903  1
  O  O28  1  0.751602  -0.000003  0.750001  1
  O  O29  1  0.960127  0.269443  0.592904  1
