# generated using pymatgen
data_Li4AlCr3O8
_symmetry_space_group_name_H-M   'P 1'
_cell_length_a   5.08165993
_cell_length_b   5.89439491
_cell_length_c   5.86901142
_cell_angle_alpha   60.14067382
_cell_angle_beta   90.00022140
_cell_angle_gamma   73.30762186
_symmetry_Int_Tables_number   1
_chemical_formula_structural   Li4AlCr3O8
_chemical_formula_sum   'Li4 Al1 Cr3 O8'
_cell_volume   143.85460344
_cell_formula_units_Z   1
loop_
 _symmetry_equiv_pos_site_id
 _symmetry_equiv_pos_as_xyz
  1  'x, y, z'
loop_
 _atom_site_type_symbol
 _atom_site_label
 _atom_site_symmetry_multiplicity
 _atom_site_fract_x
 _atom_site_fract_y
 _atom_site_fract_z
 _atom_site_occupancy
  Li  Li0  1  0.000000  0.000000  0.000000  1
  Li  Li1  1  0.000000  0.000000  0.500000  1
  Li  Li2  1  0.500388  0.000057  0.249975  1
  Li  Li3  1  0.499611  0.999943  0.750025  1
  Al  Al4  1  0.000000  0.499999  0.000000  1
  Cr  Cr5  1  0.000000  0.500001  0.500000  1
  Cr  Cr6  1  0.500003  0.499999  0.247911  1
  Cr  Cr7  1  0.499997  0.500001  0.752089  1
  O  O8  1  0.234708  0.278761  0.351636  1
  O  O9  1  0.234688  0.278769  0.869636  1
  O  O10  1  0.752918  0.278490  0.110753  1
  O  O11  1  0.259160  0.725739  0.387129  1
  O  O12  1  0.247082  0.721509  0.889248  1
  O  O13  1  0.765312  0.721230  0.130364  1
  O  O14  1  0.740840  0.274262  0.612871  1
  O  O15  1  0.765292  0.721238  0.648363  1
