# generated using pymatgen
data_Li4Cr3NiO8
_symmetry_space_group_name_H-M   'P 1'
_cell_length_a   5.11837073
_cell_length_b   5.90069256
_cell_length_c   5.90271993
_cell_angle_alpha   120.01144899
_cell_angle_beta   90.00001425
_cell_angle_gamma   73.23737984
_symmetry_Int_Tables_number   1
_chemical_formula_structural   Li4Cr3NiO8
_chemical_formula_sum   'Li4 Cr3 Ni1 O8'
_cell_volume   145.55773612
_cell_formula_units_Z   1
loop_
 _symmetry_equiv_pos_site_id
 _symmetry_equiv_pos_as_xyz
  1  'x, y, z'
loop_
 _atom_site_type_symbol
 _atom_site_label
 _atom_site_symmetry_multiplicity
 _atom_site_fract_x
 _atom_site_fract_y
 _atom_site_fract_z
 _atom_site_occupancy
  Li  Li0  1  0.996740  0.003743  0.501872  1
  Li  Li1  1  0.003260  0.996257  0.998128  1
  Li  Li2  1  1.000000  0.500000  0.503872  1
  Li  Li3  1  0.000000  0.500000  0.996128  1
  Cr  Cr4  1  0.500000  0.000000  0.750000  1
  Cr  Cr5  1  0.500000  0.000000  0.250000  1
  Cr  Cr6  1  0.500000  0.500000  0.250000  1
  Ni  Ni7  1  0.500000  0.500000  0.750000  1
  O  O8  1  0.271886  0.234766  0.617383  1
  O  O9  1  0.727044  0.253569  0.883182  1
  O  O10  1  0.272536  0.242415  0.121208  1
  O  O11  1  0.727043  0.253570  0.370388  1
  O  O12  1  0.272956  0.746431  0.616819  1
  O  O13  1  0.728114  0.765234  0.882617  1
  O  O14  1  0.272957  0.746430  0.129612  1
  O  O15  1  0.727464  0.757585  0.378792  1
