# generated using pymatgen
data_K2HoPCO7
_symmetry_space_group_name_H-M   'P 1'
_cell_length_a   9.91727453
_cell_length_b   7.13359294
_cell_length_c   5.80511430
_cell_angle_alpha   90.00000000
_cell_angle_beta   92.26010865
_cell_angle_gamma   90.00000000
_symmetry_Int_Tables_number   1
_chemical_formula_structural   K2HoPCO7
_chemical_formula_sum   'K4 Ho2 P2 C2 O14'
_cell_volume   410.36797680
_cell_formula_units_Z   2
loop_
 _symmetry_equiv_pos_site_id
 _symmetry_equiv_pos_as_xyz
  1  'x, y, z'
loop_
 _atom_site_type_symbol
 _atom_site_label
 _atom_site_symmetry_multiplicity
 _atom_site_fract_x
 _atom_site_fract_y
 _atom_site_fract_z
 _atom_site_occupancy
  K  K0  1  0.224949  0.011863  0.245469  1
  K  K1  1  0.224949  0.488137  0.245469  1
  K  K2  1  0.775051  0.511863  0.754531  1
  K  K3  1  0.775051  0.988137  0.754531  1
  Ho  Ho4  1  0.365429  0.750000  0.777380  1
  Ho  Ho5  1  0.634571  0.250000  0.222620  1
  P  P6  1  0.429366  0.250000  0.711394  1
  P  P7  1  0.570635  0.750000  0.288606  1
  C  C8  1  0.089202  0.750000  0.729590  1
  C  C9  1  0.910798  0.250000  0.270410  1
  O  O10  1  0.036482  0.250000  0.301141  1
  O  O11  1  0.151668  0.750000  0.935029  1
  O  O12  1  0.172511  0.750000  0.554709  1
  O  O13  1  0.350271  0.069562  0.769085  1
  O  O14  1  0.350271  0.430438  0.769085  1
  O  O15  1  0.432436  0.750000  0.147440  1
  O  O16  1  0.458428  0.250000  0.447745  1
  O  O17  1  0.541572  0.750000  0.552255  1
  O  O18  1  0.567564  0.250000  0.852560  1
  O  O19  1  0.649729  0.569562  0.230915  1
  O  O20  1  0.649729  0.930438  0.230915  1
  O  O21  1  0.827489  0.250000  0.445291  1
  O  O22  1  0.848332  0.250000  0.064971  1
  O  O23  1  0.963518  0.750000  0.698859  1
