# generated using pymatgen
data_Sm2TeO6
_symmetry_space_group_name_H-M   'P 1'
_cell_length_a   5.08931899
_cell_length_b   5.08932005
_cell_length_c   10.32090778
_cell_angle_alpha   90.00000000
_cell_angle_beta   90.00000000
_cell_angle_gamma   89.99991253
_symmetry_Int_Tables_number   1
_chemical_formula_structural   Sm2TeO6
_chemical_formula_sum   'Sm4 Te2 O12'
_cell_volume   267.32361975
_cell_formula_units_Z   2
loop_
 _symmetry_equiv_pos_site_id
 _symmetry_equiv_pos_as_xyz
  1  'x, y, z'
loop_
 _atom_site_type_symbol
 _atom_site_label
 _atom_site_symmetry_multiplicity
 _atom_site_fract_x
 _atom_site_fract_y
 _atom_site_fract_z
 _atom_site_occupancy
  Sm  Sm0  1  0.999979  0.999975  0.334573  1
  Sm  Sm1  1  0.999979  0.999975  0.665427  1
  Sm  Sm2  1  0.500050  0.500055  0.165427  1
  Sm  Sm3  1  0.500050  0.500055  0.834573  1
  Te  Te4  1  0.000070  0.000075  0.000000  1
  Te  Te5  1  0.499976  0.499971  0.500000  1
  O  O6  1  0.180820  0.180823  0.142315  1
  O  O7  1  0.180820  0.180823  0.857685  1
  O  O8  1  0.227503  0.227386  0.500000  1
  O  O9  1  0.272610  0.727548  0.000000  1
  O  O10  1  0.319192  0.680712  0.357696  1
  O  O11  1  0.319192  0.680712  0.642304  1
  O  O12  1  0.680789  0.319260  0.357695  1
  O  O13  1  0.680789  0.319260  0.642305  1
  O  O14  1  0.727551  0.272616  0.000000  1
  O  O15  1  0.772447  0.772563  0.500000  1
  O  O16  1  0.819291  0.819295  0.142296  1
  O  O17  1  0.819291  0.819295  0.857704  1
