# generated using pymatgen
data_V2O3F
_symmetry_space_group_name_H-M   'P 1'
_cell_length_a   4.58979705
_cell_length_b   10.37512827
_cell_length_c   5.53971427
_cell_angle_alpha   81.76812213
_cell_angle_beta   90.00000000
_cell_angle_gamma   90.00000000
_symmetry_Int_Tables_number   1
_chemical_formula_structural   V2O3F
_chemical_formula_sum   'V8 O12 F4'
_cell_volume   261.08171338
_cell_formula_units_Z   4
loop_
 _symmetry_equiv_pos_site_id
 _symmetry_equiv_pos_as_xyz
  1  'x, y, z'
loop_
 _atom_site_type_symbol
 _atom_site_label
 _atom_site_symmetry_multiplicity
 _atom_site_fract_x
 _atom_site_fract_y
 _atom_site_fract_z
 _atom_site_occupancy
  V  V0  1  0.500000  0.250000  0.750000  1
  V  V1  1  0.518178  0.987540  0.504033  1
  V  V2  1  0.500000  0.750000  0.250000  1
  V  V3  1  0.481822  0.512460  0.995967  1
  V  V4  1  0.000000  0.250000  0.250000  1
  V  V5  1  0.000000  0.750000  0.750000  1
  V  V6  1  0.981822  0.487540  0.504033  1
  V  V7  1  0.018178  0.012460  0.995967  1
  O  O8  1  0.794385  0.570435  0.774954  1
  O  O9  1  0.805305  0.324456  0.525257  1
  O  O10  1  0.793262  0.076670  0.274455  1
  O  O11  1  0.694695  0.824456  0.525257  1
  O  O12  1  0.705615  0.070435  0.774954  1
  O  O13  1  0.706738  0.576670  0.274455  1
  O  O14  1  0.293262  0.923330  0.225545  1
  O  O15  1  0.294384  0.429565  0.725046  1
  O  O16  1  0.305305  0.675544  0.974743  1
  O  O17  1  0.205616  0.929565  0.725046  1
  O  O18  1  0.194695  0.175544  0.974743  1
  O  O19  1  0.206738  0.423330  0.225545  1
  F  F20  1  0.806846  0.829589  0.026950  1
  F  F21  1  0.693154  0.329589  0.026950  1
  F  F22  1  0.306846  0.170411  0.473050  1
  F  F23  1  0.193154  0.670411  0.473050  1
