# generated using pymatgen
data_Li3Fe8(BO3)8
_symmetry_space_group_name_H-M   'P 1'
_cell_length_a   5.29401892
_cell_length_b   9.10230234
_cell_length_c   11.43696460
_cell_angle_alpha   113.93172610
_cell_angle_beta   76.89586510
_cell_angle_gamma   89.75782875
_symmetry_Int_Tables_number   1
_chemical_formula_structural   Li3Fe8(BO3)8
_chemical_formula_sum   'Li3 Fe8 B8 O24'
_cell_volume   487.75109054
_cell_formula_units_Z   1
loop_
 _symmetry_equiv_pos_site_id
 _symmetry_equiv_pos_as_xyz
  1  'x, y, z'
loop_
 _atom_site_type_symbol
 _atom_site_label
 _atom_site_symmetry_multiplicity
 _atom_site_fract_x
 _atom_site_fract_y
 _atom_site_fract_z
 _atom_site_occupancy
  Li  Li0  1  0.188100  0.159973  0.334121  1
  Li  Li1  1  0.925083  0.432609  0.840339  1
  Li  Li2  1  0.426727  0.930571  0.836677  1
  Fe  Fe3  1  0.399500  0.283834  0.874119  1
  Fe  Fe4  1  0.094511  0.230688  0.118943  1
  Fe  Fe5  1  0.838597  0.140549  0.622457  1
  Fe  Fe6  1  0.654736  0.353151  0.373515  1
  Fe  Fe7  1  0.343468  0.639852  0.621451  1
  Fe  Fe8  1  0.153547  0.841361  0.368911  1
  Fe  Fe9  1  0.900847  0.783832  0.875636  1
  Fe  Fe10  1  0.605086  0.722671  0.118657  1
  B  B11  1  0.639526  0.014053  0.370194  1
  B  B12  1  0.897944  0.105599  0.871171  1
  B  B13  1  0.151373  0.514799  0.371702  1
  B  B14  1  0.397066  0.608738  0.872114  1
  B  B15  1  0.847151  0.482616  0.628207  1
  B  B16  1  0.604140  0.390735  0.119144  1
  B  B17  1  0.344338  0.979712  0.622886  1
  B  B18  1  0.097159  0.894675  0.129259  1
  O  O19  1  0.127033  0.129210  0.917212  1
  O  O20  1  0.471350  0.118514  0.660884  1
  O  O21  1  0.182183  0.041306  0.143650  1
  O  O22  1  0.519087  0.144765  0.370397  1
  O  O23  1  0.877407  0.024497  0.412627  1
  O  O24  1  0.818203  0.214427  0.823009  1
  O  O25  1  0.262546  0.480662  0.867508  1
  O  O26  1  0.062143  0.360710  0.323188  1
  O  O27  1  0.725184  0.293487  0.162355  1
  O  O28  1  0.634897  0.483078  0.577985  1
  O  O29  1  0.931168  0.347580  0.641027  1
  O  O30  1  0.379724  0.344717  0.075872  1
  O  O31  1  0.626281  0.630911  0.918227  1
  O  O32  1  0.359998  0.529346  0.429325  1
  O  O33  1  0.314199  0.721755  0.830011  1
  O  O34  1  0.975776  0.619691  0.669762  1
  O  O35  1  0.709425  0.524592  0.113520  1
  O  O36  1  0.224985  0.795042  0.170235  1
  O  O37  1  0.135268  0.975864  0.565217  1
  O  O38  1  0.416355  0.853877  0.647522  1
  O  O39  1  0.043510  0.644488  0.362075  1
  O  O40  1  0.758757  0.981170  0.870420  1
  O  O41  1  0.538463  0.863287  0.327604  1
  O  O42  1  0.884111  0.844263  0.079069  1
