# generated using pymatgen
data_VOF2
_symmetry_space_group_name_H-M   'P 1'
_cell_length_a   5.19584145
_cell_length_b   13.38898076
_cell_length_c   5.23758403
_cell_angle_alpha   88.76302865
_cell_angle_beta   119.71682135
_cell_angle_gamma   90.66216119
_symmetry_Int_Tables_number   1
_chemical_formula_structural   VOF2
_chemical_formula_sum   'V6 O6 F12'
_cell_volume   316.37037711
_cell_formula_units_Z   6
loop_
 _symmetry_equiv_pos_site_id
 _symmetry_equiv_pos_as_xyz
  1  'x, y, z'
loop_
 _atom_site_type_symbol
 _atom_site_label
 _atom_site_symmetry_multiplicity
 _atom_site_fract_x
 _atom_site_fract_y
 _atom_site_fract_z
 _atom_site_occupancy
  V  V0  1  0.000000  0.500000  0.000000  1
  V  V1  1  0.000000  0.000000  0.000000  1
  V  V2  1  0.620647  0.833170  0.349465  1
  V  V3  1  0.301380  0.663029  0.667064  1
  V  V4  1  0.698620  0.336971  0.332936  1
  V  V5  1  0.379353  0.166830  0.650535  1
  O  O6  1  0.336009  0.913811  0.247444  1
  O  O7  1  0.087703  0.587646  0.747820  1
  O  O8  1  0.432697  0.247295  0.430130  1
  O  O9  1  0.567303  0.752705  0.569870  1
  O  O10  1  0.912297  0.412354  0.252180  1
  O  O11  1  0.663991  0.086189  0.752556  1
  F  F12  1  0.978131  0.752320  0.398430  1
  F  F13  1  0.400827  0.755315  0.996171  1
  F  F14  1  0.333570  0.411181  0.069556  1
  F  F15  1  0.085885  0.085939  0.352659  1
  F  F16  1  0.263807  0.583343  0.338411  1
  F  F17  1  0.599173  0.244685  0.003829  1
  F  F18  1  0.021869  0.247680  0.601570  1
  F  F19  1  0.744434  0.913261  0.079621  1
  F  F20  1  0.255566  0.086739  0.920379  1
  F  F21  1  0.736193  0.416657  0.661589  1
  F  F22  1  0.914115  0.914061  0.647341  1
  F  F23  1  0.666430  0.588819  0.930444  1
