# generated using pymatgen
data_NaSr9Fe5(MoO6)5
_symmetry_space_group_name_H-M   'P 1'
_cell_length_a   5.63027624
_cell_length_b   5.63362867
_cell_length_c   28.35676268
_cell_angle_alpha   119.79238551
_cell_angle_beta   119.77718566
_cell_angle_gamma   89.97437874
_symmetry_Int_Tables_number   1
_chemical_formula_structural   NaSr9Fe5(MoO6)5
_chemical_formula_sum   'Na1 Sr9 Fe5 Mo5 O30'
_cell_volume   640.25836585
_cell_formula_units_Z   1
loop_
 _symmetry_equiv_pos_site_id
 _symmetry_equiv_pos_as_xyz
  1  'x, y, z'
loop_
 _atom_site_type_symbol
 _atom_site_label
 _atom_site_symmetry_multiplicity
 _atom_site_fract_x
 _atom_site_fract_y
 _atom_site_fract_z
 _atom_site_occupancy
  Na  Na0  1  0.746167  0.246170  0.898469  1
  Sr  Sr1  1  0.242418  0.742428  0.896973  1
  Sr  Sr2  1  0.256534  0.756641  0.702639  1
  Sr  Sr3  1  0.251947  0.751877  0.500753  1
  Sr  Sr4  1  0.752658  0.252734  0.701095  1
  Sr  Sr5  1  0.250440  0.750462  0.300178  1
  Sr  Sr6  1  0.752225  0.252111  0.500854  1
  Sr  Sr7  1  0.247726  0.747751  0.099095  1
  Sr  Sr8  1  0.750112  0.250091  0.300043  1
  Sr  Sr9  1  0.748198  0.248191  0.099277  1
  Fe  Fe10  1  0.012128  0.012191  0.804869  1
  Fe  Fe11  1  0.495471  0.495484  0.998192  1
  Fe  Fe12  1  0.998727  0.998636  0.599471  1
  Fe  Fe13  1  0.003374  0.003263  0.401327  1
  Fe  Fe14  1  0.991812  0.991803  0.196723  1
  Mo  Mo15  1  0.495119  0.495171  0.798061  1
  Mo  Mo16  1  0.503981  0.503933  0.601579  1
  Mo  Mo17  1  0.497676  0.497609  0.399059  1
  Mo  Mo18  1  0.994367  0.994390  0.997752  1
  Mo  Mo19  1  0.503271  0.503266  0.201305  1
  O  O20  1  0.255543  0.255557  0.902216  1
  O  O21  1  0.212486  0.715980  0.798601  1
  O  O22  1  0.290072  0.239339  0.801596  1
  O  O23  1  0.249720  0.249879  0.699914  1
  O  O24  1  0.757477  0.757530  0.903000  1
  O  O25  1  0.717901  0.768652  0.801604  1
  O  O26  1  0.229096  0.713376  0.600085  1
  O  O27  1  0.780554  0.277190  0.798634  1
  O  O28  1  0.278582  0.218137  0.600301  1
  O  O29  1  0.249952  0.249599  0.499896  1
  O  O30  1  0.752629  0.753149  0.701176  1
  O  O31  1  0.722933  0.783244  0.600278  1
  O  O32  1  0.215750  0.720389  0.399260  1
  O  O33  1  0.770921  0.286635  0.599926  1
  O  O34  1  0.285851  0.227406  0.399463  1
  O  O35  1  0.246866  0.246853  0.298743  1
  O  O36  1  0.749963  0.749826  0.499961  1
  O  O37  1  0.711533  0.769944  0.399479  1
  O  O38  1  0.227133  0.708955  0.198473  1
  O  O39  1  0.780678  0.275911  0.399289  1
  O  O40  1  0.279281  0.217389  0.199779  1
  O  O41  1  0.244724  0.244700  0.097883  1
  O  O42  1  0.749741  0.749756  0.299900  1
  O  O43  1  0.719610  0.781509  0.199780  1
  O  O44  1  0.220889  0.740408  0.002049  1
  O  O45  1  0.765248  0.283444  0.198483  1
  O  O46  1  0.273361  0.214738  0.001111  1
  O  O47  1  0.745599  0.745602  0.098243  1
  O  O48  1  0.732212  0.790852  0.001117  1
  O  O49  1  0.789344  0.269846  0.002045  1
