# generated using pymatgen
data_FeOF
_symmetry_space_group_name_H-M   'P 1'
_cell_length_a   14.19952640
_cell_length_b   9.48013024
_cell_length_c   3.09471521
_cell_angle_alpha   90.00000000
_cell_angle_beta   90.00000000
_cell_angle_gamma   90.31081009
_symmetry_Int_Tables_number   1
_chemical_formula_structural   FeOF
_chemical_formula_sum   'Fe12 O12 F12'
_cell_volume   416.58388225
_cell_formula_units_Z   12
loop_
 _symmetry_equiv_pos_site_id
 _symmetry_equiv_pos_as_xyz
  1  'x, y, z'
loop_
 _atom_site_type_symbol
 _atom_site_label
 _atom_site_symmetry_multiplicity
 _atom_site_fract_x
 _atom_site_fract_y
 _atom_site_fract_z
 _atom_site_occupancy
  Fe  Fe0  1  0.008497  0.992511  0.000000  1
  Fe  Fe1  1  0.004456  0.503867  0.000000  1
  Fe  Fe2  1  0.169090  0.214872  0.500000  1
  Fe  Fe3  1  0.152800  0.746841  0.500000  1
  Fe  Fe4  1  0.336746  0.999244  0.000000  1
  Fe  Fe5  1  0.344464  0.494681  0.000000  1
  Fe  Fe6  1  0.482969  0.750520  0.500000  1
  Fe  Fe7  1  0.503606  0.275310  0.500000  1
  Fe  Fe8  1  0.675515  0.996894  0.000000  1
  Fe  Fe9  1  0.671969  0.487605  0.000000  1
  Fe  Fe10  1  0.818720  0.245964  0.500000  1
  Fe  Fe11  1  0.835505  0.781554  0.500000  1
  O  O12  1  0.067777  0.901336  0.500000  1
  O  O13  1  0.098195  0.152526  0.000000  1
  O  O14  1  0.097052  0.644207  0.000000  1
  O  O15  1  0.272526  0.092876  0.500000  1
  O  O16  1  0.393551  0.396920  0.500000  1
  O  O17  1  0.398389  0.905204  0.500000  1
  O  O18  1  0.433775  0.650521  0.000000  1
  O  O19  1  0.567746  0.353417  0.000000  1
  O  O20  1  0.738375  0.410998  0.500000  1
  O  O21  1  0.727260  0.902083  0.500000  1
  O  O22  1  0.766579  0.154493  0.000000  1
  O  O23  1  0.901265  0.851706  0.000000  1
  F  F24  1  0.061897  0.400604  0.500000  1
  F  F25  1  0.226215  0.350262  0.000000  1
  F  F26  1  0.230205  0.835114  0.000000  1
  F  F27  1  0.263974  0.596498  0.500000  1
  F  F28  1  0.442116  0.155513  0.000000  1
  F  F29  1  0.564088  0.850446  0.000000  1
  F  F30  1  0.598082  0.096543  0.500000  1
  F  F31  1  0.606395  0.605956  0.500000  1
  F  F32  1  0.771678  0.657139  0.000000  1
  F  F33  1  0.904247  0.350484  0.000000  1
  F  F34  1  0.933175  0.105155  0.500000  1
  F  F35  1  0.931105  0.590137  0.500000  1
