# generated using pymatgen
data_Na3SnPCO7
_symmetry_space_group_name_H-M   'P 1'
_cell_length_a   9.39423979
_cell_length_b   5.49610722
_cell_length_c   7.26567549
_cell_angle_alpha   90.00000000
_cell_angle_beta   90.00000000
_cell_angle_gamma   83.62275699
_symmetry_Int_Tables_number   1
_chemical_formula_structural   Na3SnPCO7
_chemical_formula_sum   'Na6 Sn2 P2 C2 O14'
_cell_volume   372.81821366
_cell_formula_units_Z   2
loop_
 _symmetry_equiv_pos_site_id
 _symmetry_equiv_pos_as_xyz
  1  'x, y, z'
loop_
 _atom_site_type_symbol
 _atom_site_label
 _atom_site_symmetry_multiplicity
 _atom_site_fract_x
 _atom_site_fract_y
 _atom_site_fract_z
 _atom_site_occupancy
  Na  Na0  1  0.094143  0.778862  0.250000  1
  Na  Na1  1  0.275245  0.249492  0.020016  1
  Na  Na2  1  0.275245  0.249492  0.479984  1
  Na  Na3  1  0.724755  0.750508  0.979984  1
  Na  Na4  1  0.724755  0.750508  0.520016  1
  Na  Na5  1  0.905857  0.221138  0.750000  1
  Sn  Sn6  1  0.342382  0.740734  0.750000  1
  Sn  Sn7  1  0.657618  0.259266  0.250000  1
  P  P8  1  0.404907  0.711834  0.250000  1
  P  P9  1  0.595094  0.288166  0.750000  1
  C  C10  1  0.038042  0.680944  0.750000  1
  C  C11  1  0.961958  0.319056  0.250000  1
  O  O12  1  0.076742  0.900212  0.750000  1
  O  O13  1  0.095123  0.355999  0.250000  1
  O  O14  1  0.138643  0.491882  0.750000  1
  O  O15  1  0.319094  0.824081  0.079378  1
  O  O16  1  0.319094  0.824081  0.420622  1
  O  O17  1  0.402170  0.428160  0.250000  1
  O  O18  1  0.434956  0.238648  0.750000  1
  O  O19  1  0.565044  0.761352  0.250000  1
  O  O20  1  0.597830  0.571840  0.750000  1
  O  O21  1  0.680906  0.175919  0.579378  1
  O  O22  1  0.680906  0.175919  0.920622  1
  O  O23  1  0.861357  0.508118  0.250000  1
  O  O24  1  0.904877  0.644001  0.750000  1
  O  O25  1  0.923258  0.099788  0.250000  1
