# generated using pymatgen
data_Co5P4(HO2)10
_symmetry_space_group_name_H-M   'P 1'
_cell_length_a   8.99932668
_cell_length_b   9.41172057
_cell_length_c   9.81028291
_cell_angle_alpha   95.96063007
_cell_angle_beta   117.30119495
_cell_angle_gamma   90.00000102
_symmetry_Int_Tables_number   1
_chemical_formula_structural   Co5P4(HO2)10
_chemical_formula_sum   'Co10 P8 H20 O40'
_cell_volume   733.30498531
_cell_formula_units_Z   2
loop_
 _symmetry_equiv_pos_site_id
 _symmetry_equiv_pos_as_xyz
  1  'x, y, z'
loop_
 _atom_site_type_symbol
 _atom_site_label
 _atom_site_symmetry_multiplicity
 _atom_site_fract_x
 _atom_site_fract_y
 _atom_site_fract_z
 _atom_site_occupancy
  Co  Co0  1  0.901052  0.188026  0.629691  1
  Co  Co1  1  0.271361  0.311974  0.370309  1
  Co  Co2  1  0.098948  0.811974  0.370309  1
  Co  Co3  1  0.728639  0.688026  0.629691  1
  Co  Co4  1  0.403001  0.750000  0.000000  1
  Co  Co5  1  0.596999  0.250000  1.000000  1
  Co  Co6  1  0.301993  0.130313  0.650480  1
  Co  Co7  1  0.651513  0.369687  0.349520  1
  Co  Co8  1  0.698007  0.869687  0.349520  1
  Co  Co9  1  0.348487  0.630313  0.650480  1
  P  P10  1  0.762713  0.589337  0.166311  1
  P  P11  1  0.596402  0.910663  0.833689  1
  P  P12  1  0.237287  0.410663  0.833689  1
  P  P13  1  0.403598  0.089337  0.166311  1
  P  P14  1  0.079436  0.871417  0.677722  1
  P  P15  1  0.401714  0.628583  0.322278  1
  P  P16  1  0.920564  0.128583  0.322278  1
  P  P17  1  0.598286  0.371417  0.677722  1
  O  O18  1  0.103492  0.034490  0.671037  1
  O  O19  1  0.432455  0.465510  0.328963  1
  O  O20  1  0.896508  0.965510  0.328963  1
  O  O21  1  0.567545  0.534490  0.671037  1
  O  O22  1  0.158964  0.839699  0.851221  1
  O  O23  1  0.307742  0.660301  0.148779  1
  O  O24  1  0.841036  0.160301  0.148779  1
  O  O25  1  0.692258  0.339699  0.851221  1
  O  O26  1  0.646074  0.711640  0.155829  1
  O  O27  1  0.490245  0.788360  0.844171  1
  O  O28  1  0.353926  0.288360  0.844171  1
  O  O29  1  0.509755  0.211640  0.155829  1
  O  O30  1  0.831341  0.216634  0.404188  1
  O  O31  1  0.427154  0.283366  0.595812  1
  O  O32  1  0.168659  0.783366  0.595812  1
  O  O33  1  0.572846  0.716634  0.404188  1
  O  O34  1  0.701694  0.325503  0.592895  1
  O  O35  1  0.108800  0.174497  0.407105  1
  O  O36  1  0.298306  0.674497  0.407105  1
  O  O37  1  0.891200  0.825503  0.592895  1
  O  O38  1  0.686517  0.031032  0.518182  1
  O  O39  1  0.168335  0.468968  0.481818  1
  O  O40  1  0.313483  0.968968  0.481818  1
  O  O41  1  0.831665  0.531032  0.518182  1
  O  O42  1  0.917397  0.156212  0.836713  1
  O  O43  1  0.080684  0.343788  0.163287  1
  O  O44  1  0.082603  0.843788  0.163287  1
  O  O45  1  0.919316  0.656212  0.836713  1
  O  O46  1  0.685652  0.442164  0.166328  1
  O  O47  1  0.519324  0.057836  0.833672  1
  O  O48  1  0.314348  0.557836  0.833672  1
  O  O49  1  0.480676  0.942164  0.166328  1
  O  O50  1  0.069338  0.370156  0.685941  1
  O  O51  1  0.383396  0.129844  0.314059  1
  O  O52  1  0.930662  0.629844  0.314059  1
  O  O53  1  0.616604  0.870156  0.685941  1
  O  O54  1  0.798486  0.576322  0.022172  1
  O  O55  1  0.776315  0.923678  0.977828  1
  O  O56  1  0.201514  0.423678  0.977828  1
  O  O57  1  0.223685  0.076322  0.022172  1
  H  H58  1  0.587396  0.089337  0.469347  1
  H  H59  1  0.118050  0.410663  0.530653  1
  H  H60  1  0.412604  0.910663  0.530653  1
  H  H61  1  0.881950  0.589337  0.469347  1
  H  H62  1  0.672360  0.977655  0.596417  1
  H  H63  1  0.075943  0.522345  0.403583  1
  H  H64  1  0.327640  0.022345  0.403583  1
  H  H65  1  0.924057  0.477655  0.596417  1
  H  H66  1  0.847496  0.223674  0.864204  1
  H  H67  1  0.983292  0.276326  0.135796  1
  H  H68  1  0.152504  0.776326  0.135796  1
  H  H69  1  0.016708  0.723674  0.864204  1
  H  H70  1  0.028039  0.145025  0.924556  1
  H  H71  1  0.103483  0.354975  0.075444  1
  H  H72  1  0.971961  0.854975  0.075444  1
  H  H73  1  0.896517  0.645025  0.924556  1
  H  H74  1  0.754240  0.479959  0.951782  1
  H  H75  1  0.802458  0.020041  0.048218  1
  H  H76  1  0.245760  0.520041  0.048218  1
  H  H77  1  0.197542  0.979959  0.951782  1
