# generated using pymatgen
data_Li3BiS3
_symmetry_space_group_name_H-M   'P 1'
_cell_length_a   11.04590628
_cell_length_b   12.31262806
_cell_length_c   11.20556355
_cell_angle_alpha   113.70192211
_cell_angle_beta   88.01286156
_cell_angle_gamma   108.76588963
_symmetry_Int_Tables_number   1
_chemical_formula_structural   Li3BiS3
_chemical_formula_sum   'Li24 Bi8 S24'
_cell_volume   1313.37486346
_cell_formula_units_Z   8
loop_
 _symmetry_equiv_pos_site_id
 _symmetry_equiv_pos_as_xyz
  1  'x, y, z'
loop_
 _atom_site_type_symbol
 _atom_site_label
 _atom_site_symmetry_multiplicity
 _atom_site_fract_x
 _atom_site_fract_y
 _atom_site_fract_z
 _atom_site_occupancy
  Li  Li0  1  0.090118  0.924656  0.496899  1
  Li  Li1  1  0.072236  0.551712  0.337128  1
  Li  Li2  1  0.102841  0.499525  0.918575  1
  Li  Li3  1  0.158788  0.348814  0.626426  1
  Li  Li4  1  0.279943  0.783530  0.451355  1
  Li  Li5  1  0.316521  0.591256  0.147601  1
  Li  Li6  1  0.340201  0.664560  0.892018  1
  Li  Li7  1  0.473040  0.935969  0.262521  1
  Li  Li8  1  0.422655  0.622090  0.573614  1
  Li  Li9  1  0.511456  0.892036  0.866350  1
  Li  Li10  1  0.317796  0.169642  0.543770  1
  Li  Li11  1  0.514878  0.539273  0.251980  1
  Li  Li12  1  0.485122  0.460727  0.748020  1
  Li  Li13  1  0.682204  0.830358  0.456230  1
  Li  Li14  1  0.488544  0.107964  0.133650  1
  Li  Li15  1  0.577345  0.377910  0.426386  1
  Li  Li16  1  0.526960  0.064031  0.737479  1
  Li  Li17  1  0.659799  0.335440  0.107982  1
  Li  Li18  1  0.683479  0.408744  0.852399  1
  Li  Li19  1  0.720057  0.216470  0.548645  1
  Li  Li20  1  0.841212  0.651186  0.373574  1
  Li  Li21  1  0.897159  0.500475  0.081425  1
  Li  Li22  1  0.927764  0.448288  0.662872  1
  Li  Li23  1  0.909882  0.075344  0.503101  1
  Bi  Bi24  1  0.156020  0.856813  0.168834  1
  Bi  Bi25  1  0.170275  0.797066  0.748714  1
  Bi  Bi26  1  0.247864  0.314224  0.303669  1
  Bi  Bi27  1  0.279446  0.234124  0.861721  1
  Bi  Bi28  1  0.720554  0.765876  0.138279  1
  Bi  Bi29  1  0.752136  0.685776  0.696331  1
  Bi  Bi30  1  0.829725  0.202934  0.251287  1
  Bi  Bi31  1  0.843980  0.143187  0.831166  1
  S  S32  1  0.047661  0.731647  0.525405  1
  S  S33  1  0.115942  0.635856  0.149608  1
  S  S34  1  0.144970  0.583009  0.747241  1
  S  S35  1  0.289115  0.957670  0.389344  1
  S  S36  1  0.360278  0.882693  0.042609  1
  S  S37  1  0.110488  0.140185  0.657243  1
  S  S38  1  0.388560  0.841815  0.663609  1
  S  S39  1  0.287737  0.540781  0.342367  1
  S  S40  1  0.306343  0.461190  0.914191  1
  S  S41  1  0.359012  0.367931  0.523686  1
  S  S42  1  0.526869  0.761494  0.266216  1
  S  S43  1  0.558085  0.699034  0.824876  1
  S  S44  1  0.441915  0.300966  0.175124  1
  S  S45  1  0.473131  0.238506  0.733784  1
  S  S46  1  0.640988  0.632069  0.476314  1
  S  S47  1  0.693657  0.538809  0.085809  1
  S  S48  1  0.712263  0.459219  0.657633  1
  S  S49  1  0.611440  0.158185  0.336391  1
  S  S50  1  0.889512  0.859815  0.342757  1
  S  S51  1  0.639722  0.117307  0.957391  1
  S  S52  1  0.710885  0.042330  0.610656  1
  S  S53  1  0.855030  0.416991  0.252759  1
  S  S54  1  0.884058  0.364144  0.850392  1
  S  S55  1  0.952339  0.268353  0.474595  1
