# generated using pymatgen
data_NaV6O13
_symmetry_space_group_name_H-M   'P 1'
_cell_length_a   3.75502830
_cell_length_b   11.52016932
_cell_length_c   12.10998139
_cell_angle_alpha   68.66936773
_cell_angle_beta   90.09929406
_cell_angle_gamma   80.61502854
_symmetry_Int_Tables_number   1
_chemical_formula_structural   NaV6O13
_chemical_formula_sum   'Na2 V12 O26'
_cell_volume   480.37938233
_cell_formula_units_Z   2
loop_
 _symmetry_equiv_pos_site_id
 _symmetry_equiv_pos_as_xyz
  1  'x, y, z'
loop_
 _atom_site_type_symbol
 _atom_site_label
 _atom_site_symmetry_multiplicity
 _atom_site_fract_x
 _atom_site_fract_y
 _atom_site_fract_z
 _atom_site_occupancy
  Na  Na0  1  0.172245  0.653177  0.717844  1
  Na  Na1  1  0.823937  0.348177  0.280698  1
  V  V2  1  0.045763  0.897389  0.959014  1
  V  V3  1  0.564208  0.873424  0.773132  1
  V  V4  1  0.573024  0.858099  0.483477  1
  V  V5  1  0.074451  0.856914  0.284372  1
  V  V6  1  0.771597  0.452970  0.920384  1
  V  V7  1  0.752572  0.489594  0.604104  1
  V  V8  1  0.224384  0.510976  0.388281  1
  V  V9  1  0.226734  0.549649  0.073116  1
  V  V10  1  0.930313  0.142140  0.714911  1
  V  V11  1  0.430104  0.141738  0.516072  1
  V  V12  1  0.438654  0.126374  0.228032  1
  V  V13  1  0.950952  0.102769  0.041935  1
  O  O14  1  0.554248  0.888275  0.933810  1
  O  O15  1  0.040442  0.920400  0.781756  1
  O  O16  1  0.544289  0.914747  0.600975  1
  O  O17  1  0.065662  0.873908  0.444279  1
  O  O18  1  0.641339  0.716855  0.810535  1
  O  O19  1  0.553834  0.897862  0.305122  1
  O  O20  1  0.044293  0.915623  0.108770  1
  O  O21  1  0.652937  0.698252  0.554439  1
  O  O22  1  0.251242  0.494514  0.932058  1
  O  O23  1  0.152707  0.695618  0.325882  1
  O  O24  1  0.748165  0.497826  0.764295  1
  O  O25  1  0.145887  0.707947  0.025654  1
  O  O26  1  0.245670  0.504240  0.571784  1
  O  O27  1  0.751874  0.496852  0.429569  1
  O  O28  1  0.851974  0.295399  0.973357  1
  O  O29  1  0.253910  0.502161  0.243929  1
  O  O30  1  0.848059  0.302743  0.674095  1
  O  O31  1  0.751222  0.497896  0.065168  1
  O  O32  1  0.347773  0.301860  0.445447  1
  O  O33  1  0.959720  0.082033  0.891849  1
  O  O34  1  0.450950  0.100740  0.694026  1
  O  O35  1  0.358839  0.282476  0.191221  1
  O  O36  1  0.938647  0.124990  0.555024  1
  O  O37  1  0.460025  0.083911  0.398929  1
  O  O38  1  0.962439  0.079120  0.219559  1
  O  O39  1  0.445202  0.113337  0.067295  1
