# generated using pymatgen
data_Li9Cu3P8O29
_symmetry_space_group_name_H-M   'P 1'
_cell_length_a   9.80155453
_cell_length_b   9.80157744
_cell_length_c   13.77274003
_cell_angle_alpha   90.00026185
_cell_angle_beta   90.00024918
_cell_angle_gamma   59.99960486
_symmetry_Int_Tables_number   1
_chemical_formula_structural   Li9Cu3P8O29
_chemical_formula_sum   'Li18 Cu6 P16 O58'
_cell_volume   1145.88276746
_cell_formula_units_Z   2
loop_
 _symmetry_equiv_pos_site_id
 _symmetry_equiv_pos_as_xyz
  1  'x, y, z'
loop_
 _atom_site_type_symbol
 _atom_site_label
 _atom_site_symmetry_multiplicity
 _atom_site_fract_x
 _atom_site_fract_y
 _atom_site_fract_z
 _atom_site_occupancy
  Li  Li0  1  1.000000  0.000000  0.500001  1
  Li  Li1  1  0.000002  0.999999  0.000000  1
  Li  Li2  1  0.097699  0.235223  0.564446  1
  Li  Li3  1  0.235244  0.097760  0.064476  1
  Li  Li4  1  0.097761  0.666994  0.064477  1
  Li  Li5  1  0.333319  0.333313  0.378755  1
  Li  Li6  1  0.333369  0.333313  0.878851  1
  Li  Li7  1  0.235230  0.667072  0.564445  1
  Li  Li8  1  0.667076  0.097702  0.564443  1
  Li  Li9  1  0.333000  0.764759  0.935523  1
  Li  Li10  1  0.666997  0.235245  0.064478  1
  Li  Li11  1  0.332923  0.902300  0.435558  1
  Li  Li12  1  0.764773  0.332920  0.435559  1
  Li  Li13  1  0.666689  0.666687  0.621252  1
  Li  Li14  1  0.666687  0.666686  0.121151  1
  Li  Li15  1  0.902246  0.333000  0.935522  1
  Li  Li16  1  0.764759  0.902240  0.935524  1
  Li  Li17  1  0.902302  0.764778  0.435558  1
  Cu  Cu18  1  0.000018  0.434541  0.749989  1
  Cu  Cu19  1  0.999986  0.565449  0.250006  1
  Cu  Cu20  1  0.434567  0.999986  0.250005  1
  Cu  Cu21  1  0.565443  0.000018  0.749988  1
  Cu  Cu22  1  0.434551  0.565446  0.749995  1
  Cu  Cu23  1  0.565441  0.434568  0.250008  1
  P  P24  1  0.090738  0.228117  0.343344  1
  P  P25  1  0.228122  0.090742  0.843335  1
  P  P26  1  0.090748  0.681137  0.843336  1
  P  P27  1  0.333325  0.333325  0.124510  1
  P  P28  1  0.333350  0.333324  0.624498  1
  P  P29  1  0.228118  0.681142  0.343343  1
  P  P30  1  0.318864  0.771887  0.156665  1
  P  P31  1  0.681140  0.090740  0.343341  1
  P  P32  1  0.318859  0.909265  0.656655  1
  P  P33  1  0.681144  0.228115  0.843335  1
  P  P34  1  0.771876  0.318861  0.656656  1
  P  P35  1  0.666675  0.666677  0.875482  1
  P  P36  1  0.666677  0.666674  0.375512  1
  P  P37  1  0.909249  0.318864  0.156667  1
  P  P38  1  0.771888  0.909251  0.156665  1
  P  P39  1  0.909271  0.771878  0.656655  1
  O  O40  1  0.999993  0.213942  0.250007  1
  O  O41  1  0.001050  0.226733  0.067202  1
  O  O42  1  0.077681  0.252962  0.844692  1
  O  O43  1  0.213937  0.000005  0.749993  1
  O  O44  1  0.226709  0.001062  0.567191  1
  O  O45  1  0.252959  0.077693  0.344703  1
  O  O46  1  0.111252  0.372961  0.333178  1
  O  O47  1  0.190145  0.319318  0.660084  1
  O  O48  1  0.111296  0.515764  0.833160  1
  O  O49  1  0.001067  0.772227  0.567192  1
  O  O50  1  0.000008  0.786058  0.749994  1
  O  O51  1  0.077694  0.669348  0.344700  1
  O  O52  1  0.319337  0.190123  0.160130  1
  O  O53  1  0.372946  0.111287  0.833162  1
  O  O54  1  0.190121  0.490524  0.160122  1
  O  O55  1  0.333311  0.333313  0.013955  1
  O  O56  1  0.333373  0.333310  0.513926  1
  O  O57  1  0.319333  0.490534  0.660091  1
  O  O58  1  0.515783  0.111257  0.333173  1
  O  O59  1  0.490553  0.190134  0.660104  1
  O  O60  1  0.252965  0.669357  0.844695  1
  O  O61  1  0.213944  0.786064  0.250007  1
  O  O62  1  0.226735  0.772215  0.067201  1
  O  O63  1  0.227772  0.773285  0.432807  1
  O  O64  1  0.372962  0.515780  0.333174  1
  O  O65  1  0.490522  0.319344  0.160112  1
  O  O66  1  0.330647  0.747046  0.655296  1
  O  O67  1  0.515774  0.372942  0.833165  1
  O  O68  1  0.669362  0.077680  0.844695  1
  O  O69  1  0.227788  0.998945  0.932799  1
  O  O70  1  0.772215  0.001054  0.067201  1
  O  O71  1  0.786064  0.999993  0.250006  1
  O  O72  1  0.330650  0.922319  0.155310  1
  O  O73  1  0.484236  0.627053  0.166842  1
  O  O74  1  0.669349  0.252962  0.344698  1
  O  O75  1  0.509474  0.680663  0.839894  1
  O  O76  1  0.627044  0.484223  0.666821  1
  O  O77  1  0.772227  0.226712  0.567192  1
  O  O78  1  0.773277  0.227780  0.932800  1
  O  O79  1  0.786062  0.213934  0.749993  1
  O  O80  1  0.747029  0.330649  0.155310  1
  O  O81  1  0.509469  0.809867  0.339903  1
  O  O82  1  0.484218  0.888741  0.666819  1
  O  O83  1  0.680680  0.509466  0.339913  1
  O  O84  1  0.666692  0.666692  0.986049  1
  O  O85  1  0.666685  0.666687  0.486072  1
  O  O86  1  0.809879  0.509476  0.839882  1
  O  O87  1  0.627055  0.888717  0.166841  1
  O  O88  1  0.680665  0.809880  0.839873  1
  O  O89  1  0.922310  0.330645  0.655296  1
  O  O90  1  0.998937  0.227773  0.432808  1
  O  O91  1  0.888712  0.484231  0.166843  1
  O  O92  1  0.809868  0.680681  0.339895  1
  O  O93  1  0.888748  0.627040  0.666818  1
  O  O94  1  0.747051  0.922307  0.655293  1
  O  O95  1  0.773288  0.998944  0.432807  1
  O  O96  1  0.922319  0.747032  0.155307  1
  O  O97  1  0.998948  0.773267  0.932799  1
