# generated using pymatgen
data_CrO
_symmetry_space_group_name_H-M   'P 1'
_cell_length_a   3.09116885
_cell_length_b   4.32755750
_cell_length_c   6.93074990
_cell_angle_alpha   51.77442287
_cell_angle_beta   115.66594719
_cell_angle_gamma   134.42598819
_symmetry_Int_Tables_number   1
_chemical_formula_structural   CrO
_chemical_formula_sum   'Cr2 O2'
_cell_volume   52.01508024
_cell_formula_units_Z   2
loop_
 _symmetry_equiv_pos_site_id
 _symmetry_equiv_pos_as_xyz
  1  'x, y, z'
loop_
 _atom_site_type_symbol
 _atom_site_label
 _atom_site_symmetry_multiplicity
 _atom_site_fract_x
 _atom_site_fract_y
 _atom_site_fract_z
 _atom_site_occupancy
  Cr  Cr0  1  0.000049  0.000056  0.900004  1
  Cr  Cr1  1  0.999951  0.000007  0.400004  1
  O  O2  1  0.495292  0.747665  0.149996  1
  O  O3  1  0.504708  0.252373  0.649996  1
