# generated using pymatgen
data_Li4V3Fe3(SbO8)2
_symmetry_space_group_name_H-M   'P 1'
_cell_length_a   6.00392458
_cell_length_b   6.00874463
_cell_length_c   9.77736971
_cell_angle_alpha   89.48596172
_cell_angle_beta   89.59491333
_cell_angle_gamma   119.68250945
_symmetry_Int_Tables_number   1
_chemical_formula_structural   Li4V3Fe3(SbO8)2
_chemical_formula_sum   'Li4 V3 Fe3 Sb2 O16'
_cell_volume   306.40551055
_cell_formula_units_Z   1
loop_
 _symmetry_equiv_pos_site_id
 _symmetry_equiv_pos_as_xyz
  1  'x, y, z'
loop_
 _atom_site_type_symbol
 _atom_site_label
 _atom_site_symmetry_multiplicity
 _atom_site_fract_x
 _atom_site_fract_y
 _atom_site_fract_z
 _atom_site_occupancy
  Li  Li0  1  0.343676  0.673289  0.901874  1
  Li  Li1  1  0.994945  -0.000644  0.989588  1
  Li  Li2  1  0.992767  0.993943  0.489311  1
  Li  Li3  1  0.675860  0.341237  0.399801  1
  V  V4  1  0.653287  0.826848  0.220345  1
  V  V5  1  0.826410  0.651217  0.719604  1
  V  V6  1  0.823479  0.170116  0.713172  1
  Fe  Fe7  1  0.165018  0.824029  0.211628  1
  Fe  Fe8  1  0.168652  0.341788  0.210756  1
  Fe  Fe9  1  0.336578  0.163852  0.711346  1
  Sb  Sb10  1  0.326084  0.661740  0.489740  1
  Sb  Sb11  1  0.663020  0.326576  0.990575  1
  O  O12  1  0.158220  0.827163  0.593235  1
  O  O13  1  0.042776  0.532142  0.347675  1
  O  O14  1  0.371961  0.698607  0.106304  1
  O  O15  1  0.975189  0.977610  0.300496  1
  O  O16  1  0.974298  0.974186  0.800604  1
  O  O17  1  0.151659  0.325540  0.589258  1
  O  O18  1  0.489476  0.964935  0.345525  1
  O  O19  1  0.493939  0.532571  0.348651  1
  O  O20  1  0.328868  0.155963  0.091313  1
  O  O21  1  0.658204  0.826055  0.596507  1
  O  O22  1  0.530723  0.489321  0.848415  1
  O  O23  1  0.535142  0.040677  0.848166  1
  O  O24  1  0.691853  0.367040  0.606133  1
  O  O25  1  0.830524  0.660264  0.097106  1
  O  O26  1  0.967089  0.491383  0.846401  1
  O  O27  1  0.830300  0.162853  0.094309  1
