# generated using pymatgen
data_Tm2P4O13
_symmetry_space_group_name_H-M   'P 1'
_cell_length_a   7.00321978
_cell_length_b   9.40252964
_cell_length_c   8.54622458
_cell_angle_alpha   90.00000000
_cell_angle_beta   90.00000000
_cell_angle_gamma   68.13558728
_symmetry_Int_Tables_number   1
_chemical_formula_structural   Tm2P4O13
_chemical_formula_sum   'Tm4 P8 O26'
_cell_volume   522.27164295
_cell_formula_units_Z   2
loop_
 _symmetry_equiv_pos_site_id
 _symmetry_equiv_pos_as_xyz
  1  'x, y, z'
loop_
 _atom_site_type_symbol
 _atom_site_label
 _atom_site_symmetry_multiplicity
 _atom_site_fract_x
 _atom_site_fract_y
 _atom_site_fract_z
 _atom_site_occupancy
  Tm  Tm0  1  0.401195  0.705753  0.397899  1
  Tm  Tm1  1  0.893051  0.705753  0.602101  1
  Tm  Tm2  1  0.106949  0.294247  0.102101  1
  Tm  Tm3  1  0.598805  0.294247  0.897899  1
  P  P4  1  0.280514  0.884104  0.025606  1
  P  P5  1  0.835381  0.884104  0.974394  1
  P  P6  1  0.904980  0.679548  0.247814  1
  P  P7  1  0.415472  0.679548  0.752186  1
  P  P8  1  0.584528  0.320452  0.252186  1
  P  P9  1  0.095020  0.320452  0.747814  1
  P  P10  1  0.719486  0.115896  0.525606  1
  P  P11  1  0.164619  0.115896  0.474394  1
  O  O12  1  0.743331  0.952090  0.547340  1
  O  O13  1  0.304579  0.952090  0.452660  1
  O  O14  1  0.061614  0.876773  0.000000  1
  O  O15  1  0.785452  0.829559  0.141273  1
  O  O16  1  0.384989  0.829559  0.858727  1
  O  O17  1  0.841448  0.770416  0.849545  1
  O  O18  1  0.388137  0.770416  0.150455  1
  O  O19  1  0.069660  0.709872  0.348782  1
  O  O20  1  0.220467  0.709872  0.651218  1
  O  O21  1  0.582098  0.677583  0.634065  1
  O  O22  1  0.740320  0.677583  0.365935  1
  O  O23  1  0.473477  0.541959  0.858731  1
  O  O24  1  0.984563  0.541959  0.141269  1
  O  O25  1  0.526523  0.458041  0.358731  1
  O  O26  1  0.015437  0.458041  0.641269  1
  O  O27  1  0.417902  0.322417  0.134065  1
  O  O28  1  0.259680  0.322417  0.865935  1
  O  O29  1  0.930340  0.290128  0.848782  1
  O  O30  1  0.779533  0.290128  0.151218  1
  O  O31  1  0.158552  0.229584  0.349545  1
  O  O32  1  0.611863  0.229584  0.650455  1
  O  O33  1  0.615011  0.170441  0.358727  1
  O  O34  1  0.214548  0.170441  0.641273  1
  O  O35  1  0.938386  0.123227  0.500000  1
  O  O36  1  0.695421  0.047910  0.952660  1
  O  O37  1  0.256669  0.047910  0.047340  1
