# generated using pymatgen
data_Co2Ni3Sb(PO4)6
_symmetry_space_group_name_H-M   'P 1'
_cell_length_a   8.47085408
_cell_length_b   8.66509906
_cell_length_c   8.66509849
_cell_angle_alpha   59.99999812
_cell_angle_beta   59.23849942
_cell_angle_gamma   59.23849990
_symmetry_Int_Tables_number   1
_chemical_formula_structural   Co2Ni3Sb(PO4)6
_chemical_formula_sum   'Co2 Ni3 Sb1 P6 O24'
_cell_volume   444.49141401
_cell_formula_units_Z   1
loop_
 _symmetry_equiv_pos_site_id
 _symmetry_equiv_pos_as_xyz
  1  'x, y, z'
loop_
 _atom_site_type_symbol
 _atom_site_label
 _atom_site_symmetry_multiplicity
 _atom_site_fract_x
 _atom_site_fract_y
 _atom_site_fract_z
 _atom_site_occupancy
  Co  Co0  1  0.028567  0.990477  0.990477  1
  Co  Co1  1  0.498610  0.500464  0.500464  1
  Ni  Ni2  1  0.070194  0.643269  0.643269  1
  Ni  Ni3  1  0.435034  0.854989  0.854989  1
  Ni  Ni4  1  0.923534  0.358822  0.358822  1
  Sb  Sb5  1  0.574165  0.141945  0.141945  1
  P  P6  1  0.244356  0.255163  0.547253  1
  P  P7  1  0.244356  0.953228  0.255163  1
  P  P8  1  0.244356  0.547253  0.953228  1
  P  P9  1  0.747332  0.459877  0.048166  1
  P  P10  1  0.747332  0.048166  0.744624  1
  P  P11  1  0.747332  0.744624  0.459877  1
  O  O12  1  0.066633  0.108193  0.320845  1
  O  O13  1  0.066633  0.504329  0.108193  1
  O  O14  1  0.066633  0.320845  0.504329  1
  O  O15  1  0.221896  0.094302  0.744964  1
  O  O16  1  0.438751  0.181056  0.389394  1
  O  O17  1  0.285295  0.404998  0.558082  1
  O  O18  1  0.221896  0.938838  0.094302  1
  O  O19  1  0.285295  0.751625  0.404998  1
  O  O20  1  0.560571  0.608465  0.013250  1
  O  O21  1  0.285295  0.558082  0.751625  1
  O  O22  1  0.776240  0.251220  0.063194  1
  O  O23  1  0.560571  0.013250  0.817713  1
  O  O24  1  0.438751  0.990799  0.181056  1
  O  O25  1  0.221896  0.744964  0.938838  1
  O  O26  1  0.714772  0.437853  0.251901  1
  O  O27  1  0.438751  0.389394  0.990799  1
  O  O28  1  0.714772  0.251901  0.595475  1
  O  O29  1  0.776240  0.063194  0.909346  1
  O  O30  1  0.714772  0.595475  0.437853  1
  O  O31  1  0.560571  0.817713  0.608465  1
  O  O32  1  0.776240  0.909346  0.251220  1
  O  O33  1  0.934119  0.683407  0.487547  1
  O  O34  1  0.934119  0.487547  0.894927  1
  O  O35  1  0.934119  0.894927  0.683407  1
