# generated using pymatgen
data_V6O11F
_symmetry_space_group_name_H-M   'P 1'
_cell_length_a   4.62051243
_cell_length_b   4.62051243
_cell_length_c   8.97768742
_cell_angle_alpha   90.00000000
_cell_angle_beta   90.00000000
_cell_angle_gamma   91.94097669
_symmetry_Int_Tables_number   1
_chemical_formula_structural   V6O11F
_chemical_formula_sum   'V6 O11 F1'
_cell_volume   191.55589351
_cell_formula_units_Z   1
loop_
 _symmetry_equiv_pos_site_id
 _symmetry_equiv_pos_as_xyz
  1  'x, y, z'
loop_
 _atom_site_type_symbol
 _atom_site_label
 _atom_site_symmetry_multiplicity
 _atom_site_fract_x
 _atom_site_fract_y
 _atom_site_fract_z
 _atom_site_occupancy
  V  V0  1  0.016748  0.983252  0.014187  1
  V  V1  1  0.991473  0.008527  0.333333  1
  V  V2  1  0.016748  0.983252  0.652479  1
  V  V3  1  0.520904  0.479096  0.165252  1
  V  V4  1  0.466231  0.533769  0.833333  1
  V  V5  1  0.520904  0.479096  0.501414  1
  O  O6  1  0.198969  0.801031  0.157292  1
  O  O7  1  0.198969  0.801031  0.509375  1
  O  O8  1  0.193497  0.806503  0.833333  1
  O  O9  1  0.299482  0.307549  0.997761  1
  O  O10  1  0.302986  0.310434  0.333333  1
  O  O11  1  0.299482  0.307549  0.668905  1
  O  O12  1  0.692451  0.700518  0.997761  1
  O  O13  1  0.689566  0.697014  0.333333  1
  O  O14  1  0.692451  0.700518  0.668905  1
  O  O15  1  0.797490  0.202510  0.160195  1
  O  O16  1  0.797490  0.202510  0.506471  1
  F  F17  1  0.804161  0.195839  0.833333  1
