# generated using pymatgen
data_TmH16C4N11O13
_symmetry_space_group_name_H-M   'P 1'
_cell_length_a   7.64320840
_cell_length_b   11.35105910
_cell_length_c   12.04964138
_cell_angle_alpha   112.42390462
_cell_angle_beta   96.09144381
_cell_angle_gamma   94.31142806
_symmetry_Int_Tables_number   1
_chemical_formula_structural   TmH16C4N11O13
_chemical_formula_sum   'Tm2 H32 C8 N22 O26'
_cell_volume   953.26903725
_cell_formula_units_Z   2
loop_
 _symmetry_equiv_pos_site_id
 _symmetry_equiv_pos_as_xyz
  1  'x, y, z'
loop_
 _atom_site_type_symbol
 _atom_site_label
 _atom_site_symmetry_multiplicity
 _atom_site_fract_x
 _atom_site_fract_y
 _atom_site_fract_z
 _atom_site_occupancy
  Tm  Tm0  1  0.690657  0.846392  0.685325  1
  Tm  Tm1  1  0.309343  0.153608  0.314675  1
  H  H2  1  0.117436  0.965412  0.849920  1
  H  H3  1  0.882564  0.034588  0.150080  1
  H  H4  1  0.258136  0.917216  0.944519  1
  H  H5  1  0.741864  0.082784  0.055481  1
  H  H6  1  0.926349  0.687204  0.955097  1
  H  H7  1  0.073651  0.312796  0.044903  1
  H  H8  1  0.140050  0.768244  0.017671  1
  H  H9  1  0.859950  0.231756  0.982329  1
  H  H10  1  0.658869  0.776267  0.284065  1
  H  H11  1  0.341131  0.223733  0.715935  1
  H  H12  1  0.466016  0.672324  0.203902  1
  H  H13  1  0.533984  0.327676  0.796098  1
  H  H14  1  0.364368  0.627427  0.470105  1
  H  H15  1  0.635632  0.372573  0.529895  1
  H  H16  1  0.310836  0.571672  0.311472  1
  H  H17  1  0.689164  0.428328  0.688528  1
  H  H18  1  0.194177  0.542461  0.635966  1
  H  H19  1  0.805823  0.457539  0.364034  1
  H  H20  1  0.204437  0.546324  0.782912  1
  H  H21  1  0.795563  0.453676  0.217088  1
  H  H22  1  0.589159  0.769162  0.903313  1
  H  H23  1  0.410841  0.230838  0.096687  1
  H  H24  1  0.427532  0.673033  0.934516  1
  H  H25  1  0.572468  0.326967  0.065484  1
  H  H26  1  0.721321  0.986018  0.498732  1
  H  H27  1  0.278679  0.013982  0.501268  1
  H  H28  1  0.844099  0.117238  0.488382  1
  H  H29  1  0.155901  0.882762  0.511618  1
  H  H30  1  0.028077  0.252989  0.798941  1
  H  H31  1  0.971923  0.747011  0.201059  1
  H  H32  1  0.990539  0.279282  0.666326  1
  H  H33  1  0.009461  0.720718  0.333674  1
  C  C34  1  0.998132  0.830602  0.900012  1
  C  C35  1  0.001868  0.169398  0.099988  1
  C  C36  1  0.515881  0.718591  0.390182  1
  C  C37  1  0.484119  0.281409  0.609818  1
  C  C38  1  0.398177  0.667848  0.760206  1
  C  C39  1  0.601823  0.332152  0.239794  1
  C  C40  1  0.872943  0.106608  0.656531  1
  C  C41  1  0.127057  0.893392  0.343469  1
  N  N42  1  0.136524  0.909020  0.896928  1
  N  N43  1  0.863476  0.090980  0.103072  1
  N  N44  1  0.019490  0.764083  0.971022  1
  N  N45  1  0.980510  0.235917  0.028978  1
  N  N46  1  0.545890  0.724049  0.284695  1
  N  N47  1  0.454110  0.275951  0.715305  1
  N  N48  1  0.382661  0.634525  0.390438  1
  N  N49  1  0.617339  0.365475  0.609562  1
  N  N50  1  0.250496  0.582107  0.724336  1
  N  N51  1  0.749504  0.417893  0.275664  1
  N  N52  1  0.470513  0.712732  0.877396  1
  N  N53  1  0.529487  0.287268  0.122604  1
  N  N54  1  0.802287  0.070459  0.539696  1
  N  N55  1  0.197713  0.929541  0.460304  1
  N  N56  1  0.988094  0.216263  0.707814  1
  N  N57  1  0.011906  0.783737  0.292186  1
  N  N58  1  0.458463  0.029376  0.805380  1
  N  N59  1  0.541537  0.970624  0.194620  1
  N  N60  1  0.927181  0.687499  0.545196  1
  N  N61  1  0.072819  0.312501  0.454804  1
  N  N62  1  0.242871  0.512649  0.022038  1
  N  N63  1  0.757129  0.487351  0.977962  1
  O  O64  1  0.846931  0.820354  0.837961  1
  O  O65  1  0.153069  0.179646  0.162039  1
  O  O66  1  0.613210  0.794774  0.488689  1
  O  O67  1  0.386790  0.205226  0.511311  1
  O  O68  1  0.463808  0.707665  0.685283  1
  O  O69  1  0.536192  0.292335  0.314717  1
  O  O70  1  0.835165  0.040194  0.717362  1
  O  O71  1  0.164835  0.959806  0.282638  1
  O  O72  1  0.579232  0.993942  0.864799  1
  O  O73  1  0.420768  0.006058  0.135201  1
  O  O74  1  0.443574  0.974893  0.689438  1
  O  O75  1  0.556426  0.025107  0.310562  1
  O  O76  1  0.362336  0.110376  0.857063  1
  O  O77  1  0.637664  0.889624  0.142937  1
  O  O78  1  0.966567  0.809908  0.600459  1
  O  O79  1  0.033433  0.190092  0.399541  1
  O  O80  1  0.794766  0.636544  0.574369  1
  O  O81  1  0.205234  0.363456  0.425631  1
  O  O82  1  0.012143  0.623484  0.465172  1
  O  O83  1  0.987857  0.376516  0.534828  1
  O  O84  1  0.325172  0.625158  0.051789  1
  O  O85  1  0.674828  0.374842  0.948211  1
  O  O86  1  0.173546  0.448560  0.913519  1
  O  O87  1  0.826454  0.551440  0.086481  1
  O  O88  1  0.233035  0.467794  0.102936  1
  O  O89  1  0.766965  0.532206  0.897064  1
