# generated using pymatgen
data_CaAs2HF13
_symmetry_space_group_name_H-M   'P 1'
_cell_length_a   9.71793008
_cell_length_b   9.48274942
_cell_length_c   10.70093220
_cell_angle_alpha   90.00000000
_cell_angle_beta   103.79947201
_cell_angle_gamma   90.00000000
_symmetry_Int_Tables_number   1
_chemical_formula_structural   CaAs2HF13
_chemical_formula_sum   'Ca4 As8 H4 F52'
_cell_volume   957.65686150
_cell_formula_units_Z   4
loop_
 _symmetry_equiv_pos_site_id
 _symmetry_equiv_pos_as_xyz
  1  'x, y, z'
loop_
 _atom_site_type_symbol
 _atom_site_label
 _atom_site_symmetry_multiplicity
 _atom_site_fract_x
 _atom_site_fract_y
 _atom_site_fract_z
 _atom_site_occupancy
  Ca  Ca0  1  0.247199  0.831738  0.500457  1
  Ca  Ca1  1  0.247199  0.668262  0.000457  1
  Ca  Ca2  1  0.752801  0.331738  0.999543  1
  Ca  Ca3  1  0.752801  0.168262  0.499543  1
  As  As4  1  0.009366  0.344047  0.813579  1
  As  As5  1  0.009366  0.155953  0.313579  1
  As  As6  1  0.510565  0.655277  0.814161  1
  As  As7  1  0.489435  0.155277  0.685839  1
  As  As8  1  0.510565  0.844723  0.314161  1
  As  As9  1  0.489435  0.344723  0.185839  1
  As  As10  1  0.990634  0.844047  0.686421  1
  As  As11  1  0.990634  0.655953  0.186421  1
  H  H12  1  0.311096  0.975880  0.949059  1
  H  H13  1  0.311096  0.524120  0.449059  1
  H  H14  1  0.688904  0.475880  0.550941  1
  H  H15  1  0.688904  0.024120  0.050941  1
  F  F16  1  0.111017  0.465422  0.928032  1
  F  F17  1  0.046474  0.436772  0.686077  1
  F  F18  1  0.103305  0.723852  0.795837  1
  F  F19  1  0.038406  0.753318  0.554193  1
  F  F20  1  0.152935  0.231165  0.830864  1
  F  F21  1  0.145205  0.947832  0.689626  1
  F  F22  1  0.111017  0.034578  0.428032  1
  F  F23  1  0.046474  0.063228  0.186077  1
  F  F24  1  0.103305  0.776148  0.295837  1
  F  F25  1  0.038406  0.746682  0.054193  1
  F  F26  1  0.152935  0.268835  0.330864  1
  F  F27  1  0.145205  0.552168  0.189626  1
  F  F28  1  0.254560  0.573272  0.495174  1
  F  F29  1  0.358619  0.550828  0.812094  1
  F  F30  1  0.344983  0.266049  0.670509  1
  F  F31  1  0.399009  0.775795  0.705039  1
  F  F32  1  0.461708  0.747883  0.945653  1
  F  F33  1  0.386256  0.034332  0.572908  1
  F  F34  1  0.452113  0.062163  0.815566  1
  F  F35  1  0.254560  0.926728  0.995174  1
  F  F36  1  0.358619  0.949172  0.312094  1
  F  F37  1  0.344983  0.233951  0.170509  1
  F  F38  1  0.399009  0.724205  0.205039  1
  F  F39  1  0.461708  0.752117  0.445653  1
  F  F40  1  0.547887  0.562163  0.684434  1
  F  F41  1  0.613744  0.534332  0.927092  1
  F  F42  1  0.386256  0.465668  0.072908  1
  F  F43  1  0.452113  0.437837  0.315566  1
  F  F44  1  0.538292  0.247883  0.554347  1
  F  F45  1  0.600991  0.275795  0.794961  1
  F  F46  1  0.655017  0.766049  0.829491  1
  F  F47  1  0.641381  0.050828  0.687906  1
  F  F48  1  0.745440  0.073272  0.004826  1
  F  F49  1  0.547887  0.937837  0.184434  1
  F  F50  1  0.613744  0.965668  0.427092  1
  F  F51  1  0.538292  0.252117  0.054347  1
  F  F52  1  0.600991  0.224205  0.294961  1
  F  F53  1  0.655017  0.733951  0.329491  1
  F  F54  1  0.641381  0.449172  0.187906  1
  F  F55  1  0.745440  0.426728  0.504826  1
  F  F56  1  0.854795  0.447832  0.810374  1
  F  F57  1  0.847065  0.731165  0.669136  1
  F  F58  1  0.961594  0.253318  0.945807  1
  F  F59  1  0.896695  0.223852  0.704163  1
  F  F60  1  0.953526  0.936772  0.813923  1
  F  F61  1  0.888983  0.965422  0.571968  1
  F  F62  1  0.854795  0.052168  0.310374  1
  F  F63  1  0.847065  0.768835  0.169136  1
  F  F64  1  0.961594  0.246682  0.445807  1
  F  F65  1  0.896695  0.276148  0.204163  1
  F  F66  1  0.953526  0.563228  0.313923  1
  F  F67  1  0.888983  0.534578  0.071968  1
