# generated using pymatgen
data_LiVPO5
_symmetry_space_group_name_H-M   'P 1'
_cell_length_a   7.59013755
_cell_length_b   6.41902950
_cell_length_c   8.29762362
_cell_angle_alpha   90.00000000
_cell_angle_beta   90.00000000
_cell_angle_gamma   90.00000000
_symmetry_Int_Tables_number   1
_chemical_formula_structural   LiVPO5
_chemical_formula_sum   'Li4 V4 P4 O20'
_cell_volume   404.27114943
_cell_formula_units_Z   4
loop_
 _symmetry_equiv_pos_site_id
 _symmetry_equiv_pos_as_xyz
  1  'x, y, z'
loop_
 _atom_site_type_symbol
 _atom_site_label
 _atom_site_symmetry_multiplicity
 _atom_site_fract_x
 _atom_site_fract_y
 _atom_site_fract_z
 _atom_site_occupancy
  Li  Li0  1  0.124334  0.351702  0.997614  1
  Li  Li1  1  0.375666  0.648298  0.497614  1
  Li  Li2  1  0.624334  0.148298  0.002386  1
  Li  Li3  1  0.875666  0.851702  0.502386  1
  V  V4  1  0.170521  0.870589  0.153450  1
  V  V5  1  0.329479  0.129411  0.653450  1
  V  V6  1  0.670521  0.629411  0.846550  1
  V  V7  1  0.829479  0.370589  0.346550  1
  P  P8  1  0.057201  0.853157  0.849209  1
  P  P9  1  0.442799  0.146843  0.349209  1
  P  P10  1  0.557201  0.646843  0.150791  1
  P  P11  1  0.942799  0.353157  0.650791  1
  O  O12  1  0.024309  0.856267  0.298781  1
  O  O13  1  0.074765  0.040523  0.970318  1
  O  O14  1  0.132030  0.321781  0.711997  1
  O  O15  1  0.176019  0.885044  0.700151  1
  O  O16  1  0.121777  0.673428  0.963291  1
  O  O17  1  0.378223  0.326572  0.463291  1
  O  O18  1  0.323981  0.114956  0.200151  1
  O  O19  1  0.367970  0.678219  0.211997  1
  O  O20  1  0.425235  0.959477  0.470318  1
  O  O21  1  0.475691  0.143733  0.798781  1
  O  O22  1  0.524309  0.643733  0.701219  1
  O  O23  1  0.574766  0.459477  0.029682  1
  O  O24  1  0.632030  0.178219  0.288003  1
  O  O25  1  0.676019  0.614956  0.299849  1
  O  O26  1  0.621777  0.826572  0.036709  1
  O  O27  1  0.878223  0.173428  0.536709  1
  O  O28  1  0.823981  0.385044  0.799849  1
  O  O29  1  0.867970  0.821781  0.788003  1
  O  O30  1  0.925234  0.540523  0.529682  1
  O  O31  1  0.975691  0.356267  0.201219  1
