# generated using pymatgen
data_SrLa2Cl8
_symmetry_space_group_name_H-M   'P 1'
_cell_length_a   7.52601243
_cell_length_b   10.22708137
_cell_length_c   10.22708137
_cell_angle_alpha   97.78080925
_cell_angle_beta   111.58895248
_cell_angle_gamma   68.41104752
_symmetry_Int_Tables_number   1
_chemical_formula_structural   SrLa2Cl8
_chemical_formula_sum   'Sr2 La4 Cl16'
_cell_volume   680.59971263
_cell_formula_units_Z   2
loop_
 _symmetry_equiv_pos_site_id
 _symmetry_equiv_pos_as_xyz
  1  'x, y, z'
loop_
 _atom_site_type_symbol
 _atom_site_label
 _atom_site_symmetry_multiplicity
 _atom_site_fract_x
 _atom_site_fract_y
 _atom_site_fract_z
 _atom_site_occupancy
  Sr  Sr0  1  0.000000  0.000000  0.000000  1
  Sr  Sr1  1  0.750000  0.500000  0.500000  1
  La  La2  1  0.578395  0.078870  0.342355  1
  La  La3  1  0.763960  0.657645  0.078870  1
  La  La4  1  0.342735  0.342355  0.921130  1
  La  La5  1  0.314910  0.921130  0.657645  1
  Cl  Cl6  1  0.228147  0.186946  0.095384  1
  Cl  Cl7  1  0.665630  0.258125  0.196005  1
  Cl  Cl8  1  0.253455  0.079290  0.429654  1
  Cl  Cl9  1  0.176199  0.570346  0.079290  1
  Cl  Cl10  1  0.558848  0.307335  0.514145  1
  Cl  Cl11  1  0.955297  0.485855  0.307335  1
  Cl  Cl12  1  0.076245  0.196005  0.741875  1
  Cl  Cl13  1  0.584908  0.095384  0.813054  1
  Cl  Cl14  1  0.867237  0.904616  0.186946  1
  Cl  Cl15  1  0.530373  0.803995  0.258125  1
  Cl  Cl16  1  0.133817  0.514145  0.692665  1
  Cl  Cl17  1  0.352038  0.692665  0.485855  1
  Cl  Cl18  1  0.667254  0.429654  0.920710  1
  Cl  Cl19  1  0.903092  0.920710  0.570346  1
  Cl  Cl20  1  0.727751  0.741875  0.803995  1
  Cl  Cl21  1  0.319709  0.813054  0.904616  1
