# generated using pymatgen
data_Li2Co2C2O7
_symmetry_space_group_name_H-M   'P 1'
_cell_length_a   10.93333829
_cell_length_b   6.18984976
_cell_length_c   8.97181544
_cell_angle_alpha   90.00000000
_cell_angle_beta   117.53350482
_cell_angle_gamma   90.00000000
_symmetry_Int_Tables_number   1
_chemical_formula_structural   Li2Co2C2O7
_chemical_formula_sum   'Li8 Co8 C8 O28'
_cell_volume   538.40594916
_cell_formula_units_Z   4
loop_
 _symmetry_equiv_pos_site_id
 _symmetry_equiv_pos_as_xyz
  1  'x, y, z'
loop_
 _atom_site_type_symbol
 _atom_site_label
 _atom_site_symmetry_multiplicity
 _atom_site_fract_x
 _atom_site_fract_y
 _atom_site_fract_z
 _atom_site_occupancy
  Li  Li0  1  0.371434  0.599595  0.943422  1
  Li  Li1  1  0.508906  0.119913  0.774964  1
  Li  Li2  1  0.491094  0.619913  0.725036  1
  Li  Li3  1  0.371434  0.900405  0.443422  1
  Li  Li4  1  0.628566  0.099595  0.556578  1
  Li  Li5  1  0.508906  0.380087  0.274964  1
  Li  Li6  1  0.491094  0.880087  0.225036  1
  Li  Li7  1  0.628566  0.400405  0.056578  1
  Co  Co8  1  0.986199  0.600460  0.819151  1
  Co  Co9  1  0.986199  0.899540  0.319151  1
  Co  Co10  1  0.146359  0.444487  0.595945  1
  Co  Co11  1  0.146359  0.055513  0.095945  1
  Co  Co12  1  0.853641  0.944487  0.904055  1
  Co  Co13  1  0.853641  0.555513  0.404055  1
  Co  Co14  1  0.013801  0.100460  0.680849  1
  Co  Co15  1  0.013801  0.399540  0.180849  1
  C  C16  1  0.241708  0.867836  0.652463  1
  C  C17  1  0.330905  0.294037  0.464819  1
  C  C18  1  0.241708  0.632164  0.152463  1
  C  C19  1  0.669095  0.794037  0.035181  1
  C  C20  1  0.330905  0.205963  0.964819  1
  C  C21  1  0.758292  0.367836  0.847537  1
  C  C22  1  0.669095  0.705963  0.535181  1
  C  C23  1  0.758292  0.132164  0.347537  1
  O  O24  1  0.025404  0.926001  0.870306  1
  O  O25  1  0.219693  0.248798  0.830723  1
  O  O26  1  0.226883  0.723819  0.746771  1
  O  O27  1  0.025404  0.573999  0.370306  1
  O  O28  1  0.136720  0.990823  0.557926  1
  O  O29  1  0.329186  0.408531  0.586192  1
  O  O30  1  0.219693  0.251202  0.330723  1
  O  O31  1  0.359136  0.889554  0.651228  1
  O  O32  1  0.226883  0.776181  0.246771  1
  O  O33  1  0.136720  0.509177  0.057926  1
  O  O34  1  0.448074  0.216045  0.484383  1
  O  O35  1  0.551926  0.716045  0.015617  1
  O  O36  1  0.329186  0.091469  0.086192  1
  O  O37  1  0.359136  0.610446  0.151228  1
  O  O38  1  0.640864  0.389554  0.848772  1
  O  O39  1  0.670814  0.908531  0.913808  1
  O  O40  1  0.448074  0.283955  0.984383  1
  O  O41  1  0.551926  0.783955  0.515617  1
  O  O42  1  0.863280  0.490823  0.942074  1
  O  O43  1  0.773117  0.223819  0.753229  1
  O  O44  1  0.640864  0.110446  0.348772  1
  O  O45  1  0.780307  0.748798  0.669277  1
  O  O46  1  0.670814  0.591469  0.413808  1
  O  O47  1  0.863280  0.009177  0.442074  1
  O  O48  1  0.974596  0.426001  0.629694  1
  O  O49  1  0.773117  0.276181  0.253229  1
  O  O50  1  0.780307  0.751202  0.169277  1
  O  O51  1  0.974596  0.073999  0.129694  1
