# generated using pymatgen
data_Ba4Y2O7
_symmetry_space_group_name_H-M   'P 1'
_cell_length_a   18.97922613
_cell_length_b   11.26686389
_cell_length_c   7.58007657
_cell_angle_alpha   90.00000000
_cell_angle_beta   92.82475583
_cell_angle_gamma   90.00000000
_symmetry_Int_Tables_number   1
_chemical_formula_structural   Ba4Y2O7
_chemical_formula_sum   'Ba24 Y12 O42'
_cell_volume   1618.92647494
_cell_formula_units_Z   6
loop_
 _symmetry_equiv_pos_site_id
 _symmetry_equiv_pos_as_xyz
  1  'x, y, z'
loop_
 _atom_site_type_symbol
 _atom_site_label
 _atom_site_symmetry_multiplicity
 _atom_site_fract_x
 _atom_site_fract_y
 _atom_site_fract_z
 _atom_site_occupancy
  Ba  Ba0  1  0.092683  0.395493  0.848422  1
  Ba  Ba1  1  0.087588  0.750422  0.916840  1
  Ba  Ba2  1  0.092683  0.104507  0.348422  1
  Ba  Ba3  1  0.087588  0.749578  0.416840  1
  Ba  Ba4  1  0.249900  0.930577  0.671900  1
  Ba  Ba5  1  0.258026  0.275806  0.530387  1
  Ba  Ba6  1  0.249900  0.569423  0.171900  1
  Ba  Ba7  1  0.258026  0.224194  0.030387  1
  Ba  Ba8  1  0.415452  0.782708  0.010192  1
  Ba  Ba9  1  0.419892  0.431353  0.825170  1
  Ba  Ba10  1  0.415452  0.717292  0.510192  1
  Ba  Ba11  1  0.419892  0.068647  0.325170  1
  Ba  Ba12  1  0.580108  0.931353  0.674830  1
  Ba  Ba13  1  0.584548  0.282708  0.489808  1
  Ba  Ba14  1  0.580108  0.568647  0.174830  1
  Ba  Ba15  1  0.584548  0.217292  0.989808  1
  Ba  Ba16  1  0.741974  0.775806  0.969613  1
  Ba  Ba17  1  0.750100  0.430577  0.828100  1
  Ba  Ba18  1  0.741974  0.724194  0.469613  1
  Ba  Ba19  1  0.750100  0.069423  0.328100  1
  Ba  Ba20  1  0.912412  0.250422  0.583160  1
  Ba  Ba21  1  0.907317  0.895493  0.651578  1
  Ba  Ba22  1  0.912412  0.249578  0.083160  1
  Ba  Ba23  1  0.907317  0.604507  0.151578  1
  Y  Y24  1  0.086705  0.070525  0.827541  1
  Y  Y25  1  0.086705  0.429475  0.327541  1
  Y  Y26  1  0.240656  0.574745  0.681844  1
  Y  Y27  1  0.240656  0.925255  0.181844  1
  Y  Y28  1  0.417163  0.076998  0.818552  1
  Y  Y29  1  0.417163  0.423002  0.318552  1
  Y  Y30  1  0.582837  0.576998  0.681448  1
  Y  Y31  1  0.582837  0.923002  0.181448  1
  Y  Y32  1  0.759344  0.074745  0.818156  1
  Y  Y33  1  0.759344  0.425255  0.318156  1
  Y  Y34  1  0.913295  0.570525  0.672459  1
  Y  Y35  1  0.913295  0.929475  0.172459  1
  O  O36  1  0.999015  0.188164  0.849577  1
  O  O37  1  0.999015  0.311836  0.349577  1
  O  O38  1  0.082853  0.940882  0.620006  1
  O  O39  1  0.082853  0.559118  0.120006  1
  O  O40  1  0.158065  0.195466  0.735421  1
  O  O41  1  0.140485  0.519356  0.553909  1
  O  O42  1  0.158065  0.304534  0.235421  1
  O  O43  1  0.140485  0.980644  0.053909  1
  O  O44  1  0.234409  0.729138  0.856334  1
  O  O45  1  0.233634  0.445851  0.882636  1
  O  O46  1  0.234409  0.770862  0.356334  1
  O  O47  1  0.233634  0.054149  0.382636  1
  O  O48  1  0.332282  0.509129  0.536308  1
  O  O49  1  0.351040  0.232115  0.788169  1
  O  O50  1  0.332282  0.990871  0.036308  1
  O  O51  1  0.351040  0.267885  0.288169  1
  O  O52  1  0.388816  0.938339  0.629080  1
  O  O53  1  0.388816  0.561661  0.129080  1
  O  O54  1  0.491990  0.667198  0.803972  1
  O  O55  1  0.508010  0.167198  0.696028  1
  O  O56  1  0.500000  0.500000  0.500000  1
  O  O57  1  0.491990  0.832802  0.303972  1
  O  O58  1  0.508010  0.332802  0.196028  1
  O  O59  1  0.500000  0.000000  0.000000  1
  O  O60  1  0.611184  0.438339  0.870920  1
  O  O61  1  0.611184  0.061661  0.370920  1
  O  O62  1  0.648960  0.732115  0.711831  1
  O  O63  1  0.667718  0.009129  0.963692  1
  O  O64  1  0.648960  0.767885  0.211831  1
  O  O65  1  0.667718  0.490871  0.463692  1
  O  O66  1  0.766366  0.945851  0.617364  1
  O  O67  1  0.765591  0.229138  0.643666  1
  O  O68  1  0.766366  0.554149  0.117364  1
  O  O69  1  0.765591  0.270862  0.143666  1
  O  O70  1  0.859515  0.019356  0.946091  1
  O  O71  1  0.841935  0.695466  0.764579  1
  O  O72  1  0.859515  0.480644  0.446091  1
  O  O73  1  0.841935  0.804534  0.264579  1
  O  O74  1  0.917147  0.440882  0.879994  1
  O  O75  1  0.917147  0.059118  0.379994  1
  O  O76  1  0.000985  0.688164  0.650423  1
  O  O77  1  0.000985  0.811836  0.150423  1
