# generated using pymatgen
data_Cr3P
_symmetry_space_group_name_H-M   'P 1'
_cell_length_a   4.49633448
_cell_length_b   6.81261046
_cell_length_c   6.81261046
_cell_angle_alpha   83.74805842
_cell_angle_beta   70.73117294
_cell_angle_gamma   70.73117294
_symmetry_Int_Tables_number   1
_chemical_formula_structural   Cr3P
_chemical_formula_sum   'Cr12 P4'
_cell_volume   185.95672767
_cell_formula_units_Z   4
loop_
 _symmetry_equiv_pos_site_id
 _symmetry_equiv_pos_as_xyz
  1  'x, y, z'
loop_
 _atom_site_type_symbol
 _atom_site_label
 _atom_site_symmetry_multiplicity
 _atom_site_fract_x
 _atom_site_fract_y
 _atom_site_fract_z
 _atom_site_occupancy
  P  P0  1  0.213299  0.245352  0.335169  1
  P  P1  1  0.451532  0.335169  0.754648  1
  P  P2  1  0.541349  0.664831  0.245352  1
  P  P3  1  0.793820  0.754648  0.664831  1
  Cr  Cr4  1  0.357492  0.671216  0.611952  1
  Cr  Cr5  1  0.030556  0.611952  0.328784  1
  Cr  Cr6  1  0.971293  0.388048  0.671216  1
  Cr  Cr7  1  0.640660  0.328784  0.388048  1
  Cr  Cr8  1  0.934856  0.056014  0.611261  1
  Cr  Cr9  1  0.453882  0.611261  0.943986  1
  Cr  Cr10  1  0.009130  0.388739  0.056014  1
  Cr  Cr11  1  0.602131  0.943986  0.388739  1
  Cr  Cr12  1  0.160010  0.974441  0.176660  1
  Cr  Cr13  1  0.663330  0.176660  0.025559  1
  Cr  Cr14  1  0.865549  0.823340  0.974441  1
  Cr  Cr15  1  0.311111  0.025559  0.823340  1
