# generated using pymatgen
data_SmP2H9O11
_symmetry_space_group_name_H-M   'P 1'
_cell_length_a   6.70710905
_cell_length_b   11.63768077
_cell_length_c   11.89773640
_cell_angle_alpha   90.00000000
_cell_angle_beta   91.56259733
_cell_angle_gamma   90.00000000
_symmetry_Int_Tables_number   1
_chemical_formula_structural   SmP2H9O11
_chemical_formula_sum   'Sm4 P8 H36 O44'
_cell_volume   928.33477406
_cell_formula_units_Z   4
loop_
 _symmetry_equiv_pos_site_id
 _symmetry_equiv_pos_as_xyz
  1  'x, y, z'
loop_
 _atom_site_type_symbol
 _atom_site_label
 _atom_site_symmetry_multiplicity
 _atom_site_fract_x
 _atom_site_fract_y
 _atom_site_fract_z
 _atom_site_occupancy
  Sm  Sm0  1  0.745255  0.919116  0.664879  1
  Sm  Sm1  1  0.245255  0.580884  0.164879  1
  Sm  Sm2  1  0.254745  0.080884  0.335121  1
  Sm  Sm3  1  0.754745  0.419116  0.835121  1
  P  P4  1  0.246360  0.048888  0.642994  1
  P  P5  1  0.746360  0.451112  0.142994  1
  P  P6  1  0.753640  0.951112  0.357006  1
  P  P7  1  0.253640  0.548888  0.857006  1
  P  P8  1  0.019792  0.134421  0.838168  1
  P  P9  1  0.519792  0.365579  0.338168  1
  P  P10  1  0.980208  0.865579  0.161832  1
  P  P11  1  0.480208  0.634421  0.661832  1
  H  H12  1  0.184347  0.992245  0.925856  1
  H  H13  1  0.684347  0.507755  0.425856  1
  H  H14  1  0.815653  0.007755  0.074144  1
  H  H15  1  0.315653  0.492245  0.574144  1
  H  H16  1  0.587846  0.138743  0.544241  1
  H  H17  1  0.087846  0.361257  0.044241  1
  H  H18  1  0.412154  0.861257  0.455759  1
  H  H19  1  0.912154  0.638743  0.955759  1
  H  H20  1  0.804165  0.117318  0.496224  1
  H  H21  1  0.304165  0.382682  0.996224  1
  H  H22  1  0.195835  0.882682  0.503776  1
  H  H23  1  0.695835  0.617318  0.003776  1
  H  H24  1  0.702869  0.759046  0.873839  1
  H  H25  1  0.202869  0.740954  0.373839  1
  H  H26  1  0.297131  0.240954  0.126161  1
  H  H27  1  0.797131  0.259046  0.626161  1
  H  H28  1  0.741282  0.884488  0.916300  1
  H  H29  1  0.241282  0.615512  0.416300  1
  H  H30  1  0.258718  0.115512  0.083700  1
  H  H31  1  0.758718  0.384488  0.583700  1
  H  H32  1  0.888570  0.665959  0.683501  1
  H  H33  1  0.388570  0.834041  0.183501  1
  H  H34  1  0.111430  0.334041  0.316499  1
  H  H35  1  0.611430  0.165959  0.816499  1
  H  H36  1  0.083057  0.741872  0.699603  1
  H  H37  1  0.583057  0.758128  0.199603  1
  H  H38  1  0.916943  0.258128  0.300397  1
  H  H39  1  0.416943  0.241872  0.800397  1
  H  H40  1  0.220151  0.799109  0.940964  1
  H  H41  1  0.720151  0.700891  0.440964  1
  H  H42  1  0.779849  0.200891  0.059036  1
  H  H43  1  0.279849  0.299109  0.559036  1
  H  H44  1  0.347930  0.863045  0.852461  1
  H  H45  1  0.847930  0.636955  0.352461  1
  H  H46  1  0.652070  0.136955  0.147539  1
  H  H47  1  0.152070  0.363045  0.647539  1
  O  O48  1  0.081500  0.959589  0.624140  1
  O  O49  1  0.581500  0.540411  0.124140  1
  O  O50  1  0.918500  0.040411  0.375860  1
  O  O51  1  0.418500  0.459589  0.875860  1
  O  O52  1  0.434725  0.000342  0.699191  1
  O  O53  1  0.934725  0.499658  0.199191  1
  O  O54  1  0.565275  0.999658  0.300809  1
  O  O55  1  0.065275  0.500342  0.800809  1
  O  O56  1  0.291431  0.117443  0.536177  1
  O  O57  1  0.791431  0.382557  0.036177  1
  O  O58  1  0.708569  0.882557  0.463823  1
  O  O59  1  0.208569  0.617443  0.963823  1
  O  O60  1  0.155282  0.079117  0.935059  1
  O  O61  1  0.655282  0.420883  0.435059  1
  O  O62  1  0.844718  0.920883  0.064941  1
  O  O63  1  0.344718  0.579117  0.564941  1
  O  O64  1  0.842662  0.058647  0.806031  1
  O  O65  1  0.342662  0.441353  0.306031  1
  O  O66  1  0.157338  0.941353  0.193969  1
  O  O67  1  0.657338  0.558647  0.693969  1
  O  O68  1  0.972794  0.256081  0.870453  1
  O  O69  1  0.472794  0.243919  0.370453  1
  O  O70  1  0.027206  0.743919  0.129547  1
  O  O71  1  0.527206  0.756081  0.629547  1
  O  O72  1  0.162716  0.146075  0.730061  1
  O  O73  1  0.662716  0.353925  0.230061  1
  O  O74  1  0.837284  0.853925  0.269939  1
  O  O75  1  0.337284  0.646075  0.769939  1
  O  O76  1  0.729174  0.125244  0.566770  1
  O  O77  1  0.229174  0.374756  0.066770  1
  O  O78  1  0.270826  0.874756  0.433230  1
  O  O79  1  0.770826  0.625244  0.933230  1
  O  O80  1  0.683278  0.840974  0.852376  1
  O  O81  1  0.183278  0.659026  0.352376  1
  O  O82  1  0.316722  0.159026  0.147624  1
  O  O83  1  0.816722  0.340974  0.647624  1
  O  O84  1  0.944868  0.742520  0.670714  1
  O  O85  1  0.444868  0.757480  0.170714  1
  O  O86  1  0.055132  0.257480  0.329286  1
  O  O87  1  0.555132  0.242520  0.829286  1
  O  O88  1  0.223589  0.867948  0.893645  1
  O  O89  1  0.723589  0.632052  0.393645  1
  O  O90  1  0.776411  0.132052  0.106355  1
  O  O91  1  0.276411  0.367948  0.606355  1
