# generated using pymatgen
data_Li2Mn4O5F3
_symmetry_space_group_name_H-M   'P 1'
_cell_length_a   6.17640941
_cell_length_b   6.17640941
_cell_length_c   10.91657069
_cell_angle_alpha   90.85540502
_cell_angle_beta   74.43535649
_cell_angle_gamma   123.51337596
_symmetry_Int_Tables_number   1
_chemical_formula_structural   Li2Mn4O5F3
_chemical_formula_sum   'Li4 Mn8 O10 F6'
_cell_volume   329.84832899
_cell_formula_units_Z   2
loop_
 _symmetry_equiv_pos_site_id
 _symmetry_equiv_pos_as_xyz
  1  'x, y, z'
loop_
 _atom_site_type_symbol
 _atom_site_label
 _atom_site_symmetry_multiplicity
 _atom_site_fract_x
 _atom_site_fract_y
 _atom_site_fract_z
 _atom_site_occupancy
  Li  Li0  1  0.843470  0.208223  0.448074  1
  Li  Li1  1  0.167311  0.315396  0.060112  1
  Li  Li2  1  0.843703  0.708456  0.948074  1
  Li  Li3  1  0.124491  0.772576  0.560112  1
  Mn  Mn4  1  0.497117  0.986721  0.001600  1
  Mn  Mn5  1  0.499876  0.248302  0.248731  1
  Mn  Mn6  1  0.494179  0.746247  0.246441  1
  Mn  Mn7  1  0.507311  0.259380  0.746441  1
  Mn  Mn8  1  0.511677  0.501282  0.501600  1
  Mn  Mn9  1  0.011024  0.742420  0.241770  1
  Mn  Mn10  1  0.002966  0.251392  0.748731  1
  Mn  Mn11  1  0.515811  0.747208  0.741770  1
  O  O12  1  0.722634  0.122725  0.658552  1
  O  O13  1  0.718724  0.618814  0.158552  1
  O  O14  1  0.735117  0.407899  0.358468  1
  O  O15  1  0.266428  0.095170  0.138629  1
  O  O16  1  0.727180  0.581303  0.631264  1
  O  O17  1  0.287433  0.641556  0.131264  1
  O  O18  1  0.733633  0.906416  0.858468  1
  O  O19  1  0.266203  0.594943  0.638629  1
  O  O20  1  0.279328  0.377236  0.840033  1
  O  O21  1  0.282732  0.880639  0.340033  1
  F  F22  1  0.778124  0.143021  0.119826  1
  F  F23  1  0.237153  0.102050  0.619826  1
  F  F24  1  0.233885  0.369922  0.386150  1
  F  F25  1  0.743929  0.379966  0.886150  1
  F  F26  1  0.720293  0.881381  0.370351  1
  F  F27  1  0.248268  0.909357  0.870351  1
