# generated using pymatgen
data_Y9U5O28
_symmetry_space_group_name_H-M   'P 1'
_cell_length_a   7.59571766
_cell_length_b   6.53110089
_cell_length_c   11.88079419
_cell_angle_alpha   80.17594088
_cell_angle_beta   106.99593696
_cell_angle_gamma   106.19354737
_symmetry_Int_Tables_number   1
_chemical_formula_structural   Y9U5O28
_chemical_formula_sum   'Y9 U5 O28'
_cell_volume   538.72965389
_cell_formula_units_Z   1
loop_
 _symmetry_equiv_pos_site_id
 _symmetry_equiv_pos_as_xyz
  1  'x, y, z'
loop_
 _atom_site_type_symbol
 _atom_site_label
 _atom_site_symmetry_multiplicity
 _atom_site_fract_x
 _atom_site_fract_y
 _atom_site_fract_z
 _atom_site_occupancy
  Y  Y0  1  0.499129  0.996804  0.001667  1
  Y  Y1  1  0.929442  0.431767  0.141190  1
  Y  Y2  1  0.857490  0.857142  0.285312  1
  Y  Y3  1  0.283791  0.283010  0.428413  1
  Y  Y4  1  0.357719  0.856458  0.287035  1
  Y  Y5  1  0.714286  0.714286  0.571429  1
  Y  Y6  1  0.144780  0.145562  0.714444  1
  Y  Y7  1  0.070853  0.572114  0.855822  1
  Y  Y8  1  0.571081  0.571429  0.857545  1
  U  U9  1  0.998881  0.996016  0.001133  1
  U  U10  1  0.429691  0.432555  0.141725  1
  U  U11  1  0.786999  0.284912  0.426601  1
  U  U12  1  0.214286  0.714286  0.571429  1
  U  U13  1  0.641573  0.143660  0.716256  1
  O  O14  1  0.598319  0.360672  0.044808  1
  O  O15  1  0.317142  0.084872  0.109981  1
  O  O16  1  0.830252  0.067900  0.098049  1
  O  O17  1  0.111430  0.343699  0.032876  1
  O  O18  1  0.258361  0.490778  0.241798  1
  O  O19  1  0.040665  0.794899  0.172549  1
  O  O20  1  0.474622  0.223399  0.317327  1
  O  O21  1  0.536316  0.771435  0.178753  1
  O  O22  1  0.742401  0.492511  0.253745  1
  O  O23  1  0.956241  0.222006  0.324324  1
  O  O24  1  0.683787  0.947231  0.398519  1
  O  O25  1  0.091037  0.355232  0.531961  1
  O  O26  1  0.385580  0.638430  0.475057  1
  O  O27  1  0.175434  0.916393  0.405178  1
  O  O28  1  0.611944  0.344657  0.531667  1
  O  O29  1  0.337535  0.073340  0.610896  1
  O  O30  1  0.889397  0.622259  0.462232  1
  O  O31  1  0.816628  0.083914  0.611190  1
  O  O32  1  0.744784  0.481341  0.744338  1
  O  O33  1  0.042992  0.790141  0.667800  1
  O  O34  1  0.472331  0.206565  0.818534  1
  O  O35  1  0.539174  0.806312  0.680625  1
  O  O36  1  0.253137  0.512178  0.737679  1
  O  O37  1  0.953950  0.205172  0.825530  1
  O  O38  1  0.892255  0.657137  0.964104  1
  O  O39  1  0.686170  0.936061  0.889112  1
  O  O40  1  0.387906  0.633673  0.970308  1
  O  O41  1  0.170211  0.937794  0.901059  1
