# generated using pymatgen
data_BaYBr5
_symmetry_space_group_name_H-M   'P 1'
_cell_length_a   12.91324324
_cell_length_b   10.79210873
_cell_length_c   14.77730970
_cell_angle_alpha   90.00000000
_cell_angle_beta   93.80827474
_cell_angle_gamma   90.00000000
_symmetry_Int_Tables_number   1
_chemical_formula_structural   BaYBr5
_chemical_formula_sum   'Ba8 Y8 Br40'
_cell_volume   2054.83515554
_cell_formula_units_Z   8
loop_
 _symmetry_equiv_pos_site_id
 _symmetry_equiv_pos_as_xyz
  1  'x, y, z'
loop_
 _atom_site_type_symbol
 _atom_site_label
 _atom_site_symmetry_multiplicity
 _atom_site_fract_x
 _atom_site_fract_y
 _atom_site_fract_z
 _atom_site_occupancy
  Ba  Ba0  1  0.189752  0.717339  0.857508  1
  Ba  Ba1  1  0.248067  0.729886  0.456488  1
  Ba  Ba2  1  0.310248  0.217339  0.642492  1
  Ba  Ba3  1  0.251933  0.229886  0.043512  1
  Ba  Ba4  1  0.748067  0.770114  0.956488  1
  Ba  Ba5  1  0.689752  0.782661  0.357508  1
  Ba  Ba6  1  0.751933  0.270114  0.543512  1
  Ba  Ba7  1  0.810248  0.282661  0.142492  1
  Y  Y8  1  0.017291  0.195085  0.809966  1
  Y  Y9  1  0.125497  0.220381  0.340142  1
  Y  Y10  1  0.374503  0.720380  0.159858  1
  Y  Y11  1  0.482709  0.695085  0.690034  1
  Y  Y12  1  0.517291  0.304915  0.309966  1
  Y  Y13  1  0.625497  0.279620  0.840142  1
  Y  Y14  1  0.874503  0.779620  0.659858  1
  Y  Y15  1  0.982709  0.804915  0.190034  1
  Br  Br16  1  0.041209  0.230218  0.628667  1
  Br  Br17  1  0.013504  0.815130  0.005147  1
  Br  Br18  1  0.084561  0.779575  0.637704  1
  Br  Br19  1  0.141695  0.399174  0.854791  1
  Br  Br20  1  0.086550  0.363378  0.186091  1
  Br  Br21  1  0.098368  0.023588  0.209145  1
  Br  Br22  1  0.198238  0.051925  0.830573  1
  Br  Br23  1  0.187262  0.409702  0.456363  1
  Br  Br24  1  0.193313  0.041945  0.468190  1
  Br  Br25  1  0.172669  0.681942  0.232169  1
  Br  Br26  1  0.301762  0.551925  0.669427  1
  Br  Br27  1  0.327331  0.181942  0.267831  1
  Br  Br28  1  0.306687  0.541945  0.031810  1
  Br  Br29  1  0.312738  0.909702  0.043637  1
  Br  Br30  1  0.358305  0.899174  0.645209  1
  Br  Br31  1  0.415439  0.279575  0.862296  1
  Br  Br32  1  0.401632  0.523588  0.290855  1
  Br  Br33  1  0.413450  0.863378  0.313909  1
  Br  Br34  1  0.458791  0.730218  0.871333  1
  Br  Br35  1  0.486496  0.315130  0.494853  1
  Br  Br36  1  0.513504  0.684870  0.505147  1
  Br  Br37  1  0.541209  0.269782  0.128667  1
  Br  Br38  1  0.586550  0.136622  0.686091  1
  Br  Br39  1  0.598368  0.476412  0.709145  1
  Br  Br40  1  0.584561  0.720425  0.137704  1
  Br  Br41  1  0.641695  0.100826  0.354791  1
  Br  Br42  1  0.687262  0.090298  0.956363  1
  Br  Br43  1  0.693313  0.458055  0.968190  1
  Br  Br44  1  0.672669  0.818058  0.732169  1
  Br  Br45  1  0.698238  0.448075  0.330573  1
  Br  Br46  1  0.827331  0.318058  0.767831  1
  Br  Br47  1  0.806687  0.958055  0.531810  1
  Br  Br48  1  0.812738  0.590298  0.543637  1
  Br  Br49  1  0.801762  0.948075  0.169427  1
  Br  Br50  1  0.901632  0.976412  0.790855  1
  Br  Br51  1  0.913450  0.636622  0.813909  1
  Br  Br52  1  0.858305  0.600826  0.145209  1
  Br  Br53  1  0.915439  0.220425  0.362296  1
  Br  Br54  1  0.986496  0.184870  0.994853  1
  Br  Br55  1  0.958791  0.769782  0.371333  1
