# generated using pymatgen
data_Li2Fe3Co7O20
_symmetry_space_group_name_H-M   'P 1'
_cell_length_a   20.51243681
_cell_length_b   2.88056330
_cell_length_c   5.86505914
_cell_angle_alpha   90.00000000
_cell_angle_beta   82.59064312
_cell_angle_gamma   90.00000000
_symmetry_Int_Tables_number   1
_chemical_formula_structural   Li2Fe3Co7O20
_chemical_formula_sum   'Li2 Fe3 Co7 O20'
_cell_volume   343.65727470
_cell_formula_units_Z   1
loop_
 _symmetry_equiv_pos_site_id
 _symmetry_equiv_pos_as_xyz
  1  'x, y, z'
loop_
 _atom_site_type_symbol
 _atom_site_label
 _atom_site_symmetry_multiplicity
 _atom_site_fract_x
 _atom_site_fract_y
 _atom_site_fract_z
 _atom_site_occupancy
  Li  Li0  1  0.100000  0.500000  0.200000  1
  Li  Li1  1  0.600000  0.000000  0.200000  1
  Fe  Fe2  1  0.397875  0.000000  0.298788  1
  Fe  Fe3  1  0.600000  0.000000  0.700000  1
  Fe  Fe4  1  0.802125  0.000000  0.101212  1
  Co  Co5  1  0.998837  0.000000  0.518116  1
  Co  Co6  1  0.100000  0.500000  0.700000  1
  Co  Co7  1  0.201163  0.000000  0.881884  1
  Co  Co8  1  0.296861  0.500000  0.096480  1
  Co  Co9  1  0.497524  0.500000  0.507502  1
  Co  Co10  1  0.702476  0.500000  0.892498  1
  Co  Co11  1  0.903139  0.500000  0.303520  1
  O  O12  1  0.007842  0.500000  0.718853  1
  O  O13  1  0.092569  0.000000  0.485145  1
  O  O14  1  0.107430  0.000000  0.914855  1
  O  O15  1  0.203762  0.500000  0.095092  1
  O  O16  1  0.192158  0.500000  0.681147  1
  O  O17  1  0.299250  0.000000  0.302665  1
  O  O18  1  0.291968  0.000000  0.887060  1
  O  O19  1  0.387445  0.500000  0.079418  1
  O  O20  1  0.407701  0.500000  0.517126  1
  O  O21  1  0.497688  0.000000  0.294192  1
  O  O22  1  0.502414  0.000000  0.711589  1
  O  O23  1  0.590898  0.500000  0.469221  1
  O  O24  1  0.609102  0.500000  0.930779  1
  O  O25  1  0.702312  0.000000  0.105808  1
  O  O26  1  0.697586  0.000000  0.688411  1
  O  O27  1  0.812555  0.500000  0.320582  1
  O  O28  1  0.792299  0.500000  0.882874  1
  O  O29  1  0.900750  0.000000  0.097335  1
  O  O30  1  0.908032  0.000000  0.512940  1
  O  O31  1  0.996238  0.500000  0.304908  1
