# generated using pymatgen
data_Li4TiCrO6
_symmetry_space_group_name_H-M   'P 1'
_cell_length_a   6.55213538
_cell_length_b   5.05197482
_cell_length_c   9.81325089
_cell_angle_alpha   85.58054597
_cell_angle_beta   42.10880879
_cell_angle_gamma   50.33751721
_symmetry_Int_Tables_number   1
_chemical_formula_structural   Li4TiCrO6
_chemical_formula_sum   'Li4 Ti1 Cr1 O6'
_cell_volume   107.38160106
_cell_formula_units_Z   1
loop_
 _symmetry_equiv_pos_site_id
 _symmetry_equiv_pos_as_xyz
  1  'x, y, z'
loop_
 _atom_site_type_symbol
 _atom_site_label
 _atom_site_symmetry_multiplicity
 _atom_site_fract_x
 _atom_site_fract_y
 _atom_site_fract_z
 _atom_site_occupancy
  Li  Li0  1  0.003259  0.501941  0.998137  1
  Li  Li1  1  0.497515  0.998816  0.501007  1
  Li  Li2  1  0.317363  0.502078  0.340847  1
  Li  Li3  1  0.671860  0.501470  0.663656  1
  Ti  Ti4  1  0.162881  0.005466  0.168242  1
  Cr  Cr5  1  0.837211  0.995168  0.831554  1
  O  O6  1  0.285394  0.212359  0.223179  1
  O  O7  1  0.712120  0.791791  0.778782  1
  O  O8  1  0.557257  0.293737  0.582986  1
  O  O9  1  0.143207  0.708843  0.066106  1
  O  O10  1  0.422788  0.718767  0.424283  1
  O  O11  1  0.862813  0.275141  0.931560  1
