# generated using pymatgen
data_HgH4C4(NCl2)2
_symmetry_space_group_name_H-M   'P 1'
_cell_length_a   8.65415782
_cell_length_b   11.87089797
_cell_length_c   14.52290918
_cell_angle_alpha   90.00000000
_cell_angle_beta   92.01057843
_cell_angle_gamma   90.00000000
_symmetry_Int_Tables_number   1
_chemical_formula_structural   HgH4C4(NCl2)2
_chemical_formula_sum   'Hg4 H16 C16 N8 Cl16'
_cell_volume   1491.05806550
_cell_formula_units_Z   4
loop_
 _symmetry_equiv_pos_site_id
 _symmetry_equiv_pos_as_xyz
  1  'x, y, z'
loop_
 _atom_site_type_symbol
 _atom_site_label
 _atom_site_symmetry_multiplicity
 _atom_site_fract_x
 _atom_site_fract_y
 _atom_site_fract_z
 _atom_site_occupancy
  Hg  Hg0  1  0.322521  0.655404  0.402655  1
  Hg  Hg1  1  0.822521  0.844596  0.902655  1
  Hg  Hg2  1  0.677479  0.344596  0.597345  1
  Hg  Hg3  1  0.177479  0.155403  0.097345  1
  H  H4  1  0.338398  0.034245  0.893891  1
  H  H5  1  0.838398  0.465755  0.393891  1
  H  H6  1  0.661602  0.965755  0.106109  1
  H  H7  1  0.161602  0.534245  0.606109  1
  H  H8  1  0.392577  0.810829  0.841435  1
  H  H9  1  0.892577  0.689171  0.341435  1
  H  H10  1  0.607423  0.189171  0.158565  1
  H  H11  1  0.107423  0.310829  0.658565  1
  H  H12  1  0.346459  0.192664  0.490578  1
  H  H13  1  0.846459  0.307336  0.990578  1
  H  H14  1  0.653541  0.807336  0.509422  1
  H  H15  1  0.153541  0.692664  0.009422  1
  H  H16  1  0.989949  0.236142  0.419086  1
  H  H17  1  0.489949  0.263858  0.919086  1
  H  H18  1  0.010051  0.763858  0.580914  1
  H  H19  1  0.510051  0.736142  0.080914  1
  C  C20  1  0.294589  0.004335  0.739784  1
  C  C21  1  0.794589  0.495665  0.239784  1
  C  C22  1  0.705411  0.995665  0.260216  1
  C  C23  1  0.205411  0.504335  0.760216  1
  C  C24  1  0.143170  0.997364  0.791381  1
  C  C25  1  0.643170  0.502636  0.291381  1
  C  C26  1  0.856830  0.002636  0.208619  1
  C  C27  1  0.356830  0.497364  0.708619  1
  C  C28  1  0.228948  0.058238  0.401650  1
  C  C29  1  0.728948  0.441762  0.901650  1
  C  C30  1  0.771052  0.941762  0.598350  1
  C  C31  1  0.271052  0.558238  0.098350  1
  C  C32  1  0.294901  0.149569  0.339805  1
  C  C33  1  0.794901  0.350431  0.839805  1
  C  C34  1  0.705099  0.850431  0.660195  1
  C  C35  1  0.205099  0.649569  0.160195  1
  N  N36  1  0.217609  0.519518  0.669053  1
  N  N37  1  0.717609  0.980482  0.169053  1
  N  N38  1  0.782391  0.480482  0.330947  1
  N  N39  1  0.282391  0.019518  0.830947  1
  N  N40  1  0.195991  0.650964  0.067868  1
  N  N41  1  0.695991  0.849036  0.567868  1
  N  N42  1  0.804009  0.349036  0.932132  1
  N  N43  1  0.304009  0.150964  0.432132  1
  Cl  Cl44  1  0.173494  0.504240  0.447865  1
  Cl  Cl45  1  0.673494  0.995760  0.947865  1
  Cl  Cl46  1  0.826506  0.495760  0.552135  1
  Cl  Cl47  1  0.326506  0.004240  0.052135  1
  Cl  Cl48  1  0.151876  0.790003  0.600116  1
  Cl  Cl49  1  0.651876  0.709997  0.100116  1
  Cl  Cl50  1  0.848124  0.209997  0.399884  1
  Cl  Cl51  1  0.348124  0.290003  0.899884  1
  Cl  Cl52  1  0.548188  0.283409  0.131135  1
  Cl  Cl53  1  0.048188  0.216591  0.631135  1
  Cl  Cl54  1  0.451812  0.716591  0.868865  1
  Cl  Cl55  1  0.951812  0.783409  0.368865  1
  Cl  Cl56  1  0.974373  0.688367  0.882872  1
  Cl  Cl57  1  0.474373  0.811633  0.382872  1
  Cl  Cl58  1  0.025627  0.311633  0.117128  1
  Cl  Cl59  1  0.525627  0.188367  0.617128  1
