# generated using pymatgen
data_CdRe2(H2O5)2
_symmetry_space_group_name_H-M   'P 1'
_cell_length_a   7.83331162
_cell_length_b   9.21987476
_cell_length_c   14.26982338
_cell_angle_alpha   73.80279896
_cell_angle_beta   87.48946917
_cell_angle_gamma   71.56772256
_symmetry_Int_Tables_number   1
_chemical_formula_structural   CdRe2(H2O5)2
_chemical_formula_sum   'Cd4 Re8 H16 O40'
_cell_volume   937.80171281
_cell_formula_units_Z   4
loop_
 _symmetry_equiv_pos_site_id
 _symmetry_equiv_pos_as_xyz
  1  'x, y, z'
loop_
 _atom_site_type_symbol
 _atom_site_label
 _atom_site_symmetry_multiplicity
 _atom_site_fract_x
 _atom_site_fract_y
 _atom_site_fract_z
 _atom_site_occupancy
  Cd  Cd0  1  0.748472  0.769718  0.654999  1
  Cd  Cd1  1  0.251528  0.230282  0.345001  1
  Cd  Cd2  1  0.763858  0.366431  0.848742  1
  Cd  Cd3  1  0.236142  0.633569  0.151258  1
  Re  Re4  1  0.257973  0.635745  0.587459  1
  Re  Re5  1  0.742027  0.364255  0.412541  1
  Re  Re6  1  0.283009  0.863802  0.378346  1
  Re  Re7  1  0.716991  0.136198  0.621654  1
  Re  Re8  1  0.240995  0.093170  0.949140  1
  Re  Re9  1  0.759005  0.906830  0.050860  1
  Re  Re10  1  0.245041  0.590433  0.888590  1
  Re  Re11  1  0.754959  0.409567  0.111410  1
  H  H12  1  0.818832  0.456632  0.634057  1
  H  H13  1  0.181168  0.543368  0.365943  1
  H  H14  1  0.006108  0.423638  0.685620  1
  H  H15  1  0.993892  0.576362  0.314380  1
  H  H16  1  0.707122  0.704906  0.871326  1
  H  H17  1  0.292878  0.295094  0.128674  1
  H  H18  1  0.523391  0.727436  0.818288  1
  H  H19  1  0.476609  0.272564  0.181712  1
  H  H20  1  0.763083  0.934592  0.789450  1
  H  H21  1  0.236917  0.065408  0.210550  1
  H  H22  1  0.040709  0.050467  0.690116  1
  H  H23  1  0.959291  0.949533  0.309884  1
  H  H24  1  0.514504  0.365582  0.712121  1
  H  H25  1  0.485496  0.634418  0.287879  1
  H  H26  1  0.531839  0.205160  0.794058  1
  H  H27  1  0.468161  0.794840  0.205942  1
  O  O28  1  0.049356  0.754956  0.611697  1
  O  O29  1  0.950644  0.245044  0.388303  1
  O  O30  1  0.253149  0.900949  0.495850  1
  O  O31  1  0.746851  0.099051  0.504150  1
  O  O32  1  0.320200  0.638426  0.457515  1
  O  O33  1  0.679800  0.361574  0.542485  1
  O  O34  1  0.429177  0.628686  0.664335  1
  O  O35  1  0.570823  0.371314  0.335665  1
  O  O36  1  0.658167  0.718542  0.537859  1
  O  O37  1  0.341833  0.281458  0.462141  1
  O  O38  1  0.480324  0.910674  0.346035  1
  O  O39  1  0.519676  0.089326  0.653965  1
  O  O40  1  0.761373  0.554820  0.368996  1
  O  O41  1  0.238627  0.445180  0.631004  1
  O  O42  1  0.047015  0.853978  0.351822  1
  O  O43  1  0.952985  0.146022  0.648178  1
  O  O44  1  0.048597  0.182588  0.868266  1
  O  O45  1  0.951403  0.817412  0.131734  1
  O  O46  1  0.242823  0.903694  0.019137  1
  O  O47  1  0.757177  0.096306  0.980863  1
  O  O48  1  0.235567  0.211305  0.027050  1
  O  O49  1  0.764433  0.788695  0.972950  1
  O  O50  1  0.434084  0.078993  0.880014  1
  O  O51  1  0.565916  0.921007  0.119986  1
  O  O52  1  0.452963  0.438803  0.894008  1
  O  O53  1  0.547037  0.561197  0.105992  1
  O  O54  1  0.174762  0.596268  0.007167  1
  O  O55  1  0.825238  0.403732  0.992833  1
  O  O56  1  0.080539  0.558919  0.825770  1
  O  O57  1  0.919461  0.441081  0.174230  1
  O  O58  1  0.276856  0.772080  0.827703  1
  O  O59  1  0.723144  0.227920  0.172297  1
  O  O60  1  0.874726  0.460667  0.693602  1
  O  O61  1  0.125274  0.539333  0.306398  1
  O  O62  1  0.655839  0.677344  0.818995  1
  O  O63  1  0.344161  0.322656  0.181005  1
  O  O64  1  0.833386  0.925533  0.731478  1
  O  O65  1  0.166614  0.074467  0.268522  1
  O  O66  1  0.604750  0.269126  0.752508  1
  O  O67  1  0.395250  0.730874  0.247492  1
