# generated using pymatgen
data_LiCuPO4
_symmetry_space_group_name_H-M   'P 1'
_cell_length_a   5.04862904
_cell_length_b   9.49259924
_cell_length_c   6.15167817
_cell_angle_alpha   90.00000000
_cell_angle_beta   90.00000000
_cell_angle_gamma   90.00000000
_symmetry_Int_Tables_number   1
_chemical_formula_structural   LiCuPO4
_chemical_formula_sum   'Li4 Cu4 P4 O16'
_cell_volume   294.81679060
_cell_formula_units_Z   4
loop_
 _symmetry_equiv_pos_site_id
 _symmetry_equiv_pos_as_xyz
  1  'x, y, z'
loop_
 _atom_site_type_symbol
 _atom_site_label
 _atom_site_symmetry_multiplicity
 _atom_site_fract_x
 _atom_site_fract_y
 _atom_site_fract_z
 _atom_site_occupancy
  Li  Li0  1  0.000000  0.000000  0.000000  1
  Li  Li1  1  0.000000  0.000000  0.500000  1
  Li  Li2  1  0.500000  0.500000  0.500000  1
  Li  Li3  1  0.500000  0.500000  0.000000  1
  Cu  Cu4  1  0.049011  0.655481  0.250000  1
  Cu  Cu5  1  0.450989  0.155481  0.250000  1
  Cu  Cu6  1  0.549011  0.844519  0.750000  1
  Cu  Cu7  1  0.950989  0.344519  0.750000  1
  P  P8  1  0.050743  0.690033  0.750000  1
  P  P9  1  0.449257  0.190033  0.750000  1
  P  P10  1  0.550743  0.809967  0.250000  1
  P  P11  1  0.949257  0.309967  0.250000  1
  O  O12  1  0.254738  0.333082  0.250000  1
  O  O13  1  0.169091  0.615028  0.952881  1
  O  O14  1  0.169091  0.615028  0.547119  1
  O  O15  1  0.128101  0.849380  0.750000  1
  O  O16  1  0.371899  0.349380  0.750000  1
  O  O17  1  0.330909  0.115028  0.952881  1
  O  O18  1  0.330909  0.115028  0.547119  1
  O  O19  1  0.245262  0.833082  0.250000  1
  O  O20  1  0.754738  0.166918  0.750000  1
  O  O21  1  0.669091  0.884972  0.452881  1
  O  O22  1  0.669091  0.884972  0.047119  1
  O  O23  1  0.628101  0.650620  0.250000  1
  O  O24  1  0.871899  0.150620  0.250000  1
  O  O25  1  0.830909  0.384972  0.047119  1
  O  O26  1  0.830909  0.384972  0.452881  1
  O  O27  1  0.745262  0.666918  0.750000  1
