# generated using pymatgen
data_Zn3P3H10C2NO13
_symmetry_space_group_name_H-M   'P 1'
_cell_length_a   13.14524967
_cell_length_b   5.33591417
_cell_length_c   21.79381481
_cell_angle_alpha   90.00000000
_cell_angle_beta   94.42713720
_cell_angle_gamma   90.00000000
_symmetry_Int_Tables_number   1
_chemical_formula_structural   Zn3P3H10C2NO13
_chemical_formula_sum   'Zn12 P12 H40 C8 N4 O52'
_cell_volume   1524.09904442
_cell_formula_units_Z   4
loop_
 _symmetry_equiv_pos_site_id
 _symmetry_equiv_pos_as_xyz
  1  'x, y, z'
loop_
 _atom_site_type_symbol
 _atom_site_label
 _atom_site_symmetry_multiplicity
 _atom_site_fract_x
 _atom_site_fract_y
 _atom_site_fract_z
 _atom_site_occupancy
  Zn  Zn0  1  0.006950  0.278240  0.565494  1
  Zn  Zn1  1  0.993050  0.778240  0.934506  1
  Zn  Zn2  1  0.993050  0.721760  0.434506  1
  Zn  Zn3  1  0.006950  0.221760  0.065494  1
  Zn  Zn4  1  0.002373  0.768260  0.665378  1
  Zn  Zn5  1  0.997627  0.268260  0.834622  1
  Zn  Zn6  1  0.997627  0.231740  0.334622  1
  Zn  Zn7  1  0.002373  0.731740  0.165378  1
  Zn  Zn8  1  0.389029  0.720965  0.547385  1
  Zn  Zn9  1  0.610971  0.220965  0.952615  1
  Zn  Zn10  1  0.610971  0.279035  0.452615  1
  Zn  Zn11  1  0.389029  0.779035  0.047385  1
  P  P12  1  0.139057  0.762022  0.552865  1
  P  P13  1  0.860943  0.262022  0.947135  1
  P  P14  1  0.860943  0.237978  0.447135  1
  P  P15  1  0.139057  0.737978  0.052865  1
  P  P16  1  0.890709  0.266855  0.693531  1
  P  P17  1  0.109291  0.766855  0.806469  1
  P  P18  1  0.109291  0.733145  0.306469  1
  P  P19  1  0.890709  0.233145  0.193531  1
  P  P20  1  0.487567  0.805116  0.419609  1
  P  P21  1  0.512433  0.305116  0.080391  1
  P  P22  1  0.512433  0.194884  0.580391  1
  P  P23  1  0.487567  0.694884  0.919609  1
  H  H24  1  0.749037  0.283081  0.639849  1
  H  H25  1  0.250963  0.783081  0.860151  1
  H  H26  1  0.250963  0.716919  0.360151  1
  H  H27  1  0.749037  0.216919  0.139849  1
  H  H28  1  0.378602  0.774561  0.339295  1
  H  H29  1  0.621398  0.274561  0.160705  1
  H  H30  1  0.621398  0.225439  0.660705  1
  H  H31  1  0.378602  0.725439  0.839295  1
  H  H32  1  0.274018  0.538782  0.652107  1
  H  H33  1  0.725982  0.038782  0.847893  1
  H  H34  1  0.725982  0.461218  0.347893  1
  H  H35  1  0.274018  0.961218  0.152107  1
  H  H36  1  0.232193  0.549904  0.722231  1
  H  H37  1  0.767807  0.049904  0.777769  1
  H  H38  1  0.767807  0.450096  0.277769  1
  H  H39  1  0.232193  0.950096  0.222231  1
  H  H40  1  0.401713  0.722834  0.724664  1
  H  H41  1  0.598287  0.222834  0.775336  1
  H  H42  1  0.598287  0.277166  0.275336  1
  H  H43  1  0.401713  0.777166  0.224664  1
  H  H44  1  0.399576  0.440778  0.770054  1
  H  H45  1  0.600424  0.940778  0.729946  1
  H  H46  1  0.600424  0.559222  0.229946  1
  H  H47  1  0.399576  0.059222  0.270054  1
  H  H48  1  0.445746  0.435426  0.694515  1
  H  H49  1  0.554254  0.935426  0.805485  1
  H  H50  1  0.554254  0.564574  0.305485  1
  H  H51  1  0.445746  0.064574  0.194515  1
  H  H52  1  0.184832  0.161476  0.676775  1
  H  H53  1  0.815168  0.661476  0.823225  1
  H  H54  1  0.815168  0.838524  0.323225  1
  H  H55  1  0.184832  0.338524  0.176775  1
  H  H56  1  0.315738  0.098216  0.665047  1
  H  H57  1  0.684262  0.598216  0.834953  1
  H  H58  1  0.684262  0.901784  0.334953  1
  H  H59  1  0.315738  0.401784  0.165047  1
  H  H60  1  0.274149  0.116180  0.742149  1
  H  H61  1  0.725851  0.616180  0.757851  1
  H  H62  1  0.725851  0.883820  0.257851  1
  H  H63  1  0.274149  0.383820  0.242149  1
  C  C64  1  0.390506  0.519567  0.723513  1
  C  C65  1  0.609495  0.019567  0.776487  1
  C  C66  1  0.609495  0.480433  0.276487  1
  C  C67  1  0.390506  0.980433  0.223513  1
  C  C68  1  0.263641  0.189027  0.695048  1
  C  C69  1  0.736359  0.689027  0.804952  1
  C  C70  1  0.736359  0.810973  0.304952  1
  C  C71  1  0.263641  0.310973  0.195048  1
  N  N72  1  0.285461  0.463330  0.696705  1
  N  N73  1  0.714539  0.963330  0.803295  1
  N  N74  1  0.714539  0.536670  0.303295  1
  N  N75  1  0.285461  0.036670  0.196705  1
  O  O76  1  0.114448  0.042671  0.558117  1
  O  O77  1  0.885552  0.542671  0.941883  1
  O  O78  1  0.885552  0.957329  0.441883  1
  O  O79  1  0.114448  0.457329  0.058117  1
  O  O80  1  0.114436  0.658108  0.487103  1
  O  O81  1  0.885564  0.158108  0.012897  1
  O  O82  1  0.885564  0.341892  0.512897  1
  O  O83  1  0.114436  0.841892  0.987103  1
  O  O84  1  0.967044  0.127674  0.653066  1
  O  O85  1  0.032956  0.627674  0.846934  1
  O  O86  1  0.032956  0.872326  0.346934  1
  O  O87  1  0.967044  0.372326  0.153066  1
  O  O88  1  0.066275  0.610476  0.596392  1
  O  O89  1  0.933725  0.110476  0.903608  1
  O  O90  1  0.933725  0.389524  0.403608  1
  O  O91  1  0.066275  0.889524  0.096392  1
  O  O92  1  0.905694  0.183813  0.760614  1
  O  O93  1  0.094306  0.683813  0.739386  1
  O  O94  1  0.094306  0.816187  0.239386  1
  O  O95  1  0.905694  0.316187  0.260614  1
  O  O96  1  0.889452  0.547077  0.680025  1
  O  O97  1  0.110548  0.047077  0.819975  1
  O  O98  1  0.110548  0.452923  0.319975  1
  O  O99  1  0.889452  0.952923  0.180025  1
  O  O100  1  0.405606  0.843604  0.465222  1
  O  O101  1  0.594394  0.343604  0.034778  1
  O  O102  1  0.594394  0.156396  0.534778  1
  O  O103  1  0.405606  0.656396  0.965222  1
  O  O104  1  0.574237  0.626954  0.439958  1
  O  O105  1  0.425763  0.126953  0.060042  1
  O  O106  1  0.425763  0.373047  0.560042  1
  O  O107  1  0.574237  0.873046  0.939958  1
  O  O108  1  0.528245  0.054760  0.395606  1
  O  O109  1  0.471755  0.554760  0.104394  1
  O  O110  1  0.471755  0.945240  0.604394  1
  O  O111  1  0.528245  0.445240  0.895606  1
  O  O112  1  0.248913  0.707249  0.578379  1
  O  O113  1  0.751087  0.207249  0.921621  1
  O  O114  1  0.751087  0.292751  0.421621  1
  O  O115  1  0.248913  0.792751  0.078379  1
  O  O116  1  0.776212  0.174478  0.673650  1
  O  O117  1  0.223788  0.674478  0.826350  1
  O  O118  1  0.223788  0.825522  0.326350  1
  O  O119  1  0.776212  0.325522  0.173650  1
  O  O120  1  0.429678  0.665241  0.359530  1
  O  O121  1  0.570322  0.165241  0.140470  1
  O  O122  1  0.570322  0.334759  0.640470  1
  O  O123  1  0.429678  0.834759  0.859530  1
  O  O124  1  0.269488  0.257057  0.439633  1
  O  O125  1  0.730512  0.757057  0.060367  1
  O  O126  1  0.730512  0.742943  0.560367  1
  O  O127  1  0.269488  0.242943  0.939633  1
