# generated using pymatgen
data_Li66Be24H35
_symmetry_space_group_name_H-M   'P 1'
_cell_length_a   10.96114507
_cell_length_b   10.45808786
_cell_length_c   12.71079454
_cell_angle_alpha   88.21486775
_cell_angle_beta   94.94036525
_cell_angle_gamma   89.40644271
_symmetry_Int_Tables_number   1
_chemical_formula_structural   Li66Be24H35
_chemical_formula_sum   'Li66 Be24 H35'
_cell_volume   1450.82947784
_cell_formula_units_Z   1
loop_
 _symmetry_equiv_pos_site_id
 _symmetry_equiv_pos_as_xyz
  1  'x, y, z'
loop_
 _atom_site_type_symbol
 _atom_site_label
 _atom_site_symmetry_multiplicity
 _atom_site_fract_x
 _atom_site_fract_y
 _atom_site_fract_z
 _atom_site_occupancy
  Li  Li0  1  0.920037  0.435851  0.166302  1
  Li  Li1  1  0.948296  0.988489  0.214449  1
  Li  Li2  1  0.222278  0.654233  0.044628  1
  Li  Li3  1  0.249050  0.156941  0.086014  1
  Li  Li4  1  0.793891  0.110023  0.062431  1
  Li  Li5  1  0.742053  0.615761  0.065363  1
  Li  Li6  1  0.438812  0.537456  0.149288  1
  Li  Li7  1  0.445645  0.108561  0.243820  1
  Li  Li8  1  0.702135  0.312962  0.525037  1
  Li  Li9  1  0.675476  0.936435  0.565310  1
  Li  Li10  1  0.120811  0.979518  0.545745  1
  Li  Li11  1  0.216576  0.436006  0.592888  1
  Li  Li12  1  0.430059  0.847363  0.607584  1
  Li  Li13  1  0.960046  0.744347  0.617316  1
  Li  Li14  1  0.978449  0.408715  0.598124  1
  Li  Li15  1  0.469399  0.334999  0.595884  1
  Li  Li16  1  0.582824  0.328613  0.878032  1
  Li  Li17  1  0.355851  0.652340  0.871374  1
  Li  Li18  1  0.107123  0.574171  0.776200  1
  Li  Li19  1  0.011977  0.152696  0.683748  1
  Li  Li20  1  0.050610  0.795835  0.914747  1
  Li  Li21  1  0.619882  0.648832  0.851006  1
  Li  Li22  1  0.103015  0.101525  0.887107  1
  Li  Li23  1  0.536290  0.114510  0.019291  1
  Li  Li24  1  0.073821  0.377612  0.948337  1
  Li  Li25  1  0.130134  0.883367  0.137362  1
  Li  Li26  1  0.781014  0.534391  0.601633  1
  Li  Li27  1  0.545549  0.564875  0.645054  1
  Li  Li28  1  0.687130  0.325972  0.112481  1
  Li  Li29  1  0.675300  0.875202  0.121084  1
  Li  Li30  1  0.522318  0.113926  0.714565  1
  Li  Li31  1  0.864121  0.088511  0.510676  1
  Li  Li32  1  0.124459  0.223883  0.506482  1
  Li  Li33  1  0.553618  0.125556  0.473187  1
  Li  Li34  1  0.001172  0.629825  0.449107  1
  Li  Li35  1  0.517861  0.727075  0.453639  1
  Li  Li36  1  0.286065  0.907016  0.955234  1
  Li  Li37  1  0.804609  0.832031  0.937604  1
  Li  Li38  1  0.805646  0.381691  0.954689  1
  Li  Li39  1  0.321150  0.378990  0.971638  1
  Li  Li40  1  0.603520  0.282074  0.303856  1
  Li  Li41  1  0.128246  0.237211  0.252453  1
  Li  Li42  1  0.592705  0.692110  0.249678  1
  Li  Li43  1  0.032877  0.668981  0.243563  1
  Li  Li44  1  0.890517  0.922650  0.743364  1
  Li  Li45  1  0.911123  0.383088  0.772359  1
  Li  Li46  1  0.361802  0.426202  0.768612  1
  Li  Li47  1  0.410236  0.901013  0.789397  1
  Li  Li48  1  0.714536  0.096808  0.858208  1
  Li  Li49  1  0.346367  0.158233  0.853981  1
  Li  Li50  1  0.178549  0.818453  0.746852  1
  Li  Li51  1  0.878097  0.655181  0.790415  1
  Li  Li52  1  0.211333  0.027269  0.343934  1
  Li  Li53  1  0.129083  0.433060  0.373099  1
  Li  Li54  1  0.503848  0.468478  0.399345  1
  Li  Li55  1  0.593084  0.920823  0.346251  1
  Li  Li56  1  0.145310  0.435297  0.136459  1
  Li  Li57  1  0.293487  0.551523  0.304231  1
  Li  Li58  1  0.409620  0.859832  0.156083  1
  Li  Li59  1  0.973837  0.877607  0.409915  1
  Li  Li60  1  0.912504  0.336353  0.400182  1
  Li  Li61  1  0.308048  0.784529  0.325493  1
  Li  Li62  1  0.354112  0.249669  0.414822  1
  Li  Li63  1  0.758440  0.068481  0.304884  1
  Li  Li64  1  0.785501  0.552306  0.336233  1
  Li  Li65  1  0.220291  0.770453  0.505281  1
  Be  Be66  1  0.981400  0.004501  0.010151  1
  Be  Be67  1  0.333282  0.640177  0.663385  1
  Be  Be68  1  0.581958  0.888861  0.920488  1
  Be  Be69  1  0.720779  0.746862  0.648691  1
  Be  Be70  1  0.332581  0.335815  0.222590  1
  Be  Be71  1  0.901987  0.223081  0.230296  1
  Be  Be72  1  0.396248  0.967572  0.445246  1
  Be  Be73  1  0.808520  0.796499  0.294303  1
  Be  Be74  1  0.276810  0.219496  0.668708  1
  Be  Be75  1  0.752866  0.133890  0.662119  1
  Be  Be76  1  0.967175  0.608160  0.022714  1
  Be  Be77  1  0.532779  0.509907  0.990541  1
  Be  Be78  1  0.164951  0.289456  0.780111  1
  Be  Be79  1  0.221033  0.045606  0.716202  1
  Be  Be80  1  0.771925  0.743998  0.461384  1
  Be  Be81  1  0.991204  0.123264  0.364911  1
  Be  Be82  1  0.466837  0.312023  0.122203  1
  Be  Be83  1  0.517552  0.717096  0.022940  1
  Be  Be84  1  0.330095  0.081440  0.569278  1
  Be  Be85  1  0.354899  0.583358  0.511350  1
  Be  Be86  1  0.892612  0.782476  0.123059  1
  Be  Be87  1  0.999316  0.200315  0.092492  1
  Be  Be88  1  0.656654  0.888904  0.765763  1
  Be  Be89  1  0.700971  0.317868  0.712107  1
  H  H90  1  0.036053  0.262384  0.803508  1
  H  H91  1  0.642907  0.975884  0.999271  1
  H  H92  1  0.096479  0.956134  0.980304  1
  H  H93  1  0.298775  0.235504  0.555104  1
  H  H94  1  0.063068  0.800772  0.523305  1
  H  H95  1  0.747282  0.386171  0.805480  1
  H  H96  1  0.020338  0.755615  0.761245  1
  H  H97  1  0.687520  0.019846  0.717490  1
  H  H98  1  0.074526  0.402139  0.497929  1
  H  H99  1  0.245436  0.611418  0.570037  1
  H  H100  1  0.869816  0.065918  0.658010  1
  H  H101  1  0.544341  0.773455  0.125318  1
  H  H102  1  0.607797  0.826349  0.669912  1
  H  H103  1  0.086630  0.539095  0.027041  1
  H  H104  1  0.101592  0.981963  0.696038  1
  H  H105  1  0.690638  0.223145  0.974651  1
  H  H106  1  0.649194  0.472653  0.951593  1
  H  H107  1  0.942985  0.535754  0.691008  1
  H  H108  1  0.643371  0.410780  0.633202  1
  H  H109  1  0.521607  0.916083  0.478968  1
  H  H110  1  0.924078  0.925118  0.087084  1
  H  H111  1  0.706301  0.116731  0.549794  1
  H  H112  1  0.225871  0.391873  0.262774  1
  H  H113  1  0.539670  0.302217  0.457905  1
  H  H114  1  0.875200  0.512007  0.041933  1
  H  H115  1  0.460584  0.830851  0.954427  1
  H  H116  1  0.543023  0.429259  0.092563  1
  H  H117  1  0.668894  0.752167  0.533099  1
  H  H118  1  0.697376  0.625171  0.698413  1
  H  H119  1  0.565572  0.219627  0.150484  1
  H  H120  1  0.952661  0.139814  0.985860  1
  H  H121  1  0.600463  0.099782  0.338962  1
  H  H122  1  0.215753  0.752548  0.909339  1
  H  H123  1  0.778043  0.779990  0.062555  1
  H  H124  1  0.215094  0.273368  0.893952  1
