# generated using pymatgen
data_Li2CuF5
_symmetry_space_group_name_H-M   'P 1'
_cell_length_a   7.16757036
_cell_length_b   5.36089500
_cell_length_c   9.49517445
_cell_angle_alpha   90.00000960
_cell_angle_beta   90.12050737
_cell_angle_gamma   90.00000031
_symmetry_Int_Tables_number   1
_chemical_formula_structural   Li2CuF5
_chemical_formula_sum   'Li8 Cu4 F20'
_cell_volume   364.84739841
_cell_formula_units_Z   4
loop_
 _symmetry_equiv_pos_site_id
 _symmetry_equiv_pos_as_xyz
  1  'x, y, z'
loop_
 _atom_site_type_symbol
 _atom_site_label
 _atom_site_symmetry_multiplicity
 _atom_site_fract_x
 _atom_site_fract_y
 _atom_site_fract_z
 _atom_site_occupancy
  Li  Li0  1  0.049704  0.250000  0.728954  1
  Li  Li1  1  0.101399  0.250000  0.431613  1
  Li  Li2  1  0.398133  0.750000  0.931992  1
  Li  Li3  1  0.450691  0.750000  0.228689  1
  Li  Li4  1  0.549105  0.250000  0.771099  1
  Li  Li5  1  0.601369  0.250000  0.068368  1
  Li  Li6  1  0.898506  0.750000  0.568168  1
  Li  Li7  1  0.950545  0.750000  0.271213  1
  Cu  Cu8  1  0.182661  0.250000  0.049120  1
  Cu  Cu9  1  0.318017  0.750000  0.548801  1
  Cu  Cu10  1  0.681914  0.250000  0.451182  1
  Cu  Cu11  1  0.817108  0.750000  0.951060  1
  F  F12  1  0.999860  0.999884  0.999933  1
  F  F13  1  0.999860  0.500116  0.999932  1
  F  F14  1  0.097358  0.250000  0.232732  1
  F  F15  1  0.135293  0.494616  0.588507  1
  F  F16  1  0.135293  0.005384  0.588507  1
  F  F17  1  0.236820  0.750000  0.358349  1
  F  F18  1  0.264152  0.250000  0.857016  1
  F  F19  1  0.364634  0.504856  0.088495  1
  F  F20  1  0.364634  0.995144  0.088495  1
  F  F21  1  0.402529  0.750000  0.731402  1
  F  F22  1  0.499903  0.999806  0.500051  1
  F  F23  1  0.499902  0.500194  0.500051  1
  F  F24  1  0.597561  0.250000  0.268401  1
  F  F25  1  0.635679  0.004757  0.911465  1
  F  F26  1  0.635679  0.495243  0.911465  1
  F  F27  1  0.736101  0.750000  0.142629  1
  F  F28  1  0.763344  0.250000  0.641988  1
  F  F29  1  0.864801  0.505771  0.411488  1
  F  F30  1  0.864801  0.994229  0.411488  1
  F  F31  1  0.902645  0.750000  0.767346  1
