# generated using pymatgen
data_Li2Mn3CrO8
_symmetry_space_group_name_H-M   'P 1'
_cell_length_a   5.97248203
_cell_length_b   5.80410697
_cell_length_c   6.01193951
_cell_angle_alpha   118.92399070
_cell_angle_beta   120.32718037
_cell_angle_gamma   90.20745392
_symmetry_Int_Tables_number   1
_chemical_formula_structural   Li2Mn3CrO8
_chemical_formula_sum   'Li2 Mn3 Cr1 O8'
_cell_volume   148.73357730
_cell_formula_units_Z   1
loop_
 _symmetry_equiv_pos_site_id
 _symmetry_equiv_pos_as_xyz
  1  'x, y, z'
loop_
 _atom_site_type_symbol
 _atom_site_label
 _atom_site_symmetry_multiplicity
 _atom_site_fract_x
 _atom_site_fract_y
 _atom_site_fract_z
 _atom_site_occupancy
  Li  Li0  1  0.499999  0.999993  0.999993  1
  Li  Li1  1  0.999978  0.999989  0.499977  1
  Mn  Mn2  1  0.999977  0.500000  0.999989  1
  Mn  Mn3  1  0.500002  -0.000005  0.500012  1
  Mn  Mn4  1  0.500010  0.500018  0.500023  1
  Cr  Cr5  1  0.000042  -0.000003  0.000005  1
  O  O6  1  0.753904  0.229689  0.949774  1
  O  O7  1  0.753816  0.726181  0.957887  1
  O  O8  1  0.708387  0.236957  0.480622  1
  O  O9  1  0.734890  0.768753  0.530663  1
  O  O10  1  0.265113  0.231240  0.469335  1
  O  O11  1  0.291587  0.763029  0.519369  1
  O  O12  1  0.246199  0.273866  0.042129  1
  O  O13  1  0.246098  0.770294  0.050223  1
