# generated using pymatgen
data_Ca2Ti6N2O11
_symmetry_space_group_name_H-M   'P 1'
_cell_length_a   3.78534104
_cell_length_b   7.70335473
_cell_length_c   9.31610737
_cell_angle_alpha   81.63785071
_cell_angle_beta   89.89843635
_cell_angle_gamma   75.58164125
_symmetry_Int_Tables_number   1
_chemical_formula_structural   Ca2Ti6N2O11
_chemical_formula_sum   'Ca2 Ti6 N2 O11'
_cell_volume   260.13452765
_cell_formula_units_Z   1
loop_
 _symmetry_equiv_pos_site_id
 _symmetry_equiv_pos_as_xyz
  1  'x, y, z'
loop_
 _atom_site_type_symbol
 _atom_site_label
 _atom_site_symmetry_multiplicity
 _atom_site_fract_x
 _atom_site_fract_y
 _atom_site_fract_z
 _atom_site_occupancy
  Ca  Ca0  1  0.549842  0.911640  0.756196  1
  Ca  Ca1  1  0.461467  0.090868  0.246419  1
  Ti  Ti2  1  0.126841  0.750191  0.094459  1
  Ti  Ti3  1  0.167816  0.669642  0.423542  1
  Ti  Ti4  1  0.231716  0.539903  0.759006  1
  Ti  Ti5  1  0.776751  0.455602  0.242828  1
  Ti  Ti6  1  0.844239  0.320677  0.559045  1
  Ti  Ti7  1  0.885282  0.231917  0.910788  1
  N  N8  1  0.237452  0.532153  0.247861  1
  N  N9  1  0.888541  0.240173  0.383698  1
  O  O10  1  0.060575  0.880379  0.294408  1
  O  O11  1  0.125043  0.751403  0.616380  1
  O  O12  1  0.159385  0.688093  0.900113  1
  O  O13  1  0.632760  0.735418  0.107749  1
  O  O14  1  0.702811  0.601711  0.434360  1
  O  O15  1  0.759502  0.485686  0.760767  1
  O  O16  1  0.303995  0.401274  0.574588  1
  O  O17  1  0.363983  0.276506  0.876810  1
  O  O18  1  0.841959  0.322602  0.088774  1
  O  O19  1  0.947472  0.118623  0.708423  1
  O  O20  1  0.992632  0.002852  0.003514  1
