# generated using pymatgen
data_Li3V3P8O29
_symmetry_space_group_name_H-M   'P 1'
_cell_length_a   9.74342402
_cell_length_b   9.71801866
_cell_length_c   14.32598153
_cell_angle_alpha   89.88891706
_cell_angle_beta   90.64382169
_cell_angle_gamma   60.11759427
_symmetry_Int_Tables_number   1
_chemical_formula_structural   Li3V3P8O29
_chemical_formula_sum   'Li6 V6 P16 O58'
_cell_volume   1176.01787299
_cell_formula_units_Z   2
loop_
 _symmetry_equiv_pos_site_id
 _symmetry_equiv_pos_as_xyz
  1  'x, y, z'
loop_
 _atom_site_type_symbol
 _atom_site_label
 _atom_site_symmetry_multiplicity
 _atom_site_fract_x
 _atom_site_fract_y
 _atom_site_fract_z
 _atom_site_occupancy
  Li  Li0  1  0.770701  0.322078  0.048125  1
  Li  Li1  1  0.322559  0.908368  0.057562  1
  Li  Li2  1  0.675752  0.230476  0.448328  1
  Li  Li3  1  0.331036  0.766774  0.562559  1
  Li  Li4  1  0.977580  0.968622  0.993252  1
  Li  Li5  1  0.000470  0.003803  0.514828  1
  V  V6  1  0.565030  0.437187  0.248800  1
  V  V7  1  0.432266  0.564406  0.753347  1
  V  V8  1  0.566842  0.996642  0.750482  1
  V  V9  1  0.437548  0.005121  0.249990  1
  V  V10  1  0.997477  0.563686  0.252327  1
  V  V11  1  0.000369  0.439499  0.744984  1
  P  P12  1  0.919316  0.778405  0.838967  1
  P  P13  1  0.781522  0.915851  0.338187  1
  P  P14  1  0.918747  0.300580  0.345402  1
  P  P15  1  0.665018  0.666869  0.132882  1
  P  P16  1  0.660799  0.668840  0.632212  1
  P  P17  1  0.781715  0.312263  0.837620  1
  P  P18  1  0.686180  0.223427  0.660129  1
  P  P19  1  0.311259  0.913619  0.844981  1
  P  P20  1  0.694784  0.085309  0.154294  1
  P  P21  1  0.317472  0.775070  0.343484  1
  P  P22  1  0.216478  0.694305  0.165201  1
  P  P23  1  0.336609  0.334542  0.365718  1
  P  P24  1  0.334072  0.329211  0.866015  1
  P  P25  1  0.081859  0.702592  0.655555  1
  P  P26  1  0.217053  0.086143  0.663826  1
  P  P27  1  0.081489  0.223089  0.161348  1
  O  O28  1  0.008993  0.804769  0.572197  1
  O  O29  1  0.914725  0.740644  0.333803  1
  O  O30  1  0.786958  0.013269  0.069358  1
  O  O31  1  0.742128  0.911737  0.829816  1
  O  O32  1  0.926226  0.616758  0.826253  1
  O  O33  1  0.810169  0.666841  0.181126  1
  O  O34  1  0.922998  0.458138  0.331041  1
  O  O35  1  0.990723  0.216764  0.079025  1
  O  O36  1  0.918519  0.348129  0.828820  1
  O  O37  1  0.661442  0.814590  0.679281  1
  O  O38  1  0.619810  0.918709  0.324329  1
  O  O39  1  0.810408  0.523178  0.677473  1
  O  O40  1  0.666762  0.651380  0.029716  1
  O  O41  1  0.653854  0.673271  0.528665  1
  O  O42  1  0.669885  0.513606  0.177395  1
  O  O43  1  0.467770  0.913917  0.830397  1
  O  O44  1  0.513460  0.815984  0.169873  1
  O  O45  1  0.741351  0.340992  0.334466  1
  O  O46  1  0.799247  0.202346  0.749044  1
  O  O47  1  0.769197  0.210463  0.570818  1
  O  O48  1  0.791444  0.228729  0.926977  1
  O  O49  1  0.620981  0.469300  0.824304  1
  O  O50  1  0.510779  0.669274  0.672551  1
  O  O51  1  0.654566  0.262478  0.163426  1
  O  O52  1  0.474304  0.617833  0.324574  1
  O  O53  1  0.348551  0.915148  0.325532  1
  O  O54  1  0.801558  0.997982  0.245607  1
  O  O55  1  0.788442  0.005058  0.420431  1
  O  O56  1  0.197676  0.995208  0.585748  1
  O  O57  1  0.651473  0.084740  0.669278  1
  O  O58  1  0.531632  0.382338  0.673716  1
  O  O59  1  0.344227  0.740563  0.829208  1
  O  O60  1  0.488228  0.330103  0.323425  1
  O  O61  1  0.378492  0.536487  0.175770  1
  O  O62  1  0.207277  0.795611  0.084740  1
  O  O63  1  0.248497  0.782643  0.436254  1
  O  O64  1  0.197153  0.789689  0.261748  1
  O  O65  1  0.261107  0.655253  0.663450  1
  O  O66  1  0.478367  0.183236  0.820407  1
  O  O67  1  0.538693  0.080339  0.169096  1
  O  O68  1  0.338067  0.478021  0.821662  1
  O  O69  1  0.335514  0.330933  0.969126  1
  O  O70  1  0.349646  0.324779  0.468827  1
  O  O71  1  0.188591  0.480680  0.321993  1
  O  O72  1  0.379771  0.076157  0.671371  1
  O  O73  1  0.335756  0.187477  0.317474  1
  O  O74  1  0.081110  0.655452  0.168415  1
  O  O75  1  0.002690  0.802653  0.748581  1
  O  O76  1  0.995801  0.796974  0.923716  1
  O  O77  1  0.072859  0.547663  0.666190  1
  O  O78  1  0.186457  0.336542  0.816758  1
  O  O79  1  0.078765  0.383260  0.175463  1
  O  O80  1  0.257176  0.085875  0.161149  1
  O  O81  1  0.233425  0.974903  0.936198  1
  O  O82  1  0.192822  0.014954  0.761388  1
  O  O83  1  0.084283  0.262878  0.664378  1
  O  O84  1  0.989947  0.205079  0.430997  1
  O  O85  1  0.006172  0.196120  0.254561  1
