# generated using pymatgen
data_ZrH6O3F4
_symmetry_space_group_name_H-M   'P 1'
_cell_length_a   5.99548440
_cell_length_b   7.01622363
_cell_length_c   7.61988763
_cell_angle_alpha   89.72726311
_cell_angle_beta   104.94105118
_cell_angle_gamma   118.63569848
_symmetry_Int_Tables_number   1
_chemical_formula_structural   ZrH6O3F4
_chemical_formula_sum   'Zr2 H12 O6 F8'
_cell_volume   269.13731856
_cell_formula_units_Z   2
loop_
 _symmetry_equiv_pos_site_id
 _symmetry_equiv_pos_as_xyz
  1  'x, y, z'
loop_
 _atom_site_type_symbol
 _atom_site_label
 _atom_site_symmetry_multiplicity
 _atom_site_fract_x
 _atom_site_fract_y
 _atom_site_fract_z
 _atom_site_occupancy
  Zr  Zr0  1  0.732667  0.853161  0.781642  1
  Zr  Zr1  1  0.267333  0.146839  0.218358  1
  H  H2  1  0.980952  0.784652  0.522752  1
  H  H3  1  0.019048  0.215348  0.477248  1
  H  H4  1  0.781146  0.550736  0.565558  1
  H  H5  1  0.218854  0.449264  0.434442  1
  H  H6  1  0.418142  0.060389  0.822495  1
  H  H7  1  0.581858  0.939611  0.177505  1
  H  H8  1  0.552589  0.165148  0.660727  1
  H  H9  1  0.447411  0.834852  0.339273  1
  H  H10  1  0.313232  0.556305  0.934799  1
  H  H11  1  0.686768  0.443695  0.065201  1
  H  H12  1  0.181198  0.671956  0.787108  1
  H  H13  1  0.818802  0.328044  0.212892  1
  O  O14  1  0.919209  0.703088  0.624651  1
  O  O15  1  0.080791  0.296912  0.375349  1
  O  O16  1  0.544129  0.068695  0.757297  1
  O  O17  1  0.455871  0.931305  0.242703  1
  O  O18  1  0.345185  0.668590  0.849198  1
  O  O19  1  0.654815  0.331410  0.150802  1
  F  F20  1  0.729877  0.591358  0.897806  1
  F  F21  1  0.270123  0.408642  0.102194  1
  F  F22  1  0.165837  0.996849  0.940339  1
  F  F23  1  0.834163  0.003151  0.059661  1
  F  F24  1  0.936650  0.101816  0.647716  1
  F  F25  1  0.063350  0.898184  0.352284  1
  F  F26  1  0.454856  0.700957  0.524548  1
  F  F27  1  0.545144  0.299043  0.475452  1
