# generated using pymatgen
data_VO2
_symmetry_space_group_name_H-M   'P 1'
_cell_length_a   5.88989473
_cell_length_b   5.89122355
_cell_length_c   5.88735879
_cell_angle_alpha   118.67410996
_cell_angle_beta   87.64444039
_cell_angle_gamma   61.37901672
_symmetry_Int_Tables_number   1
_chemical_formula_structural   VO2
_chemical_formula_sum   'V4 O8'
_cell_volume   147.27268053
_cell_formula_units_Z   4
loop_
 _symmetry_equiv_pos_site_id
 _symmetry_equiv_pos_as_xyz
  1  'x, y, z'
loop_
 _atom_site_type_symbol
 _atom_site_label
 _atom_site_symmetry_multiplicity
 _atom_site_fract_x
 _atom_site_fract_y
 _atom_site_fract_z
 _atom_site_occupancy
  V  V0  1  0.500283  0.500050  0.000069  1
  V  V1  1  0.499682  0.500237  0.500247  1
  V  V2  1  0.000002  0.999740  0.499978  1
  V  V3  1  0.499987  0.999948  0.499771  1
  O  O4  1  0.267314  0.529884  0.261192  1
  O  O5  1  0.261859  0.971241  0.268631  1
  O  O6  1  0.267957  0.970387  0.702761  1
  O  O7  1  0.702626  0.528667  0.267585  1
  O  O8  1  0.297354  0.471465  0.732500  1
  O  O9  1  0.731914  0.029687  0.297214  1
  O  O10  1  0.738250  0.028625  0.731247  1
  O  O11  1  0.732772  0.470069  0.738806  1
