# generated using pymatgen
data_BaCa2I6
_symmetry_space_group_name_H-M   'P 1'
_cell_length_a   14.06692184
_cell_length_b   14.06300588
_cell_length_c   7.27258271
_cell_angle_alpha   90.01345830
_cell_angle_beta   90.00000000
_cell_angle_gamma   120.00921176
_symmetry_Int_Tables_number   1
_chemical_formula_structural   BaCa2I6
_chemical_formula_sum   'Ba3 Ca6 I18'
_cell_volume   1245.82257802
_cell_formula_units_Z   3
loop_
 _symmetry_equiv_pos_site_id
 _symmetry_equiv_pos_as_xyz
  1  'x, y, z'
loop_
 _atom_site_type_symbol
 _atom_site_label
 _atom_site_symmetry_multiplicity
 _atom_site_fract_x
 _atom_site_fract_y
 _atom_site_fract_z
 _atom_site_occupancy
  Ba  Ba0  1  0.333390  0.666793  0.495960  1
  Ba  Ba1  1  0.000228  0.000000  0.000000  1
  Ba  Ba2  1  0.666599  0.333207  0.504040  1
  Ca  Ca3  1  0.999903  0.649702  0.999986  1
  Ca  Ca4  1  0.999968  0.315712  0.499955  1
  Ca  Ca5  1  0.350202  0.350298  0.000014  1
  Ca  Ca6  1  0.315697  0.000000  0.500000  1
  Ca  Ca7  1  0.684256  0.684288  0.500045  1
  Ca  Ca8  1  0.649841  0.000000  0.000000  1
  I  I9  1  0.101526  0.863317  0.742903  1
  I  I10  1  0.217553  0.789335  0.239127  1
  I  I11  1  0.096510  0.529613  0.754838  1
  I  I12  1  0.433070  0.903716  0.755028  1
  I  I13  1  0.210537  0.428326  0.238931  1
  I  I14  1  0.136573  0.238114  0.742838  1
  I  I15  1  0.571655  0.782156  0.238807  1
  I  I16  1  0.238209  0.136683  0.257097  1
  I  I17  1  0.470443  0.566848  0.754686  1
  I  I18  1  0.762083  0.898660  0.742943  1
  I  I19  1  0.428218  0.210665  0.760873  1
  I  I20  1  0.566897  0.470387  0.245162  1
  I  I21  1  0.529355  0.096284  0.244972  1
  I  I22  1  0.782211  0.571674  0.761069  1
  I  I23  1  0.898459  0.761886  0.257162  1
  I  I24  1  0.789500  0.217844  0.761193  1
  I  I25  1  0.903595  0.433152  0.245314  1
  I  I26  1  0.863422  0.101340  0.257057  1
