# generated using pymatgen
data_LiMnB2O5
_symmetry_space_group_name_H-M   'P 1'
_cell_length_a   6.74102459
_cell_length_b   9.47510230
_cell_length_c   6.49295069
_cell_angle_alpha   90.00000000
_cell_angle_beta   73.75706712
_cell_angle_gamma   90.00000000
_symmetry_Int_Tables_number   1
_chemical_formula_structural   LiMnB2O5
_chemical_formula_sum   'Li4 Mn4 B8 O20'
_cell_volume   398.16338481
_cell_formula_units_Z   4
loop_
 _symmetry_equiv_pos_site_id
 _symmetry_equiv_pos_as_xyz
  1  'x, y, z'
loop_
 _atom_site_type_symbol
 _atom_site_label
 _atom_site_symmetry_multiplicity
 _atom_site_fract_x
 _atom_site_fract_y
 _atom_site_fract_z
 _atom_site_occupancy
  Li  Li0  1  0.245093  0.812427  0.200437  1
  Li  Li1  1  0.245093  0.687573  0.700437  1
  Li  Li2  1  0.754907  0.312427  0.299563  1
  Li  Li3  1  0.754907  0.187573  0.799563  1
  Mn  Mn4  1  0.180606  0.438932  0.318095  1
  Mn  Mn5  1  0.180606  0.061068  0.818095  1
  Mn  Mn6  1  0.819394  0.938932  0.181905  1
  Mn  Mn7  1  0.819394  0.561068  0.681905  1
  B  B8  1  0.140780  0.131208  0.293834  1
  B  B9  1  0.140780  0.368792  0.793834  1
  B  B10  1  0.494202  0.047596  0.277362  1
  B  B11  1  0.505798  0.547596  0.222638  1
  B  B12  1  0.494202  0.452404  0.777362  1
  B  B13  1  0.505798  0.952404  0.722638  1
  B  B14  1  0.859220  0.631208  0.206166  1
  B  B15  1  0.859220  0.868792  0.706166  1
  O  O16  1  0.957510  0.757372  0.175626  1
  O  O17  1  0.090915  0.018152  0.181226  1
  O  O18  1  0.957510  0.742628  0.675626  1
  O  O19  1  0.090915  0.481848  0.681226  1
  O  O20  1  0.308787  0.112676  0.379109  1
  O  O21  1  0.320744  0.618704  0.256007  1
  O  O22  1  0.308787  0.387324  0.879109  1
  O  O23  1  0.519690  0.908002  0.217342  1
  O  O24  1  0.320744  0.881296  0.756007  1
  O  O25  1  0.480310  0.408002  0.282658  1
  O  O26  1  0.519690  0.591998  0.717342  1
  O  O27  1  0.679256  0.118704  0.243993  1
  O  O28  1  0.480310  0.091998  0.782658  1
  O  O29  1  0.691213  0.612676  0.120891  1
  O  O30  1  0.679256  0.381296  0.743993  1
  O  O31  1  0.691213  0.887324  0.620891  1
  O  O32  1  0.909085  0.518152  0.318774  1
  O  O33  1  0.042490  0.257372  0.324374  1
  O  O34  1  0.909085  0.981848  0.818774  1
  O  O35  1  0.042490  0.242628  0.824374  1
