# generated using pymatgen
data_Li4Ti4Mn(Co2O9)2
_symmetry_space_group_name_H-M   'P 1'
_cell_length_a   9.00908088
_cell_length_b   24.67093154
_cell_length_c   2.88783965
_cell_angle_alpha   89.97972775
_cell_angle_beta   89.93705518
_cell_angle_gamma   90.01515567
_symmetry_Int_Tables_number   1
_chemical_formula_structural   Li4Ti4Mn(Co2O9)2
_chemical_formula_sum   'Li8 Ti8 Mn2 Co8 O36'
_cell_volume   641.85777163
_cell_formula_units_Z   2
loop_
 _symmetry_equiv_pos_site_id
 _symmetry_equiv_pos_as_xyz
  1  'x, y, z'
loop_
 _atom_site_type_symbol
 _atom_site_label
 _atom_site_symmetry_multiplicity
 _atom_site_fract_x
 _atom_site_fract_y
 _atom_site_fract_z
 _atom_site_occupancy
  Li  Li0  1  0.178270  0.994086  0.000056  1
  Li  Li1  1  0.203542  0.197894  0.999909  1
  Li  Li2  1  0.294981  0.697871  0.000057  1
  Li  Li3  1  0.321835  0.494150  0.999960  1
  Li  Li4  1  0.678202  0.505893  0.000035  1
  Li  Li5  1  0.704194  0.302108  0.999933  1
  Li  Li6  1  0.796231  0.801996  0.000004  1
  Li  Li7  1  0.821739  0.005881  0.999948  1
  Ti  Ti8  1  0.017937  0.103001  0.999939  1
  Ti  Ti9  1  0.152728  0.806398  0.500002  1
  Ti  Ti10  1  0.347055  0.306629  0.500054  1
  Ti  Ti11  1  0.482266  0.603147  0.000002  1
  Ti  Ti12  1  0.518126  0.396955  0.000007  1
  Ti  Ti13  1  0.652635  0.693558  0.499967  1
  Ti  Ti14  1  0.847659  0.193453  0.499889  1
  Ti  Ti15  1  0.982244  0.896875  0.000082  1
  Mn  Mn16  1  0.000077  0.500030  0.000008  1
  Mn  Mn17  1  0.500100  0.999899  0.000059  1
  Co  Co18  1  0.010380  0.314561  0.999703  1
  Co  Co19  1  0.135891  0.585147  0.499926  1
  Co  Co20  1  0.364069  0.084988  0.499572  1
  Co  Co21  1  0.489589  0.814586  0.000134  1
  Co  Co22  1  0.509571  0.186505  0.999162  1
  Co  Co23  1  0.635927  0.914847  0.500106  1
  Co  Co24  1  0.864281  0.414857  0.499737  1
  Co  Co25  1  0.989428  0.685391  0.999969  1
  O  O26  1  0.002090  0.422203  0.999525  1
  O  O27  1  0.997947  0.577793  0.000233  1
  O  O28  1  0.037590  0.943716  0.499745  1
  O  O29  1  0.056378  0.161473  0.499894  1
  O  O30  1  0.111994  0.660529  0.499772  1
  O  O31  1  0.117398  0.755345  0.000067  1
  O  O32  1  0.145526  0.505811  0.499757  1
  O  O33  1  0.134418  0.291243  0.501248  1
  O  O34  1  0.178129  0.858789  0.999607  1
  O  O35  1  0.222410  0.085365  0.000275  1
  O  O36  1  0.277366  0.585436  0.999740  1
  O  O37  1  0.321717  0.358843  0.000444  1
  O  O38  1  0.365509  0.791187  0.499613  1
  O  O39  1  0.354503  0.005793  0.500431  1
  O  O40  1  0.382573  0.255562  0.000235  1
  O  O41  1  0.388795  0.160342  0.496228  1
  O  O42  1  0.443793  0.661417  0.500175  1
  O  O43  1  0.462599  0.443731  0.499972  1
  O  O44  1  0.501727  0.077377  0.999615  1
  O  O45  1  0.498020  0.922132  0.000410  1
  O  O46  1  0.537439  0.556291  0.500044  1
  O  O47  1  0.556307  0.338593  0.499924  1
  O  O48  1  0.611781  0.839540  0.500278  1
  O  O49  1  0.617746  0.744606  0.999918  1
  O  O50  1  0.645558  0.994180  0.499683  1
  O  O51  1  0.634244  0.208779  0.504271  1
  O  O52  1  0.678329  0.641167  0.999906  1
  O  O53  1  0.722669  0.414559  0.000097  1
  O  O54  1  0.777480  0.914583  0.999830  1
  O  O55  1  0.822006  0.141198  0.000732  1
  O  O56  1  0.865659  0.708719  0.500072  1
  O  O57  1  0.854602  0.494165  0.500279  1
  O  O58  1  0.882482  0.244551  0.000280  1
  O  O59  1  0.888136  0.339496  0.499022  1
  O  O60  1  0.943680  0.838525  0.500197  1
  O  O61  1  0.962443  0.056256  0.500261  1
