# generated using pymatgen
data_Li2VCrP2(HO5)2
_symmetry_space_group_name_H-M   'P 1'
_cell_length_a   5.40501919
_cell_length_b   7.35395052
_cell_length_c   5.16858354
_cell_angle_alpha   108.60582676
_cell_angle_beta   97.88337917
_cell_angle_gamma   106.18687974
_symmetry_Int_Tables_number   1
_chemical_formula_structural   Li2VCrP2(HO5)2
_chemical_formula_sum   'Li2 V1 Cr1 P2 H2 O10'
_cell_volume   181.12487054
_cell_formula_units_Z   1
loop_
 _symmetry_equiv_pos_site_id
 _symmetry_equiv_pos_as_xyz
  1  'x, y, z'
loop_
 _atom_site_type_symbol
 _atom_site_label
 _atom_site_symmetry_multiplicity
 _atom_site_fract_x
 _atom_site_fract_y
 _atom_site_fract_z
 _atom_site_occupancy
  Li  Li0  1  0.397347  0.822318  0.745876  1
  Li  Li1  1  0.602653  0.177682  0.254124  1
  V  V2  1  0.000000  0.000000  0.000000  1
  Cr  Cr3  1  0.000000  0.500000  0.000000  1
  P  P4  1  0.362420  0.234077  0.678476  1
  P  P5  1  0.637580  0.765923  0.321524  1
  H  H6  1  0.057967  0.340629  0.360076  1
  H  H7  1  0.942033  0.659371  0.639924  1
  O  O8  1  0.047411  0.722589  0.838581  1
  O  O9  1  0.203339  0.381745  0.727264  1
  O  O10  1  0.342293  0.657709  0.303933  1
  O  O11  1  0.255009  0.074501  0.372958  1
  O  O12  1  0.340536  0.119936  0.887934  1
  O  O13  1  0.659464  0.880064  0.112066  1
  O  O14  1  0.744991  0.925499  0.627042  1
  O  O15  1  0.657707  0.342291  0.696067  1
  O  O16  1  0.796661  0.618255  0.272736  1
  O  O17  1  0.952589  0.277411  0.161419  1
