# generated using pymatgen
data_NaMnPCO7
_symmetry_space_group_name_H-M   'P 1'
_cell_length_a   9.11439009
_cell_length_b   8.13385488
_cell_length_c   8.15830805
_cell_angle_alpha   100.40872429
_cell_angle_beta   89.73613495
_cell_angle_gamma   87.46272558
_symmetry_Int_Tables_number   1
_chemical_formula_structural   NaMnPCO7
_chemical_formula_sum   'Na4 Mn4 P4 C4 O28'
_cell_volume   594.23223365
_cell_formula_units_Z   4
loop_
 _symmetry_equiv_pos_site_id
 _symmetry_equiv_pos_as_xyz
  1  'x, y, z'
loop_
 _atom_site_type_symbol
 _atom_site_label
 _atom_site_symmetry_multiplicity
 _atom_site_fract_x
 _atom_site_fract_y
 _atom_site_fract_z
 _atom_site_occupancy
  Na  Na0  1  0.755234  0.603800  0.149884  1
  Na  Na1  1  0.754593  0.897528  0.856694  1
  Na  Na2  1  0.238916  0.105026  0.133822  1
  Na  Na3  1  0.237765  0.605650  0.634647  1
  Mn  Mn4  1  0.660009  0.477110  0.727487  1
  Mn  Mn5  1  0.656032  0.988943  0.239055  1
  Mn  Mn6  1  0.342886  0.523302  0.261905  1
  Mn  Mn7  1  0.342158  0.024678  0.759810  1
  P  P8  1  0.566102  0.267136  0.014120  1
  P  P9  1  0.566461  0.765095  0.516346  1
  P  P10  1  0.433398  0.239320  0.483760  1
  P  P11  1  0.434440  0.735148  0.979114  1
  C  C12  1  0.920587  0.006216  0.263890  1
  C  C13  1  0.922203  0.507972  0.765443  1
  C  C14  1  0.080522  0.487672  0.240894  1
  C  C15  1  0.079092  0.992470  0.736558  1
  O  O16  1  0.948177  0.465555  0.231571  1
  O  O17  1  0.946539  0.973662  0.724881  1
  O  O18  1  0.861384  0.394988  0.654607  1
  O  O19  1  0.853676  0.893547  0.152945  1
  O  O20  1  0.821497  0.101681  0.359657  1
  O  O21  1  0.817357  0.602347  0.860072  1
  O  O22  1  0.668375  0.132177  0.075399  1
  O  O23  1  0.674512  0.641379  0.584518  1
  O  O24  1  0.667510  0.332251  0.890140  1
  O  O25  1  0.661218  0.822870  0.380449  1
  O  O26  1  0.524850  0.413212  0.161064  1
  O  O27  1  0.574215  0.311715  0.560672  1
  O  O28  1  0.578080  0.808469  0.055519  1
  O  O29  1  0.524682  0.913155  0.661069  1
  O  O30  1  0.473437  0.097282  0.332119  1
  O  O31  1  0.424866  0.190585  0.938752  1
  O  O32  1  0.425502  0.684632  0.444859  1
  O  O33  1  0.474975  0.593548  0.828533  1
  O  O34  1  0.331251  0.175587  0.608399  1
  O  O35  1  0.329820  0.372189  0.421051  1
  O  O36  1  0.335497  0.674908  0.108835  1
  O  O37  1  0.332609  0.871318  0.919440  1
  O  O38  1  0.182965  0.395491  0.144008  1
  O  O39  1  0.181460  0.899069  0.640369  1
  O  O40  1  0.142761  0.106640  0.846369  1
  O  O41  1  0.143223  0.605214  0.347625  1
  O  O42  1  0.054460  0.018834  0.273435  1
  O  O43  1  0.054708  0.528527  0.782309  1
