# generated using pymatgen
data_Li4V3P8O29
_symmetry_space_group_name_H-M   'P 1'
_cell_length_a   9.77555805
_cell_length_b   9.78586457
_cell_length_c   14.10083852
_cell_angle_alpha   90.17387852
_cell_angle_beta   90.14215361
_cell_angle_gamma   59.88084336
_symmetry_Int_Tables_number   1
_chemical_formula_structural   Li4V3P8O29
_chemical_formula_sum   'Li8 V6 P16 O58'
_cell_volume   1166.78638654
_cell_formula_units_Z   2
loop_
 _symmetry_equiv_pos_site_id
 _symmetry_equiv_pos_as_xyz
  1  'x, y, z'
loop_
 _atom_site_type_symbol
 _atom_site_label
 _atom_site_symmetry_multiplicity
 _atom_site_fract_x
 _atom_site_fract_y
 _atom_site_fract_z
 _atom_site_occupancy
  Li  Li0  1  0.767487  0.898771  0.554633  1
  Li  Li1  1  0.773618  0.306453  0.057915  1
  Li  Li2  1  0.322835  0.906192  0.064402  1
  Li  Li3  1  0.672760  0.233619  0.441603  1
  Li  Li4  1  0.330622  0.765932  0.557515  1
  Li  Li5  1  0.220569  0.685294  0.945788  1
  Li  Li6  1  0.089197  0.231959  0.941097  1
  Li  Li7  1  0.023533  0.022872  0.494410  1
  V  V8  1  0.564822  0.432843  0.250459  1
  V  V9  1  0.432136  0.566116  0.750751  1
  V  V10  1  0.568707  0.999296  0.755094  1
  V  V11  1  0.432305  0.004661  0.249116  1
  V  V12  1  0.001114  0.566412  0.255437  1
  V  V13  1  0.994661  0.438887  0.740969  1
  P  P14  1  0.916142  0.768152  0.843367  1
  P  P15  1  0.771895  0.915802  0.340219  1
  P  P16  1  0.916138  0.305682  0.342641  1
  P  P17  1  0.668607  0.661493  0.131306  1
  P  P18  1  0.662199  0.674187  0.628265  1
  P  P19  1  0.771508  0.319479  0.839040  1
  P  P20  1  0.684801  0.224637  0.658157  1
  P  P21  1  0.318003  0.912983  0.845220  1
  P  P22  1  0.687441  0.084128  0.155436  1
  P  P23  1  0.314982  0.776123  0.341120  1
  P  P24  1  0.225040  0.682076  0.161695  1
  P  P25  1  0.334153  0.334186  0.370027  1
  P  P26  1  0.326000  0.334840  0.868926  1
  P  P27  1  0.082837  0.693994  0.657566  1
  P  P28  1  0.226149  0.083268  0.661241  1
  P  P29  1  0.084179  0.234176  0.157625  1
  O  O30  1  0.993512  0.788849  0.574039  1
  O  O31  1  0.915961  0.744802  0.333378  1
  O  O32  1  0.771433  0.003260  0.069001  1
  O  O33  1  0.744192  0.910564  0.835839  1
  O  O34  1  0.909767  0.615626  0.820906  1
  O  O35  1  0.813823  0.656523  0.183285  1
  O  O36  1  0.923524  0.459884  0.334769  1
  O  O37  1  0.995425  0.250277  0.067345  1
  O  O38  1  0.918866  0.340557  0.832874  1
  O  O39  1  0.673583  0.816852  0.672340  1
  O  O40  1  0.619173  0.911514  0.329005  1
  O  O41  1  0.809996  0.520759  0.674154  1
  O  O42  1  0.681355  0.640012  0.026811  1
  O  O43  1  0.675762  0.675041  0.523428  1
  O  O44  1  0.665453  0.511871  0.176187  1
  O  O45  1  0.480091  0.899334  0.823511  1
  O  O46  1  0.515014  0.812520  0.164222  1
  O  O47  1  0.740016  0.342839  0.338194  1
  O  O48  1  0.792842  0.207080  0.749692  1
  O  O49  1  0.771350  0.208164  0.568161  1
  O  O50  1  0.762523  0.250498  0.930086  1
  O  O51  1  0.618787  0.480698  0.817653  1
  O  O52  1  0.509488  0.679772  0.664822  1
  O  O53  1  0.657660  0.258401  0.162758  1
  O  O54  1  0.471571  0.617448  0.325989  1
  O  O55  1  0.346653  0.913766  0.328692  1
  O  O56  1  0.791171  0.007098  0.251777  1
  O  O57  1  0.779954  0.995976  0.429853  1
  O  O58  1  0.209522  0.994478  0.580110  1
  O  O59  1  0.659554  0.078846  0.667098  1
  O  O60  1  0.528012  0.378810  0.671553  1
  O  O61  1  0.334086  0.747826  0.843463  1
  O  O62  1  0.490054  0.327510  0.327069  1
  O  O63  1  0.379101  0.521774  0.179865  1
  O  O64  1  0.241037  0.756871  0.072692  1
  O  O65  1  0.233829  0.785700  0.432178  1
  O  O66  1  0.204196  0.792956  0.251310  1
  O  O67  1  0.255637  0.660947  0.661151  1
  O  O68  1  0.474047  0.184439  0.821179  1
  O  O69  1  0.527645  0.090320  0.175372  1
  O  O70  1  0.327430  0.485256  0.831753  1
  O  O71  1  0.329618  0.322713  0.973737  1
  O  O72  1  0.345037  0.340869  0.474597  1
  O  O73  1  0.187540  0.486646  0.326039  1
  O  O74  1  0.385961  0.077226  0.671025  1
  O  O75  1  0.327856  0.193306  0.325956  1
  O  O76  1  0.082518  0.656760  0.164822  1
  O  O77  1  0.003754  0.792282  0.753008  1
  O  O78  1  0.003588  0.760440  0.930318  1
  O  O79  1  0.084977  0.533785  0.669695  1
  O  O80  1  0.178668  0.333783  0.825159  1
  O  O81  1  0.096121  0.382242  0.179933  1
  O  O82  1  0.249900  0.085267  0.157767  1
  O  O83  1  0.247370  0.001245  0.935779  1
  O  O84  1  0.202808  0.008753  0.758708  1
  O  O85  1  0.088860  0.257880  0.664392  1
  O  O86  1  0.995657  0.201080  0.424305  1
  O  O87  1  0.990299  0.211888  0.244051  1
