# generated using pymatgen
data_Na6Mn2C4SO16
_symmetry_space_group_name_H-M   'P 1'
_cell_length_a   10.03038904
_cell_length_b   10.03038885
_cell_length_c   10.03038893
_cell_angle_alpha   89.99999926
_cell_angle_beta   59.99999964
_cell_angle_gamma   59.99999938
_symmetry_Int_Tables_number   1
_chemical_formula_structural   Na6Mn2C4SO16
_chemical_formula_sum   'Na12 Mn4 C8 S2 O32'
_cell_volume   713.57285294
_cell_formula_units_Z   2
loop_
 _symmetry_equiv_pos_site_id
 _symmetry_equiv_pos_as_xyz
  1  'x, y, z'
loop_
 _atom_site_type_symbol
 _atom_site_label
 _atom_site_symmetry_multiplicity
 _atom_site_fract_x
 _atom_site_fract_y
 _atom_site_fract_z
 _atom_site_occupancy
  Na  Na0  1  0.750000  0.660616  0.910616  1
  Na  Na1  1  0.678768  0.910616  0.660616  1
  Na  Na2  1  0.750000  0.660616  0.339384  1
  Na  Na3  1  0.750000  0.089384  0.910616  1
  Na  Na4  1  0.821232  0.339384  0.089384  1
  Na  Na5  1  0.250000  0.910616  0.660616  1
  Na  Na6  1  0.178768  0.660616  0.910616  1
  Na  Na7  1  0.750000  0.089384  0.339384  1
  Na  Na8  1  0.250000  0.910616  0.089384  1
  Na  Na9  1  0.250000  0.339384  0.660616  1
  Na  Na10  1  0.321232  0.089384  0.339384  1
  Na  Na11  1  0.250000  0.339384  0.089384  1
  Mn  Mn12  1  0.500000  0.500000  0.500000  1
  Mn  Mn13  1  0.500000  0.500000  0.000000  1
  Mn  Mn14  1  0.000000  0.500000  0.500000  1
  Mn  Mn15  1  0.000000  0.000000  0.500000  1
  C  C16  1  0.941751  0.279125  0.720875  1
  C  C17  1  0.558249  0.662627  0.720875  1
  C  C18  1  0.941751  0.279125  0.337373  1
  C  C19  1  0.558249  0.279125  0.720875  1
  C  C20  1  0.441751  0.720875  0.279125  1
  C  C21  1  0.441751  0.337373  0.279125  1
  C  C22  1  0.058249  0.720875  0.662627  1
  C  C23  1  0.058249  0.720875  0.279125  1
  S  S24  1  0.750000  0.875000  0.125000  1
  S  S25  1  0.250000  0.125000  0.875000  1
  O  O26  1  0.938926  0.859964  0.664054  1
  O  O27  1  0.938926  0.701110  0.397022  1
  O  O28  1  0.804089  0.397022  0.859964  1
  O  O29  1  0.695911  0.664054  0.701110  1
  O  O30  1  0.962944  0.140036  0.701110  1
  O  O31  1  0.871903  0.935952  0.064048  1
  O  O32  1  0.962944  0.397022  0.335946  1
  O  O33  1  0.628097  0.935952  0.307855  1
  O  O34  1  0.871903  0.692145  0.064048  1
  O  O35  1  0.438926  0.664054  0.859964  1
  O  O36  1  0.537056  0.664054  0.602978  1
  O  O37  1  0.628097  0.935952  0.064048  1
  O  O38  1  0.537056  0.298890  0.859964  1
  O  O39  1  0.804089  0.298890  0.335946  1
  O  O40  1  0.695911  0.140036  0.602978  1
  O  O41  1  0.561074  0.602978  0.298890  1
  O  O42  1  0.438926  0.397022  0.701110  1
  O  O43  1  0.304089  0.859964  0.397022  1
  O  O44  1  0.195911  0.701110  0.664054  1
  O  O45  1  0.462944  0.701110  0.140036  1
  O  O46  1  0.371903  0.064048  0.935952  1
  O  O47  1  0.462944  0.335946  0.397022  1
  O  O48  1  0.561074  0.335946  0.140036  1
  O  O49  1  0.128097  0.307855  0.935952  1
  O  O50  1  0.371903  0.064048  0.692145  1
  O  O51  1  0.037056  0.602978  0.664054  1
  O  O52  1  0.128097  0.064048  0.935952  1
  O  O53  1  0.037056  0.859964  0.298890  1
  O  O54  1  0.304089  0.335946  0.298890  1
  O  O55  1  0.195911  0.602978  0.140036  1
  O  O56  1  0.061074  0.298890  0.602978  1
  O  O57  1  0.061074  0.140036  0.335946  1
