# generated using pymatgen
data_BaNb3NO7
_symmetry_space_group_name_H-M   'P 1'
_cell_length_a   9.11880239
_cell_length_b   10.77421949
_cell_length_c   3.87588170
_cell_angle_alpha   79.71673087
_cell_angle_beta   89.97447557
_cell_angle_gamma   91.45624705
_symmetry_Int_Tables_number   1
_chemical_formula_structural   BaNb3NO7
_chemical_formula_sum   'Ba2 Nb6 N2 O14'
_cell_volume   374.55505209
_cell_formula_units_Z   2
loop_
 _symmetry_equiv_pos_site_id
 _symmetry_equiv_pos_as_xyz
  1  'x, y, z'
loop_
 _atom_site_type_symbol
 _atom_site_label
 _atom_site_symmetry_multiplicity
 _atom_site_fract_x
 _atom_site_fract_y
 _atom_site_fract_z
 _atom_site_occupancy
  Ba  Ba0  1  0.251303  0.964617  0.017348  1
  Ba  Ba1  1  0.752006  0.033790  0.978492  1
  Nb  Nb2  1  0.071755  0.254219  0.364526  1
  Nb  Nb3  1  0.246580  0.481789  0.754351  1
  Nb  Nb4  1  0.442789  0.263288  0.368296  1
  Nb  Nb5  1  0.561688  0.736093  0.630610  1
  Nb  Nb6  1  0.763103  0.517789  0.242256  1
  Nb  Nb7  1  0.940678  0.735648  0.631191  1
  N  N8  1  0.250191  0.160122  0.411392  1
  N  N9  1  0.905447  0.688109  0.154874  1
  O  O10  1  0.070539  0.871519  0.562381  1
  O  O11  1  0.092143  0.310668  0.838216  1
  O  O12  1  0.099239  0.595229  0.697735  1
  O  O13  1  0.248331  0.426758  0.282161  1
  O  O14  1  0.405875  0.593259  0.702252  1
  O  O15  1  0.408053  0.309271  0.841788  1
  O  O16  1  0.435174  0.866547  0.567305  1
  O  O17  1  0.571060  0.132160  0.438799  1
  O  O18  1  0.588591  0.696081  0.151101  1
  O  O19  1  0.592158  0.410542  0.289015  1
  O  O20  1  0.741920  0.572843  0.713752  1
  O  O21  1  0.747833  0.841173  0.579861  1
  O  O22  1  0.907304  0.403834  0.298842  1
  O  O23  1  0.928145  0.128158  0.426453  1
