# generated using pymatgen
data_Fe5(OF4)2
_symmetry_space_group_name_H-M   'P 1'
_cell_length_a   4.80795125
_cell_length_b   13.57378448
_cell_length_c   5.78056026
_cell_angle_alpha   101.48152450
_cell_angle_beta   90.75543653
_cell_angle_gamma   89.44474209
_symmetry_Int_Tables_number   1
_chemical_formula_structural   Fe5(OF4)2
_chemical_formula_sum   'Fe10 O4 F16'
_cell_volume   369.66051958
_cell_formula_units_Z   2
loop_
 _symmetry_equiv_pos_site_id
 _symmetry_equiv_pos_as_xyz
  1  'x, y, z'
loop_
 _atom_site_type_symbol
 _atom_site_label
 _atom_site_symmetry_multiplicity
 _atom_site_fract_x
 _atom_site_fract_y
 _atom_site_fract_z
 _atom_site_occupancy
  Fe  Fe0  1  0.485303  0.008580  0.498759  1
  Fe  Fe1  1  0.489014  0.396743  0.277609  1
  Fe  Fe2  1  0.466931  0.203642  0.880732  1
  Fe  Fe3  1  0.517188  0.596153  0.718320  1
  Fe  Fe4  1  0.544610  0.795301  0.083262  1
  Fe  Fe5  1  0.013871  0.396177  0.809834  1
  Fe  Fe6  1  0.984931  0.802265  0.618489  1
  Fe  Fe7  1  0.012675  0.197429  0.407919  1
  Fe  Fe8  1  0.989874  0.606450  0.194790  1
  Fe  Fe9  1  0.992206  0.995011  -0.002658  1
  O  O10  1  0.798090  0.856252  0.896619  1
  O  O11  1  0.682972  0.665100  0.029725  1
  O  O12  1  0.316120  0.337626  0.992830  1
  O  O13  1  0.300288  0.145526  0.597967  1
  F  F14  1  0.792381  0.262942  0.729004  1
  F  F15  1  0.815558  0.665567  0.523188  1
  F  F16  1  0.800333  0.056857  0.317978  1
  F  F17  1  0.797439  0.462159  0.135268  1
  F  F18  1  0.700267  0.070617  0.834574  1
  F  F19  1  0.692198  0.452248  0.595533  1
  F  F20  1  0.703013  0.856951  0.408334  1
  F  F21  1  0.702610  0.260974  0.221719  1
  F  F22  1  0.295057  0.743121  0.786453  1
  F  F23  1  0.310358  0.928133  0.166392  1
  F  F24  1  0.311004  0.536889  0.374871  1
  F  F25  1  0.209667  0.136552  0.079589  1
  F  F26  1  0.199751  0.931421  0.662522  1
  F  F27  1  0.176143  0.539247  0.881660  1
  F  F28  1  0.207132  0.346483  0.473750  1
  F  F29  1  0.193012  0.747584  0.304966  1
