# generated using pymatgen
data_V4CrCoO12
_symmetry_space_group_name_H-M   'P 1'
_cell_length_a   6.75527019
_cell_length_b   6.75527043
_cell_length_c   5.81198377
_cell_angle_alpha   75.27768482
_cell_angle_beta   104.72231588
_cell_angle_gamma   95.51117878
_symmetry_Int_Tables_number   1
_chemical_formula_structural   V4CrCoO12
_chemical_formula_sum   'V4 Cr1 Co1 O12'
_cell_volume   247.95265653
_cell_formula_units_Z   1
loop_
 _symmetry_equiv_pos_site_id
 _symmetry_equiv_pos_as_xyz
  1  'x, y, z'
loop_
 _atom_site_type_symbol
 _atom_site_label
 _atom_site_symmetry_multiplicity
 _atom_site_fract_x
 _atom_site_fract_y
 _atom_site_fract_z
 _atom_site_occupancy
  V  V0  1  0.206694  0.607649  0.765707  1
  V  V1  1  0.389634  0.799911  0.256864  1
  V  V2  1  0.607649  0.206694  0.734293  1
  V  V3  1  0.799911  0.389634  0.243136  1
  Cr  Cr4  1  0.083456  0.083456  0.750000  1
  Co  Co5  1  0.915179  0.915179  0.250000  1
  O  O6  1  0.036113  0.807014  0.654166  1
  O  O7  1  0.089507  0.369529  0.787015  1
  O  O8  1  0.187660  0.971519  0.119917  1
  O  O9  1  0.364489  0.646738  0.556984  1
  O  O10  1  0.369529  0.089507  0.712985  1
  O  O11  1  0.361394  0.627159  0.055311  1
  O  O12  1  0.646738  0.364489  0.943016  1
  O  O13  1  0.626367  0.909986  0.282856  1
  O  O14  1  0.627159  0.361394  0.444689  1
  O  O15  1  0.807014  0.036113  0.845834  1
  O  O16  1  0.909986  0.626367  0.217144  1
  O  O17  1  0.971519  0.187660  0.380083  1
