# generated using pymatgen
data_LiMn3(BO3)3
_symmetry_space_group_name_H-M   'P 1'
_cell_length_a   5.90777260
_cell_length_b   12.05925279
_cell_length_c   5.33003057
_cell_angle_alpha   80.14624686
_cell_angle_beta   88.20779644
_cell_angle_gamma   83.25775878
_symmetry_Int_Tables_number   1
_chemical_formula_structural   LiMn3(BO3)3
_chemical_formula_sum   'Li2 Mn6 B6 O18'
_cell_volume   371.51564589
_cell_formula_units_Z   2
loop_
 _symmetry_equiv_pos_site_id
 _symmetry_equiv_pos_as_xyz
  1  'x, y, z'
loop_
 _atom_site_type_symbol
 _atom_site_label
 _atom_site_symmetry_multiplicity
 _atom_site_fract_x
 _atom_site_fract_y
 _atom_site_fract_z
 _atom_site_occupancy
  Li  Li0  1  0.405738  0.100551  0.037231  1
  Li  Li1  1  0.260929  0.566116  0.629436  1
  Mn  Mn2  1  0.234208  0.980521  0.625233  1
  Mn  Mn3  1  0.589790  0.328291  0.957420  1
  Mn  Mn4  1  0.921779  0.664116  0.265196  1
  Mn  Mn5  1  0.076877  0.338375  0.709247  1
  Mn  Mn6  1  0.432459  0.686146  0.041433  1
  Mn  Mn7  1  0.744888  0.002550  0.401471  1
  B  B8  1  0.852938  0.112518  0.856795  1
  B  B9  1  0.459498  0.213311  0.486741  1
  B  B10  1  0.813728  0.554149  0.809872  1
  B  B11  1  0.207169  0.453355  0.179926  1
  B  B12  1  0.512699  0.775951  0.517043  1
  B  B13  1  0.153968  0.890715  0.149624  1
  O  O14  1  0.948003  0.079253  0.631959  1
  O  O15  1  0.729020  0.044071  0.017937  1
  O  O16  1  0.434611  0.106442  0.429308  1
  O  O17  1  0.871636  0.223747  0.890957  1
  O  O18  1  0.566877  0.289847  0.326312  1
  O  O19  1  0.379996  0.236088  0.730933  1
  O  O20  1  0.718664  0.587413  0.034708  1
  O  O21  1  0.795030  0.442919  0.775709  1
  O  O22  1  0.937647  0.622596  0.648730  1
  O  O23  1  0.099790  0.376820  0.340355  1
  O  O24  1  0.232056  0.560225  0.237359  1
  O  O25  1  0.286671  0.430579  0.935734  1
  O  O26  1  0.603360  0.755023  0.283227  1
  O  O27  1  0.413352  0.692950  0.674855  1
  O  O28  1  0.146185  0.783387  0.089837  1
  O  O29  1  0.520482  0.883280  0.576830  1
  O  O30  1  0.253315  0.973716  0.991812  1
  O  O31  1  0.063307  0.911644  0.383440  1
