# generated using pymatgen
data_Li3TiFe3O8
_symmetry_space_group_name_H-M   'P 1'
_cell_length_a   5.61939608
_cell_length_b   6.60835662
_cell_length_c   10.25995389
_cell_angle_alpha   90.07135643
_cell_angle_beta   89.99335215
_cell_angle_gamma   90.07027843
_symmetry_Int_Tables_number   1
_chemical_formula_structural   Li3TiFe3O8
_chemical_formula_sum   'Li6 Ti2 Fe6 O16'
_cell_volume   381.00252882
_cell_formula_units_Z   2
loop_
 _symmetry_equiv_pos_site_id
 _symmetry_equiv_pos_as_xyz
  1  'x, y, z'
loop_
 _atom_site_type_symbol
 _atom_site_label
 _atom_site_symmetry_multiplicity
 _atom_site_fract_x
 _atom_site_fract_y
 _atom_site_fract_z
 _atom_site_occupancy
  Li  Li0  1  0.084620  0.618337  0.494278  1
  Li  Li1  1  0.085226  0.616511  0.998575  1
  Li  Li2  1  0.418850  0.129569  0.245975  1
  Li  Li3  1  0.573827  0.877575  0.498886  1
  Li  Li4  1  0.572981  0.876330  0.994790  1
  Li  Li5  1  0.910267  0.373255  0.745402  1
  Ti  Ti6  1  0.918980  0.874347  0.249163  1
  Ti  Ti7  1  0.916100  0.875376  0.749573  1
  Fe  Fe8  1  0.087912  0.132115  0.497663  1
  Fe  Fe9  1  0.087259  0.132243  0.998838  1
  Fe  Fe10  1  0.416977  0.622383  0.249543  1
  Fe  Fe11  1  0.418644  0.622659  0.749618  1
  Fe  Fe12  1  0.585484  0.372979  0.499172  1
  Fe  Fe13  1  0.584623  0.372170  0.998346  1
  O  O14  1  0.072534  0.093179  0.184367  1
  O  O15  1  0.041233  0.105692  0.682516  1
  O  O16  1  0.096012  0.661611  0.192352  1
  O  O17  1  0.089775  0.648892  0.697046  1
  O  O18  1  0.427109  0.615111  0.436243  1
  O  O19  1  0.427740  0.614499  0.936277  1
  O  O20  1  0.412120  0.134013  0.443746  1
  O  O21  1  0.412462  0.130952  0.960999  1
  O  O22  1  0.544938  0.385099  0.182802  1
  O  O23  1  0.578869  0.398530  0.684205  1
  O  O24  1  0.602607  0.859062  0.196640  1
  O  O25  1  0.612197  0.844766  0.692660  1
  O  O26  1  0.916216  0.367207  0.460861  1
  O  O27  1  0.913660  0.364598  0.943403  1
  O  O28  1  0.932068  0.888054  0.430315  1
  O  O29  1  0.927263  0.889370  0.930766  1
