# generated using pymatgen
data_Co2H21I7(N2O)3
_symmetry_space_group_name_H-M   'P 1'
_cell_length_a   26.24112661
_cell_length_b   8.29301565
_cell_length_c   11.40078518
_cell_angle_alpha   90.00000000
_cell_angle_beta   90.00000000
_cell_angle_gamma   90.00000000
_symmetry_Int_Tables_number   1
_chemical_formula_structural   Co2H21I7(N2O)3
_chemical_formula_sum   'Co8 H84 I28 N24 O12'
_cell_volume   2481.01690897
_cell_formula_units_Z   4
loop_
 _symmetry_equiv_pos_site_id
 _symmetry_equiv_pos_as_xyz
  1  'x, y, z'
loop_
 _atom_site_type_symbol
 _atom_site_label
 _atom_site_symmetry_multiplicity
 _atom_site_fract_x
 _atom_site_fract_y
 _atom_site_fract_z
 _atom_site_occupancy
  Co  Co0  1  0.104854  0.250000  0.769254  1
  Co  Co1  1  0.187860  0.250000  0.893226  1
  Co  Co2  1  0.312140  0.750000  0.393226  1
  Co  Co3  1  0.395146  0.750000  0.269254  1
  Co  Co4  1  0.604854  0.250000  0.730746  1
  Co  Co5  1  0.687860  0.250000  0.606774  1
  Co  Co6  1  0.812140  0.750000  0.106774  1
  Co  Co7  1  0.895146  0.750000  0.230746  1
  H  H8  1  0.006940  0.250000  0.783141  1
  H  H9  1  0.035760  0.150404  0.891801  1
  H  H10  1  0.035760  0.349596  0.891801  1
  H  H11  1  0.051257  0.083706  0.624840  1
  H  H12  1  0.051257  0.416294  0.624840  1
  H  H13  1  0.093570  0.531476  0.693478  1
  H  H14  1  0.093570  0.968524  0.693478  1
  H  H15  1  0.111817  0.413408  0.585270  1
  H  H16  1  0.111817  0.086592  0.585270  1
  H  H17  1  0.133974  0.505176  0.877471  1
  H  H18  1  0.133974  0.994824  0.877471  1
  H  H19  1  0.166732  0.150634  0.087990  1
  H  H20  1  0.166732  0.349366  0.087990  1
  H  H21  1  0.195924  0.250000  0.659896  1
  H  H22  1  0.222064  0.250000  0.104602  1
  H  H23  1  0.227504  0.612089  0.341761  1
  H  H24  1  0.227504  0.887911  0.341761  1
  H  H25  1  0.224260  0.513725  0.830437  1
  H  H26  1  0.224260  0.986275  0.830437  1
  H  H27  1  0.248956  0.029428  0.961028  1
  H  H28  1  0.248956  0.470572  0.961028  1
  H  H29  1  0.251044  0.529428  0.461028  1
  H  H30  1  0.251044  0.970572  0.461028  1
  H  H31  1  0.275740  0.013725  0.330437  1
  H  H32  1  0.275740  0.486275  0.330437  1
  H  H33  1  0.272496  0.112089  0.841761  1
  H  H34  1  0.272496  0.387911  0.841761  1
  H  H35  1  0.277936  0.750000  0.604602  1
  H  H36  1  0.304076  0.750000  0.159896  1
  H  H37  1  0.333268  0.650634  0.587990  1
  H  H38  1  0.333268  0.849366  0.587990  1
  H  H39  1  0.366026  0.005176  0.377471  1
  H  H40  1  0.366026  0.494824  0.377471  1
  H  H41  1  0.388183  0.586592  0.085270  1
  H  H42  1  0.388183  0.913408  0.085270  1
  H  H43  1  0.406430  0.031476  0.193478  1
  H  H44  1  0.406430  0.468524  0.193478  1
  H  H45  1  0.448743  0.583706  0.124840  1
  H  H46  1  0.448743  0.916294  0.124840  1
  H  H47  1  0.464240  0.650404  0.391801  1
  H  H48  1  0.464240  0.849596  0.391801  1
  H  H49  1  0.493060  0.750000  0.283141  1
  H  H50  1  0.506940  0.250000  0.716859  1
  H  H51  1  0.535760  0.150404  0.608199  1
  H  H52  1  0.535760  0.349596  0.608199  1
  H  H53  1  0.551257  0.083706  0.875160  1
  H  H54  1  0.551257  0.416294  0.875160  1
  H  H55  1  0.593570  0.531476  0.806522  1
  H  H56  1  0.593570  0.968524  0.806522  1
  H  H57  1  0.611817  0.086592  0.914730  1
  H  H58  1  0.611817  0.413408  0.914730  1
  H  H59  1  0.633974  0.505176  0.622529  1
  H  H60  1  0.633974  0.994824  0.622529  1
  H  H61  1  0.666732  0.150634  0.412010  1
  H  H62  1  0.666732  0.349366  0.412010  1
  H  H63  1  0.695924  0.250000  0.840104  1
  H  H64  1  0.722064  0.250000  0.395398  1
  H  H65  1  0.727504  0.612089  0.158239  1
  H  H66  1  0.727504  0.887911  0.158239  1
  H  H67  1  0.724260  0.513725  0.669563  1
  H  H68  1  0.724260  0.986275  0.669563  1
  H  H69  1  0.748956  0.029428  0.538972  1
  H  H70  1  0.748956  0.470572  0.538972  1
  H  H71  1  0.751044  0.529428  0.038972  1
  H  H72  1  0.751044  0.970572  0.038972  1
  H  H73  1  0.775740  0.013725  0.169563  1
  H  H74  1  0.775740  0.486275  0.169563  1
  H  H75  1  0.772496  0.112089  0.658239  1
  H  H76  1  0.772496  0.387911  0.658239  1
  H  H77  1  0.777936  0.750000  0.895398  1
  H  H78  1  0.804076  0.750000  0.340104  1
  H  H79  1  0.833268  0.650634  0.912010  1
  H  H80  1  0.833268  0.849366  0.912010  1
  H  H81  1  0.866026  0.005176  0.122529  1
  H  H82  1  0.866026  0.494824  0.122529  1
  H  H83  1  0.888183  0.586592  0.414730  1
  H  H84  1  0.888183  0.913408  0.414730  1
  H  H85  1  0.906430  0.031476  0.306522  1
  H  H86  1  0.906430  0.468524  0.306522  1
  H  H87  1  0.948743  0.583706  0.375160  1
  H  H88  1  0.948743  0.916294  0.375160  1
  H  H89  1  0.964240  0.650404  0.108199  1
  H  H90  1  0.964240  0.849596  0.108199  1
  H  H91  1  0.993060  0.750000  0.216859  1
  I  I92  1  0.188628  0.750000  0.679976  1
  I  I93  1  0.311372  0.250000  0.179976  1
  I  I94  1  0.688628  0.750000  0.820024  1
  I  I95  1  0.811372  0.250000  0.320024  1
  I  I96  1  0.037050  0.750000  0.881659  1
  I  I97  1  0.037645  0.750000  0.454420  1
  I  I98  1  0.057243  0.250000  0.256669  1
  I  I99  1  0.115405  0.750000  0.273386  1
  I  I100  1  0.154644  0.250000  0.387436  1
  I  I101  1  0.193565  0.750000  0.083341  1
  I  I102  1  0.306435  0.250000  0.583341  1
  I  I103  1  0.345356  0.750000  0.887436  1
  I  I104  1  0.384595  0.250000  0.773386  1
  I  I105  1  0.442757  0.750000  0.756669  1
  I  I106  1  0.462355  0.250000  0.954420  1
  I  I107  1  0.462950  0.250000  0.381659  1
  I  I108  1  0.537050  0.750000  0.618341  1
  I  I109  1  0.537645  0.750000  0.045580  1
  I  I110  1  0.557243  0.250000  0.243331  1
  I  I111  1  0.615405  0.750000  0.226614  1
  I  I112  1  0.654644  0.250000  0.112564  1
  I  I113  1  0.693565  0.750000  0.416659  1
  I  I114  1  0.806435  0.250000  0.916659  1
  I  I115  1  0.845356  0.750000  0.612564  1
  I  I116  1  0.884595  0.250000  0.726614  1
  I  I117  1  0.942757  0.750000  0.743331  1
  I  I118  1  0.962355  0.250000  0.545580  1
  I  I119  1  0.962950  0.250000  0.118341  1
  N  N120  1  0.037645  0.250000  0.838890  1
  N  N121  1  0.087909  0.419963  0.656623  1
  N  N122  1  0.087909  0.080037  0.656623  1
  N  N123  1  0.187034  0.250000  0.062560  1
  N  N124  1  0.239121  0.077963  0.881526  1
  N  N125  1  0.239121  0.422037  0.881526  1
  N  N126  1  0.260879  0.577963  0.381526  1
  N  N127  1  0.260879  0.922037  0.381526  1
  N  N128  1  0.312966  0.750000  0.562560  1
  N  N129  1  0.412091  0.580037  0.156623  1
  N  N130  1  0.412091  0.919963  0.156623  1
  N  N131  1  0.462355  0.750000  0.338890  1
  N  N132  1  0.537645  0.250000  0.661110  1
  N  N133  1  0.587908  0.080037  0.843377  1
  N  N134  1  0.587908  0.419963  0.843377  1
  N  N135  1  0.687034  0.250000  0.437440  1
  N  N136  1  0.739121  0.077963  0.618474  1
  N  N137  1  0.739121  0.422037  0.618474  1
  N  N138  1  0.760879  0.577963  0.118474  1
  N  N139  1  0.760879  0.922037  0.118474  1
  N  N140  1  0.812966  0.750000  0.937440  1
  N  N141  1  0.912092  0.580037  0.343377  1
  N  N142  1  0.912092  0.919963  0.343377  1
  N  N143  1  0.962355  0.750000  0.161110  1
  O  O144  1  0.128356  0.108405  0.895678  1
  O  O145  1  0.128356  0.391595  0.895678  1
  O  O146  1  0.174909  0.250000  0.730012  1
  O  O147  1  0.325091  0.750000  0.230012  1
  O  O148  1  0.371644  0.608405  0.395678  1
  O  O149  1  0.371644  0.891595  0.395678  1
  O  O150  1  0.628356  0.108405  0.604322  1
  O  O151  1  0.628356  0.391595  0.604322  1
  O  O152  1  0.674909  0.250000  0.769988  1
  O  O153  1  0.825091  0.750000  0.269988  1
  O  O154  1  0.871644  0.608405  0.104322  1
  O  O155  1  0.871644  0.891595  0.104322  1
