# generated using pymatgen
data_Li4Fe3Sb5O16
_symmetry_space_group_name_H-M   'P 1'
_cell_length_a   6.24696754
_cell_length_b   6.23270938
_cell_length_c   10.36183887
_cell_angle_alpha   90.22309943
_cell_angle_beta   90.33377254
_cell_angle_gamma   118.90843010
_symmetry_Int_Tables_number   1
_chemical_formula_structural   Li4Fe3Sb5O16
_chemical_formula_sum   'Li4 Fe3 Sb5 O16'
_cell_volume   353.15560782
_cell_formula_units_Z   1
loop_
 _symmetry_equiv_pos_site_id
 _symmetry_equiv_pos_as_xyz
  1  'x, y, z'
loop_
 _atom_site_type_symbol
 _atom_site_label
 _atom_site_symmetry_multiplicity
 _atom_site_fract_x
 _atom_site_fract_y
 _atom_site_fract_z
 _atom_site_occupancy
  Li  Li0  1  0.323228  0.658117  0.889075  1
  Li  Li1  1  0.991392  0.996025  0.990935  1
  Li  Li2  1  0.001071  0.000884  0.501677  1
  Li  Li3  1  0.640493  0.319981  0.396085  1
  Fe  Fe4  1  0.661336  0.829389  0.213536  1
  Fe  Fe5  1  0.837163  0.666580  0.714032  1
  Fe  Fe6  1  0.836198  0.171552  0.715131  1
  Sb  Sb7  1  0.164411  0.829648  0.216055  1
  Sb  Sb8  1  0.361857  0.690326  0.509514  1
  Sb  Sb9  1  0.165542  0.334017  0.216541  1
  Sb  Sb10  1  0.341578  0.173226  0.718691  1
  Sb  Sb11  1  0.696669  0.349243  0.979834  1
  O  O12  1  0.180361  0.865043  0.606837  1
  O  O13  1  0.010908  0.508511  0.317798  1
  O  O14  1  0.307621  0.652226  0.106646  1
  O  O15  1  0.013009  0.007435  0.320503  1
  O  O16  1  0.018452  0.017319  0.812017  1
  O  O17  1  0.162569  0.311649  0.610764  1
  O  O18  1  0.464444  0.967009  0.325550  1
  O  O19  1  0.467418  0.495434  0.320847  1
  O  O20  1  0.291263  0.141320  0.109453  1
  O  O21  1  0.697013  0.859712  0.599596  1
  O  O22  1  0.504339  0.473487  0.832830  1
  O  O23  1  0.517065  0.029466  0.828343  1
  O  O24  1  0.649630  0.314341  0.609671  1
  O  O25  1  0.866923  0.701130  0.102230  1
  O  O26  1  0.961916  0.471851  0.838365  1
  O  O27  1  0.866128  0.165377  0.105289  1
