# generated using pymatgen
data_Ce4ThO10
_symmetry_space_group_name_H-M   'P 1'
_cell_length_a   3.88734100
_cell_length_b   6.72917323
_cell_length_c   16.00853972
_cell_angle_alpha   94.00395616
_cell_angle_beta   96.97172155
_cell_angle_gamma   89.99346303
_symmetry_Int_Tables_number   1
_chemical_formula_structural   Ce4ThO10
_chemical_formula_sum   'Ce8 Th2 O20'
_cell_volume   414.63527636
_cell_formula_units_Z   2
loop_
 _symmetry_equiv_pos_site_id
 _symmetry_equiv_pos_as_xyz
  1  'x, y, z'
loop_
 _atom_site_type_symbol
 _atom_site_label
 _atom_site_symmetry_multiplicity
 _atom_site_fract_x
 _atom_site_fract_y
 _atom_site_fract_z
 _atom_site_occupancy
  Ce  Ce0  1  0.396269  0.799062  0.800189  1
  Ce  Ce1  1  0.699893  0.900594  0.399338  1
  Ce  Ce2  1  0.894783  0.299029  0.800288  1
  Ce  Ce3  1  0.097752  0.698877  0.201207  1
  Ce  Ce4  1  0.298165  0.099792  0.600106  1
  Ce  Ce5  1  0.199549  0.398842  0.399008  1
  Ce  Ce6  1  0.599149  0.200612  0.201580  1
  Ce  Ce7  1  0.496814  0.498823  0.000407  1
  Th  Th8  1  0.797532  0.599531  0.599843  1
  Th  Th9  1  0.997190  0.999128  0.000688  1
  O  O10  1  0.920833  0.974056  0.848553  1
  O  O11  1  0.473686  0.820707  0.949382  1
  O  O12  1  0.323728  0.778778  0.651440  1
  O  O13  1  0.419262  0.473352  0.850519  1
  O  O14  1  0.969953  0.326725  0.949882  1
  O  O15  1  0.871449  0.622984  0.751688  1
  O  O16  1  0.775345  0.926072  0.548674  1
  O  O17  1  0.173621  0.725935  0.350265  1
  O  O18  1  0.722156  0.573460  0.447682  1
  O  O19  1  0.621544  0.874339  0.250477  1
  O  O20  1  0.272139  0.422113  0.549288  1
  O  O21  1  0.370669  0.126137  0.750311  1
  O  O22  1  0.820813  0.269809  0.650528  1
  O  O23  1  0.676564  0.224086  0.349572  1
  O  O24  1  0.227356  0.075884  0.449613  1
  O  O25  1  0.125187  0.374955  0.251070  1
  O  O26  1  0.574312  0.524351  0.151343  1
  O  O27  1  0.024585  0.670089  0.051666  1
  O  O28  1  0.522027  0.177376  0.051589  1
  O  O29  1  0.072609  0.024932  0.152744  1
