# generated using pymatgen
data_TiNi3Sb2(PO4)6
_symmetry_space_group_name_H-M   'P 1'
_cell_length_a   8.67319524
_cell_length_b   8.67319470
_cell_length_c   8.67319455
_cell_angle_alpha   60.36387556
_cell_angle_beta   60.36387736
_cell_angle_gamma   60.36387428
_symmetry_Int_Tables_number   1
_chemical_formula_structural   TiNi3Sb2(PO4)6
_chemical_formula_sum   'Ti1 Ni3 Sb2 P6 O24'
_cell_volume   465.13849401
_cell_formula_units_Z   1
loop_
 _symmetry_equiv_pos_site_id
 _symmetry_equiv_pos_as_xyz
  1  'x, y, z'
loop_
 _atom_site_type_symbol
 _atom_site_label
 _atom_site_symmetry_multiplicity
 _atom_site_fract_x
 _atom_site_fract_y
 _atom_site_fract_z
 _atom_site_occupancy
  Ti  Ti0  1  0.856258  0.856258  0.856258  1
  Ni  Ni1  1  0.151745  0.151745  0.151745  1
  Ni  Ni2  1  0.347974  0.347974  0.347974  1
  Ni  Ni3  1  0.648115  0.648115  0.648115  1
  Sb  Sb4  1  0.012488  0.012488  0.012488  1
  Sb  Sb5  1  0.501933  0.501933  0.501933  1
  P  P6  1  0.246457  0.540447  0.952237  1
  P  P7  1  0.540447  0.952237  0.246457  1
  P  P8  1  0.952237  0.246457  0.540447  1
  P  P9  1  0.044765  0.748910  0.461099  1
  P  P10  1  0.461099  0.044765  0.748910  1
  P  P11  1  0.748910  0.461099  0.044765  1
  O  O12  1  0.099628  0.310013  0.515162  1
  O  O13  1  0.310013  0.515162  0.099628  1
  O  O14  1  0.076836  0.904622  0.263105  1
  O  O15  1  0.515162  0.099628  0.310013  1
  O  O16  1  0.989792  0.821891  0.616315  1
  O  O17  1  0.248468  0.589040  0.455518  1
  O  O18  1  0.263105  0.076836  0.904622  1
  O  O19  1  0.455518  0.248468  0.589040  1
  O  O20  1  0.188048  0.388949  0.982170  1
  O  O21  1  0.589040  0.455518  0.248468  1
  O  O22  1  0.090875  0.739353  0.918611  1
  O  O23  1  0.388949  0.982170  0.188048  1
  O  O24  1  0.616315  0.989792  0.821891  1
  O  O25  1  0.904622  0.263105  0.076836  1
  O  O26  1  0.409675  0.563151  0.745847  1
  O  O27  1  0.821891  0.616315  0.989792  1
  O  O28  1  0.563151  0.745847  0.409675  1
  O  O29  1  0.739353  0.918611  0.090875  1
  O  O30  1  0.745847  0.409675  0.563151  1
  O  O31  1  0.982170  0.188048  0.388949  1
  O  O32  1  0.490697  0.904339  0.675469  1
  O  O33  1  0.918611  0.090875  0.739353  1
  O  O34  1  0.675469  0.490697  0.904339  1
  O  O35  1  0.904339  0.675469  0.490697  1
