# generated using pymatgen
data_Li5V3P8O29
_symmetry_space_group_name_H-M   'P 1'
_cell_length_a   9.77051876
_cell_length_b   9.80169585
_cell_length_c   13.96687519
_cell_angle_alpha   90.24211397
_cell_angle_beta   90.10848186
_cell_angle_gamma   60.19531242
_symmetry_Int_Tables_number   1
_chemical_formula_structural   Li5V3P8O29
_chemical_formula_sum   'Li10 V6 P16 O58'
_cell_volume   1160.63647015
_cell_formula_units_Z   2
loop_
 _symmetry_equiv_pos_site_id
 _symmetry_equiv_pos_as_xyz
  1  'x, y, z'
loop_
 _atom_site_type_symbol
 _atom_site_label
 _atom_site_symmetry_multiplicity
 _atom_site_fract_x
 _atom_site_fract_y
 _atom_site_fract_z
 _atom_site_occupancy
  Li  Li0  1  0.763570  0.903227  0.560512  1
  Li  Li1  1  0.898990  0.337102  0.562237  1
  Li  Li2  1  0.769201  0.321588  0.059386  1
  Li  Li3  1  0.320464  0.906746  0.059533  1
  Li  Li4  1  0.336402  0.769148  0.562043  1
  Li  Li5  1  0.685227  0.087477  0.939117  1
  Li  Li6  1  0.225823  0.677616  0.939390  1
  Li  Li7  1  0.099883  0.664146  0.441508  1
  Li  Li8  1  0.095810  0.227211  0.938020  1
  Li  Li9  1  0.985875  0.033258  0.501171  1
  V  V10  1  0.563728  0.429200  0.256380  1
  V  V11  1  0.434077  0.566377  0.748836  1
  V  V12  1  0.567453  0.999265  0.748773  1
  V  V13  1  0.432813  0.001168  0.252809  1
  V  V14  1  0.997006  0.569523  0.244945  1
  V  V15  1  0.999946  0.433147  0.750805  1
  P  P16  1  0.914671  0.770097  0.840883  1
  P  P17  1  0.776421  0.911519  0.342296  1
  P  P18  1  0.912914  0.315954  0.342489  1
  P  P19  1  0.662670  0.661891  0.129453  1
  P  P20  1  0.667382  0.666243  0.626132  1
  P  P21  1  0.766634  0.319942  0.843368  1
  P  P22  1  0.690275  0.225011  0.658031  1
  P  P23  1  0.319486  0.912785  0.842965  1
  P  P24  1  0.683021  0.087257  0.158511  1
  P  P25  1  0.314670  0.773386  0.341313  1
  P  P26  1  0.231597  0.680061  0.158163  1
  P  P27  1  0.324884  0.338308  0.371827  1
  P  P28  1  0.334609  0.332502  0.871546  1
  P  P29  1  0.086885  0.683966  0.656197  1
  P  P30  1  0.223968  0.085009  0.658382  1
  P  P31  1  0.087783  0.229600  0.158583  1
  O  O32  1  0.004951  0.770151  0.565631  1
  O  O33  1  0.922827  0.741119  0.333899  1
  O  O34  1  0.756661  0.010729  0.066495  1
  O  O35  1  0.746634  0.915463  0.840881  1
  O  O36  1  0.905615  0.618067  0.821887  1
  O  O37  1  0.813637  0.660636  0.177507  1
  O  O38  1  0.915238  0.470143  0.327958  1
  O  O39  1  0.995891  0.247074  0.068842  1
  O  O40  1  0.916397  0.335408  0.842699  1
  O  O41  1  0.680664  0.809695  0.666718  1
  O  O42  1  0.624061  0.906072  0.328899  1
  O  O43  1  0.809997  0.510916  0.667005  1
  O  O44  1  0.675951  0.652527  0.023478  1
  O  O45  1  0.666630  0.666142  0.518915  1
  O  O46  1  0.666478  0.511626  0.171838  1
  O  O47  1  0.479860  0.901742  0.822625  1
  O  O48  1  0.513499  0.812239  0.167271  1
  O  O49  1  0.741401  0.346016  0.333187  1
  O  O50  1  0.787844  0.203868  0.756630  1
  O  O51  1  0.796394  0.210541  0.576773  1
  O  O52  1  0.751087  0.247822  0.934397  1
  O  O53  1  0.619029  0.480495  0.822393  1
  O  O54  1  0.510456  0.680109  0.667224  1
  O  O55  1  0.658851  0.257328  0.164438  1
  O  O56  1  0.472174  0.617992  0.327006  1
  O  O57  1  0.342907  0.913825  0.336376  1
  O  O58  1  0.794575  0.000459  0.249747  1
  O  O59  1  0.792547  0.983140  0.433233  1
  O  O60  1  0.207466  0.995669  0.576109  1
  O  O61  1  0.662039  0.082084  0.659204  1
  O  O62  1  0.534883  0.380060  0.667597  1
  O  O63  1  0.336546  0.747401  0.841824  1
  O  O64  1  0.478196  0.335338  0.325553  1
  O  O65  1  0.382950  0.523037  0.177486  1
  O  O66  1  0.243021  0.756862  0.068247  1
  O  O67  1  0.229912  0.771793  0.430649  1
  O  O68  1  0.206449  0.793391  0.248871  1
  O  O69  1  0.255431  0.663131  0.660322  1
  O  O70  1  0.488202  0.186294  0.830228  1
  O  O71  1  0.524611  0.092201  0.178863  1
  O  O72  1  0.326730  0.486215  0.829969  1
  O  O73  1  0.335225  0.333297  0.978428  1
  O  O74  1  0.328166  0.354706  0.477258  1
  O  O75  1  0.180436  0.492761  0.329221  1
  O  O76  1  0.380173  0.084547  0.667960  1
  O  O77  1  0.323470  0.194248  0.328931  1
  O  O78  1  0.087355  0.655561  0.161709  1
  O  O79  1  0.993489  0.796117  0.745003  1
  O  O80  1  0.009000  0.760234  0.925911  1
  O  O81  1  0.092565  0.527081  0.669959  1
  O  O82  1  0.187104  0.324031  0.832123  1
  O  O83  1  0.098489  0.379959  0.177963  1
  O  O84  1  0.252668  0.082298  0.157805  1
  O  O85  1  0.246335  0.999749  0.934745  1
  O  O86  1  0.203118  0.007858  0.756696  1
  O  O87  1  0.082005  0.256127  0.661196  1
  O  O88  1  0.984325  0.231491  0.433948  1
  O  O89  1  0.001308  0.206254  0.250566  1
