# generated using pymatgen
data_K2V3P4H4O19
_symmetry_space_group_name_H-M   'P 1'
_cell_length_a   8.73170100
_cell_length_b   9.30987141
_cell_length_c   10.79081493
_cell_angle_alpha   89.95843418
_cell_angle_beta   113.31795913
_cell_angle_gamma   90.32774951
_symmetry_Int_Tables_number   1
_chemical_formula_structural   K2V3P4H4O19
_chemical_formula_sum   'K4 V6 P8 H8 O38'
_cell_volume   805.53464525
_cell_formula_units_Z   2
loop_
 _symmetry_equiv_pos_site_id
 _symmetry_equiv_pos_as_xyz
  1  'x, y, z'
loop_
 _atom_site_type_symbol
 _atom_site_label
 _atom_site_symmetry_multiplicity
 _atom_site_fract_x
 _atom_site_fract_y
 _atom_site_fract_z
 _atom_site_occupancy
  K  K0  1  0.251973  0.178578  0.498283  1
  K  K1  1  0.251018  0.610916  0.999970  1
  K  K2  1  0.752092  0.823138  0.502261  1
  K  K3  1  0.748799  0.385970  0.000735  1
  V  V4  1  0.115885  0.249758  0.786598  1
  V  V5  1  0.275958  0.744069  0.510006  1
  V  V6  1  0.356390  0.246362  0.165666  1
  V  V7  1  0.646459  0.753904  0.835012  1
  V  V8  1  0.726892  0.256065  0.490465  1
  V  V9  1  0.885627  0.750399  0.213954  1
  P  P10  1  0.302595  0.949814  0.762647  1
  P  P11  1  0.146530  0.502638  0.266572  1
  P  P12  1  0.356075  0.503456  0.732987  1
  P  P13  1  0.199013  0.952298  0.237343  1
  P  P14  1  0.802481  0.048410  0.763409  1
  P  P15  1  0.645741  0.497064  0.267225  1
  P  P16  1  0.855287  0.497767  0.734349  1
  P  P17  1  0.699602  0.050112  0.237990  1
  H  H18  1  0.039624  0.581370  0.646051  1
  H  H19  1  0.130744  0.928613  0.860790  1
  H  H20  1  0.544278  0.421251  0.648157  1
  H  H21  1  0.624835  0.067609  0.854856  1
  H  H22  1  0.373981  0.928673  0.143471  1
  H  H23  1  0.457839  0.579224  0.352299  1
  H  H24  1  0.875340  0.068946  0.143790  1
  H  H25  1  0.961227  0.421302  0.355315  1
  O  O26  1  0.012252  0.736844  0.381272  1
  O  O27  1  0.225284  0.871651  0.857042  1
  O  O28  1  0.059437  0.394837  0.333035  1
  O  O29  1  0.010504  0.918825  0.177831  1
  O  O30  1  0.019356  0.601196  0.161374  1
  O  O31  1  0.275340  0.409976  0.806685  1
  O  O32  1  0.217674  0.588377  0.619958  1
  O  O33  1  0.279285  0.112685  0.766380  1
  O  O34  1  0.216319  0.895483  0.616424  1
  O  O35  1  0.283615  0.901502  0.384196  1
  O  O36  1  0.224337  0.115194  0.232148  1
  O  O37  1  0.285250  0.590288  0.377574  1
  O  O38  1  0.228700  0.410246  0.194603  1
  O  O39  1  0.481155  0.603023  0.839226  1
  O  O40  1  0.490909  0.918655  0.822299  1
  O  O41  1  0.443722  0.395540  0.668224  1
  O  O42  1  0.276220  0.872868  0.144141  1
  O  O43  1  0.250539  0.233206  0.998017  1
  O  O44  1  0.481439  0.738318  0.610191  1
  O  O45  1  0.521609  0.261719  0.389165  1
  O  O46  1  0.721842  0.125828  0.855138  1
  O  O47  1  0.557970  0.605160  0.331656  1
  O  O48  1  0.511777  0.082069  0.176867  1
  O  O49  1  0.521029  0.397547  0.161025  1
  O  O50  1  0.772732  0.588832  0.807279  1
  O  O51  1  0.717174  0.410869  0.622435  1
  O  O52  1  0.778148  0.884846  0.767876  1
  O  O53  1  0.718560  0.099472  0.616615  1
  O  O54  1  0.785170  0.103211  0.384675  1
  O  O55  1  0.721655  0.886689  0.233890  1
  O  O56  1  0.784556  0.412717  0.380358  1
  O  O57  1  0.726146  0.590562  0.192901  1
  O  O58  1  0.982529  0.399107  0.838922  1
  O  O59  1  0.990546  0.082827  0.824208  1
  O  O60  1  0.942528  0.607682  0.669531  1
  O  O61  1  0.780574  0.127404  0.145824  1
  O  O62  1  0.752119  0.768382  0.002501  1
  O  O63  1  0.989476  0.262911  0.619053  1
