# generated using pymatgen
data_Ba2Tl(HO)7
_symmetry_space_group_name_H-M   'P 1'
_cell_length_a   6.61863529
_cell_length_b   6.87323061
_cell_length_c   10.65964905
_cell_angle_alpha   82.38881201
_cell_angle_beta   90.00000000
_cell_angle_gamma   61.21794851
_symmetry_Int_Tables_number   1
_chemical_formula_structural   Ba2Tl(HO)7
_chemical_formula_sum   'Ba4 Tl2 H14 O14'
_cell_volume   420.13284545
_cell_formula_units_Z   2
loop_
 _symmetry_equiv_pos_site_id
 _symmetry_equiv_pos_as_xyz
  1  'x, y, z'
loop_
 _atom_site_type_symbol
 _atom_site_label
 _atom_site_symmetry_multiplicity
 _atom_site_fract_x
 _atom_site_fract_y
 _atom_site_fract_z
 _atom_site_occupancy
  Ba  Ba0  1  0.431428  0.760989  0.628907  1
  Ba  Ba1  1  0.807584  0.760989  0.128907  1
  Ba  Ba2  1  0.192416  0.239011  0.871093  1
  Ba  Ba3  1  0.568572  0.239011  0.371093  1
  Tl  Tl4  1  0.000000  0.500000  0.500000  1
  Tl  Tl5  1  0.500000  0.500000  0.000000  1
  H  H6  1  0.092402  0.786562  0.881860  1
  H  H7  1  0.685628  0.743608  0.851748  1
  H  H8  1  0.968077  0.713912  0.704802  1
  H  H9  1  0.121036  0.786562  0.381860  1
  H  H10  1  0.570765  0.743608  0.351748  1
  H  H11  1  0.318011  0.713912  0.204802  1
  H  H12  1  0.681989  0.286088  0.795198  1
  H  H13  1  0.429235  0.256392  0.648252  1
  H  H14  1  0.878964  0.213438  0.618140  1
  H  H15  1  0.031923  0.286088  0.295198  1
  H  H16  1  0.314372  0.256392  0.148252  1
  H  H17  1  0.907598  0.213438  0.118140  1
  H  H18  1  0.870109  0.000000  0.750000  1
  H  H19  1  0.129891  1.000000  0.250000  1
  O  O20  1  0.544659  0.807988  0.897768  1
  O  O21  1  0.122961  0.664846  0.954570  1
  O  O22  1  0.647353  0.807988  0.397768  1
  O  O23  1  0.897923  0.618639  0.697364  1
  O  O24  1  0.212191  0.664846  0.454570  1
  O  O25  1  0.483439  0.618639  0.197364  1
  O  O26  1  0.516561  0.381361  0.802636  1
  O  O27  1  0.787809  0.335154  0.545430  1
  O  O28  1  0.102077  0.381361  0.302636  1
  O  O29  1  0.352647  0.192012  0.602232  1
  O  O30  1  0.877039  0.335154  0.045430  1
  O  O31  1  0.455341  0.192012  0.102232  1
  O  O32  1  0.016844  0.000000  0.750000  1
  O  O33  1  0.983156  0.000000  0.250000  1
