# generated using pymatgen
data_FeOF
_symmetry_space_group_name_H-M   'P 1'
_cell_length_a   14.26229525
_cell_length_b   9.55447016
_cell_length_c   3.08760497
_cell_angle_alpha   90.00000000
_cell_angle_beta   90.00000000
_cell_angle_gamma   90.31775775
_symmetry_Int_Tables_number   1
_chemical_formula_structural   FeOF
_chemical_formula_sum   'Fe12 O12 F12'
_cell_volume   420.73736578
_cell_formula_units_Z   12
loop_
 _symmetry_equiv_pos_site_id
 _symmetry_equiv_pos_as_xyz
  1  'x, y, z'
loop_
 _atom_site_type_symbol
 _atom_site_label
 _atom_site_symmetry_multiplicity
 _atom_site_fract_x
 _atom_site_fract_y
 _atom_site_fract_z
 _atom_site_occupancy
  Fe  Fe0  1  0.014267  0.998981  0.000000  1
  Fe  Fe1  1  0.002972  0.500249  0.000000  1
  Fe  Fe2  1  0.172171  0.219030  0.500000  1
  Fe  Fe3  1  0.151295  0.743272  0.500000  1
  Fe  Fe4  1  0.341013  0.005473  0.000000  1
  Fe  Fe5  1  0.343673  0.497120  0.000000  1
  Fe  Fe6  1  0.479998  0.749575  0.500000  1
  Fe  Fe7  1  0.484132  0.250240  0.500000  1
  Fe  Fe8  1  0.673176  0.994129  0.000000  1
  Fe  Fe9  1  0.677325  0.496716  0.000000  1
  Fe  Fe10  1  0.840087  0.277852  0.500000  1
  Fe  Fe11  1  0.817247  0.750875  0.500000  1
  O  O12  1  0.061968  0.899844  0.500000  1
  O  O13  1  0.098437  0.158130  0.000000  1
  O  O14  1  0.097610  0.643897  0.000000  1
  O  O15  1  0.270624  0.091749  0.500000  1
  O  O16  1  0.395672  0.405154  0.500000  1
  O  O17  1  0.397452  0.902223  0.500000  1
  O  O18  1  0.443520  0.152350  0.000000  1
  O  O19  1  0.434249  0.651007  0.000000  1
  O  O20  1  0.731525  0.400548  0.500000  1
  O  O21  1  0.732114  0.911826  0.500000  1
  O  O22  1  0.767667  0.655930  0.000000  1
  O  O23  1  0.904907  0.354464  0.000000  1
  F  F24  1  0.067160  0.405583  0.500000  1
  F  F25  1  0.229951  0.350974  0.000000  1
  F  F26  1  0.226991  0.833732  0.000000  1
  F  F27  1  0.264055  0.595262  0.500000  1
  F  F28  1  0.567121  0.351568  0.000000  1
  F  F29  1  0.566935  0.851660  0.000000  1
  F  F30  1  0.608493  0.101931  0.500000  1
  F  F31  1  0.602107  0.596486  0.500000  1
  F  F32  1  0.771421  0.157618  0.000000  1
  F  F33  1  0.896312  0.847935  0.000000  1
  F  F34  1  0.930769  0.096506  0.500000  1
  F  F35  1  0.935584  0.600105  0.500000  1
