# generated using pymatgen
data_Li4Ni(BO3)2
_symmetry_space_group_name_H-M   'P 1'
_cell_length_a   9.21177048
_cell_length_b   7.79196212
_cell_length_c   3.29111292
_cell_angle_alpha   90.00000000
_cell_angle_beta   90.00000000
_cell_angle_gamma   90.00000000
_symmetry_Int_Tables_number   1
_chemical_formula_structural   Li4Ni(BO3)2
_chemical_formula_sum   'Li8 Ni2 B4 O12'
_cell_volume   236.22873515
_cell_formula_units_Z   2
loop_
 _symmetry_equiv_pos_site_id
 _symmetry_equiv_pos_as_xyz
  1  'x, y, z'
loop_
 _atom_site_type_symbol
 _atom_site_label
 _atom_site_symmetry_multiplicity
 _atom_site_fract_x
 _atom_site_fract_y
 _atom_site_fract_z
 _atom_site_occupancy
  Li  Li0  1  0.051919  0.178855  0.500000  1
  Li  Li1  1  0.200232  0.008726  0.000000  1
  Li  Li2  1  0.299768  0.508726  0.500000  1
  Li  Li3  1  0.448081  0.678855  0.000000  1
  Li  Li4  1  0.551919  0.321145  0.000000  1
  Li  Li5  1  0.700232  0.491274  0.500000  1
  Li  Li6  1  0.799768  0.991274  0.000000  1
  Li  Li7  1  0.948081  0.821145  0.500000  1
  Ni  Ni8  1  0.000000  0.500000  0.000000  1
  Ni  Ni9  1  0.500000  0.000000  0.500000  1
  B  B10  1  0.202227  0.769910  0.500000  1
  B  B11  1  0.297773  0.269910  0.000000  1
  B  B12  1  0.702227  0.730090  0.000000  1
  B  B13  1  0.797773  0.230090  0.500000  1
  O  O14  1  0.114751  0.618459  0.500000  1
  O  O15  1  0.147126  0.257465  0.000000  1
  O  O16  1  0.135314  0.925471  0.500000  1
  O  O17  1  0.364686  0.425471  0.000000  1
  O  O18  1  0.352874  0.757465  0.500000  1
  O  O19  1  0.385249  0.118459  0.000000  1
  O  O20  1  0.614751  0.881541  0.000000  1
  O  O21  1  0.647126  0.242535  0.500000  1
  O  O22  1  0.635314  0.574529  0.000000  1
  O  O23  1  0.864686  0.074529  0.500000  1
  O  O24  1  0.852874  0.742535  0.000000  1
  O  O25  1  0.885249  0.381541  0.500000  1
