# generated using pymatgen
data_Li4V3P8O29
_symmetry_space_group_name_H-M   'P 1'
_cell_length_a   9.76057827
_cell_length_b   9.76874289
_cell_length_c   14.13992844
_cell_angle_alpha   90.22843428
_cell_angle_beta   90.74728287
_cell_angle_gamma   60.16384884
_symmetry_Int_Tables_number   1
_chemical_formula_structural   Li4V3P8O29
_chemical_formula_sum   'Li8 V6 P16 O58'
_cell_volume   1169.41322616
_cell_formula_units_Z   2
loop_
 _symmetry_equiv_pos_site_id
 _symmetry_equiv_pos_as_xyz
  1  'x, y, z'
loop_
 _atom_site_type_symbol
 _atom_site_label
 _atom_site_symmetry_multiplicity
 _atom_site_fract_x
 _atom_site_fract_y
 _atom_site_fract_z
 _atom_site_occupancy
  Li  Li0  1  0.908991  0.325164  0.555331  1
  Li  Li1  1  0.770502  0.319514  0.061850  1
  Li  Li2  1  0.318180  0.905816  0.060612  1
  Li  Li3  1  0.667600  0.232868  0.439290  1
  Li  Li4  1  0.333394  0.766262  0.557744  1
  Li  Li5  1  0.687827  0.082819  0.936774  1
  Li  Li6  1  0.091355  0.223867  0.943879  1
  Li  Li7  1  0.017529  0.947937  0.491324  1
  V  V8  1  0.563424  0.435163  0.247916  1
  V  V9  1  0.430321  0.569571  0.754635  1
  V  V10  1  0.570410  0.995818  0.744637  1
  V  V11  1  0.433417  0.005923  0.255635  1
  V  V12  1  0.999819  0.569983  0.251138  1
  V  V13  1  0.999540  0.442304  0.746125  1
  P  P14  1  0.918192  0.772536  0.844437  1
  P  P15  1  0.781285  0.916354  0.336926  1
  P  P16  1  0.912930  0.313834  0.342017  1
  P  P17  1  0.665588  0.668601  0.131357  1
  P  P18  1  0.663546  0.663746  0.630709  1
  P  P19  1  0.773162  0.320010  0.841347  1
  P  P20  1  0.682405  0.231394  0.659694  1
  P  P21  1  0.319966  0.915512  0.842936  1
  P  P22  1  0.679556  0.087908  0.153245  1
  P  P23  1  0.315484  0.772791  0.343108  1
  P  P24  1  0.223466  0.687512  0.161629  1
  P  P25  1  0.332719  0.334838  0.370936  1
  P  P26  1  0.337568  0.328932  0.867984  1
  P  P27  1  0.082698  0.698589  0.658093  1
  P  P28  1  0.220995  0.086158  0.660216  1
  P  P29  1  0.087233  0.229920  0.160684  1
  O  O30  1  0.006042  0.791743  0.572001  1
  O  O31  1  0.916537  0.742917  0.335932  1
  O  O32  1  0.743111  0.009641  0.061512  1
  O  O33  1  0.749078  0.916076  0.837319  1
  O  O34  1  0.907946  0.619194  0.817230  1
  O  O35  1  0.815898  0.662994  0.179782  1
  O  O36  1  0.913546  0.470006  0.327575  1
  O  O37  1  0.998811  0.238204  0.070846  1
  O  O38  1  0.920804  0.339685  0.840891  1
  O  O39  1  0.675650  0.803113  0.672720  1
  O  O40  1  0.619407  0.920429  0.330483  1
  O  O41  1  0.813342  0.506229  0.672191  1
  O  O42  1  0.667857  0.668926  0.026194  1
  O  O43  1  0.660373  0.650337  0.525795  1
  O  O44  1  0.669150  0.515033  0.168638  1
  O  O45  1  0.478613  0.906515  0.822670  1
  O  O46  1  0.518791  0.818476  0.173374  1
  O  O47  1  0.741992  0.341067  0.334388  1
  O  O48  1  0.793602  0.210291  0.751119  1
  O  O49  1  0.765485  0.232234  0.570927  1
  O  O50  1  0.760431  0.243715  0.930120  1
  O  O51  1  0.621085  0.480987  0.822758  1
  O  O52  1  0.509702  0.671709  0.672998  1
  O  O53  1  0.662795  0.254194  0.159539  1
  O  O54  1  0.469769  0.618440  0.331779  1
  O  O55  1  0.345628  0.914238  0.328226  1
  O  O56  1  0.798719  0.989439  0.239008  1
  O  O57  1  0.797279  0.006730  0.417836  1
  O  O58  1  0.203003  0.993272  0.581542  1
  O  O59  1  0.655342  0.089430  0.664465  1
  O  O60  1  0.526244  0.386767  0.675028  1
  O  O61  1  0.342205  0.746590  0.835000  1
  O  O62  1  0.487211  0.324531  0.333959  1
  O  O63  1  0.377718  0.526154  0.178196  1
  O  O64  1  0.231758  0.773678  0.078246  1
  O  O65  1  0.230988  0.793471  0.434322  1
  O  O66  1  0.199382  0.789563  0.257229  1
  O  O67  1  0.258917  0.658947  0.664641  1
  O  O68  1  0.486949  0.183203  0.828674  1
  O  O69  1  0.520243  0.098912  0.179770  1
  O  O70  1  0.338662  0.478454  0.822910  1
  O  O71  1  0.333008  0.332931  0.972908  1
  O  O72  1  0.328840  0.327176  0.475624  1
  O  O73  1  0.187089  0.482141  0.324437  1
  O  O74  1  0.377145  0.085755  0.668300  1
  O  O75  1  0.327849  0.186952  0.323894  1
  O  O76  1  0.081764  0.658138  0.165458  1
  O  O77  1  0.003340  0.795342  0.752207  1
  O  O78  1  0.007077  0.752840  0.932602  1
  O  O79  1  0.080314  0.539004  0.669210  1
  O  O80  1  0.184989  0.333201  0.822915  1
  O  O81  1  0.093687  0.382311  0.177783  1
  O  O82  1  0.255326  0.083606  0.160422  1
  O  O83  1  0.248539  0.996173  0.934526  1
  O  O84  1  0.198662  0.014837  0.759652  1
  O  O85  1  0.079174  0.259827  0.661141  1
  O  O86  1  0.987976  0.229043  0.432194  1
  O  O87  1  0.001163  0.205842  0.250576  1
