# generated using pymatgen
data_Li8Nb(FeO4)3
_symmetry_space_group_name_H-M   'P 1'
_cell_length_a   5.00596950
_cell_length_b   5.69461602
_cell_length_c   7.58213811
_cell_angle_alpha   80.35664289
_cell_angle_beta   90.05679751
_cell_angle_gamma   90.04974282
_symmetry_Int_Tables_number   1
_chemical_formula_structural   Li8Nb(FeO4)3
_chemical_formula_sum   'Li8 Nb1 Fe3 O12'
_cell_volume   213.09019549
_cell_formula_units_Z   1
loop_
 _symmetry_equiv_pos_site_id
 _symmetry_equiv_pos_as_xyz
  1  'x, y, z'
loop_
 _atom_site_type_symbol
 _atom_site_label
 _atom_site_symmetry_multiplicity
 _atom_site_fract_x
 _atom_site_fract_y
 _atom_site_fract_z
 _atom_site_occupancy
  Li  Li0  1  0.493758  0.159252  0.329069  1
  Li  Li1  1  0.497657  0.167501  0.848400  1
  Li  Li2  1  0.995419  0.363832  0.180970  1
  Li  Li3  1  0.999658  0.356461  0.695165  1
  Li  Li4  1  0.002412  0.681803  0.324997  1
  Li  Li5  1  0.006183  0.677041  0.836707  1
  Li  Li6  1  0.501118  0.873043  0.170045  1
  Li  Li7  1  0.503237  0.878131  0.692287  1
  Nb  Nb8  1  0.501021  0.519671  0.509319  1
  Fe  Fe9  1  0.999586  0.019308  0.009822  1
  Fe  Fe10  1  0.500271  0.519474  0.009816  1
  Fe  Fe11  1  0.999473  0.019836  0.509654  1
  O  O12  1  0.856160  0.015218  0.252940  1
  O  O13  1  0.143316  0.023106  0.766110  1
  O  O14  1  0.313528  0.196475  0.080622  1
  O  O15  1  0.672786  0.196028  0.581704  1
  O  O16  1  0.176593  0.344902  0.438239  1
  O  O17  1  0.820803  0.330665  0.939257  1
  O  O18  1  0.642194  0.516406  0.260162  1
  O  O19  1  0.359076  0.521903  0.759175  1
  O  O20  1  0.179288  0.707652  0.079782  1
  O  O21  1  0.824556  0.692481  0.580918  1
  O  O22  1  0.326381  0.840905  0.437395  1
  O  O23  1  0.686035  0.842019  0.938688  1
