# generated using pymatgen
data_Li4V3P8O29
_symmetry_space_group_name_H-M   'P 1'
_cell_length_a   9.78924830
_cell_length_b   9.75166713
_cell_length_c   14.07993299
_cell_angle_alpha   90.08720019
_cell_angle_beta   90.25840460
_cell_angle_gamma   60.10301305
_symmetry_Int_Tables_number   1
_chemical_formula_structural   Li4V3P8O29
_chemical_formula_sum   'Li8 V6 P16 O58'
_cell_volume   1165.21143387
_cell_formula_units_Z   2
loop_
 _symmetry_equiv_pos_site_id
 _symmetry_equiv_pos_as_xyz
  1  'x, y, z'
loop_
 _atom_site_type_symbol
 _atom_site_label
 _atom_site_symmetry_multiplicity
 _atom_site_fract_x
 _atom_site_fract_y
 _atom_site_fract_z
 _atom_site_occupancy
  Li  Li0  1  0.913066  0.773803  0.058100  1
  Li  Li1  1  0.774505  0.312560  0.061256  1
  Li  Li2  1  0.324061  0.903290  0.061015  1
  Li  Li3  1  0.665206  0.237886  0.439304  1
  Li  Li4  1  0.333241  0.768274  0.555793  1
  Li  Li5  1  0.093658  0.671957  0.438885  1
  Li  Li6  1  0.091144  0.225743  0.942255  1
  Li  Li7  1  0.994870  0.042678  0.497560  1
  V  V8  1  0.567501  0.432253  0.246948  1
  V  V9  1  0.433555  0.564537  0.756261  1
  V  V10  1  0.569142  0.997490  0.748382  1
  V  V11  1  0.433459  0.004318  0.256002  1
  V  V12  1  0.999190  0.565719  0.252016  1
  V  V13  1  0.996020  0.437065  0.741546  1
  P  P14  1  0.912332  0.770292  0.840385  1
  P  P15  1  0.775316  0.918488  0.342763  1
  P  P16  1  0.914640  0.307895  0.341897  1
  P  P17  1  0.664915  0.670240  0.130180  1
  P  P18  1  0.660436  0.669038  0.630002  1
  P  P19  1  0.774489  0.317006  0.841488  1
  P  P20  1  0.685021  0.227661  0.658881  1
  P  P21  1  0.318983  0.913495  0.843539  1
  P  P22  1  0.684338  0.082605  0.155576  1
  P  P23  1  0.316047  0.770756  0.341567  1
  P  P24  1  0.228459  0.683715  0.159597  1
  P  P25  1  0.336100  0.334487  0.372535  1
  P  P26  1  0.330124  0.329015  0.868265  1
  P  P27  1  0.090433  0.687915  0.658272  1
  P  P28  1  0.224780  0.083548  0.659332  1
  P  P29  1  0.089081  0.230225  0.159542  1
  O  O30  1  0.016300  0.767414  0.567031  1
  O  O31  1  0.914561  0.746121  0.341428  1
  O  O32  1  0.762871  0.989993  0.069673  1
  O  O33  1  0.743236  0.913750  0.830966  1
  O  O34  1  0.906142  0.617172  0.816791  1
  O  O35  1  0.814198  0.671904  0.171616  1
  O  O36  1  0.919427  0.462639  0.332488  1
  O  O37  1  0.003908  0.241302  0.068132  1
  O  O38  1  0.920529  0.339648  0.835997  1
  O  O39  1  0.666461  0.812959  0.675948  1
  O  O40  1  0.617039  0.917017  0.330328  1
  O  O41  1  0.811396  0.516934  0.672793  1
  O  O42  1  0.656940  0.678737  0.024313  1
  O  O43  1  0.658198  0.671088  0.524834  1
  O  O44  1  0.672199  0.513966  0.167238  1
  O  O45  1  0.477441  0.905313  0.823803  1
  O  O46  1  0.515589  0.816786  0.175815  1
  O  O47  1  0.740713  0.342789  0.334142  1
  O  O48  1  0.794394  0.208212  0.750276  1
  O  O49  1  0.766421  0.219865  0.568276  1
  O  O50  1  0.764561  0.247464  0.932669  1
  O  O51  1  0.621262  0.479030  0.821455  1
  O  O52  1  0.509631  0.672159  0.671158  1
  O  O53  1  0.662525  0.251369  0.156949  1
  O  O54  1  0.471787  0.617700  0.329119  1
  O  O55  1  0.341925  0.915172  0.332933  1
  O  O56  1  0.794556  0.997747  0.247629  1
  O  O57  1  0.782224  0.009576  0.426022  1
  O  O58  1  0.207764  0.994389  0.578247  1
  O  O59  1  0.653635  0.087372  0.668333  1
  O  O60  1  0.529036  0.384748  0.675107  1
  O  O61  1  0.343572  0.743727  0.835908  1
  O  O62  1  0.489919  0.323565  0.332492  1
  O  O63  1  0.380911  0.522618  0.178318  1
  O  O64  1  0.239236  0.768675  0.075675  1
  O  O65  1  0.229749  0.778731  0.432036  1
  O  O66  1  0.201506  0.788833  0.254944  1
  O  O67  1  0.261762  0.658205  0.664785  1
  O  O68  1  0.473326  0.182369  0.820520  1
  O  O69  1  0.523927  0.092594  0.178600  1
  O  O70  1  0.337695  0.476567  0.823925  1
  O  O71  1  0.332604  0.327412  0.973273  1
  O  O72  1  0.339313  0.325290  0.478048  1
  O  O73  1  0.189762  0.488696  0.333556  1
  O  O74  1  0.383781  0.078802  0.668321  1
  O  O75  1  0.330164  0.187700  0.324573  1
  O  O76  1  0.083886  0.659313  0.160112  1
  O  O77  1  0.004418  0.792116  0.750692  1
  O  O78  1  0.991913  0.759103  0.931615  1
  O  O79  1  0.091925  0.527947  0.672340  1
  O  O80  1  0.178548  0.334342  0.826473  1
  O  O81  1  0.100716  0.379410  0.179298  1
  O  O82  1  0.256225  0.081742  0.161996  1
  O  O83  1  0.245200  0.997042  0.934321  1
  O  O84  1  0.201972  0.009133  0.757478  1
  O  O85  1  0.087531  0.257715  0.663803  1
  O  O86  1  0.993039  0.206359  0.425173  1
  O  O87  1  0.994471  0.208577  0.244959  1
