# generated using pymatgen
data_Dy2SiO5
_symmetry_space_group_name_H-M   'P 1'
_cell_length_a   9.74798251
_cell_length_b   6.91290094
_cell_length_c   6.74097327
_cell_angle_alpha   90.00000000
_cell_angle_beta   115.80745947
_cell_angle_gamma   90.00000000
_symmetry_Int_Tables_number   1
_chemical_formula_structural   Dy2SiO5
_chemical_formula_sum   'Dy8 Si4 O20'
_cell_volume   408.94664309
_cell_formula_units_Z   4
loop_
 _symmetry_equiv_pos_site_id
 _symmetry_equiv_pos_as_xyz
  1  'x, y, z'
loop_
 _atom_site_type_symbol
 _atom_site_label
 _atom_site_symmetry_multiplicity
 _atom_site_fract_x
 _atom_site_fract_y
 _atom_site_fract_z
 _atom_site_occupancy
  Dy  Dy0  1  0.127490  0.362939  0.680697  1
  Dy  Dy1  1  0.127490  0.137061  0.180697  1
  Dy  Dy2  1  0.474152  0.127170  0.705057  1
  Dy  Dy3  1  0.525848  0.627170  0.794943  1
  Dy  Dy4  1  0.474152  0.372830  0.205057  1
  Dy  Dy5  1  0.525848  0.872830  0.294943  1
  Dy  Dy6  1  0.872510  0.862939  0.819303  1
  Dy  Dy7  1  0.872510  0.637061  0.319303  1
  Si  Si8  1  0.199304  0.912988  0.721996  1
  Si  Si9  1  0.199304  0.587012  0.221996  1
  Si  Si10  1  0.800696  0.412988  0.778004  1
  Si  Si11  1  0.800696  0.087012  0.278004  1
  O  O12  1  0.117456  0.051361  0.838498  1
  O  O13  1  0.108137  0.716507  0.614180  1
  O  O14  1  0.117456  0.448639  0.338498  1
  O  O15  1  0.211137  0.075142  0.545446  1
  O  O16  1  0.108137  0.783493  0.114180  1
  O  O17  1  0.383400  0.868370  0.877624  1
  O  O18  1  0.387653  0.381613  0.825619  1
  O  O19  1  0.211137  0.424858  0.045446  1
  O  O20  1  0.383400  0.631630  0.377624  1
  O  O21  1  0.387653  0.118387  0.325619  1
  O  O22  1  0.612347  0.881613  0.674381  1
  O  O23  1  0.616600  0.368370  0.622376  1
  O  O24  1  0.788863  0.575142  0.954554  1
  O  O25  1  0.612347  0.618387  0.174381  1
  O  O26  1  0.616600  0.131630  0.122376  1
  O  O27  1  0.891863  0.216507  0.885820  1
  O  O28  1  0.788863  0.924858  0.454554  1
  O  O29  1  0.882544  0.551361  0.661502  1
  O  O30  1  0.891863  0.283493  0.385820  1
  O  O31  1  0.882544  0.948639  0.161502  1
