# generated using pymatgen
data_Mn6O7F5
_symmetry_space_group_name_H-M   'P 1'
_cell_length_a   7.36255250
_cell_length_b   5.53594041
_cell_length_c   5.58062456
_cell_angle_alpha   71.59998178
_cell_angle_beta   73.48855049
_cell_angle_gamma   72.06132892
_symmetry_Int_Tables_number   1
_chemical_formula_structural   Mn6O7F5
_chemical_formula_sum   'Mn6 O7 F5'
_cell_volume   200.88477795
_cell_formula_units_Z   1
loop_
 _symmetry_equiv_pos_site_id
 _symmetry_equiv_pos_as_xyz
  1  'x, y, z'
loop_
 _atom_site_type_symbol
 _atom_site_label
 _atom_site_symmetry_multiplicity
 _atom_site_fract_x
 _atom_site_fract_y
 _atom_site_fract_z
 _atom_site_occupancy
  Mn  Mn0  1  0.837950  0.686079  0.693494  1
  Mn  Mn1  1  0.674115  0.338639  0.337575  1
  Mn  Mn2  1  0.311688  0.679439  0.610822  1
  Mn  Mn3  1  0.164389  0.329180  0.333078  1
  Mn  Mn4  1  0.502717  0.990669  0.983224  1
  Mn  Mn5  1  0.998975  0.975985  0.044662  1
  O  O6  1  0.672173  0.025226  0.643658  1
  O  O7  1  0.958414  0.226141  0.250065  1
  O  O8  1  0.025940  0.771185  0.797035  1
  O  O9  1  0.381236  0.430414  0.412967  1
  O  O10  1  0.328414  0.973283  0.321642  1
  O  O11  1  0.673170  0.645061  0.030532  1
  O  O12  1  0.002969  0.683069  0.344691  1
  F  F13  1  0.339016  0.365653  0.922729  1
  F  F14  1  0.305767  0.892416  0.849968  1
  F  F15  1  0.642117  0.573256  0.577287  1
  F  F16  1  0.690686  0.112658  0.105629  1
  F  F17  1  0.990261  0.301645  0.740944  1
