# generated using pymatgen
data_Li2Mn3F8
_symmetry_space_group_name_H-M   'P 1'
_cell_length_a   5.78363292
_cell_length_b   10.28835121
_cell_length_c   6.37557579
_cell_angle_alpha   90.00000000
_cell_angle_beta   90.00000000
_cell_angle_gamma   90.00000000
_symmetry_Int_Tables_number   1
_chemical_formula_structural   Li2Mn3F8
_chemical_formula_sum   'Li4 Mn6 F16'
_cell_volume   379.37255987
_cell_formula_units_Z   2
loop_
 _symmetry_equiv_pos_site_id
 _symmetry_equiv_pos_as_xyz
  1  'x, y, z'
loop_
 _atom_site_type_symbol
 _atom_site_label
 _atom_site_symmetry_multiplicity
 _atom_site_fract_x
 _atom_site_fract_y
 _atom_site_fract_z
 _atom_site_occupancy
  Li  Li0  1  0.725469  0.775657  0.500000  1
  Li  Li1  1  0.743517  0.720310  0.000000  1
  Li  Li2  1  0.256483  0.220310  0.500000  1
  Li  Li3  1  0.274531  0.275657  0.000000  1
  Mn  Mn4  1  0.020308  0.502152  0.247039  1
  Mn  Mn5  1  0.020308  0.502152  0.752961  1
  Mn  Mn6  1  0.520037  0.493348  0.500000  1
  Mn  Mn7  1  0.479963  0.993348  0.000000  1
  Mn  Mn8  1  0.979692  0.002152  0.252961  1
  Mn  Mn9  1  0.979692  0.002152  0.747039  1
  F  F10  1  0.196836  0.598002  0.500000  1
  F  F11  1  0.146957  0.902054  0.000000  1
  F  F12  1  0.303045  0.116472  0.221854  1
  F  F13  1  0.303045  0.116472  0.778146  1
  F  F14  1  0.332190  0.377711  0.278558  1
  F  F15  1  0.332190  0.377711  0.721442  1
  F  F16  1  0.055596  0.633893  0.000000  1
  F  F17  1  0.023498  0.869245  0.500000  1
  F  F18  1  0.976502  0.369245  0.000000  1
  F  F19  1  0.944404  0.133893  0.500000  1
  F  F20  1  0.667810  0.877711  0.221442  1
  F  F21  1  0.667810  0.877711  0.778558  1
  F  F22  1  0.696955  0.616472  0.278146  1
  F  F23  1  0.696955  0.616472  0.721854  1
  F  F24  1  0.853043  0.402054  0.500000  1
  F  F25  1  0.803164  0.098002  0.000000  1
