# generated using pymatgen
data_Li3Mn2(PO4)3
_symmetry_space_group_name_H-M   'P 1'
_cell_length_a   8.93564517
_cell_length_b   12.12054242
_cell_length_c   8.65827916
_cell_angle_alpha   90.00000000
_cell_angle_beta   90.00000000
_cell_angle_gamma   90.00000000
_symmetry_Int_Tables_number   1
_chemical_formula_structural   Li3Mn2(PO4)3
_chemical_formula_sum   'Li12 Mn8 P12 O48'
_cell_volume   937.73376710
_cell_formula_units_Z   4
loop_
 _symmetry_equiv_pos_site_id
 _symmetry_equiv_pos_as_xyz
  1  'x, y, z'
loop_
 _atom_site_type_symbol
 _atom_site_label
 _atom_site_symmetry_multiplicity
 _atom_site_fract_x
 _atom_site_fract_y
 _atom_site_fract_z
 _atom_site_occupancy
  Li  Li0  1  0.218267  0.181745  0.773302  1
  Li  Li1  1  0.218267  0.818255  0.726698  1
  Li  Li2  1  0.281733  0.681745  0.226698  1
  Li  Li3  1  0.281733  0.318255  0.273302  1
  Li  Li4  1  0.552842  0.214479  0.434002  1
  Li  Li5  1  0.552842  0.785521  0.065998  1
  Li  Li6  1  0.696646  0.315160  0.769374  1
  Li  Li7  1  0.696646  0.684840  0.730626  1
  Li  Li8  1  0.803354  0.184840  0.269374  1
  Li  Li9  1  0.803354  0.815160  0.230626  1
  Li  Li10  1  0.947158  0.285521  0.934002  1
  Li  Li11  1  0.947158  0.714479  0.565998  1
  Mn  Mn12  1  0.248208  0.112386  0.459962  1
  Mn  Mn13  1  0.248208  0.887614  0.040038  1
  Mn  Mn14  1  0.251792  0.387614  0.959962  1
  Mn  Mn15  1  0.251792  0.612386  0.540038  1
  Mn  Mn16  1  0.761776  0.389438  0.455970  1
  Mn  Mn17  1  0.761776  0.610562  0.044030  1
  Mn  Mn18  1  0.738224  0.110562  0.955970  1
  Mn  Mn19  1  0.738224  0.889438  0.544030  1
  P  P20  1  0.051506  0.500000  0.250000  1
  P  P21  1  0.106794  0.854048  0.392541  1
  P  P22  1  0.106794  0.145952  0.107459  1
  P  P23  1  0.393206  0.354048  0.607459  1
  P  P24  1  0.393206  0.645952  0.892541  1
  P  P25  1  0.448494  0.000000  0.750000  1
  P  P26  1  0.554378  0.000000  0.250000  1
  P  P27  1  0.606647  0.354031  0.111389  1
  P  P28  1  0.606647  0.645969  0.388611  1
  P  P29  1  0.893353  0.145969  0.611389  1
  P  P30  1  0.893353  0.854031  0.888611  1
  P  P31  1  0.945622  0.500000  0.750000  1
  O  O32  1  0.035505  0.576001  0.643970  1
  O  O33  1  0.035505  0.423999  0.856030  1
  O  O34  1  0.062165  0.165862  0.610452  1
  O  O35  1  0.062165  0.834138  0.889548  1
  O  O36  1  0.151987  0.029261  0.065044  1
  O  O37  1  0.151987  0.970739  0.434956  1
  O  O38  1  0.158258  0.420773  0.157205  1
  O  O39  1  0.158258  0.579227  0.342795  1
  O  O40  1  0.167745  0.179057  0.269188  1
  O  O41  1  0.167745  0.820943  0.230812  1
  O  O42  1  0.167328  0.228353  0.981537  1
  O  O43  1  0.167328  0.771647  0.518463  1
  O  O44  1  0.332672  0.271647  0.481537  1
  O  O45  1  0.332672  0.728353  0.018463  1
  O  O46  1  0.332255  0.679057  0.730812  1
  O  O47  1  0.332255  0.320943  0.769188  1
  O  O48  1  0.341742  0.079227  0.657205  1
  O  O49  1  0.341742  0.920773  0.842795  1
  O  O50  1  0.348013  0.470739  0.565044  1
  O  O51  1  0.348013  0.529261  0.934956  1
  O  O52  1  0.437835  0.334138  0.110452  1
  O  O53  1  0.437835  0.665862  0.389548  1
  O  O54  1  0.464495  0.076002  0.356030  1
  O  O55  1  0.464495  0.923999  0.143970  1
  O  O56  1  0.538924  0.924665  0.645400  1
  O  O57  1  0.538924  0.075335  0.854600  1
  O  O58  1  0.563915  0.335770  0.603726  1
  O  O59  1  0.563915  0.664230  0.896274  1
  O  O60  1  0.650071  0.472998  0.079304  1
  O  O61  1  0.650071  0.527002  0.420696  1
  O  O62  1  0.662280  0.078968  0.159142  1
  O  O63  1  0.662280  0.921032  0.340858  1
  O  O64  1  0.664737  0.316163  0.276822  1
  O  O65  1  0.664737  0.683837  0.223178  1
  O  O66  1  0.691010  0.280950  0.989403  1
  O  O67  1  0.691010  0.719050  0.510597  1
  O  O68  1  0.808990  0.219050  0.489403  1
  O  O69  1  0.808990  0.780950  0.010597  1
  O  O70  1  0.835263  0.183837  0.776822  1
  O  O71  1  0.835263  0.816163  0.723178  1
  O  O72  1  0.837720  0.421032  0.659142  1
  O  O73  1  0.837720  0.578968  0.840858  1
  O  O74  1  0.849929  0.027002  0.579304  1
  O  O75  1  0.849929  0.972998  0.920696  1
  O  O76  1  0.936085  0.164230  0.103726  1
  O  O77  1  0.936085  0.835770  0.396274  1
  O  O78  1  0.961076  0.424665  0.354600  1
  O  O79  1  0.961076  0.575335  0.145400  1
