# generated using pymatgen
data_K2TeH10(NO7)2
_symmetry_space_group_name_H-M   'P 1'
_cell_length_a   13.34935792
_cell_length_b   7.19622968
_cell_length_c   7.05519092
_cell_angle_alpha   90.00000000
_cell_angle_beta   99.96650926
_cell_angle_gamma   90.00000000
_symmetry_Int_Tables_number   1
_chemical_formula_structural   K2TeH10(NO7)2
_chemical_formula_sum   'K4 Te2 H20 N4 O28'
_cell_volume   667.52926200
_cell_formula_units_Z   2
loop_
 _symmetry_equiv_pos_site_id
 _symmetry_equiv_pos_as_xyz
  1  'x, y, z'
loop_
 _atom_site_type_symbol
 _atom_site_label
 _atom_site_symmetry_multiplicity
 _atom_site_fract_x
 _atom_site_fract_y
 _atom_site_fract_z
 _atom_site_occupancy
  K  K0  1  0.659814  0.518767  0.489490  1
  K  K1  1  0.840186  0.018767  0.510510  1
  K  K2  1  0.340186  0.481233  0.510510  1
  K  K3  1  0.159814  0.981233  0.489490  1
  Te  Te4  1  0.500000  0.500000  0.000000  1
  Te  Te5  1  0.000000  0.000000  0.000000  1
  H  H6  1  0.491459  0.196158  0.819093  1
  H  H7  1  0.008542  0.696158  0.180907  1
  H  H8  1  0.508541  0.803842  0.180907  1
  H  H9  1  0.991459  0.303842  0.819093  1
  H  H10  1  0.968670  0.237705  0.244602  1
  H  H11  1  0.531330  0.737705  0.755398  1
  H  H12  1  0.031330  0.762295  0.755398  1
  H  H13  1  0.468670  0.262295  0.244602  1
  H  H14  1  0.681999  0.433537  0.981189  1
  H  H15  1  0.818001  0.933537  0.018811  1
  H  H16  1  0.318001  0.566463  0.018811  1
  H  H17  1  0.181999  0.066463  0.981189  1
  H  H18  1  0.685182  0.118009  0.119149  1
  H  H19  1  0.814818  0.618009  0.880851  1
  H  H20  1  0.314818  0.881991  0.880851  1
  H  H21  1  0.185182  0.381991  0.119149  1
  H  H22  1  0.834681  0.402562  0.870265  1
  H  H23  1  0.665319  0.902562  0.129735  1
  H  H24  1  0.165319  0.597438  0.129735  1
  H  H25  1  0.334681  0.097438  0.870265  1
  N  N26  1  0.880712  0.512777  0.341979  1
  N  N27  1  0.619288  0.012777  0.658021  1
  N  N28  1  0.119288  0.487223  0.658021  1
  N  N29  1  0.380712  0.987223  0.341979  1
  O  O30  1  0.939393  0.219666  0.860028  1
  O  O31  1  0.560607  0.719666  0.139972  1
  O  O32  1  0.060607  0.780334  0.139972  1
  O  O33  1  0.439393  0.280334  0.860028  1
  O  O34  1  0.974200  0.098239  0.245421  1
  O  O35  1  0.525800  0.598239  0.754579  1
  O  O36  1  0.025800  0.901761  0.754579  1
  O  O37  1  0.474200  0.401761  0.245421  1
  O  O38  1  0.633413  0.380671  0.060825  1
  O  O39  1  0.866587  0.880671  0.939175  1
  O  O40  1  0.366587  0.619329  0.939175  1
  O  O41  1  0.133413  0.119329  0.060825  1
  O  O42  1  0.837518  0.376147  0.403086  1
  O  O43  1  0.662482  0.876147  0.596914  1
  O  O44  1  0.162482  0.623853  0.596914  1
  O  O45  1  0.337518  0.123853  0.403086  1
  O  O46  1  0.650339  0.175460  0.640752  1
  O  O47  1  0.849661  0.675460  0.359248  1
  O  O48  1  0.349661  0.824540  0.359248  1
  O  O49  1  0.150339  0.324540  0.640752  1
  O  O50  1  0.541945  0.984751  0.742087  1
  O  O51  1  0.958055  0.484751  0.257913  1
  O  O52  1  0.458055  0.015249  0.257913  1
  O  O53  1  0.041945  0.515249  0.742087  1
  O  O54  1  0.780051  0.497085  0.858417  1
  O  O55  1  0.719949  0.997085  0.141583  1
  O  O56  1  0.219949  0.502915  0.141583  1
  O  O57  1  0.280051  0.002915  0.858417  1
