# generated using pymatgen
data_LiMnPO4
_symmetry_space_group_name_H-M   'P 1'
_cell_length_a   5.12571415
_cell_length_b   5.22496001
_cell_length_c   8.16300656
_cell_angle_alpha   87.23858682
_cell_angle_beta   95.63667022
_cell_angle_gamma   119.37362265
_symmetry_Int_Tables_number   1
_chemical_formula_structural   LiMnPO4
_chemical_formula_sum   'Li2 Mn2 P2 O8'
_cell_volume   189.59192195
_cell_formula_units_Z   2
loop_
 _symmetry_equiv_pos_site_id
 _symmetry_equiv_pos_as_xyz
  1  'x, y, z'
loop_
 _atom_site_type_symbol
 _atom_site_label
 _atom_site_symmetry_multiplicity
 _atom_site_fract_x
 _atom_site_fract_y
 _atom_site_fract_z
 _atom_site_occupancy
  Li  Li0  1  0.995025  0.171242  0.983753  1
  Li  Li1  1  0.823783  0.828758  0.483754  1
  Mn  Mn2  1  0.257966  0.611561  0.289268  1
  Mn  Mn3  1  0.646404  0.388439  0.789268  1
  P  P4  1  0.315936  0.686192  0.703422  1
  P  P5  1  0.629743  0.313808  0.203422  1
  O  O6  1  0.028617  0.716534  0.679559  1
  O  O7  1  0.395695  0.602887  0.540464  1
  O  O8  1  0.269804  0.432188  0.825805  1
  O  O9  1  0.592645  0.975311  0.769128  1
  O  O10  1  0.312083  0.283466  0.179559  1
  O  O11  1  0.792808  0.397113  0.040464  1
  O  O12  1  0.837616  0.567812  0.325805  1
  O  O13  1  0.617334  0.024689  0.269128  1
