# generated using pymatgen
data_LiLa14(Cu3O14)2
_symmetry_space_group_name_H-M   'P 1'
_cell_length_a   11.69650298
_cell_length_b   17.10833347
_cell_length_c   7.08580885
_cell_angle_alpha   83.22692170
_cell_angle_beta   105.07434252
_cell_angle_gamma   102.99030015
_symmetry_Int_Tables_number   1
_chemical_formula_structural   LiLa14(Cu3O14)2
_chemical_formula_sum   'Li2 La28 Cu12 O56'
_cell_volume   1331.42591680
_cell_formula_units_Z   2
loop_
 _symmetry_equiv_pos_site_id
 _symmetry_equiv_pos_as_xyz
  1  'x, y, z'
loop_
 _atom_site_type_symbol
 _atom_site_label
 _atom_site_symmetry_multiplicity
 _atom_site_fract_x
 _atom_site_fract_y
 _atom_site_fract_z
 _atom_site_occupancy
  Li  Li0  1  0.142868  0.214277  0.142867  1
  Li  Li1  1  0.142847  0.714299  0.142851  1
  La  La2  1  0.992263  0.161397  0.716510  1
  La  La3  1  0.560856  0.016982  0.281711  1
  La  La4  1  0.872057  0.126962  0.146932  1
  La  La5  1  0.584349  0.191630  0.863326  1
  La  La6  1  0.155602  0.050849  0.432360  1
  La  La7  1  0.701354  0.236907  0.422378  1
  La  La8  1  0.270568  0.095473  0.996291  1
  La  La9  1  0.413650  0.301586  0.138764  1
  La  La10  1  0.848105  0.446203  0.567819  1
  La  La11  1  0.724853  0.411568  0.004095  1
  La  La12  1  0.293434  0.267147  0.569196  1
  La  La13  1  0.015149  0.333090  0.289463  1
  La  La14  1  0.874866  0.622233  0.149012  1
  La  La15  1  0.440351  0.476926  0.721769  1
  La  La16  1  0.989731  0.666156  0.714768  1
  La  La17  1  0.558713  0.522626  0.278696  1
  La  La18  1  0.130136  0.377726  0.853332  1
  La  La19  1  0.272624  0.590330  0.997608  1
  La  La20  1  0.704760  0.731511  0.425472  1
  La  La21  1  0.580957  0.697094  0.860244  1
  La  La22  1  0.152911  0.556277  0.428641  1
  La  La23  1  0.296003  0.762453  0.570958  1
  La  La24  1  0.726994  0.905957  0.006935  1
  La  La25  1  0.845322  0.951647  0.563992  1
  La  La26  1  0.410854  0.806360  0.136713  1
  La  La27  1  0.132808  0.872286  0.857093  1
  La  La28  1  0.437646  0.982365  0.717850  1
  La  La29  1  0.013102  0.838248  0.288082  1
  Cu  Cu30  1  0.714577  0.071317  0.714170  1
  Cu  Cu31  1  0.858356  0.285698  0.857447  1
  Cu  Cu32  1  0.999740  0.000056  0.000306  1
  Cu  Cu33  1  0.427353  0.142879  0.428201  1
  Cu  Cu34  1  0.571155  0.357277  0.571577  1
  Cu  Cu35  1  0.713732  0.571477  0.713613  1
  Cu  Cu36  1  0.286009  0.428525  0.285416  1
  Cu  Cu37  1  0.000770  0.500363  -0.000009  1
  Cu  Cu38  1  0.857750  0.786066  0.858348  1
  Cu  Cu39  1  0.427961  0.642509  0.427355  1
  Cu  Cu40  1  0.571978  0.857088  0.572093  1
  Cu  Cu41  1  0.284879  0.928213  0.285665  1
  O  O42  1  0.854630  0.034495  0.869067  1
  O  O43  1  0.798357  0.087472  0.428942  1
  O  O44  1  0.629532  0.054873  0.997553  1
  O  O45  1  0.788600  0.179136  0.775001  1
  O  O46  1  0.359246  0.035504  0.345464  1
  O  O47  1  0.572883  0.108429  0.558460  1
  O  O48  1  0.782321  0.249147  0.152770  1
  O  O49  1  0.354763  0.106360  0.726272  1
  O  O50  1  0.930955  0.322216  0.559467  1
  O  O51  1  0.503390  0.179427  0.132929  1
  O  O52  1  0.073169  0.037511  0.701917  1
  O  O53  1  0.497169  0.249515  0.510760  1
  O  O54  1  0.926472  0.393067  0.940256  1
  O  O55  1  0.283601  0.177326  0.297007  1
  O  O56  1  0.712785  0.320145  0.727207  1
  O  O57  1  0.067617  0.104367  0.080436  1
  O  O58  1  0.656173  0.373698  0.288206  1
  O  O59  1  0.225121  0.230528  0.860482  1
  O  O60  1  0.915172  0.484190  0.284670  1
  O  O61  1  0.487382  0.341103  0.856753  1
  O  O62  1  0.060588  0.198048  0.425232  1
  O  O63  1  0.645866  0.465245  0.631623  1
  O  O64  1  0.218115  0.324215  0.205309  1
  O  O65  1  0.431151  0.394056  0.416725  1
  O  O66  1  0.859671  0.537058  0.846473  1
  O  O67  1  0.002078  0.251253  0.988686  1
  O  O68  1  0.639448  0.534274  0.007741  1
  O  O69  1  0.212556  0.391066  0.583780  1
  O  O70  1  0.788024  0.608211  0.418165  1
  O  O71  1  0.360761  0.465486  0.990756  1
  O  O72  1  0.353362  0.533356  0.366719  1
  O  O73  1  0.566853  0.606442  0.581174  1
  O  O74  1  0.995868  0.749903  0.009200  1
  O  O75  1  0.782481  0.677284  0.796305  1
  O  O76  1  0.140768  0.463079  0.154237  1
  O  O77  1  0.513881  0.658592  0.143801  1
  O  O78  1  0.083433  0.516343  0.713049  1
  O  O79  1  0.941667  0.801659  0.571141  1
  O  O80  1  0.771823  0.769973  0.141909  1
  O  O81  1  0.344056  0.626908  0.714554  1
  O  O82  1  0.932375  0.895267  0.918997  1
  O  O83  1  0.503163  0.751188  0.489343  1
  O  O84  1  0.073971  0.607008  0.060716  1
  O  O85  1  0.718843  0.822136  0.704536  1
  O  O86  1  0.289926  0.678646  0.276599  1
  O  O87  1  0.497680  0.820349  0.867590  1
  O  O88  1  0.070129  0.678960  0.435235  1
  O  O89  1  0.924946  0.963080  0.294985  1
  O  O90  1  0.646271  0.894296  0.277927  1
  O  O91  1  0.215581  0.749606  0.850485  1
  O  O92  1  0.211725  0.821525  0.224992  1
  O  O93  1  0.639844  0.963315  0.654097  1
  O  O94  1  0.426023  0.891522  0.439224  1
  O  O95  1  0.370539  0.944378  0.001040  1
  O  O96  1  0.202279  0.912229  0.572673  1
  O  O97  1  0.144918  0.965503  0.131451  1
