# generated using pymatgen
data_LiTiP2O7
_symmetry_space_group_name_H-M   'P 1'
_cell_length_a   6.52240074
_cell_length_b   6.40109376
_cell_length_c   6.83566458
_cell_angle_alpha   113.18767550
_cell_angle_beta   97.21202264
_cell_angle_gamma   80.38105367
_symmetry_Int_Tables_number   1
_chemical_formula_structural   LiTiP2O7
_chemical_formula_sum   'Li2 Ti2 P4 O14'
_cell_volume   258.08746848
_cell_formula_units_Z   2
loop_
 _symmetry_equiv_pos_site_id
 _symmetry_equiv_pos_as_xyz
  1  'x, y, z'
loop_
 _atom_site_type_symbol
 _atom_site_label
 _atom_site_symmetry_multiplicity
 _atom_site_fract_x
 _atom_site_fract_y
 _atom_site_fract_z
 _atom_site_occupancy
  Li  Li0  1  0.082258  0.691883  0.156824  1
  Li  Li1  1  0.917742  0.308117  0.843176  1
  Ti  Ti2  1  0.348735  0.907032  0.780484  1
  Ti  Ti3  1  0.651265  0.092968  0.219516  1
  P  P4  1  0.134651  0.218371  0.232731  1
  P  P5  1  0.395873  0.351287  0.652577  1
  P  P6  1  0.604127  0.648713  0.347423  1
  P  P7  1  0.865349  0.781629  0.767269  1
  O  O8  1  0.018846  0.933168  0.754682  1
  O  O9  1  0.044065  0.389732  0.135851  1
  O  O10  1  0.216804  0.364040  0.471725  1
  O  O11  1  0.323902  0.208192  0.759270  1
  O  O12  1  0.332466  0.062160  0.120220  1
  O  O13  1  0.395863  0.601969  0.805579  1
  O  O14  1  0.396185  0.753480  0.451006  1
  O  O15  1  0.603815  0.246520  0.548994  1
  O  O16  1  0.604137  0.398031  0.194421  1
  O  O17  1  0.667534  0.937840  0.879780  1
  O  O18  1  0.676098  0.791808  0.240730  1
  O  O19  1  0.783196  0.635960  0.528275  1
  O  O20  1  0.955935  0.610268  0.864149  1
  O  O21  1  0.981154  0.066832  0.245318  1
