# generated using pymatgen
data_V3O5F
_symmetry_space_group_name_H-M   'P 1'
_cell_length_a   7.26034851
_cell_length_b   5.52145023
_cell_length_c   5.51567562
_cell_angle_alpha   73.85538686
_cell_angle_beta   71.01897097
_cell_angle_gamma   70.89633269
_symmetry_Int_Tables_number   1
_chemical_formula_structural   V3O5F
_chemical_formula_sum   'V6 O10 F2'
_cell_volume   193.89487753
_cell_formula_units_Z   2
loop_
 _symmetry_equiv_pos_site_id
 _symmetry_equiv_pos_as_xyz
  1  'x, y, z'
loop_
 _atom_site_type_symbol
 _atom_site_label
 _atom_site_symmetry_multiplicity
 _atom_site_fract_x
 _atom_site_fract_y
 _atom_site_fract_z
 _atom_site_occupancy
  V  V0  1  0.815974  0.677319  0.689779  1
  V  V1  1  0.670642  0.334849  0.338530  1
  V  V2  1  0.336217  0.643506  0.653785  1
  V  V3  1  0.180093  0.306741  0.324906  1
  V  V4  1  0.511128  0.002892  0.008336  1
  V  V5  1  0.984572  0.033727  0.975851  1
  O  O6  1  0.677059  0.025727  0.628412  1
  O  O7  1  0.326676  0.368550  0.971467  1
  O  O8  1  0.980689  0.217525  0.216759  1
  O  O9  1  0.619675  0.576657  0.585724  1
  O  O10  1  0.704556  0.101932  0.092692  1
  O  O11  1  0.036138  0.775513  0.780107  1
  O  O12  1  0.360509  0.428601  0.436210  1
  O  O13  1  0.996274  0.318750  0.683479  1
  O  O14  1  0.670411  0.627965  0.040462  1
  O  O15  1  0.329257  0.959331  0.375842  1
  F  F16  1  0.300853  0.901545  0.896400  1
  F  F17  1  0.999277  0.698866  0.301258  1
