# generated using pymatgen
data_Li4VFe(TeO6)2
_symmetry_space_group_name_H-M   'P 1'
_cell_length_a   5.38059272
_cell_length_b   10.78973284
_cell_length_c   9.48483593
_cell_angle_alpha   28.36314595
_cell_angle_beta   51.78523324
_cell_angle_gamma   56.89213584
_symmetry_Int_Tables_number   1
_chemical_formula_structural   Li4VFe(TeO6)2
_chemical_formula_sum   'Li4 V1 Fe1 Te2 O12'
_cell_volume   205.52633140
_cell_formula_units_Z   1
loop_
 _symmetry_equiv_pos_site_id
 _symmetry_equiv_pos_as_xyz
  1  'x, y, z'
loop_
 _atom_site_type_symbol
 _atom_site_label
 _atom_site_symmetry_multiplicity
 _atom_site_fract_x
 _atom_site_fract_y
 _atom_site_fract_z
 _atom_site_occupancy
  Li  Li0  1  0.290948  0.004217  0.268228  1
  Li  Li1  1  0.270099  0.499249  0.291608  1
  Li  Li2  1  0.791954  0.996013  0.805587  1
  Li  Li3  1  0.775934  0.498116  0.772245  1
  V  V4  1  0.001232  0.502758  0.009693  1
  Fe  Fe5  1  0.008324  0.999437  0.003386  1
  Te  Te6  1  0.513937  0.998701  0.500610  1
  Te  Te7  1  0.489992  0.505874  0.504474  1
  O  O8  1  0.358461  0.304275  0.127326  1
  O  O9  1  0.237733  0.123268  0.615515  1
  O  O10  1  0.136868  0.331926  0.713130  1
  O  O11  1  0.877960  0.198175  0.225978  1
  O  O12  1  0.385202  0.798703  0.127604  1
  O  O13  1  0.754824  0.378218  0.357225  1
  O  O14  1  0.228652  0.626965  0.628634  1
  O  O15  1  0.622916  0.186305  0.861727  1
  O  O16  1  0.122996  0.801522  0.755521  1
  O  O17  1  0.864527  0.689720  0.241287  1
  O  O18  1  0.714017  0.878151  0.381645  1
  O  O19  1  0.624627  0.678408  0.879778  1
