# generated using pymatgen
data_NaCa3AlFe3(SiO3)8
_symmetry_space_group_name_H-M   'P 1'
_cell_length_a   5.35285365
_cell_length_b   26.70199045
_cell_length_c   9.84035605
_cell_angle_alpha   42.51924778
_cell_angle_beta   73.55168612
_cell_angle_gamma   77.95405591
_symmetry_Int_Tables_number   1
_chemical_formula_structural   NaCa3AlFe3(SiO3)8
_chemical_formula_sum   'Na2 Ca6 Al2 Fe6 Si16 O48'
_cell_volume   911.66472013
_cell_formula_units_Z   2
loop_
 _symmetry_equiv_pos_site_id
 _symmetry_equiv_pos_as_xyz
  1  'x, y, z'
loop_
 _atom_site_type_symbol
 _atom_site_label
 _atom_site_symmetry_multiplicity
 _atom_site_fract_x
 _atom_site_fract_y
 _atom_site_fract_z
 _atom_site_occupancy
  Na  Na0  1  0.250000  0.848080  0.303840  1
  Na  Na1  1  0.750000  0.901920  0.696161  1
  Ca  Ca2  1  0.250000  0.096069  0.307862  1
  Ca  Ca3  1  0.250000  0.353186  0.293628  1
  Ca  Ca4  1  0.250000  0.606054  0.287894  1
  Ca  Ca5  1  0.750000  0.143946  0.712106  1
  Ca  Ca6  1  0.750000  0.396814  0.706372  1
  Ca  Ca7  1  0.750000  0.653931  0.692138  1
  Al  Al8  1  0.250000  0.803311  0.893380  1
  Al  Al9  1  0.750000  0.946689  0.106620  1
  Fe  Fe10  1  0.250000  0.039213  0.921574  1
  Fe  Fe11  1  0.250000  0.294764  0.910472  1
  Fe  Fe12  1  0.750000  0.197712  0.104577  1
  Fe  Fe13  1  0.250000  0.552288  0.895423  1
  Fe  Fe14  1  0.750000  0.455236  0.089528  1
  Fe  Fe15  1  0.750000  0.710787  0.078426  1
  Si  Si16  1  0.263189  0.201079  0.387895  1
  Si  Si17  1  0.236811  0.201079  0.807789  1
  Si  Si18  1  0.263368  0.456122  0.377202  1
  Si  Si19  1  0.765654  0.038433  0.207549  1
  Si  Si20  1  0.236632  0.456122  0.798313  1
  Si  Si21  1  0.265654  0.711567  0.361281  1
  Si  Si22  1  0.734346  0.038433  0.638719  1
  Si  Si23  1  0.763368  0.293878  0.201687  1
  Si  Si24  1  0.234346  0.711567  0.792451  1
  Si  Si25  1  0.272371  0.948289  0.390551  1
  Si  Si26  1  0.736632  0.293878  0.622798  1
  Si  Si27  1  0.763189  0.548921  0.192211  1
  Si  Si28  1  0.227629  0.948289  0.816292  1
  Si  Si29  1  0.736811  0.548921  0.612105  1
  Si  Si30  1  0.772371  0.801711  0.183708  1
  Si  Si31  1  0.727629  0.801711  0.609449  1
  O  O32  1  0.007061  0.003092  0.334199  1
  O  O33  1  0.994146  0.255151  0.342069  1
  O  O34  1  0.177857  0.123087  0.621276  1
  O  O35  1  0.993834  0.509571  0.333025  1
  O  O36  1  0.345812  0.201088  0.216491  1
  O  O37  1  0.154188  0.201088  0.979160  1
  O  O38  1  0.178751  0.377091  0.608789  1
  O  O39  1  0.992583  0.761094  0.332770  1
  O  O40  1  0.492939  0.003092  0.653432  1
  O  O41  1  0.322143  0.123087  0.886375  1
  O  O42  1  0.348067  0.458271  0.201700  1
  O  O43  1  0.686680  0.119404  0.113186  1
  O  O44  1  0.493834  0.240429  0.371307  1
  O  O45  1  0.839043  0.031630  0.048169  1
  O  O46  1  0.151933  0.458271  0.965215  1
  O  O47  1  0.186680  0.630596  0.590801  1
  O  O48  1  0.505854  0.255151  0.637329  1
  O  O49  1  0.321249  0.377091  0.882843  1
  O  O50  1  0.660957  0.031630  0.825312  1
  O  O51  1  0.339043  0.718370  0.174688  1
  O  O52  1  0.678751  0.372909  0.117157  1
  O  O53  1  0.494146  0.494849  0.362671  1
  O  O54  1  0.813320  0.119404  0.409199  1
  O  O55  1  0.848067  0.291729  0.034785  1
  O  O56  1  0.160957  0.718370  0.951831  1
  O  O57  1  0.186506  0.870629  0.626022  1
  O  O58  1  0.506166  0.509571  0.628693  1
  O  O59  1  0.313320  0.630596  0.886814  1
  O  O60  1  0.651933  0.291729  0.798300  1
  O  O61  1  0.384408  0.951011  0.212016  1
  O  O62  1  0.677857  0.626913  0.113625  1
  O  O63  1  0.507061  0.746908  0.346568  1
  O  O64  1  0.821249  0.372909  0.391211  1
  O  O65  1  0.845812  0.548912  0.020840  1
  O  O66  1  0.115592  0.951011  0.983944  1
  O  O67  1  0.507417  0.761094  0.622854  1
  O  O68  1  0.313494  0.870629  0.891464  1
  O  O69  1  0.654188  0.548912  0.783509  1
  O  O70  1  0.686506  0.879371  0.108536  1
  O  O71  1  0.492583  0.988906  0.377146  1
  O  O72  1  0.006166  0.240429  0.666975  1
  O  O73  1  0.822143  0.626913  0.378724  1
  O  O74  1  0.884408  0.798989  0.016056  1
  O  O75  1  0.615592  0.798989  0.787984  1
  O  O76  1  0.005854  0.494849  0.657931  1
  O  O77  1  0.813494  0.879371  0.373978  1
  O  O78  1  0.992939  0.746908  0.665801  1
  O  O79  1  0.007417  0.988906  0.667230  1
