# generated using pymatgen
data_Zn(NiO2)2
_symmetry_space_group_name_H-M   'P 1'
_cell_length_a   5.86519767
_cell_length_b   5.86467195
_cell_length_c   5.86404747
_cell_angle_alpha   59.98816426
_cell_angle_beta   59.98895045
_cell_angle_gamma   59.99117517
_symmetry_Int_Tables_number   1
_chemical_formula_structural   Zn(NiO2)2
_chemical_formula_sum   'Zn2 Ni4 O8'
_cell_volume   142.59515139
_cell_formula_units_Z   2
loop_
 _symmetry_equiv_pos_site_id
 _symmetry_equiv_pos_as_xyz
  1  'x, y, z'
loop_
 _atom_site_type_symbol
 _atom_site_label
 _atom_site_symmetry_multiplicity
 _atom_site_fract_x
 _atom_site_fract_y
 _atom_site_fract_z
 _atom_site_occupancy
  Zn  Zn0  1  0.125049  0.124921  0.124952  1
  Zn  Zn1  1  0.874951  0.875079  0.875048  1
  Ni  Ni2  1  0.500000  0.500000  -0.000001  1
  Ni  Ni3  1  0.500000  -0.000001  0.500000  1
  Ni  Ni4  1  0.999999  0.500000  0.499999  1
  Ni  Ni5  1  0.500000  0.500001  0.500001  1
  O  O6  1  0.262086  0.262046  0.262106  1
  O  O7  1  0.713832  0.262031  0.262089  1
  O  O8  1  0.261983  0.714059  0.261996  1
  O  O9  1  0.262003  0.261956  0.714058  1
  O  O10  1  0.737997  0.738044  0.285942  1
  O  O11  1  0.738017  0.285941  0.738004  1
  O  O12  1  0.737914  0.737953  0.737894  1
  O  O13  1  0.286168  0.737969  0.737912  1
