# generated using pymatgen
data_Li3Fe(CoO3)2
_symmetry_space_group_name_H-M   'P 1'
_cell_length_a   6.45718306
_cell_length_b   2.84255389
_cell_length_c   5.75609967
_cell_angle_alpha   90.15068312
_cell_angle_beta   103.71097503
_cell_angle_gamma   77.19214927
_symmetry_Int_Tables_number   1
_chemical_formula_structural   Li3Fe(CoO3)2
_chemical_formula_sum   'Li3 Fe1 Co2 O6'
_cell_volume   99.94901720
_cell_formula_units_Z   1
loop_
 _symmetry_equiv_pos_site_id
 _symmetry_equiv_pos_as_xyz
  1  'x, y, z'
loop_
 _atom_site_type_symbol
 _atom_site_label
 _atom_site_symmetry_multiplicity
 _atom_site_fract_x
 _atom_site_fract_y
 _atom_site_fract_z
 _atom_site_occupancy
  Li  Li0  1  0.996518  0.005463  0.496980  1
  Li  Li1  1  0.332108  0.328107  0.832504  1
  Li  Li2  1  0.670678  0.658953  0.166094  1
  Fe  Fe3  1  0.335777  0.328567  0.333904  1
  Co  Co4  1  0.000741  0.996366  0.998597  1
  Co  Co5  1  0.670660  0.660931  0.668896  1
  O  O6  1  0.013249  0.491501  0.230624  1
  O  O7  1  0.352503  0.821231  0.570912  1
  O  O8  1  0.685107  0.154761  0.900499  1
  O  O9  1  0.319130  0.835875  0.096486  1
  O  O10  1  0.658256  0.165914  0.436727  1
  O  O11  1  0.986514  0.502381  0.766911  1
