# generated using pymatgen
data_Li8Mn7Fe(BO3)8
_symmetry_space_group_name_H-M   'P 1'
_cell_length_a   5.25051375
_cell_length_b   9.13094243
_cell_length_c   11.60981099
_cell_angle_alpha   68.51199570
_cell_angle_beta   77.71194890
_cell_angle_gamma   89.82138734
_symmetry_Int_Tables_number   1
_chemical_formula_structural   Li8Mn7Fe(BO3)8
_chemical_formula_sum   'Li8 Mn7 Fe1 B8 O24'
_cell_volume   504.32946053
_cell_formula_units_Z   1
loop_
 _symmetry_equiv_pos_site_id
 _symmetry_equiv_pos_as_xyz
  1  'x, y, z'
loop_
 _atom_site_type_symbol
 _atom_site_label
 _atom_site_symmetry_multiplicity
 _atom_site_fract_x
 _atom_site_fract_y
 _atom_site_fract_z
 _atom_site_occupancy
  Li  Li0  1  0.971105  0.960117  0.417231  1
  Li  Li1  1  0.705318  0.715537  0.917607  1
  Li  Li2  1  0.519542  0.491673  0.667714  1
  Li  Li3  1  0.727442  0.756112  0.168012  1
  Li  Li4  1  0.470877  0.460462  0.417901  1
  Li  Li5  1  0.206280  0.214941  0.916940  1
  Li  Li6  1  0.018844  0.991503  0.668326  1
  Li  Li7  1  0.228507  0.254463  0.168178  1
  Mn  Mn8  1  0.979268  0.646283  0.381338  1
  Mn  Mn9  1  0.724812  0.059300  0.885311  1
  Mn  Mn10  1  0.524604  0.845207  0.632919  1
  Mn  Mn11  1  0.755364  0.435023  0.133270  1
  Mn  Mn12  1  0.476814  0.143745  0.383547  1
  Mn  Mn13  1  0.227885  0.560787  0.882769  1
  Mn  Mn14  1  0.024049  0.345161  0.632901  1
  Fe  Fe15  1  0.248359  0.935328  0.132357  1
  B  B16  1  0.975590  0.314971  0.375467  1
  B  B17  1  0.733895  0.394515  0.876142  1
  B  B18  1  0.761881  0.104674  0.127186  1
  B  B19  1  0.529994  0.185732  0.625927  1
  B  B20  1  0.475815  0.815180  0.374610  1
  B  B21  1  0.232383  0.894520  0.876547  1
  B  B22  1  0.266308  0.609296  0.124895  1
  B  B23  1  0.029827  0.685623  0.625872  1
  O  O24  1  0.978553  0.890195  0.861455  1
  O  O25  1  0.902882  0.287651  0.846211  1
  O  O26  1  0.823885  0.505793  0.917795  1
  O  O27  1  0.929248  0.830286  0.611180  1
  O  O28  1  0.899307  0.575511  0.595822  1
  O  O29  1  0.761934  0.150162  0.667092  1
  O  O30  1  0.730729  0.345949  0.345209  1
  O  O31  1  0.479549  0.390020  0.861522  1
  O  O32  1  0.402636  0.788607  0.845601  1
  O  O33  1  0.596844  0.914842  0.417572  1
  O  O34  1  0.595540  0.685337  0.360871  1
  O  O35  1  0.321652  0.004750  0.919203  1
  O  O36  1  0.656431  0.985488  0.098169  1
  O  O37  1  0.428707  0.330067  0.611506  1
  O  O38  1  0.399276  0.075509  0.595772  1
  O  O39  1  0.598568  0.206493  0.166315  1
  O  O40  1  0.533769  0.629709  0.110816  1
  O  O41  1  0.262118  0.650187  0.667040  1
  O  O42  1  0.232217  0.847183  0.343477  1
  O  O43  1  0.096726  0.415665  0.417199  1
  O  O44  1  0.095619  0.185559  0.360795  1
  O  O45  1  0.163630  0.488090  0.096573  1
  O  O46  1  0.100275  0.710187  0.164397  1
  O  O47  1  0.031942  0.123405  0.113042  1
