# generated using pymatgen
data_LiVF5
_symmetry_space_group_name_H-M   'P 1'
_cell_length_a   6.78325618
_cell_length_b   10.63432241
_cell_length_c   10.63432241
_cell_angle_alpha   95.83809551
_cell_angle_beta   108.59836258
_cell_angle_gamma   71.40163742
_symmetry_Int_Tables_number   1
_chemical_formula_structural   LiVF5
_chemical_formula_sum   'Li8 V8 F40'
_cell_volume   689.08163681
_cell_formula_units_Z   8
loop_
 _symmetry_equiv_pos_site_id
 _symmetry_equiv_pos_as_xyz
  1  'x, y, z'
loop_
 _atom_site_type_symbol
 _atom_site_label
 _atom_site_symmetry_multiplicity
 _atom_site_fract_x
 _atom_site_fract_y
 _atom_site_fract_z
 _atom_site_occupancy
  Li  Li0  1  0.639307  0.720401  0.051223  1
  Li  Li1  1  0.191515  0.220401  0.551223  1
  Li  Li2  1  0.088084  0.051223  0.779599  1
  Li  Li3  1  0.140291  0.551223  0.279599  1
  Li  Li4  1  0.859709  0.448777  0.720401  1
  Li  Li5  1  0.911916  0.948777  0.220401  1
  Li  Li6  1  0.808485  0.779599  0.448777  1
  Li  Li7  1  0.360693  0.279599  0.948777  1
  V  V8  1  0.319721  0.041731  0.145628  1
  V  V9  1  0.861452  0.354372  0.041731  1
  V  V10  1  0.674093  0.145628  0.458269  1
  V  V11  1  0.715823  0.458269  0.354372  1
  V  V12  1  0.284177  0.541731  0.645628  1
  V  V13  1  0.325907  0.854372  0.541731  1
  V  V14  1  0.138548  0.645628  0.958269  1
  V  V15  1  0.680279  0.958269  0.854372  1
  F  F16  1  0.409484  0.166844  0.092911  1
  F  F17  1  0.031714  0.177512  0.117324  1
  F  F18  1  0.414389  0.117324  0.322488  1
  F  F19  1  0.816573  0.092911  0.333156  1
  F  F20  1  0.076329  0.407089  0.166844  1
  F  F21  1  0.709226  0.382676  0.177512  1
  F  F22  1  0.717739  0.529080  0.995233  1
  F  F23  1  0.248414  0.029080  0.495233  1
  F  F24  1  0.591901  0.322488  0.382676  1
  F  F25  1  0.432359  0.556049  0.285743  1
  F  F26  1  0.797335  0.056049  0.785743  1
  F  F27  1  0.002777  0.680276  0.094240  1
  F  F28  1  0.911187  0.180276  0.594240  1
  F  F29  1  0.983418  0.333156  0.407089  1
  F  F30  1  0.353385  0.714257  0.056049  1
  F  F31  1  0.488407  0.214257  0.556049  1
  F  F32  1  0.816947  0.594240  0.319724  1
  F  F33  1  0.408537  0.094240  0.819724  1
  F  F34  1  0.253181  0.495233  0.470920  1
  F  F35  1  0.222505  0.995233  0.970920  1
  F  F36  1  0.777495  0.004767  0.029080  1
  F  F37  1  0.746819  0.504767  0.529080  1
  F  F38  1  0.591463  0.905760  0.180276  1
  F  F39  1  0.183053  0.405760  0.680276  1
  F  F40  1  0.511593  0.785743  0.443951  1
  F  F41  1  0.646615  0.285743  0.943951  1
  F  F42  1  0.016582  0.666844  0.592911  1
  F  F43  1  0.997223  0.319724  0.905760  1
  F  F44  1  0.088813  0.819724  0.405760  1
  F  F45  1  0.202665  0.943951  0.214257  1
  F  F46  1  0.567641  0.443951  0.714257  1
  F  F47  1  0.408099  0.677512  0.617324  1
  F  F48  1  0.751586  0.970920  0.504767  1
  F  F49  1  0.282261  0.470920  0.004767  1
  F  F50  1  0.290774  0.617324  0.822488  1
  F  F51  1  0.923671  0.592911  0.833156  1
  F  F52  1  0.183427  0.907089  0.666844  1
  F  F53  1  0.585611  0.882676  0.677512  1
  F  F54  1  0.968286  0.822488  0.882676  1
  F  F55  1  0.590516  0.833156  0.907089  1
