# generated using pymatgen
data_Mn12O7F17
_symmetry_space_group_name_H-M   'P 1'
_cell_length_a   4.76180464
_cell_length_b   5.74739226
_cell_length_c   15.98747110
_cell_angle_alpha   90.06621764
_cell_angle_beta   89.74341515
_cell_angle_gamma   85.90171771
_symmetry_Int_Tables_number   1
_chemical_formula_structural   Mn12O7F17
_chemical_formula_sum   'Mn12 O7 F17'
_cell_volume   436.42076779
_cell_formula_units_Z   1
loop_
 _symmetry_equiv_pos_site_id
 _symmetry_equiv_pos_as_xyz
  1  'x, y, z'
loop_
 _atom_site_type_symbol
 _atom_site_label
 _atom_site_symmetry_multiplicity
 _atom_site_fract_x
 _atom_site_fract_y
 _atom_site_fract_z
 _atom_site_occupancy
  Mn  Mn0  1  0.017679  0.153911  0.409437  1
  Mn  Mn1  1  0.021915  0.855125  0.244357  1
  Mn  Mn2  1  0.002328  0.157319  0.083560  1
  Mn  Mn3  1  0.006322  0.156898  0.748553  1
  Mn  Mn4  1  0.023646  0.833592  0.570655  1
  Mn  Mn5  1  0.021348  0.830192  0.906938  1
  Mn  Mn6  1  0.526008  0.331776  0.591934  1
  Mn  Mn7  1  0.519936  0.334382  0.928253  1
  Mn  Mn8  1  0.490871  0.316560  0.264044  1
  Mn  Mn9  1  0.510311  0.657319  0.089047  1
  Mn  Mn10  1  0.502348  0.652294  0.415886  1
  Mn  Mn11  1  0.505894  0.657026  0.750562  1
  O  O12  1  0.208205  0.108408  0.301928  1
  O  O13  1  0.224187  0.890216  0.134308  1
  O  O14  1  0.240035  0.890455  0.461715  1
  O  O15  1  0.230531  0.888982  0.797011  1
  O  O16  1  0.732441  0.389788  0.037058  1
  O  O17  1  0.717015  0.380121  0.365504  1
  O  O18  1  0.730770  0.388304  0.702378  1
  F  F19  1  0.217835  0.116819  0.637680  1
  F  F20  1  0.214076  0.117263  0.973730  1
  F  F21  1  0.268431  0.390025  0.149786  1
  F  F22  1  0.255295  0.611620  0.312870  1
  F  F23  1  0.263405  0.399192  0.481969  1
  F  F24  1  0.270403  0.614621  0.645977  1
  F  F25  1  0.258960  0.390944  0.816049  1
  F  F26  1  0.272109  0.615697  0.982181  1
  F  F27  1  0.729963  0.623170  0.198937  1
  F  F28  1  0.718846  0.618456  0.526420  1
  F  F29  1  0.714394  0.616633  0.861264  1
  F  F30  1  0.756511  0.119555  0.185494  1
  F  F31  1  0.784358  0.120466  0.515732  1
  F  F32  1  0.756371  0.876624  0.350082  1
  F  F33  1  0.757511  0.889598  0.019744  1
  F  F34  1  0.769780  0.114319  0.854588  1
  F  F35  1  0.759965  0.892331  0.684370  1
