# generated using pymatgen
data_Li3Bi(PO4)2
_symmetry_space_group_name_H-M   'P 1'
_cell_length_a   19.39539477
_cell_length_b   5.38843373
_cell_length_c   12.98045286
_cell_angle_alpha   90.00000000
_cell_angle_beta   70.87655917
_cell_angle_gamma   90.00000000
_symmetry_Int_Tables_number   1
_chemical_formula_structural   Li3Bi(PO4)2
_chemical_formula_sum   'Li24 Bi8 P16 O64'
_cell_volume   1281.73361923
_cell_formula_units_Z   8
loop_
 _symmetry_equiv_pos_site_id
 _symmetry_equiv_pos_as_xyz
  1  'x, y, z'
loop_
 _atom_site_type_symbol
 _atom_site_label
 _atom_site_symmetry_multiplicity
 _atom_site_fract_x
 _atom_site_fract_y
 _atom_site_fract_z
 _atom_site_occupancy
  Li  Li0  1  0.053278  0.841458  0.314972  1
  Li  Li1  1  0.129757  0.329938  0.197912  1
  Li  Li2  1  0.197438  0.710816  0.060442  1
  Li  Li3  1  0.053278  0.658542  0.814972  1
  Li  Li4  1  0.129757  0.170062  0.697912  1
  Li  Li5  1  0.197438  0.789184  0.560442  1
  Li  Li6  1  0.308110  0.183589  0.255520  1
  Li  Li7  1  0.378541  0.814448  0.317537  1
  Li  Li8  1  0.308110  0.316411  0.755520  1
  Li  Li9  1  0.438017  0.334732  0.375084  1
  Li  Li10  1  0.378541  0.685552  0.817537  1
  Li  Li11  1  0.561983  0.834732  0.124916  1
  Li  Li12  1  0.438017  0.165268  0.875084  1
  Li  Li13  1  0.621459  0.314448  0.182463  1
  Li  Li14  1  0.561983  0.665268  0.624916  1
  Li  Li15  1  0.691890  0.683589  0.244480  1
  Li  Li16  1  0.621459  0.185552  0.682463  1
  Li  Li17  1  0.691890  0.816411  0.744480  1
  Li  Li18  1  0.802562  0.210816  0.439558  1
  Li  Li19  1  0.870243  0.829938  0.302088  1
  Li  Li20  1  0.946722  0.341458  0.185028  1
  Li  Li21  1  0.802562  0.289184  0.939558  1
  Li  Li22  1  0.870243  0.670062  0.802088  1
  Li  Li23  1  0.946722  0.158542  0.685028  1
  Bi  Bi24  1  0.117015  0.322762  0.460428  1
  Bi  Bi25  1  0.117015  0.177238  0.960428  1
  Bi  Bi26  1  0.382127  0.680741  0.079940  1
  Bi  Bi27  1  0.382127  0.819259  0.579940  1
  Bi  Bi28  1  0.617873  0.180741  0.420060  1
  Bi  Bi29  1  0.617873  0.319259  0.920060  1
  Bi  Bi30  1  0.882985  0.822762  0.039572  1
  Bi  Bi31  1  0.882985  0.677238  0.539572  1
  P  P32  1  0.035288  0.723547  0.090558  1
  P  P33  1  0.035288  0.776453  0.590558  1
  P  P34  1  0.211014  0.798150  0.298180  1
  P  P35  1  0.211014  0.701850  0.798180  1
  P  P36  1  0.287798  0.294944  0.514616  1
  P  P37  1  0.467395  0.228100  0.123636  1
  P  P38  1  0.287798  0.205056  0.014616  1
  P  P39  1  0.467395  0.271900  0.623636  1
  P  P40  1  0.532605  0.728100  0.376364  1
  P  P41  1  0.712202  0.794944  0.985384  1
  P  P42  1  0.532605  0.771900  0.876364  1
  P  P43  1  0.712202  0.705056  0.485384  1
  P  P44  1  0.788986  0.298150  0.201820  1
  P  P45  1  0.788986  0.201850  0.701820  1
  P  P46  1  0.964712  0.223547  0.409442  1
  P  P47  1  0.964712  0.276453  0.909442  1
  O  O48  1  0.070153  0.471435  0.105781  1
  O  O49  1  0.079679  0.935162  0.121769  1
  O  O50  1  0.045181  0.219287  0.331524  1
  O  O51  1  0.036152  0.734795  0.471891  1
  O  O52  1  0.206500  0.288590  0.037579  1
  O  O53  1  0.168188  0.667504  0.232563  1
  O  O54  1  0.070153  0.028565  0.605781  1
  O  O55  1  0.079679  0.564838  0.621769  1
  O  O56  1  0.045181  0.280713  0.831524  1
  O  O57  1  0.197679  0.085124  0.302970  1
  O  O58  1  0.036152  0.765205  0.971891  1
  O  O59  1  0.188002  0.687780  0.415471  1
  O  O60  1  0.292638  0.916720  0.019814  1
  O  O61  1  0.311012  0.320275  0.108816  1
  O  O62  1  0.206500  0.211410  0.537579  1
  O  O63  1  0.168188  0.832496  0.732563  1
  O  O64  1  0.296405  0.768138  0.249460  1
  O  O65  1  0.197679  0.414876  0.802970  1
  O  O66  1  0.188002  0.812220  0.915471  1
  O  O67  1  0.292638  0.583280  0.519814  1
  O  O68  1  0.337329  0.191698  0.403379  1
  O  O69  1  0.311012  0.179725  0.608816  1
  O  O70  1  0.425630  0.990058  0.178466  1
  O  O71  1  0.429685  0.451938  0.196685  1
  O  O72  1  0.296405  0.731862  0.749460  1
  O  O73  1  0.464818  0.266156  0.007032  1
  O  O74  1  0.451566  0.702742  0.381203  1
  O  O75  1  0.337329  0.308302  0.903379  1
  O  O76  1  0.548434  0.202742  0.118797  1
  O  O77  1  0.425630  0.509942  0.678466  1
  O  O78  1  0.429685  0.048062  0.696685  1
  O  O79  1  0.464818  0.233844  0.507032  1
  O  O80  1  0.535182  0.766156  0.492968  1
  O  O81  1  0.570315  0.951938  0.303315  1
  O  O82  1  0.574370  0.490058  0.321534  1
  O  O83  1  0.451566  0.797258  0.881203  1
  O  O84  1  0.662671  0.691698  0.096621  1
  O  O85  1  0.548434  0.297258  0.618797  1
  O  O86  1  0.535182  0.733844  0.992968  1
  O  O87  1  0.703595  0.268138  0.250540  1
  O  O88  1  0.570315  0.548062  0.803315  1
  O  O89  1  0.574370  0.009942  0.821534  1
  O  O90  1  0.688988  0.820275  0.391184  1
  O  O91  1  0.662671  0.808302  0.596621  1
  O  O92  1  0.707362  0.416720  0.480186  1
  O  O93  1  0.811998  0.187780  0.084529  1
  O  O94  1  0.802321  0.585124  0.197030  1
  O  O95  1  0.703595  0.231862  0.750540  1
  O  O96  1  0.831812  0.167504  0.267437  1
  O  O97  1  0.793500  0.788590  0.462421  1
  O  O98  1  0.688988  0.679725  0.891184  1
  O  O99  1  0.707362  0.083280  0.980186  1
  O  O100  1  0.811998  0.312220  0.584529  1
  O  O101  1  0.963848  0.234795  0.028109  1
  O  O102  1  0.802321  0.914876  0.697030  1
  O  O103  1  0.954819  0.719287  0.168476  1
  O  O104  1  0.920321  0.435162  0.378231  1
  O  O105  1  0.929847  0.971435  0.394219  1
  O  O106  1  0.831812  0.332496  0.767437  1
  O  O107  1  0.793500  0.711410  0.962421  1
  O  O108  1  0.963848  0.265205  0.528109  1
  O  O109  1  0.954819  0.780713  0.668476  1
  O  O110  1  0.920321  0.064838  0.878231  1
  O  O111  1  0.929847  0.528565  0.894219  1
