# generated using pymatgen
data_LiSiBiO4
_symmetry_space_group_name_H-M   'P 1'
_cell_length_a   21.12076364
_cell_length_b   8.94894774
_cell_length_c   5.96667898
_cell_angle_alpha   90.00000000
_cell_angle_beta   90.00000000
_cell_angle_gamma   90.00000000
_symmetry_Int_Tables_number   1
_chemical_formula_structural   LiSiBiO4
_chemical_formula_sum   'Li12 Si12 Bi12 O48'
_cell_volume   1127.75370058
_cell_formula_units_Z   12
loop_
 _symmetry_equiv_pos_site_id
 _symmetry_equiv_pos_as_xyz
  1  'x, y, z'
loop_
 _atom_site_type_symbol
 _atom_site_label
 _atom_site_symmetry_multiplicity
 _atom_site_fract_x
 _atom_site_fract_y
 _atom_site_fract_z
 _atom_site_occupancy
  Li  Li0  1  0.994621  0.239002  0.918475  1
  Li  Li1  1  0.005379  0.760998  0.418475  1
  Li  Li2  1  0.169907  0.745169  0.608620  1
  Li  Li3  1  0.162129  0.258610  0.929863  1
  Li  Li4  1  0.337871  0.758610  0.429863  1
  Li  Li5  1  0.330093  0.245169  0.108620  1
  Li  Li6  1  0.494621  0.260998  0.918475  1
  Li  Li7  1  0.505379  0.739002  0.418475  1
  Li  Li8  1  0.669907  0.754831  0.608620  1
  Li  Li9  1  0.662129  0.241390  0.929863  1
  Li  Li10  1  0.837871  0.741390  0.429863  1
  Li  Li11  1  0.830093  0.254831  0.108620  1
  Si  Si12  1  0.079056  0.940576  0.976907  1
  Si  Si13  1  0.086717  0.444753  0.540927  1
  Si  Si14  1  0.248335  0.553144  0.009267  1
  Si  Si15  1  0.251665  0.053144  0.509267  1
  Si  Si16  1  0.413283  0.944753  0.040927  1
  Si  Si17  1  0.420944  0.440576  0.476907  1
  Si  Si18  1  0.579056  0.559424  0.976907  1
  Si  Si19  1  0.586717  0.055247  0.540927  1
  Si  Si20  1  0.748335  0.946856  0.009267  1
  Si  Si21  1  0.751665  0.446856  0.509267  1
  Si  Si22  1  0.913283  0.555247  0.040927  1
  Si  Si23  1  0.920944  0.059424  0.476907  1
  Bi  Bi24  1  0.076870  0.514840  0.057256  1
  Bi  Bi25  1  0.093604  0.022419  0.447047  1
  Bi  Bi26  1  0.241335  0.981105  0.028733  1
  Bi  Bi27  1  0.258665  0.481105  0.528733  1
  Bi  Bi28  1  0.406396  0.522419  0.947047  1
  Bi  Bi29  1  0.423130  0.014840  0.557256  1
  Bi  Bi30  1  0.576870  0.985160  0.057256  1
  Bi  Bi31  1  0.593604  0.477581  0.447047  1
  Bi  Bi32  1  0.741335  0.518895  0.028733  1
  Bi  Bi33  1  0.758665  0.018895  0.528733  1
  Bi  Bi34  1  0.906396  0.977581  0.947047  1
  Bi  Bi35  1  0.923130  0.485160  0.557256  1
  O  O36  1  0.987280  0.967496  0.458881  1
  O  O37  1  0.012720  0.032504  0.958881  1
  O  O38  1  0.027709  0.565299  0.529271  1
  O  O39  1  0.081164  0.344579  0.775901  1
  O  O40  1  0.080337  0.337986  0.314421  1
  O  O41  1  0.078217  0.830932  0.204659  1
  O  O42  1  0.098332  0.855151  0.743902  1
  O  O43  1  0.134759  0.064797  0.047329  1
  O  O44  1  0.152665  0.539559  0.529840  1
  O  O45  1  0.182578  0.459999  0.037396  1
  O  O46  1  0.196906  0.927530  0.442764  1
  O  O47  1  0.253294  0.164489  0.284376  1
  O  O48  1  0.231379  0.144220  0.740166  1
  O  O49  1  0.246706  0.664489  0.784376  1
  O  O50  1  0.268621  0.644220  0.240166  1
  O  O51  1  0.303094  0.427530  0.942764  1
  O  O52  1  0.317422  0.959999  0.537396  1
  O  O53  1  0.347335  0.039559  0.029840  1
  O  O54  1  0.365241  0.564797  0.547329  1
  O  O55  1  0.401668  0.355151  0.243902  1
  O  O56  1  0.421783  0.330932  0.704659  1
  O  O57  1  0.419663  0.837986  0.814421  1
  O  O58  1  0.418836  0.844579  0.275901  1
  O  O59  1  0.472291  0.065299  0.029271  1
  O  O60  1  0.487280  0.532504  0.458881  1
  O  O61  1  0.512720  0.467496  0.958881  1
  O  O62  1  0.527708  0.934701  0.529271  1
  O  O63  1  0.581164  0.155421  0.775901  1
  O  O64  1  0.580337  0.162014  0.314421  1
  O  O65  1  0.578217  0.669068  0.204659  1
  O  O66  1  0.598332  0.644849  0.743902  1
  O  O67  1  0.634759  0.435203  0.047329  1
  O  O68  1  0.652665  0.960441  0.529840  1
  O  O69  1  0.682578  0.040001  0.037396  1
  O  O70  1  0.696906  0.572470  0.442764  1
  O  O71  1  0.731379  0.355780  0.740166  1
  O  O72  1  0.753294  0.335511  0.284376  1
  O  O73  1  0.768621  0.855780  0.240166  1
  O  O74  1  0.746706  0.835511  0.784376  1
  O  O75  1  0.803094  0.072470  0.942764  1
  O  O76  1  0.817422  0.540001  0.537396  1
  O  O77  1  0.847335  0.460441  0.029840  1
  O  O78  1  0.865241  0.935203  0.547329  1
  O  O79  1  0.901668  0.144849  0.243902  1
  O  O80  1  0.921783  0.169068  0.704659  1
  O  O81  1  0.919663  0.662014  0.814421  1
  O  O82  1  0.918836  0.655421  0.275901  1
  O  O83  1  0.972292  0.434701  0.029271  1
