# generated using pymatgen
data_Li2Mn(SiO3)2
_symmetry_space_group_name_H-M   'P 1'
_cell_length_a   12.60922417
_cell_length_b   11.17297095
_cell_length_c   6.32546818
_cell_angle_alpha   73.55647856
_cell_angle_beta   75.47354614
_cell_angle_gamma   85.92848169
_symmetry_Int_Tables_number   1
_chemical_formula_structural   Li2Mn(SiO3)2
_chemical_formula_sum   'Li12 Mn6 Si12 O36'
_cell_volume   827.37603844
_cell_formula_units_Z   6
loop_
 _symmetry_equiv_pos_site_id
 _symmetry_equiv_pos_as_xyz
  1  'x, y, z'
loop_
 _atom_site_type_symbol
 _atom_site_label
 _atom_site_symmetry_multiplicity
 _atom_site_fract_x
 _atom_site_fract_y
 _atom_site_fract_z
 _atom_site_occupancy
  Li  Li0  1  0.025211  0.000000  0.487394  1
  Li  Li1  1  0.689025  0.000000  0.155488  1
  Li  Li2  1  0.466467  0.129294  0.950587  1
  Li  Li3  1  0.132721  0.220996  0.567575  1
  Li  Li4  1  0.632721  0.279004  0.538571  1
  Li  Li5  1  0.966467  0.370706  0.829882  1
  Li  Li6  1  0.525211  0.500000  0.237394  1
  Li  Li7  1  0.189025  0.500000  0.905488  1
  Li  Li8  1  0.966467  0.629294  0.203651  1
  Li  Li9  1  0.632721  0.720996  0.828708  1
  Li  Li10  1  0.132721  0.779004  0.299704  1
  Li  Li11  1  0.466467  0.870706  0.582945  1
  Mn  Mn12  1  0.264393  0.000000  0.367803  1
  Mn  Mn13  1  0.851781  0.166632  0.728081  1
  Mn  Mn14  1  0.351781  0.333368  0.644713  1
  Mn  Mn15  1  0.764393  0.500000  0.117803  1
  Mn  Mn16  1  0.351781  0.666632  0.003506  1
  Mn  Mn17  1  0.851781  0.833368  0.420138  1
  Si  Si18  1  0.028641  0.000000  0.985679  1
  Si  Si19  1  0.672301  0.000000  0.663850  1
  Si  Si20  1  0.484177  0.113073  0.456984  1
  Si  Si21  1  0.132133  0.218194  0.079403  1
  Si  Si22  1  0.632133  0.281806  0.047597  1
  Si  Si23  1  0.984177  0.386927  0.320057  1
  Si  Si24  1  0.172301  0.500000  0.413850  1
  Si  Si25  1  0.528641  0.500000  0.735679  1
  Si  Si26  1  0.984177  0.613073  0.695766  1
  Si  Si27  1  0.632133  0.718194  0.320270  1
  Si  Si28  1  0.132133  0.781806  0.788464  1
  Si  Si29  1  0.484177  0.886927  0.058839  1
  O  O30  1  0.589407  0.011234  0.484663  1
  O  O31  1  0.960919  0.022898  0.792097  1
  O  O32  1  0.379486  0.025191  0.523474  1
  O  O33  1  0.143017  0.133178  0.328022  1
  O  O34  1  0.109220  0.128227  0.920878  1
  O  O35  1  0.736319  0.130975  0.578323  1
  O  O36  1  0.516310  0.194136  0.180518  1
  O  O37  1  0.732363  0.186724  0.004524  1
  O  O38  1  0.479465  0.202182  0.622807  1
  O  O39  1  0.979465  0.297818  0.574989  1
  O  O40  1  0.232363  0.313276  0.941248  1
  O  O41  1  0.016310  0.305864  0.124653  1
  O  O42  1  0.236319  0.369025  0.459298  1
  O  O43  1  0.609220  0.371773  0.799105  1
  O  O44  1  0.643017  0.366822  0.211199  1
  O  O45  1  0.879486  0.474809  0.298665  1
  O  O46  1  0.460919  0.477102  0.564996  1
  O  O47  1  0.089407  0.488766  0.245896  1
  O  O48  1  0.089407  0.511234  0.664697  1
  O  O49  1  0.460919  0.522898  0.974085  1
  O  O50  1  0.879486  0.525191  0.821848  1
  O  O51  1  0.643017  0.633178  0.145784  1
  O  O52  1  0.609220  0.628227  0.591675  1
  O  O53  1  0.236319  0.630975  0.304383  1
  O  O54  1  0.016310  0.694136  0.859036  1
  O  O55  1  0.232363  0.686724  0.826388  1
  O  O56  1  0.979465  0.702182  0.445545  1
  O  O57  1  0.479465  0.797818  0.897728  1
  O  O58  1  0.732363  0.813276  0.263113  1
  O  O59  1  0.516310  0.805864  0.303172  1
  O  O60  1  0.736319  0.869025  0.685358  1
  O  O61  1  0.109220  0.871773  0.969903  1
  O  O62  1  0.143017  0.866822  0.528962  1
  O  O63  1  0.379486  0.974809  0.097039  1
  O  O64  1  0.960919  0.977102  0.246983  1
  O  O65  1  0.589407  0.988766  0.925931  1
