# generated using pymatgen
data_FeOF
_symmetry_space_group_name_H-M   'P 1'
_cell_length_a   9.68493954
_cell_length_b   9.71935835
_cell_length_c   3.15956762
_cell_angle_alpha   90.00000000
_cell_angle_beta   90.00000000
_cell_angle_gamma   91.02764830
_symmetry_Int_Tables_number   1
_chemical_formula_structural   FeOF
_chemical_formula_sum   'Fe8 O8 F8'
_cell_volume   297.36667993
_cell_formula_units_Z   8
loop_
 _symmetry_equiv_pos_site_id
 _symmetry_equiv_pos_as_xyz
  1  'x, y, z'
loop_
 _atom_site_type_symbol
 _atom_site_label
 _atom_site_symmetry_multiplicity
 _atom_site_fract_x
 _atom_site_fract_y
 _atom_site_fract_z
 _atom_site_occupancy
  Fe  Fe0  1  0.020859  0.998403  0.000000  1
  Fe  Fe1  1  0.001052  0.501412  0.000000  1
  Fe  Fe2  1  0.216599  0.260385  0.500000  1
  Fe  Fe3  1  0.218731  0.740615  0.500000  1
  Fe  Fe4  1  0.519453  0.497776  0.000000  1
  Fe  Fe5  1  0.501534  0.999256  0.000000  1
  Fe  Fe6  1  0.758659  0.279673  0.500000  1
  Fe  Fe7  1  0.759016  0.718774  0.500000  1
  O  O8  1  0.094061  0.407685  0.500000  1
  O  O9  1  0.099967  0.902560  0.500000  1
  O  O10  1  0.153752  0.152580  0.000000  1
  O  O11  1  0.153195  0.649604  0.000000  1
  O  O12  1  0.594739  0.398291  0.500000  1
  O  O13  1  0.648630  0.658128  0.000000  1
  O  O14  1  0.849621  0.345878  0.000000  1
  O  O15  1  0.907042  0.595528  0.500000  1
  F  F16  1  0.348391  0.347266  0.000000  1
  F  F17  1  0.356876  0.853668  0.000000  1
  F  F18  1  0.409292  0.094836  0.500000  1
  F  F19  1  0.401938  0.599500  0.500000  1
  F  F20  1  0.596873  0.908132  0.500000  1
  F  F21  1  0.647522  0.143532  0.000000  1
  F  F22  1  0.844302  0.852663  0.000000  1
  F  F23  1  0.897898  0.093854  0.500000  1
