# generated using pymatgen
data_Li3V3CoO8
_symmetry_space_group_name_H-M   'P 1'
_cell_length_a   10.36075131
_cell_length_b   10.32086277
_cell_length_c   14.64816292
_cell_angle_alpha   18.97155031
_cell_angle_beta   19.18161353
_cell_angle_gamma   32.88222777
_symmetry_Int_Tables_number   1
_chemical_formula_structural   Li3V3CoO8
_chemical_formula_sum   'Li3 V3 Co1 O8'
_cell_volume   144.91235006
_cell_formula_units_Z   1
loop_
 _symmetry_equiv_pos_site_id
 _symmetry_equiv_pos_as_xyz
  1  'x, y, z'
loop_
 _atom_site_type_symbol
 _atom_site_label
 _atom_site_symmetry_multiplicity
 _atom_site_fract_x
 _atom_site_fract_y
 _atom_site_fract_z
 _atom_site_occupancy
  Li  Li0  1  0.000004  0.500004  0.499994  1
  Li  Li1  1  0.499994  0.000005  0.500002  1
  Li  Li2  1  0.499998  0.499995  0.500002  1
  V  V3  1  0.000006  0.500041  -0.000026  1
  V  V4  1  0.500072  0.000027  -0.000062  1
  V  V5  1  0.499925  0.499938  0.000095  1
  Co  Co6  1  -0.000008  -0.000014  0.000011  1
  O  O7  1  0.011528  0.001866  0.247600  1
  O  O8  1  0.000341  0.510717  0.253715  1
  O  O9  1  0.518618  0.989436  0.256370  1
  O  O10  1  0.988476  0.998125  0.752388  1
  O  O11  1  0.471568  0.500598  0.279421  1
  O  O12  1  -0.000335  0.489298  0.746277  1
  O  O13  1  0.481377  0.010562  0.743637  1
  O  O14  1  0.528435  0.499404  0.720575  1
