# generated using pymatgen
data_Li3Co3OF7
_symmetry_space_group_name_H-M   'P 1'
_cell_length_a   6.06998820
_cell_length_b   6.06976860
_cell_length_c   10.49589349
_cell_angle_alpha   89.93004461
_cell_angle_beta   73.22238682
_cell_angle_gamma   119.91087248
_symmetry_Int_Tables_number   1
_chemical_formula_structural   Li3Co3OF7
_chemical_formula_sum   'Li6 Co6 O2 F14'
_cell_volume   315.98045972
_cell_formula_units_Z   2
loop_
 _symmetry_equiv_pos_site_id
 _symmetry_equiv_pos_as_xyz
  1  'x, y, z'
loop_
 _atom_site_type_symbol
 _atom_site_label
 _atom_site_symmetry_multiplicity
 _atom_site_fract_x
 _atom_site_fract_y
 _atom_site_fract_z
 _atom_site_occupancy
  Li  Li0  1  0.007121  0.005585  0.999419  1
  Li  Li1  1  0.119848  0.055090  0.311650  1
  Li  Li2  1  0.630030  0.066624  0.811517  1
  Li  Li3  1  0.227984  0.612806  0.128285  1
  Li  Li4  1  0.255813  0.141560  0.628283  1
  Li  Li5  1  0.992773  0.490955  0.499420  1
  Co  Co6  1  0.630863  0.074761  0.305579  1
  Co  Co7  1  0.626499  0.307309  0.068259  1
  Co  Co8  1  0.630649  0.549935  0.306435  1
  Co  Co9  1  0.616600  0.561593  0.805671  1
  Co  Co10  1  0.621591  0.802831  0.568296  1
  Co  Co11  1  0.140648  0.560868  0.806354  1
  O  O12  1  0.838340  0.416695  0.190794  1
  O  O13  1  0.389457  0.468796  0.690871  1
  F  F14  1  0.855299  0.154106  0.437755  1
  F  F15  1  0.365876  0.179744  0.428963  1
  F  F16  1  0.366021  0.416186  0.192767  1
  F  F17  1  0.869138  0.198917  0.933232  1
  F  F18  1  0.866109  0.930160  0.197610  1
  F  F19  1  0.865254  0.694838  0.433409  1
  F  F20  1  0.869179  0.434340  0.697541  1
  F  F21  1  0.400494  0.697465  0.425753  1
  F  F22  1  0.873944  0.671669  0.925863  1
  F  F23  1  0.405644  0.204923  0.937863  1
  F  F24  1  0.860053  0.939975  0.694196  1
  F  F25  1  0.363875  0.942573  0.194248  1
  F  F26  1  0.388222  0.703047  0.928978  1
  F  F27  1  0.388019  0.939029  0.692679  1
