# generated using pymatgen
data_MnFeCo(PO4)3
_symmetry_space_group_name_H-M   'P 1'
_cell_length_a   9.83659644
_cell_length_b   5.98497977
_cell_length_c   14.59043747
_cell_angle_alpha   90.00000000
_cell_angle_beta   89.75250050
_cell_angle_gamma   90.00000000
_symmetry_Int_Tables_number   1
_chemical_formula_structural   MnFeCo(PO4)3
_chemical_formula_sum   'Mn4 Fe4 Co4 P12 O48'
_cell_volume   858.95775011
_cell_formula_units_Z   4
loop_
 _symmetry_equiv_pos_site_id
 _symmetry_equiv_pos_as_xyz
  1  'x, y, z'
loop_
 _atom_site_type_symbol
 _atom_site_label
 _atom_site_symmetry_multiplicity
 _atom_site_fract_x
 _atom_site_fract_y
 _atom_site_fract_z
 _atom_site_occupancy
  Mn  Mn0  1  0.215795  0.750000  0.480419  1
  Mn  Mn1  1  0.216608  0.750000  0.812811  1
  Mn  Mn2  1  0.284208  0.250000  0.646277  1
  Mn  Mn3  1  0.284757  0.250000  0.977811  1
  Fe  Fe4  1  0.221853  0.750000  0.152367  1
  Fe  Fe5  1  0.274076  0.250000  0.319294  1
  Fe  Fe6  1  0.726235  0.750000  0.010515  1
  Fe  Fe7  1  0.728671  0.750000  0.343849  1
  Co  Co8  1  0.729778  0.750000  0.676149  1
  Co  Co9  1  0.772782  0.250000  0.842539  1
  Co  Co10  1  0.770386  0.250000  0.510998  1
  Co  Co11  1  0.774900  0.250000  0.176316  1
  P  P12  1  0.098605  0.250000  0.805590  1
  P  P13  1  0.097916  0.250000  0.137738  1
  P  P14  1  0.096038  0.250000  0.473414  1
  P  P15  1  0.399578  0.750000  0.305969  1
  P  P16  1  0.401289  0.750000  0.971167  1
  P  P17  1  0.402294  0.750000  0.639417  1
  P  P18  1  0.600933  0.250000  0.361827  1
  P  P19  1  0.599970  0.250000  0.028039  1
  P  P20  1  0.600021  0.250000  0.696245  1
  P  P21  1  0.901665  0.750000  0.529686  1
  P  P22  1  0.901892  0.750000  0.196017  1
  P  P23  1  0.900773  0.750000  0.861080  1
  O  O24  1  0.054957  0.750000  0.553099  1
  O  O25  1  0.053195  0.750000  0.219370  1
  O  O26  1  0.053529  0.750000  0.882897  1
  O  O27  1  0.118207  0.250000  0.241689  1
  O  O28  1  0.118483  0.250000  0.577067  1
  O  O29  1  0.118502  0.250000  0.909814  1
  O  O30  1  0.169912  0.049279  0.756561  1
  O  O31  1  0.169912  0.450721  0.756561  1
  O  O32  1  0.167635  0.045369  0.091189  1
  O  O33  1  0.167635  0.454631  0.091189  1
  O  O34  1  0.170526  0.052296  0.422902  1
  O  O35  1  0.170526  0.447704  0.422902  1
  O  O36  1  0.325701  0.548923  0.258181  1
  O  O37  1  0.325701  0.951077  0.258181  1
  O  O38  1  0.328748  0.548737  0.923044  1
  O  O39  1  0.328748  0.951263  0.923044  1
  O  O40  1  0.330377  0.549493  0.590572  1
  O  O41  1  0.330377  0.950507  0.590572  1
  O  O42  1  0.379730  0.750000  0.074917  1
  O  O43  1  0.379083  0.750000  0.410741  1
  O  O44  1  0.381800  0.750000  0.743764  1
  O  O45  1  0.448500  0.250000  0.382390  1
  O  O46  1  0.447154  0.250000  0.050216  1
  O  O47  1  0.446475  0.250000  0.717706  1
  O  O48  1  0.551370  0.750000  0.286256  1
  O  O49  1  0.553468  0.750000  0.949374  1
  O  O50  1  0.556525  0.750000  0.620656  1
  O  O51  1  0.625156  0.250000  0.257429  1
  O  O52  1  0.622570  0.250000  0.591219  1
  O  O53  1  0.624006  0.250000  0.923492  1
  O  O54  1  0.673629  0.048173  0.410568  1
  O  O55  1  0.673629  0.451827  0.410568  1
  O  O56  1  0.671240  0.047484  0.076202  1
  O  O57  1  0.671240  0.452516  0.076202  1
  O  O58  1  0.670471  0.047831  0.744322  1
  O  O59  1  0.670471  0.452169  0.744322  1
  O  O60  1  0.830256  0.548391  0.579194  1
  O  O61  1  0.830256  0.951609  0.579194  1
  O  O62  1  0.828024  0.549994  0.245693  1
  O  O63  1  0.828024  0.950006  0.245693  1
  O  O64  1  0.830024  0.549187  0.910422  1
  O  O65  1  0.830024  0.950813  0.910422  1
  O  O66  1  0.878183  0.750000  0.756561  1
  O  O67  1  0.880692  0.750000  0.092434  1
  O  O68  1  0.883885  0.750000  0.425959  1
  O  O69  1  0.944221  0.250000  0.786752  1
  O  O70  1  0.943278  0.250000  0.454017  1
  O  O71  1  0.942603  0.250000  0.118444  1
