# generated using pymatgen
data_LiMnF3
_symmetry_space_group_name_H-M   'P 1'
_cell_length_a   6.57832757
_cell_length_b   9.34508837
_cell_length_c   6.76339221
_cell_angle_alpha   83.19125961
_cell_angle_beta   81.08257234
_cell_angle_gamma   65.53204551
_symmetry_Int_Tables_number   1
_chemical_formula_structural   LiMnF3
_chemical_formula_sum   'Li6 Mn6 F18'
_cell_volume   373.18205833
_cell_formula_units_Z   6
loop_
 _symmetry_equiv_pos_site_id
 _symmetry_equiv_pos_as_xyz
  1  'x, y, z'
loop_
 _atom_site_type_symbol
 _atom_site_label
 _atom_site_symmetry_multiplicity
 _atom_site_fract_x
 _atom_site_fract_y
 _atom_site_fract_z
 _atom_site_occupancy
  Li  Li0  1  0.389853  0.262361  0.439024  1
  Li  Li1  1  0.796112  0.982138  0.303780  1
  Li  Li2  1  0.276860  0.699935  0.897602  1
  Li  Li3  1  0.723140  0.300065  0.102398  1
  Li  Li4  1  0.203888  0.017862  0.696220  1
  Li  Li5  1  0.610147  0.737639  0.560976  1
  Mn  Mn6  1  0.194714  0.593504  0.361884  1
  Mn  Mn7  1  0.244234  0.335200  0.927250  1
  Mn  Mn8  1  0.274321  0.998296  0.200436  1
  Mn  Mn9  1  0.725679  0.001704  0.799564  1
  Mn  Mn10  1  0.755766  0.664800  0.072750  1
  Mn  Mn11  1  0.805286  0.406496  0.638116  1
  F  F12  1  0.982624  0.186229  0.585041  1
  F  F13  1  0.270346  0.233935  0.221120  1
  F  F14  1  0.133755  0.570575  0.047744  1
  F  F15  1  0.169418  0.416237  0.618731  1
  F  F16  1  0.332716  0.087452  0.880881  1
  F  F17  1  0.618368  0.090446  0.525373  1
  F  F18  1  0.061868  0.894410  0.835590  1
  F  F19  1  0.401107  0.738240  0.119744  1
  F  F20  1  0.506920  0.414609  0.309647  1
  F  F21  1  0.493080  0.585391  0.690353  1
  F  F22  1  0.598893  0.261760  0.880256  1
  F  F23  1  0.938132  0.105590  0.164410  1
  F  F24  1  0.381632  0.909554  0.474627  1
  F  F25  1  0.667284  0.912548  0.119119  1
  F  F26  1  0.830582  0.583763  0.381269  1
  F  F27  1  0.866245  0.429425  0.952256  1
  F  F28  1  0.729654  0.766065  0.778880  1
  F  F29  1  0.017376  0.813771  0.414959  1
