# generated using pymatgen
data_Li4Mn2NbNi3(PO4)6
_symmetry_space_group_name_H-M   'P 1'
_cell_length_a   8.54865704
_cell_length_b   8.65232906
_cell_length_c   8.64067686
_cell_angle_alpha   62.05682195
_cell_angle_beta   62.33511095
_cell_angle_gamma   62.44966916
_symmetry_Int_Tables_number   1
_chemical_formula_structural   Li4Mn2NbNi3(PO4)6
_chemical_formula_sum   'Li4 Mn2 Nb1 Ni3 P6 O24'
_cell_volume   474.91645856
_cell_formula_units_Z   1
loop_
 _symmetry_equiv_pos_site_id
 _symmetry_equiv_pos_as_xyz
  1  'x, y, z'
loop_
 _atom_site_type_symbol
 _atom_site_label
 _atom_site_symmetry_multiplicity
 _atom_site_fract_x
 _atom_site_fract_y
 _atom_site_fract_z
 _atom_site_occupancy
  Li  Li0  1  0.743632  0.149655  0.354487  1
  Li  Li1  1  0.305186  0.840266  0.643685  1
  Li  Li2  1  0.640748  0.305155  0.842973  1
  Li  Li3  1  0.841888  0.640117  0.309042  1
  Mn  Mn4  1  0.014729  0.000078  0.996965  1
  Mn  Mn5  1  0.486678  0.503862  0.499352  1
  Nb  Nb6  1  0.853313  0.847826  0.851389  1
  Ni  Ni7  1  0.142523  0.148831  0.147025  1
  Ni  Ni8  1  0.356400  0.353824  0.350963  1
  Ni  Ni9  1  0.647068  0.649836  0.652774  1
  P  P10  1  0.053087  0.744773  0.441487  1
  P  P11  1  0.440801  0.052236  0.749068  1
  P  P12  1  0.747984  0.441074  0.050678  1
  P  P13  1  0.251924  0.539662  0.956541  1
  P  P14  1  0.548774  0.957412  0.253851  1
  P  P15  1  0.946592  0.249650  0.537868  1
  O  O16  1  0.115451  0.294902  0.494074  1
  O  O17  1  0.308934  0.515608  0.108980  1
  O  O18  1  0.057769  0.910575  0.261004  1
  O  O19  1  0.549246  0.104914  0.303560  1
  O  O20  1  0.009071  0.808435  0.605886  1
  O  O21  1  0.241742  0.592838  0.432331  1
  O  O22  1  0.253118  0.080900  0.901155  1
  O  O23  1  0.457359  0.231343  0.583675  1
  O  O24  1  0.176716  0.396156  0.991394  1
  O  O25  1  0.597667  0.431117  0.243124  1
  O  O26  1  0.103971  0.745127  0.915429  1
  O  O27  1  0.390204  0.010921  0.189056  1
  O  O28  1  0.604520  0.000864  0.820062  1
  O  O29  1  0.898758  0.249412  0.076811  1
  O  O30  1  0.411560  0.557583  0.762266  1
  O  O31  1  0.816331  0.600999  0.006860  1
  O  O32  1  0.555516  0.766002  0.415842  1
  O  O33  1  0.750037  0.908471  0.103249  1
  O  O34  1  0.756979  0.412724  0.562465  1
  O  O35  1  0.953889  0.183290  0.398687  1
  O  O36  1  0.470871  0.894525  0.692888  1
  O  O37  1  0.916873  0.099725  0.742175  1
  O  O38  1  0.687121  0.474505  0.894882  1
  O  O39  1  0.894972  0.681808  0.478996  1
