# generated using pymatgen
data_NbFe(PO4)2
_symmetry_space_group_name_H-M   'P 1'
_cell_length_a   10.15283251
_cell_length_b   6.16765072
_cell_length_c   4.99924665
_cell_angle_alpha   90.00000000
_cell_angle_beta   92.76474466
_cell_angle_gamma   90.00000000
_symmetry_Int_Tables_number   1
_chemical_formula_structural   NbFe(PO4)2
_chemical_formula_sum   'Nb2 Fe2 P4 O16'
_cell_volume   312.68406301
_cell_formula_units_Z   2
loop_
 _symmetry_equiv_pos_site_id
 _symmetry_equiv_pos_as_xyz
  1  'x, y, z'
loop_
 _atom_site_type_symbol
 _atom_site_label
 _atom_site_symmetry_multiplicity
 _atom_site_fract_x
 _atom_site_fract_y
 _atom_site_fract_z
 _atom_site_occupancy
  Nb  Nb0  1  0.220043  0.750000  0.448123  1
  Nb  Nb1  1  0.779957  0.250000  0.551877  1
  Fe  Fe2  1  0.278014  0.250000  0.955592  1
  Fe  Fe3  1  0.721986  0.750000  0.044408  1
  P  P4  1  0.094055  0.250000  0.423609  1
  P  P5  1  0.401988  0.750000  0.897178  1
  P  P6  1  0.598012  0.250000  0.102822  1
  P  P7  1  0.905945  0.750000  0.576391  1
  O  O8  1  0.051848  0.750000  0.679049  1
  O  O9  1  0.110227  0.250000  0.726941  1
  O  O10  1  0.166735  0.048923  0.296385  1
  O  O11  1  0.166735  0.451077  0.296385  1
  O  O12  1  0.326103  0.943303  0.747994  1
  O  O13  1  0.326103  0.556697  0.747994  1
  O  O14  1  0.377550  0.750000  0.199528  1
  O  O15  1  0.452099  0.250000  0.149863  1
  O  O16  1  0.547901  0.750000  0.850137  1
  O  O17  1  0.622450  0.250000  0.800472  1
  O  O18  1  0.673897  0.056697  0.252006  1
  O  O19  1  0.673897  0.443303  0.252006  1
  O  O20  1  0.833265  0.548923  0.703615  1
  O  O21  1  0.833265  0.951077  0.703615  1
  O  O22  1  0.889773  0.750000  0.273059  1
  O  O23  1  0.948152  0.250000  0.320951  1
