# generated using pymatgen
data_Li11Fe12(BO3)12
_symmetry_space_group_name_H-M   'P 1'
_cell_length_a   10.34020688
_cell_length_b   8.79244011
_cell_length_c   8.78132710
_cell_angle_alpha   107.78807222
_cell_angle_beta   99.14099506
_cell_angle_gamma   99.11474982
_symmetry_Int_Tables_number   1
_chemical_formula_structural   Li11Fe12(BO3)12
_chemical_formula_sum   'Li11 Fe12 B12 O36'
_cell_volume   732.12830848
_cell_formula_units_Z   1
loop_
 _symmetry_equiv_pos_site_id
 _symmetry_equiv_pos_as_xyz
  1  'x, y, z'
loop_
 _atom_site_type_symbol
 _atom_site_label
 _atom_site_symmetry_multiplicity
 _atom_site_fract_x
 _atom_site_fract_y
 _atom_site_fract_z
 _atom_site_occupancy
  Li  Li0  1  0.730416  0.016145  0.030303  1
  Li  Li1  1  0.706544  0.402151  0.687066  1
  Li  Li2  1  0.451616  0.153692  0.437033  1
  Li  Li3  1  0.955900  0.655205  0.940121  1
  Li  Li4  1  0.940043  0.957509  0.659671  1
  Li  Li5  1  0.442611  0.456146  0.157516  1
  Li  Li6  1  0.692597  0.707673  0.409910  1
  Li  Li7  1  0.227775  0.513489  0.526026  1
  Li  Li8  1  0.478236  0.764275  0.778264  1
  Li  Li9  1  0.204880  0.901196  0.185893  1
  Li  Li10  1  0.192561  0.205148  0.907826  1
  Fe  Fe11  1  0.686449  0.321694  0.311241  1
  Fe  Fe12  1  0.933585  0.567054  0.560507  1
  Fe  Fe13  1  0.433701  0.069896  0.060858  1
  Fe  Fe14  1  0.909150  0.902985  0.283051  1
  Fe  Fe15  1  0.660384  0.655523  0.021280  1
  Fe  Fe16  1  0.908071  0.273259  0.922247  1
  Fe  Fe17  1  0.655489  0.022982  0.666208  1
  Fe  Fe18  1  0.409935  0.402102  0.770874  1
  Fe  Fe19  1  0.158305  0.158411  0.518191  1
  Fe  Fe20  1  0.154305  0.517257  0.163303  1
  Fe  Fe21  1  0.405983  0.773382  0.412267  1
  Fe  Fe22  1  0.184404  0.818659  0.811986  1
  B  B23  1  0.875551  0.553795  0.210971  1
  B  B24  1  0.870499  0.207755  0.541873  1
  B  B25  1  0.373213  0.039869  0.706090  1
  B  B26  1  0.625224  0.292595  0.959269  1
  B  B27  1  0.500671  0.500014  0.500551  1
  B  B28  1  0.750237  0.749262  0.750512  1
  B  B29  1  0.255674  0.249043  0.251125  1
  B  B30  1  -0.000082  0.991967  0.001429  1
  B  B31  1  0.375120  0.706780  0.042068  1
  B  B32  1  0.627965  0.963482  0.293379  1
  B  B33  1  0.119126  0.792382  0.455607  1
  B  B34  1  0.124833  0.457879  0.791112  1
  O  O35  1  0.919176  0.011060  0.115193  1
  O  O36  1  0.949508  0.440420  0.161946  1
  O  O37  1  0.942285  0.082684  0.496969  1
  O  O38  1  0.620448  0.060853  0.197379  1
  O  O39  1  0.861715  0.315991  0.459894  1
  O  O40  1  0.870736  0.674521  0.132823  1
  O  O41  1  0.805366  0.557664  0.333609  1
  O  O42  1  0.557818  0.304429  0.086140  1
  O  O43  1  0.808427  0.218028  0.672030  1
  O  O44  1  0.700511  0.174175  0.920866  1
  O  O45  1  0.451863  0.588577  0.011724  1
  O  O46  1  0.711492  0.850490  0.266297  1
  O  O47  1  0.822311  0.627539  0.737762  1
  O  O48  1  0.568438  0.373720  0.482725  1
  O  O49  1  0.320934  0.118917  0.228674  1
  O  O50  1  0.506494  0.591943  0.396457  1
  O  O51  1  0.755019  0.839717  0.645425  1
  O  O52  1  0.258251  0.339152  0.145099  1
  O  O53  1  0.617112  0.399591  0.870868  1
  O  O54  1  0.361514  0.144534  0.615934  1
  O  O55  1  0.306299  0.050870  0.833093  1
  O  O56  1  0.555854  0.973537  0.414298  1
  O  O57  1  0.303844  0.722129  0.165048  1
  O  O58  1  0.672329  0.782763  0.867066  1
  O  O59  1  0.427197  0.536926  0.621668  1
  O  O60  1  0.193327  0.290943  0.379532  1
  O  O61  1  0.451382  0.924317  0.668487  1
  O  O62  1  0.200962  0.682444  0.419771  1
  O  O63  1  0.198707  0.336423  0.758624  1
  O  O64  1  0.004077  0.086894  0.899303  1
  O  O65  1  0.371402  0.808671  0.949143  1
  O  O66  1  0.122178  0.560364  0.698353  1
  O  O67  1  0.100991  0.894604  0.360559  1
  O  O68  1  0.052954  0.803469  0.582614  1
  O  O69  1  0.054364  0.474587  0.914065  1
  O  O70  1  0.075875  0.872843  0.984239  1
