# generated using pymatgen
data_Mn3(OF2)2
_symmetry_space_group_name_H-M   'P 1'
_cell_length_a   7.14321176
_cell_length_b   5.80901420
_cell_length_c   5.80901420
_cell_angle_alpha   76.71311110
_cell_angle_beta   74.43464016
_cell_angle_gamma   74.43464016
_symmetry_Int_Tables_number   1
_chemical_formula_structural   Mn3(OF2)2
_chemical_formula_sum   'Mn6 O4 F8'
_cell_volume   220.43008350
_cell_formula_units_Z   2
loop_
 _symmetry_equiv_pos_site_id
 _symmetry_equiv_pos_as_xyz
  1  'x, y, z'
loop_
 _atom_site_type_symbol
 _atom_site_label
 _atom_site_symmetry_multiplicity
 _atom_site_fract_x
 _atom_site_fract_y
 _atom_site_fract_z
 _atom_site_occupancy
  Mn  Mn0  1  0.836087  0.667188  0.667188  1
  Mn  Mn1  1  0.670491  0.349412  0.349412  1
  Mn  Mn2  1  0.329509  0.650588  0.650588  1
  Mn  Mn3  1  0.163913  0.332812  0.332812  1
  Mn  Mn4  1  0.500000  0.000000  0.000000  1
  Mn  Mn5  1  0.000000  0.000000  0.000000  1
  O  O6  1  0.627259  0.570659  0.570659  1
  O  O7  1  0.960731  0.241058  0.241058  1
  O  O8  1  0.039269  0.758942  0.758942  1
  O  O9  1  0.372741  0.429341  0.429341  1
  F  F10  1  0.673071  0.021762  0.639824  1
  F  F11  1  0.326929  0.360176  0.978238  1
  F  F12  1  0.305243  0.878843  0.878843  1
  F  F13  1  0.694757  0.121157  0.121157  1
  F  F14  1  0.326929  0.978238  0.360176  1
  F  F15  1  0.673071  0.639824  0.021762  1
  F  F16  1  0.000000  0.307427  0.692573  1
  F  F17  1  0.000000  0.692573  0.307427  1
