# generated using pymatgen
data_Li11Co12(PO4)12
_symmetry_space_group_name_H-M   'P 1'
_cell_length_a   11.23531067
_cell_length_b   7.60263864
_cell_length_c   11.28862325
_cell_angle_alpha   75.00567980
_cell_angle_beta   110.76309822
_cell_angle_gamma   96.47419452
_symmetry_Int_Tables_number   1
_chemical_formula_structural   Li11Co12(PO4)12
_chemical_formula_sum   'Li11 Co12 P12 O48'
_cell_volume   870.69224353
_cell_formula_units_Z   1
loop_
 _symmetry_equiv_pos_site_id
 _symmetry_equiv_pos_as_xyz
  1  'x, y, z'
loop_
 _atom_site_type_symbol
 _atom_site_label
 _atom_site_symmetry_multiplicity
 _atom_site_fract_x
 _atom_site_fract_y
 _atom_site_fract_z
 _atom_site_occupancy
  Li  Li0  1  0.166667  0.333333  0.500000  1
  Li  Li1  1  0.666667  0.333333  0.500000  1
  Li  Li2  1  0.833304  0.666348  0.500222  1
  Li  Li3  1  0.999833  0.000282  0.500061  1
  Li  Li4  1  0.333500  0.666384  0.499939  1
  Li  Li5  1  0.500029  0.000319  0.499778  1
  Li  Li6  1  0.498717  -0.000203  0.999708  1
  Li  Li7  1  0.666667  0.333333  0.000000  1
  Li  Li8  1  0.330139  0.660113  0.999222  1
  Li  Li9  1  0.834616  0.666869  0.000292  1
  Li  Li10  1  0.003194  0.006554  0.000778  1
  Co  Co11  1  0.334406  0.411337  0.781925  1
  Co  Co12  1  0.670075  0.080895  0.779773  1
  Co  Co13  1  0.004871  0.745948  0.782983  1
  Co  Co14  1  0.650340  0.599221  0.721201  1
  Co  Co15  1  0.316795  0.933993  0.721351  1
  Co  Co16  1  0.987322  0.266643  0.726077  1
  Co  Co17  1  0.346012  0.400023  0.273923  1
  Co  Co18  1  0.682993  0.067446  0.278799  1
  Co  Co19  1  0.016538  0.732674  0.278649  1
  Co  Co20  1  0.998927  0.255330  0.218075  1
  Co  Co21  1  0.663258  0.585771  0.220227  1
  Co  Co22  1  0.328462  0.920719  0.217017  1
  P  P23  1  0.192293  0.059776  0.905358  1
  P  P24  1  0.524632  0.725242  0.904776  1
  P  P25  1  0.857766  0.390405  0.903928  1
  P  P26  1  0.421351  0.328863  0.594586  1
  P  P27  1  0.755448  0.995154  0.595420  1
  P  P28  1  0.088293  0.662067  0.595373  1
  P  P29  1  0.245040  0.004600  0.404627  1
  P  P30  1  0.577885  0.671512  0.404580  1
  P  P31  1  0.911982  0.337804  0.405414  1
  P  P32  1  0.808702  0.941425  0.095224  1
  P  P33  1  0.475568  0.276262  0.096072  1
  P  P34  1  0.141041  0.606891  0.094642  1
  O  O35  1  0.134261  0.622988  0.953252  1
  O  O36  1  0.802688  0.946923  0.954802  1
  O  O37  1  0.469432  0.281814  0.954998  1
  O  O38  1  0.959131  0.281076  0.897404  1
  O  O39  1  0.298579  0.951994  0.900906  1
  O  O40  1  0.631706  0.618865  0.902147  1
  O  O41  1  0.386463  0.657135  0.832325  1
  O  O42  1  0.523178  0.932506  0.832550  1
  O  O43  1  0.857351  0.599329  0.833298  1
  O  O44  1  0.052496  0.991834  0.833313  1
  O  O45  1  0.716869  0.326739  0.832777  1
  O  O46  1  0.190798  0.262616  0.827290  1
  O  O47  1  0.467805  0.487872  0.667253  1
  O  O48  1  0.135332  0.821425  0.667995  1
  O  O49  1  0.801833  0.155329  0.666168  1
  O  O50  1  0.996737  0.548761  0.666875  1
  O  O51  1  0.664427  0.879854  0.667225  1
  O  O52  1  0.330853  0.213561  0.666662  1
  O  O53  1  0.530046  0.219620  0.597793  1
  O  O54  1  0.864067  0.885837  0.598993  1
  O  O55  1  0.196196  0.552964  0.597952  1
  O  O56  1  0.332464  0.916423  0.545149  1
  O  O57  1  0.999334  0.250578  0.545826  1
  O  O58  1  0.666078  0.584991  0.545144  1
  O  O59  1  0.667256  0.081676  0.454856  1
  O  O60  1  0.000869  0.750243  0.454851  1
  O  O61  1  0.333999  0.416088  0.454174  1
  O  O62  1  0.469266  0.780830  0.401007  1
  O  O63  1  0.803288  0.447047  0.402207  1
  O  O64  1  0.137137  0.113703  0.402048  1
  O  O65  1  0.865528  0.178795  0.332747  1
  O  O66  1  0.198001  0.845242  0.332005  1
  O  O67  1  0.002481  0.453106  0.333338  1
  O  O68  1  0.668906  0.786813  0.332775  1
  O  O69  1  0.531500  0.511337  0.333832  1
  O  O70  1  0.336596  0.117906  0.333125  1
  O  O71  1  0.280838  0.674833  0.166687  1
  O  O72  1  0.142535  0.404051  0.172710  1
  O  O73  1  0.946870  0.009531  0.167675  1
  O  O74  1  0.810155  0.734161  0.167450  1
  O  O75  1  0.616465  0.339928  0.167223  1
  O  O76  1  0.475982  0.067337  0.166702  1
  O  O77  1  0.374203  0.385591  0.102596  1
  O  O78  1  0.701627  0.047802  0.097853  1
  O  O79  1  0.034754  0.714672  0.099094  1
  O  O80  1  0.530645  0.719744  0.045198  1
  O  O81  1  0.199072  0.043679  0.046748  1
  O  O82  1  0.863901  0.384853  0.045002  1
