# generated using pymatgen
data_Li2CoH12(SO7)2
_symmetry_space_group_name_H-M   'P 1'
_cell_length_a   8.61304951
_cell_length_b   12.12637380
_cell_length_c   5.73253457
_cell_angle_alpha   90.00000000
_cell_angle_beta   100.15356115
_cell_angle_gamma   90.00000000
_symmetry_Int_Tables_number   1
_chemical_formula_structural   Li2CoH12(SO7)2
_chemical_formula_sum   'Li4 Co2 H24 S4 O28'
_cell_volume   589.35800618
_cell_formula_units_Z   2
loop_
 _symmetry_equiv_pos_site_id
 _symmetry_equiv_pos_as_xyz
  1  'x, y, z'
loop_
 _atom_site_type_symbol
 _atom_site_label
 _atom_site_symmetry_multiplicity
 _atom_site_fract_x
 _atom_site_fract_y
 _atom_site_fract_z
 _atom_site_occupancy
  Li  Li0  1  0.171552  0.382256  0.350018  1
  Li  Li1  1  0.328448  0.882256  0.649982  1
  Li  Li2  1  0.671552  0.117744  0.350018  1
  Li  Li3  1  0.828448  0.617744  0.649982  1
  Co  Co4  1  0.000000  0.000000  0.000000  1
  Co  Co5  1  0.500000  0.500000  0.000000  1
  H  H6  1  0.112401  0.068208  0.651282  1
  H  H7  1  0.144449  0.805213  0.957841  1
  H  H8  1  0.036875  0.848999  0.349729  1
  H  H9  1  0.223582  0.387669  0.924353  1
  H  H10  1  0.241094  0.628461  0.911473  1
  H  H11  1  0.218133  0.087156  0.330529  1
  H  H12  1  0.281867  0.587156  0.669471  1
  H  H13  1  0.258906  0.128461  0.088527  1
  H  H14  1  0.276418  0.887669  0.075647  1
  H  H15  1  0.463125  0.348999  0.650271  1
  H  H16  1  0.355551  0.305213  0.042159  1
  H  H17  1  0.387599  0.568208  0.348718  1
  H  H18  1  0.612401  0.431792  0.651282  1
  H  H19  1  0.644449  0.694787  0.957841  1
  H  H20  1  0.536875  0.651001  0.349729  1
  H  H21  1  0.723582  0.112331  0.924353  1
  H  H22  1  0.741094  0.871539  0.911473  1
  H  H23  1  0.718133  0.412844  0.330529  1
  H  H24  1  0.781867  0.912844  0.669471  1
  H  H25  1  0.758906  0.371539  0.088527  1
  H  H26  1  0.776418  0.612331  0.075647  1
  H  H27  1  0.963125  0.151001  0.650271  1
  H  H28  1  0.855551  0.194787  0.042159  1
  H  H29  1  0.887599  0.931792  0.348718  1
  S  S30  1  0.077351  0.639477  0.285034  1
  S  S31  1  0.422649  0.139477  0.714966  1
  S  S32  1  0.577351  0.860523  0.285034  1
  S  S33  1  0.922649  0.360523  0.714966  1
  O  O34  1  0.005399  0.074913  0.691555  1
  O  O35  1  0.082538  0.395349  0.678230  1
  O  O36  1  0.192126  0.877753  0.932415  1
  O  O37  1  0.129442  0.738184  0.433311  1
  O  O38  1  0.074518  0.663397  0.028462  1
  O  O39  1  0.168802  0.111695  0.169924  1
  O  O40  1  0.193235  0.548164  0.363871  1
  O  O41  1  0.306765  0.048164  0.636129  1
  O  O42  1  0.331198  0.611695  0.830076  1
  O  O43  1  0.425482  0.163397  0.971538  1
  O  O44  1  0.370558  0.238184  0.566689  1
  O  O45  1  0.307874  0.377753  0.067585  1
  O  O46  1  0.505399  0.425087  0.691555  1
  O  O47  1  0.417462  0.895349  0.321770  1
  O  O48  1  0.582538  0.104651  0.678230  1
  O  O49  1  0.494601  0.574913  0.308445  1
  O  O50  1  0.692126  0.622247  0.932415  1
  O  O51  1  0.629442  0.761816  0.433311  1
  O  O52  1  0.574518  0.836603  0.028462  1
  O  O53  1  0.668802  0.388305  0.169924  1
  O  O54  1  0.693235  0.951836  0.363871  1
  O  O55  1  0.806765  0.451836  0.636129  1
  O  O56  1  0.831198  0.888305  0.830076  1
  O  O57  1  0.925482  0.336603  0.971538  1
  O  O58  1  0.870558  0.261816  0.566689  1
  O  O59  1  0.807874  0.122247  0.067585  1
  O  O60  1  0.917462  0.604651  0.321770  1
  O  O61  1  0.994601  0.925087  0.308445  1
