# generated using pymatgen
data_K2LiAlF6
_symmetry_space_group_name_H-M   'P 1'
_cell_length_a   9.79869264
_cell_length_b   9.79869264
_cell_length_c   9.79869306
_cell_angle_alpha   48.48405826
_cell_angle_beta   48.48405826
_cell_angle_gamma   48.48404954
_symmetry_Int_Tables_number   1
_chemical_formula_structural   K2LiAlF6
_chemical_formula_sum   'K6 Li3 Al3 F18'
_cell_volume   483.75801392
_cell_formula_units_Z   3
loop_
 _symmetry_equiv_pos_site_id
 _symmetry_equiv_pos_as_xyz
  1  'x, y, z'
loop_
 _atom_site_type_symbol
 _atom_site_label
 _atom_site_symmetry_multiplicity
 _atom_site_fract_x
 _atom_site_fract_y
 _atom_site_fract_z
 _atom_site_occupancy
  K  K0  1  0.907271  0.907271  0.907271  1
  K  K1  1  0.092729  0.092729  0.092729  1
  K  K2  1  0.573938  0.573938  0.573938  1
  K  K3  1  0.759396  0.759396  0.759396  1
  K  K4  1  0.240604  0.240604  0.240604  1
  K  K5  1  0.426062  0.426062  0.426062  1
  Li  Li6  1  0.500000  0.500000  0.500000  1
  Li  Li7  1  0.166667  0.166667  0.166667  1
  Li  Li8  1  0.833333  0.833333  0.833333  1
  Al  Al9  1  0.000000  0.000000  0.000000  1
  Al  Al10  1  0.666667  0.666667  0.666667  1
  Al  Al11  1  0.333333  0.333333  0.333333  1
  F  F12  1  0.592042  0.090185  0.090185  1
  F  F13  1  0.090185  0.090185  0.592042  1
  F  F14  1  0.090185  0.592042  0.090185  1
  F  F15  1  0.407958  0.909815  0.909815  1
  F  F16  1  0.909815  0.909815  0.407958  1
  F  F17  1  0.909815  0.407958  0.909815  1
  F  F18  1  0.258709  0.756852  0.756852  1
  F  F19  1  0.756852  0.756852  0.258709  1
  F  F20  1  0.756852  0.258709  0.756852  1
  F  F21  1  0.074625  0.576482  0.576482  1
  F  F22  1  0.576482  0.576482  0.074625  1
  F  F23  1  0.576482  0.074625  0.576482  1
  F  F24  1  0.925375  0.423518  0.423518  1
  F  F25  1  0.423518  0.423518  0.925375  1
  F  F26  1  0.423518  0.925375  0.423518  1
  F  F27  1  0.741291  0.243148  0.243148  1
  F  F28  1  0.243148  0.243148  0.741291  1
  F  F29  1  0.243148  0.741291  0.243148  1
