# generated using pymatgen
data_Na6Sn2B4SO16
_symmetry_space_group_name_H-M   'P 1'
_cell_length_a   10.03717451
_cell_length_b   10.03717519
_cell_length_c   10.03717532
_cell_angle_alpha   90.00000429
_cell_angle_beta   60.00000269
_cell_angle_gamma   60.00000229
_symmetry_Int_Tables_number   1
_chemical_formula_structural   Na6Sn2B4SO16
_chemical_formula_sum   'Na12 Sn4 B8 S2 O32'
_cell_volume   715.02217066
_cell_formula_units_Z   2
loop_
 _symmetry_equiv_pos_site_id
 _symmetry_equiv_pos_as_xyz
  1  'x, y, z'
loop_
 _atom_site_type_symbol
 _atom_site_label
 _atom_site_symmetry_multiplicity
 _atom_site_fract_x
 _atom_site_fract_y
 _atom_site_fract_z
 _atom_site_occupancy
  Na  Na0  1  0.750000  0.911495  0.661495  1
  Na  Na1  1  0.677010  0.661495  0.911495  1
  Na  Na2  1  0.750000  0.338505  0.661495  1
  Na  Na3  1  0.750000  0.911495  0.088505  1
  Na  Na4  1  0.822990  0.088505  0.338505  1
  Na  Na5  1  0.250000  0.661495  0.911495  1
  Na  Na6  1  0.750000  0.338505  0.088505  1
  Na  Na7  1  0.177010  0.911495  0.661495  1
  Na  Na8  1  0.250000  0.088505  0.911495  1
  Na  Na9  1  0.250000  0.661495  0.338505  1
  Na  Na10  1  0.322990  0.338505  0.088505  1
  Na  Na11  1  0.250000  0.088505  0.338505  1
  Sn  Sn12  1  0.500000  0.500000  0.500000  1
  Sn  Sn13  1  0.500000  0.000000  0.500000  1
  Sn  Sn14  1  0.000000  0.500000  0.500000  1
  Sn  Sn15  1  0.000000  0.500000  0.000000  1
  B  B16  1  0.931896  0.715948  0.284052  1
  B  B17  1  0.568104  0.715948  0.647844  1
  B  B18  1  0.931896  0.352156  0.284052  1
  B  B19  1  0.568104  0.715948  0.284052  1
  B  B20  1  0.431896  0.284052  0.715948  1
  B  B21  1  0.431896  0.284052  0.352156  1
  B  B22  1  0.068104  0.647844  0.715948  1
  B  B23  1  0.068104  0.284052  0.715948  1
  S  S24  1  0.750000  0.125000  0.875000  1
  S  S25  1  0.250000  0.875000  0.125000  1
  O  O26  1  0.940742  0.651773  0.693555  1
  O  O27  1  0.940742  0.407485  0.865701  1
  O  O28  1  0.958217  0.693555  0.407485  1
  O  O29  1  0.786071  0.865701  0.306445  1
  O  O30  1  0.871659  0.064171  0.935829  1
  O  O31  1  0.713929  0.592515  0.651773  1
  O  O32  1  0.541783  0.865701  0.651773  1
  O  O33  1  0.871659  0.064171  0.692513  1
  O  O34  1  0.628341  0.307487  0.935829  1
  O  O35  1  0.958217  0.348227  0.134299  1
  O  O36  1  0.786071  0.348227  0.407485  1
  O  O37  1  0.628341  0.064171  0.935829  1
  O  O38  1  0.713929  0.693555  0.134299  1
  O  O39  1  0.440742  0.693555  0.651773  1
  O  O40  1  0.440742  0.865701  0.407485  1
  O  O41  1  0.458217  0.407485  0.693555  1
  O  O42  1  0.541783  0.592515  0.306445  1
  O  O43  1  0.559258  0.134299  0.592515  1
  O  O44  1  0.559258  0.306445  0.348227  1
  O  O45  1  0.286071  0.306445  0.865701  1
  O  O46  1  0.371659  0.935829  0.064171  1
  O  O47  1  0.213929  0.651773  0.592515  1
  O  O48  1  0.041783  0.651773  0.865701  1
  O  O49  1  0.128341  0.935829  0.307487  1
  O  O50  1  0.371659  0.692513  0.064171  1
  O  O51  1  0.458217  0.134299  0.348227  1
  O  O52  1  0.286071  0.407485  0.348227  1
  O  O53  1  0.128341  0.935829  0.064171  1
  O  O54  1  0.213929  0.134299  0.693555  1
  O  O55  1  0.041783  0.306445  0.592515  1
  O  O56  1  0.059258  0.592515  0.134299  1
  O  O57  1  0.059258  0.348227  0.306445  1
