# generated using pymatgen
data_Li3V3P8O29
_symmetry_space_group_name_H-M   'P 1'
_cell_length_a   9.76319557
_cell_length_b   9.75595063
_cell_length_c   14.27359681
_cell_angle_alpha   90.23335624
_cell_angle_beta   90.61877474
_cell_angle_gamma   60.29940390
_symmetry_Int_Tables_number   1
_chemical_formula_structural   Li3V3P8O29
_chemical_formula_sum   'Li6 V6 P16 O58'
_cell_volume   1180.87034211
_cell_formula_units_Z   2
loop_
 _symmetry_equiv_pos_site_id
 _symmetry_equiv_pos_as_xyz
  1  'x, y, z'
loop_
 _atom_site_type_symbol
 _atom_site_label
 _atom_site_symmetry_multiplicity
 _atom_site_fract_x
 _atom_site_fract_y
 _atom_site_fract_z
 _atom_site_occupancy
  Li  Li0  1  0.314670  0.908457  0.059794  1
  Li  Li1  1  0.327322  0.771108  0.555849  1
  Li  Li2  1  0.694332  0.081688  0.943480  1
  Li  Li3  1  0.090173  0.673623  0.439979  1
  Li  Li4  1  0.085430  0.224220  0.941368  1
  Li  Li5  1  0.933755  0.080500  0.489061  1
  V  V6  1  0.566999  0.430341  0.249671  1
  V  V7  1  0.435352  0.561830  0.755184  1
  V  V8  1  0.569858  0.994874  0.742674  1
  V  V9  1  0.434395  0.005907  0.260242  1
  V  V10  1  0.998702  0.565062  0.245527  1
  V  V11  1  0.996218  0.438163  0.746185  1
  P  P12  1  0.916059  0.773140  0.840274  1
  P  P13  1  0.783922  0.913755  0.340209  1
  P  P14  1  0.916458  0.307129  0.337876  1
  P  P15  1  0.658134  0.670918  0.133405  1
  P  P16  1  0.663083  0.665358  0.630555  1
  P  P17  1  0.774278  0.313171  0.841226  1
  P  P18  1  0.689877  0.228326  0.657938  1
  P  P19  1  0.322631  0.911094  0.842010  1
  P  P20  1  0.681286  0.086822  0.158584  1
  P  P21  1  0.315956  0.769144  0.341851  1
  P  P22  1  0.227245  0.685241  0.160007  1
  P  P23  1  0.331138  0.341098  0.369792  1
  P  P24  1  0.335781  0.324198  0.867560  1
  P  P25  1  0.089081  0.685959  0.658402  1
  P  P26  1  0.221313  0.085449  0.661502  1
  P  P27  1  0.091384  0.225525  0.157929  1
  O  O28  1  0.019303  0.757088  0.566189  1
  O  O29  1  0.918089  0.737814  0.335756  1
  O  O30  1  0.742959  0.012491  0.067097  1
  O  O31  1  0.744441  0.916918  0.834096  1
  O  O32  1  0.908262  0.618647  0.818187  1
  O  O33  1  0.814539  0.659100  0.178728  1
  O  O34  1  0.923717  0.461673  0.327116  1
  O  O35  1  0.017377  0.233859  0.065478  1
  O  O36  1  0.918029  0.340497  0.839743  1
  O  O37  1  0.670893  0.811620  0.675490  1
  O  O38  1  0.620747  0.918497  0.331817  1
  O  O39  1  0.811666  0.516385  0.675152  1
  O  O40  1  0.657279  0.671981  0.029751  1
  O  O41  1  0.660995  0.671884  0.526980  1
  O  O42  1  0.655571  0.525402  0.177823  1
  O  O43  1  0.481011  0.902858  0.820443  1
  O  O44  1  0.516351  0.821898  0.176763  1
  O  O45  1  0.741155  0.347887  0.329525  1
  O  O46  1  0.797376  0.209609  0.748654  1
  O  O47  1  0.778597  0.212865  0.572611  1
  O  O48  1  0.764302  0.230284  0.924948  1
  O  O49  1  0.621071  0.475755  0.823071  1
  O  O50  1  0.511433  0.672441  0.671421  1
  O  O51  1  0.657357  0.255586  0.169313  1
  O  O52  1  0.471895  0.614267  0.328344  1
  O  O53  1  0.346783  0.910705  0.334882  1
  O  O54  1  0.800476  0.987294  0.242474  1
  O  O55  1  0.805698  0.994250  0.422058  1
  O  O56  1  0.210047  0.994749  0.581010  1
  O  O57  1  0.651619  0.091416  0.669909  1
  O  O58  1  0.534645  0.386896  0.672348  1
  O  O59  1  0.346274  0.742052  0.833218  1
  O  O60  1  0.479411  0.333863  0.323072  1
  O  O61  1  0.380404  0.525674  0.176323  1
  O  O62  1  0.230128  0.773953  0.077287  1
  O  O63  1  0.233746  0.771899  0.430901  1
  O  O64  1  0.202714  0.789885  0.254614  1
  O  O65  1  0.260445  0.657632  0.667115  1
  O  O66  1  0.482207  0.177334  0.824701  1
  O  O67  1  0.522100  0.095556  0.184380  1
  O  O68  1  0.342616  0.470733  0.820911  1
  O  O69  1  0.339893  0.325303  0.971266  1
  O  O70  1  0.332268  0.343355  0.473559  1
  O  O71  1  0.182993  0.491957  0.328830  1
  O  O72  1  0.382847  0.081655  0.670467  1
  O  O73  1  0.327978  0.190021  0.327542  1
  O  O74  1  0.085235  0.654793  0.165817  1
  O  O75  1  0.995401  0.795888  0.744855  1
  O  O76  1  0.002761  0.766159  0.926221  1
  O  O77  1  0.091785  0.525906  0.675897  1
  O  O78  1  0.182308  0.330893  0.826778  1
  O  O79  1  0.099861  0.378812  0.179215  1
  O  O80  1  0.260081  0.079946  0.166476  1
  O  O81  1  0.251616  0.992639  0.932238  1
  O  O82  1  0.202580  0.010348  0.758708  1
  O  O83  1  0.085972  0.258565  0.666778  1
  O  O84  1  0.994616  0.208898  0.421096  1
  O  O85  1  0.995118  0.207767  0.242523  1
