# generated using pymatgen
data_KMgP(H6O5)2
_symmetry_space_group_name_H-M   'P 1'
_cell_length_a   6.95455092
_cell_length_b   6.16126998
_cell_length_c   11.19083898
_cell_angle_alpha   90.00000000
_cell_angle_beta   90.00000000
_cell_angle_gamma   90.00000000
_symmetry_Int_Tables_number   1
_chemical_formula_structural   KMgP(H6O5)2
_chemical_formula_sum   'K2 Mg2 P2 H24 O20'
_cell_volume   479.51475773
_cell_formula_units_Z   2
loop_
 _symmetry_equiv_pos_site_id
 _symmetry_equiv_pos_as_xyz
  1  'x, y, z'
loop_
 _atom_site_type_symbol
 _atom_site_label
 _atom_site_symmetry_multiplicity
 _atom_site_fract_x
 _atom_site_fract_y
 _atom_site_fract_z
 _atom_site_occupancy
  K  K0  1  0.500000  0.633278  0.493493  1
  K  K1  1  0.000000  0.366722  0.993493  1
  Mg  Mg2  1  0.500000  0.614069  0.146652  1
  Mg  Mg3  1  0.000000  0.385931  0.646652  1
  P  P4  1  0.500000  0.005058  0.771847  1
  P  P5  1  0.000000  0.994942  0.271847  1
  H  H6  1  0.500000  0.275744  0.972515  1
  H  H7  1  0.000000  0.724256  0.472515  1
  H  H8  1  0.000000  0.831200  0.603425  1
  H  H9  1  0.500000  0.168800  0.103425  1
  H  H10  1  0.882630  0.002723  0.768913  1
  H  H11  1  0.117370  0.002723  0.768913  1
  H  H12  1  0.617370  0.997277  0.268913  1
  H  H13  1  0.382630  0.997277  0.268913  1
  H  H14  1  0.700605  0.788115  0.955099  1
  H  H15  1  0.299395  0.788115  0.955099  1
  H  H16  1  0.799395  0.211885  0.455099  1
  H  H17  1  0.200605  0.211885  0.455099  1
  H  H18  1  0.678064  0.178636  0.575513  1
  H  H19  1  0.321936  0.178636  0.575513  1
  H  H20  1  0.821936  0.821364  0.075513  1
  H  H21  1  0.178064  0.821364  0.075513  1
  H  H22  1  0.744702  0.637153  0.778532  1
  H  H23  1  0.255298  0.637153  0.778532  1
  H  H24  1  0.755298  0.362847  0.278532  1
  H  H25  1  0.244702  0.362847  0.278532  1
  H  H26  1  0.675661  0.387818  0.788323  1
  H  H27  1  0.324339  0.387818  0.788323  1
  H  H28  1  0.824339  0.612182  0.288323  1
  H  H29  1  0.175661  0.612182  0.288323  1
  O  O30  1  0.500000  0.024608  0.633628  1
  O  O31  1  0.000000  0.975392  0.133628  1
  O  O32  1  0.500000  0.237690  0.829311  1
  O  O33  1  0.000000  0.762310  0.329311  1
  O  O34  1  0.683449  0.883966  0.815593  1
  O  O35  1  0.316551  0.883966  0.815593  1
  O  O36  1  0.816551  0.116034  0.315593  1
  O  O37  1  0.183449  0.116034  0.315593  1
  O  O38  1  0.000000  0.691417  0.561004  1
  O  O39  1  0.500000  0.308583  0.061004  1
  O  O40  1  0.000000  0.066312  0.729047  1
  O  O41  1  0.500000  0.933688  0.229047  1
  O  O42  1  0.725617  0.722727  0.035935  1
  O  O43  1  0.274383  0.722727  0.035935  1
  O  O44  1  0.774383  0.277273  0.535935  1
  O  O45  1  0.225617  0.277273  0.535935  1
  O  O46  1  0.788765  0.483047  0.766732  1
  O  O47  1  0.211235  0.483047  0.766732  1
  O  O48  1  0.711235  0.516953  0.266732  1
  O  O49  1  0.288765  0.516953  0.266732  1
