# generated using pymatgen
data_VOF2
_symmetry_space_group_name_H-M   'P 1'
_cell_length_a   5.18740496
_cell_length_b   13.41250429
_cell_length_c   5.18583240
_cell_angle_alpha   89.13714875
_cell_angle_beta   119.30083697
_cell_angle_gamma   91.31984338
_symmetry_Int_Tables_number   1
_chemical_formula_structural   VOF2
_chemical_formula_sum   'V6 O6 F12'
_cell_volume   314.56224477
_cell_formula_units_Z   6
loop_
 _symmetry_equiv_pos_site_id
 _symmetry_equiv_pos_as_xyz
  1  'x, y, z'
loop_
 _atom_site_type_symbol
 _atom_site_label
 _atom_site_symmetry_multiplicity
 _atom_site_fract_x
 _atom_site_fract_y
 _atom_site_fract_z
 _atom_site_occupancy
  V  V0  1  0.994766  0.493035  0.030247  1
  V  V1  1  0.977321  0.992472  0.995142  1
  V  V2  1  0.643858  0.826535  0.300433  1
  V  V3  1  0.309730  0.660785  0.681189  1
  V  V4  1  0.641934  0.325999  0.340758  1
  V  V5  1  0.326861  0.158914  0.688146  1
  O  O6  1  0.424791  0.752879  0.010018  1
  O  O7  1  0.757917  0.919280  0.078097  1
  O  O8  1  0.089404  0.585751  0.751209  1
  O  O9  1  0.421915  0.251160  0.412962  1
  O  O10  1  0.921348  0.418423  0.248493  1
  O  O11  1  0.252786  0.083527  0.907300  1
  F  F12  1  0.009640  0.753252  0.406391  1
  F  F13  1  0.334277  0.417489  0.064857  1
  F  F14  1  0.066721  0.088945  0.316749  1
  F  F15  1  0.340792  0.920073  0.264902  1
  F  F16  1  0.270975  0.586049  0.335880  1
  F  F17  1  0.606111  0.250554  0.998625  1
  F  F18  1  0.012369  0.255364  0.600695  1
  F  F19  1  0.593925  0.750517  0.595347  1
  F  F20  1  0.732850  0.422273  0.658434  1
  F  F21  1  0.666275  0.084026  0.721884  1
  F  F22  1  0.926321  0.914874  0.657249  1
  F  F23  1  0.677116  0.587823  0.934993  1
