# generated using pymatgen
data_CoTe2O5
_symmetry_space_group_name_H-M   'P 1'
_cell_length_a   9.09599026
_cell_length_b   12.27202375
_cell_length_c   8.65099456
_cell_angle_alpha   90.00000000
_cell_angle_beta   90.00000000
_cell_angle_gamma   90.00000000
_symmetry_Int_Tables_number   1
_chemical_formula_structural   CoTe2O5
_chemical_formula_sum   'Co8 Te16 O40'
_cell_volume   965.67772249
_cell_formula_units_Z   8
loop_
 _symmetry_equiv_pos_site_id
 _symmetry_equiv_pos_as_xyz
  1  'x, y, z'
loop_
 _atom_site_type_symbol
 _atom_site_label
 _atom_site_symmetry_multiplicity
 _atom_site_fract_x
 _atom_site_fract_y
 _atom_site_fract_z
 _atom_site_occupancy
  Co  Co0  1  0.013967  0.120997  0.515648  1
  Co  Co1  1  0.013967  0.379003  0.515648  1
  Co  Co2  1  0.486033  0.620997  0.015648  1
  Co  Co3  1  0.486033  0.879003  0.015648  1
  Co  Co4  1  0.513967  0.120997  0.984352  1
  Co  Co5  1  0.513967  0.379003  0.984352  1
  Co  Co6  1  0.986033  0.879003  0.484352  1
  Co  Co7  1  0.986033  0.620997  0.484352  1
  Te  Te8  1  0.104732  0.250000  0.199296  1
  Te  Te9  1  0.150819  0.512473  0.840093  1
  Te  Te10  1  0.150819  0.987527  0.840093  1
  Te  Te11  1  0.168394  0.750000  0.181952  1
  Te  Te12  1  0.331606  0.250000  0.681952  1
  Te  Te13  1  0.349181  0.012473  0.340093  1
  Te  Te14  1  0.349181  0.487527  0.340093  1
  Te  Te15  1  0.395268  0.750000  0.699296  1
  Te  Te16  1  0.604732  0.250000  0.300704  1
  Te  Te17  1  0.650819  0.512473  0.659907  1
  Te  Te18  1  0.650819  0.987527  0.659907  1
  Te  Te19  1  0.668394  0.750000  0.318048  1
  Te  Te20  1  0.831606  0.250000  0.818048  1
  Te  Te21  1  0.849181  0.012473  0.159907  1
  Te  Te22  1  0.849181  0.487527  0.159907  1
  Te  Te23  1  0.895268  0.750000  0.800704  1
  O  O24  1  0.009061  0.627664  0.905454  1
  O  O25  1  0.009061  0.872336  0.905454  1
  O  O26  1  0.030011  0.750000  0.630337  1
  O  O27  1  0.119147  0.511977  0.621455  1
  O  O28  1  0.119147  0.988023  0.621455  1
  O  O29  1  0.121887  0.250000  0.658335  1
  O  O30  1  0.156097  0.629403  0.323295  1
  O  O31  1  0.156097  0.870597  0.323295  1
  O  O32  1  0.190176  0.113736  0.352101  1
  O  O33  1  0.190176  0.386264  0.352101  1
  O  O34  1  0.309824  0.613736  0.852101  1
  O  O35  1  0.309824  0.886264  0.852101  1
  O  O36  1  0.343903  0.129403  0.823295  1
  O  O37  1  0.343903  0.370597  0.823295  1
  O  O38  1  0.378113  0.750000  0.158335  1
  O  O39  1  0.380853  0.011977  0.121455  1
  O  O40  1  0.380853  0.488023  0.121455  1
  O  O41  1  0.469988  0.250000  0.130337  1
  O  O42  1  0.490939  0.372336  0.405454  1
  O  O43  1  0.490939  0.127664  0.405454  1
  O  O44  1  0.509061  0.872336  0.594546  1
  O  O45  1  0.509061  0.627664  0.594546  1
  O  O46  1  0.530012  0.750000  0.869663  1
  O  O47  1  0.619147  0.511977  0.878545  1
  O  O48  1  0.619147  0.988023  0.878545  1
  O  O49  1  0.621887  0.250000  0.841665  1
  O  O50  1  0.656097  0.870597  0.176705  1
  O  O51  1  0.656097  0.629403  0.176705  1
  O  O52  1  0.690176  0.113736  0.147899  1
  O  O53  1  0.690176  0.386264  0.147899  1
  O  O54  1  0.809824  0.886264  0.647899  1
  O  O55  1  0.809824  0.613736  0.647899  1
  O  O56  1  0.843903  0.129403  0.676705  1
  O  O57  1  0.843903  0.370597  0.676705  1
  O  O58  1  0.878113  0.750000  0.341665  1
  O  O59  1  0.880853  0.011977  0.378545  1
  O  O60  1  0.880853  0.488023  0.378545  1
  O  O61  1  0.969988  0.250000  0.369663  1
  O  O62  1  0.990939  0.127664  0.094546  1
  O  O63  1  0.990939  0.372336  0.094546  1
