# generated using pymatgen
data_Li5Mn2P2(CO7)2
_symmetry_space_group_name_H-M   'P 1'
_cell_length_a   8.46242809
_cell_length_b   5.02636291
_cell_length_c   6.63206798
_cell_angle_alpha   90.00000000
_cell_angle_beta   90.00000000
_cell_angle_gamma   85.50202703
_symmetry_Int_Tables_number   1
_chemical_formula_structural   Li5Mn2P2(CO7)2
_chemical_formula_sum   'Li5 Mn2 P2 C2 O14'
_cell_volume   281.22774124
_cell_formula_units_Z   1
loop_
 _symmetry_equiv_pos_site_id
 _symmetry_equiv_pos_as_xyz
  1  'x, y, z'
loop_
 _atom_site_type_symbol
 _atom_site_label
 _atom_site_symmetry_multiplicity
 _atom_site_fract_x
 _atom_site_fract_y
 _atom_site_fract_z
 _atom_site_occupancy
  Li  Li0  1  0.263200  0.246060  0.027051  1
  Li  Li1  1  0.263200  0.246060  0.472949  1
  Li  Li2  1  0.733968  0.752262  0.526016  1
  Li  Li3  1  0.733968  0.752262  0.973984  1
  Li  Li4  1  0.903040  0.234387  0.750000  1
  Mn  Mn5  1  0.342159  0.784503  0.750000  1
  Mn  Mn6  1  0.664757  0.212835  0.250000  1
  P  P7  1  0.419016  0.734681  0.250000  1
  P  P8  1  0.588147  0.277072  0.750000  1
  C  C9  1  0.036754  0.704137  0.750000  1
  C  C10  1  0.953442  0.289985  0.250000  1
  O  O11  1  0.069356  0.950382  0.750000  1
  O  O12  1  0.099088  0.326552  0.250000  1
  O  O13  1  0.152178  0.516210  0.750000  1
  O  O14  1  0.327205  0.837628  0.062333  1
  O  O15  1  0.327205  0.837628  0.437667  1
  O  O16  1  0.417613  0.187439  0.750000  1
  O  O17  1  0.442472  0.418209  0.250000  1
  O  O18  1  0.576653  0.588962  0.750000  1
  O  O19  1  0.590761  0.831693  0.250000  1
  O  O20  1  0.688879  0.169285  0.932455  1
  O  O21  1  0.688879  0.169285  0.567545  1
  O  O22  1  0.839973  0.485824  0.250000  1
  O  O23  1  0.891439  0.636517  0.750000  1
  O  O24  1  0.897489  0.054574  0.250000  1
