# generated using pymatgen
data_CoH4SeO5
_symmetry_space_group_name_H-M   'P 1'
_cell_length_a   5.94085864
_cell_length_b   11.40509276
_cell_length_c   8.28547453
_cell_angle_alpha   90.00000000
_cell_angle_beta   92.28658943
_cell_angle_gamma   90.00000000
_symmetry_Int_Tables_number   1
_chemical_formula_structural   CoH4SeO5
_chemical_formula_sum   'Co4 H16 Se4 O20'
_cell_volume   560.94397447
_cell_formula_units_Z   4
loop_
 _symmetry_equiv_pos_site_id
 _symmetry_equiv_pos_as_xyz
  1  'x, y, z'
loop_
 _atom_site_type_symbol
 _atom_site_label
 _atom_site_symmetry_multiplicity
 _atom_site_fract_x
 _atom_site_fract_y
 _atom_site_fract_z
 _atom_site_occupancy
  Co  Co0  1  0.177065  0.074682  0.905813  1
  Co  Co1  1  0.677065  0.425318  0.405813  1
  Co  Co2  1  0.822935  0.925318  0.094187  1
  Co  Co3  1  0.322935  0.574682  0.594187  1
  H  H4  1  0.911300  0.927038  0.660859  1
  H  H5  1  0.411300  0.572962  0.160859  1
  H  H6  1  0.088700  0.072962  0.339141  1
  H  H7  1  0.588700  0.427038  0.839141  1
  H  H8  1  0.012616  0.202667  0.636919  1
  H  H9  1  0.512616  0.297333  0.136919  1
  H  H10  1  0.987384  0.797333  0.363081  1
  H  H11  1  0.487384  0.702667  0.863081  1
  H  H12  1  0.183265  0.108460  0.579986  1
  H  H13  1  0.683265  0.391540  0.079986  1
  H  H14  1  0.816735  0.891540  0.420014  1
  H  H15  1  0.316735  0.608460  0.920014  1
  H  H16  1  0.850020  0.439880  0.823001  1
  H  H17  1  0.350020  0.060120  0.323001  1
  H  H18  1  0.149980  0.560120  0.176999  1
  H  H19  1  0.649980  0.939880  0.676999  1
  Se  Se20  1  0.873005  0.645796  0.647042  1
  Se  Se21  1  0.373005  0.854204  0.147042  1
  Se  Se22  1  0.126995  0.354204  0.352958  1
  Se  Se23  1  0.626995  0.145796  0.852958  1
  O  O24  1  0.767932  0.896445  0.617156  1
  O  O25  1  0.267932  0.603555  0.117156  1
  O  O26  1  0.232068  0.103555  0.382844  1
  O  O27  1  0.732068  0.396445  0.882844  1
  O  O28  1  0.848326  0.083759  0.979169  1
  O  O29  1  0.348326  0.416241  0.479169  1
  O  O30  1  0.151674  0.916241  0.020831  1
  O  O31  1  0.651674  0.583759  0.520831  1
  O  O32  1  0.078878  0.690051  0.516354  1
  O  O33  1  0.578878  0.809949  0.016354  1
  O  O34  1  0.921122  0.309949  0.483646  1
  O  O35  1  0.421122  0.190051  0.983646  1
  O  O36  1  0.092166  0.130231  0.675495  1
  O  O37  1  0.592166  0.369769  0.175495  1
  O  O38  1  0.907834  0.869769  0.324505  1
  O  O39  1  0.407834  0.630231  0.824505  1
  O  O40  1  0.985907  0.477687  0.286895  1
  O  O41  1  0.485907  0.022313  0.786895  1
  O  O42  1  0.014093  0.522313  0.713105  1
  O  O43  1  0.514093  0.977687  0.213105  1
