# generated using pymatgen
data_Li7Cr3Fe(PO4)6
_symmetry_space_group_name_H-M   'P 1'
_cell_length_a   8.85529586
_cell_length_b   8.85529622
_cell_length_c   8.71904159
_cell_angle_alpha   59.48169424
_cell_angle_beta   120.51830779
_cell_angle_gamma   120.00000509
_symmetry_Int_Tables_number   1
_chemical_formula_structural   Li7Cr3Fe(PO4)6
_chemical_formula_sum   'Li7 Cr3 Fe1 P6 O24'
_cell_volume   479.63708144
_cell_formula_units_Z   1
loop_
 _symmetry_equiv_pos_site_id
 _symmetry_equiv_pos_as_xyz
  1  'x, y, z'
loop_
 _atom_site_type_symbol
 _atom_site_label
 _atom_site_symmetry_multiplicity
 _atom_site_fract_x
 _atom_site_fract_y
 _atom_site_fract_z
 _atom_site_occupancy
  Li  Li0  1  0.607728  0.728395  0.666949  1
  Li  Li1  1  0.271605  0.212385  0.666949  1
  Li  Li2  1  0.186438  0.642431  0.305971  1
  Li  Li3  1  0.018363  0.981637  0.055091  1
  Li  Li4  1  0.787615  0.392272  0.666949  1
  Li  Li5  1  0.761963  0.813562  0.305971  1
  Li  Li6  1  0.357569  0.238037  0.305971  1
  Cr  Cr7  1  0.857955  0.142045  0.573866  1
  Cr  Cr8  1  0.355454  0.644546  0.066361  1
  Cr  Cr9  1  0.645375  0.354625  0.936125  1
  Fe  Fe10  1  0.151559  0.848441  0.454675  1
  P  P11  1  0.251618  0.453193  0.752402  1
  P  P12  1  0.953978  0.748382  0.752402  1
  P  P13  1  0.546807  0.046022  0.752402  1
  P  P14  1  0.458311  0.959323  0.247511  1
  P  P15  1  0.040677  0.251476  0.247511  1
  P  P16  1  0.748524  0.541689  0.247511  1
  O  O17  1  0.124117  0.710207  0.923960  1
  O  O18  1  0.510050  0.875883  0.923960  1
  O  O19  1  0.289793  0.489950  0.923960  1
  O  O20  1  0.094573  0.262559  0.753435  1
  O  O21  1  0.421242  0.436171  0.755409  1
  O  O22  1  0.209597  0.611389  0.563535  1
  O  O23  1  0.921422  0.905427  0.753435  1
  O  O24  1  0.770339  0.578758  0.755409  1
  O  O25  1  0.563829  0.229661  0.755409  1
  O  O26  1  0.621407  0.974136  0.437840  1
  O  O27  1  0.274354  0.940034  0.247095  1
  O  O28  1  0.025864  0.209432  0.437840  1
  O  O29  1  0.965328  0.790403  0.563535  1
  O  O30  1  0.737441  0.078578  0.753435  1
  O  O31  1  0.388611  0.034672  0.563535  1
  O  O32  1  0.431107  0.770067  0.248015  1
  O  O33  1  0.229933  0.413024  0.248015  1
  O  O34  1  0.059966  0.087225  0.247095  1
  O  O35  1  0.790568  0.378593  0.437840  1
  O  O36  1  0.586976  0.568893  0.248015  1
  O  O37  1  0.912775  0.725646  0.247095  1
  O  O38  1  0.699665  0.501691  0.075242  1
  O  O39  1  0.498309  0.122732  0.075242  1
  O  O40  1  0.877268  0.300335  0.075242  1
