# generated using pymatgen
data_Fe4O5F3
_symmetry_space_group_name_H-M   'P 1'
_cell_length_a   4.80803474
_cell_length_b   5.69484866
_cell_length_c   5.69484866
_cell_angle_alpha   116.16669018
_cell_angle_beta   95.68227862
_cell_angle_gamma   84.31772138
_symmetry_Int_Tables_number   1
_chemical_formula_structural   Fe4O5F3
_chemical_formula_sum   'Fe4 O5 F3'
_cell_volume   138.99485925
_cell_formula_units_Z   1
loop_
 _symmetry_equiv_pos_site_id
 _symmetry_equiv_pos_as_xyz
  1  'x, y, z'
loop_
 _atom_site_type_symbol
 _atom_site_label
 _atom_site_symmetry_multiplicity
 _atom_site_fract_x
 _atom_site_fract_y
 _atom_site_fract_z
 _atom_site_occupancy
  Fe  Fe0  1  0.544040  0.020941  0.479059  1
  Fe  Fe1  1  0.493965  0.496606  0.003394  1
  Fe  Fe2  1  0.989491  0.488983  0.499703  1
  Fe  Fe3  1  0.989491  0.000297  0.011017  1
  O  O4  1  0.819128  0.155591  0.344409  1
  O  O5  1  0.694996  0.162630  0.853417  1
  O  O6  1  0.694996  0.646583  0.337370  1
  O  O7  1  0.306299  0.836439  0.143755  1
  O  O8  1  0.306299  0.356245  0.663561  1
  F  F9  1  0.798244  0.654589  0.845411  1
  F  F10  1  0.199001  0.342025  0.157975  1
  F  F11  1  0.164053  0.839069  0.660931  1
