# generated using pymatgen
data_LiV2(OF)3
_symmetry_space_group_name_H-M   'P 1'
_cell_length_a   5.09093535
_cell_length_b   5.12561388
_cell_length_c   13.52798682
_cell_angle_alpha   92.03106637
_cell_angle_beta   92.69895043
_cell_angle_gamma   62.01497716
_symmetry_Int_Tables_number   1
_chemical_formula_structural   LiV2(OF)3
_chemical_formula_sum   'Li3 V6 O9 F9'
_cell_volume   311.34377369
_cell_formula_units_Z   3
loop_
 _symmetry_equiv_pos_site_id
 _symmetry_equiv_pos_as_xyz
  1  'x, y, z'
loop_
 _atom_site_type_symbol
 _atom_site_label
 _atom_site_symmetry_multiplicity
 _atom_site_fract_x
 _atom_site_fract_y
 _atom_site_fract_z
 _atom_site_occupancy
  Li  Li0  1  0.356151  0.320100  0.882401  1
  Li  Li1  1  0.033010  0.970869  0.214267  1
  Li  Li2  1  0.687426  0.640367  0.551849  1
  V  V3  1  0.333731  0.322256  0.667070  1
  V  V4  1  0.359431  0.318241  0.160926  1
  V  V5  1  0.960376  0.031541  0.002065  1
  V  V6  1  0.631098  0.705426  0.824258  1
  V  V7  1  0.678889  0.641774  0.334563  1
  V  V8  1  0.975143  0.026153  0.491950  1
  O  O9  1  0.069117  0.271259  0.584365  1
  O  O10  1  0.257933  0.092721  0.088518  1
  O  O11  1  0.391603  -0.000954  0.752789  1
  O  O12  1  0.404601  0.599501  0.250136  1
  O  O13  1  0.562509  0.410578  0.751068  1
  O  O14  1  0.687223  0.260797  0.083865  1
  O  O15  1  0.735026  0.321433  0.422020  1
  O  O16  1  0.737659  0.935022  0.913958  1
  O  O17  1  0.902887  0.735170  0.417552  1
  F  F18  1  0.991535  0.606116  0.750436  1
  F  F19  1  0.059262  0.681040  0.088279  1
  F  F20  1  0.295017  0.663950  0.576023  1
  F  F21  1  0.650434  0.985616  0.246939  1
  F  F22  1  0.346243  0.705669  0.922182  1
  F  F23  1  0.680951  0.023486  0.585942  1
  F  F24  1  0.331296  0.930866  0.417373  1
  F  F25  1  0.964053  0.326138  0.911036  1
  F  F26  1  0.016115  0.355415  0.254006  1
