# generated using pymatgen
data_Li3Co2NiO6
_symmetry_space_group_name_H-M   'P 1'
_cell_length_a   6.48372891
_cell_length_b   2.84239944
_cell_length_c   5.74903756
_cell_angle_alpha   90.43090361
_cell_angle_beta   103.49264524
_cell_angle_gamma   77.53821487
_symmetry_Int_Tables_number   1
_chemical_formula_structural   Li3Co2NiO6
_chemical_formula_sum   'Li3 Co2 Ni1 O6'
_cell_volume   100.49706780
_cell_formula_units_Z   1
loop_
 _symmetry_equiv_pos_site_id
 _symmetry_equiv_pos_as_xyz
  1  'x, y, z'
loop_
 _atom_site_type_symbol
 _atom_site_label
 _atom_site_symmetry_multiplicity
 _atom_site_fract_x
 _atom_site_fract_y
 _atom_site_fract_z
 _atom_site_occupancy
  Li  Li0  1  0.994936  0.003354  0.493294  1
  Li  Li1  1  0.335092  0.333530  0.832115  1
  Li  Li2  1  0.671455  0.660317  0.171798  1
  Co  Co3  1  0.995029  0.001278  0.997323  1
  Co  Co4  1  0.668724  0.663657  0.664663  1
  Ni  Ni5  1  0.332026  0.332197  0.330333  1
  O  O6  1  0.999201  0.505157  0.225462  1
  O  O7  1  0.356019  0.806354  0.571532  1
  O  O8  1  0.681141  0.159567  0.896534  1
  O  O9  1  0.307717  0.858202  0.088859  1
  O  O10  1  0.665260  0.159339  0.436819  1
  O  O11  1  0.982175  0.505771  0.765659  1
