# generated using pymatgen
data_Li2FeF5
_symmetry_space_group_name_H-M   'P 1'
_cell_length_a   5.12109342
_cell_length_b   9.81487636
_cell_length_c   8.12650200
_cell_angle_alpha   90.00000000
_cell_angle_beta   90.00000000
_cell_angle_gamma   90.00000000
_symmetry_Int_Tables_number   1
_chemical_formula_structural   Li2FeF5
_chemical_formula_sum   'Li8 Fe4 F20'
_cell_volume   408.46154718
_cell_formula_units_Z   4
loop_
 _symmetry_equiv_pos_site_id
 _symmetry_equiv_pos_as_xyz
  1  'x, y, z'
loop_
 _atom_site_type_symbol
 _atom_site_label
 _atom_site_symmetry_multiplicity
 _atom_site_fract_x
 _atom_site_fract_y
 _atom_site_fract_z
 _atom_site_occupancy
  Li  Li0  1  0.224271  0.683450  0.387734  1
  Li  Li1  1  0.304710  0.014489  0.365378  1
  Li  Li2  1  0.195290  0.985511  0.865378  1
  Li  Li3  1  0.275729  0.316550  0.887734  1
  Li  Li4  1  0.724271  0.816550  0.612266  1
  Li  Li5  1  0.804710  0.485511  0.634622  1
  Li  Li6  1  0.695290  0.514489  0.134622  1
  Li  Li7  1  0.775729  0.183450  0.112266  1
  Fe  Fe8  1  0.291939  0.632102  0.784114  1
  Fe  Fe9  1  0.208061  0.367898  0.284114  1
  Fe  Fe10  1  0.791939  0.867898  0.215886  1
  Fe  Fe11  1  0.708061  0.132102  0.715886  1
  F  F12  1  0.021464  0.186089  0.827122  1
  F  F13  1  0.007631  0.369339  0.087637  1
  F  F14  1  0.036940  0.959306  0.079331  1
  F  F15  1  0.111752  0.187911  0.342475  1
  F  F16  1  0.115637  0.459682  0.772373  1
  F  F17  1  0.384363  0.540318  0.272373  1
  F  F18  1  0.388248  0.812089  0.842475  1
  F  F19  1  0.463060  0.040694  0.579331  1
  F  F20  1  0.492369  0.630661  0.587637  1
  F  F21  1  0.478536  0.813911  0.327122  1
  F  F22  1  0.521464  0.313911  0.172878  1
  F  F23  1  0.507631  0.130661  0.912363  1
  F  F24  1  0.536940  0.540694  0.920669  1
  F  F25  1  0.611752  0.312089  0.657525  1
  F  F26  1  0.615637  0.040318  0.227627  1
  F  F27  1  0.884363  0.959682  0.727627  1
  F  F28  1  0.888248  0.687911  0.157525  1
  F  F29  1  0.963060  0.459306  0.420669  1
  F  F30  1  0.992369  0.869339  0.412363  1
  F  F31  1  0.978536  0.686089  0.672878  1
