# generated using pymatgen
data_Sb3P6WO24
_symmetry_space_group_name_H-M   'P 1'
_cell_length_a   9.17194717
_cell_length_b   9.17194779
_cell_length_c   9.17194681
_cell_angle_alpha   57.61686550
_cell_angle_beta   57.61685978
_cell_angle_gamma   57.61685884
_symmetry_Int_Tables_number   1
_chemical_formula_structural   Sb3P6WO24
_chemical_formula_sum   'Sb3 P6 W1 O24'
_cell_volume   515.70770538
_cell_formula_units_Z   1
loop_
 _symmetry_equiv_pos_site_id
 _symmetry_equiv_pos_as_xyz
  1  'x, y, z'
loop_
 _atom_site_type_symbol
 _atom_site_label
 _atom_site_symmetry_multiplicity
 _atom_site_fract_x
 _atom_site_fract_y
 _atom_site_fract_z
 _atom_site_occupancy
  Sb  Sb0  1  0.140397  0.140397  0.140397  1
  Sb  Sb1  1  0.358124  0.358124  0.358124  1
  Sb  Sb2  1  0.644735  0.644735  0.644735  1
  P  P3  1  0.042223  0.726651  0.478090  1
  P  P4  1  0.478090  0.042223  0.726651  1
  P  P5  1  0.726651  0.478090  0.042223  1
  P  P6  1  0.254828  0.545550  0.953666  1
  P  P7  1  0.545550  0.953666  0.254828  1
  P  P8  1  0.953666  0.254828  0.545550  1
  W  W9  1  0.855151  0.855151  0.855151  1
  O  O10  1  0.119904  0.260740  0.540802  1
  O  O11  1  0.260740  0.540802  0.119904  1
  O  O12  1  0.071334  0.884201  0.298375  1
  O  O13  1  0.540802  0.119904  0.260740  1
  O  O14  1  0.211866  0.547988  0.490600  1
  O  O15  1  0.991507  0.778300  0.642222  1
  O  O16  1  0.298375  0.071334  0.884201  1
  O  O17  1  0.490600  0.211866  0.547988  1
  O  O18  1  0.547988  0.490600  0.211866  1
  O  O19  1  0.255793  0.373524  0.967863  1
  O  O20  1  0.066532  0.709763  0.927917  1
  O  O21  1  0.373524  0.967863  0.255793  1
  O  O22  1  0.642222  0.991507  0.778300  1
  O  O23  1  0.884201  0.298375  0.071334  1
  O  O24  1  0.778300  0.642222  0.991507  1
  O  O25  1  0.403444  0.613779  0.766198  1
  O  O26  1  0.613779  0.766198  0.403444  1
  O  O27  1  0.709763  0.927917  0.066532  1
  O  O28  1  0.967863  0.255793  0.373524  1
  O  O29  1  0.766198  0.403444  0.613779  1
  O  O30  1  0.511830  0.882187  0.683919  1
  O  O31  1  0.927917  0.066532  0.709763  1
  O  O32  1  0.683919  0.511830  0.882187  1
  O  O33  1  0.882187  0.683919  0.511830  1
