# generated using pymatgen
data_La(ClO4)3
_symmetry_space_group_name_H-M   'P 1'
_cell_length_a   8.56709754
_cell_length_b   9.86048335
_cell_length_c   8.56709792
_cell_angle_alpha   115.74811831
_cell_angle_beta   60.00000148
_cell_angle_gamma   115.74811975
_symmetry_Int_Tables_number   1
_chemical_formula_structural   La(ClO4)3
_chemical_formula_sum   'La2 Cl6 O24'
_cell_volume   542.19636310
_cell_formula_units_Z   2
loop_
 _symmetry_equiv_pos_site_id
 _symmetry_equiv_pos_as_xyz
  1  'x, y, z'
loop_
 _atom_site_type_symbol
 _atom_site_label
 _atom_site_symmetry_multiplicity
 _atom_site_fract_x
 _atom_site_fract_y
 _atom_site_fract_z
 _atom_site_occupancy
  La  La0  1  0.058818  0.176453  0.058818  1
  La  La1  1  0.558818  0.676453  0.558818  1
  Cl  Cl2  1  0.468118  0.501001  0.186889  1
  Cl  Cl3  1  0.186889  0.501001  0.845994  1
  Cl  Cl4  1  0.345994  0.001001  0.686889  1
  Cl  Cl5  1  0.845994  0.501001  0.468118  1
  Cl  Cl6  1  0.968118  0.001001  0.345994  1
  Cl  Cl7  1  0.686889  0.001001  0.968118  1
  O  O8  1  0.075497  0.960551  0.140199  1
  O  O9  1  0.140199  0.960551  0.744854  1
  O  O10  1  0.290224  0.375714  0.201105  1
  O  O11  1  0.003247  0.520175  0.946522  1
  O  O12  1  0.421982  0.646252  0.330609  1
  O  O13  1  0.070405  0.020175  0.446522  1
  O  O14  1  0.384384  0.875714  0.701105  1
  O  O15  1  0.744854  0.960551  0.075497  1
  O  O16  1  0.570405  0.520175  0.003247  1
  O  O17  1  0.244854  0.460551  0.640199  1
  O  O18  1  0.201105  0.375714  0.884384  1
  O  O19  1  0.330609  0.646252  0.893661  1
  O  O20  1  0.575497  0.460551  0.244854  1
  O  O21  1  0.503247  0.020175  0.070405  1
  O  O22  1  0.790224  0.875714  0.384384  1
  O  O23  1  0.701105  0.875714  0.790224  1
  O  O24  1  0.446522  0.020175  0.503247  1
  O  O25  1  0.640199  0.460551  0.575497  1
  O  O26  1  0.393661  0.146252  0.830609  1
  O  O27  1  0.893661  0.646252  0.421982  1
  O  O28  1  0.884384  0.375714  0.290224  1
  O  O29  1  0.946522  0.520175  0.570405  1
  O  O30  1  0.921982  0.146252  0.393661  1
  O  O31  1  0.830609  0.146252  0.921982  1
