# generated using pymatgen
data_Fe6O11F
_symmetry_space_group_name_H-M   'P 1'
_cell_length_a   7.11808983
_cell_length_b   5.50428775
_cell_length_c   5.50428775
_cell_angle_alpha   73.89426891
_cell_angle_beta   72.27868785
_cell_angle_gamma   72.27868785
_symmetry_Int_Tables_number   1
_chemical_formula_structural   Fe6O11F
_chemical_formula_sum   'Fe6 O11 F1'
_cell_volume   191.57734101
_cell_formula_units_Z   1
loop_
 _symmetry_equiv_pos_site_id
 _symmetry_equiv_pos_as_xyz
  1  'x, y, z'
loop_
 _atom_site_type_symbol
 _atom_site_label
 _atom_site_symmetry_multiplicity
 _atom_site_fract_x
 _atom_site_fract_y
 _atom_site_fract_z
 _atom_site_occupancy
  Fe  Fe0  1  0.833333  0.664007  0.669326  1
  Fe  Fe1  1  0.667395  0.327970  0.335194  1
  Fe  Fe2  1  0.333333  0.687010  0.646323  1
  Fe  Fe3  1  0.160030  0.332886  0.347738  1
  Fe  Fe4  1  0.506637  0.985596  0.000447  1
  Fe  Fe5  1  -0.000728  0.998139  0.005363  1
  O  O6  1  0.667207  0.016964  0.644156  1
  O  O7  1  0.293561  0.901746  0.895824  1
  O  O8  1  0.962793  0.227014  0.236602  1
  O  O9  1  0.627608  0.563956  0.559502  1
  O  O10  1  0.039059  0.773831  0.769377  1
  O  O11  1  0.373106  0.437509  0.431587  1
  O  O12  1  0.703873  0.096731  0.106319  1
  O  O13  1  0.333333  0.987071  0.346263  1
  O  O14  1  0.673147  0.629564  0.019629  1
  O  O15  1  0.993519  0.313705  0.703770  1
  O  O16  1  -0.000540  0.689177  0.316369  1
  F  F17  1  0.333333  0.367123  0.966210  1
