# generated using pymatgen
data_Li3CoPCO7
_symmetry_space_group_name_H-M   'P 1'
_cell_length_a   9.44849501
_cell_length_b   9.84752655
_cell_length_c   6.39067281
_cell_angle_alpha   90.00000000
_cell_angle_beta   90.00000000
_cell_angle_gamma   63.68658403
_symmetry_Int_Tables_number   1
_chemical_formula_structural   Li3CoPCO7
_chemical_formula_sum   'Li12 Co4 P4 C4 O28'
_cell_volume   533.00321446
_cell_formula_units_Z   4
loop_
 _symmetry_equiv_pos_site_id
 _symmetry_equiv_pos_as_xyz
  1  'x, y, z'
loop_
 _atom_site_type_symbol
 _atom_site_label
 _atom_site_symmetry_multiplicity
 _atom_site_fract_x
 _atom_site_fract_y
 _atom_site_fract_z
 _atom_site_occupancy
  Li  Li0  1  0.901745  0.431373  0.749078  1
  Li  Li1  1  0.901745  0.931373  0.750922  1
  Li  Li2  1  0.720774  0.258436  0.987012  1
  Li  Li3  1  0.720774  0.758436  0.512988  1
  Li  Li4  1  0.653476  0.063160  0.246867  1
  Li  Li5  1  0.653476  0.563160  0.253133  1
  Li  Li6  1  0.346524  0.436840  0.753133  1
  Li  Li7  1  0.346524  0.936840  0.746867  1
  Li  Li8  1  0.279226  0.241564  0.012988  1
  Li  Li9  1  0.279226  0.741564  0.487012  1
  Li  Li10  1  0.098255  0.068627  0.250922  1
  Li  Li11  1  0.098255  0.568627  0.249078  1
  Co  Co12  1  0.724234  0.261438  0.506222  1
  Co  Co13  1  0.724234  0.761438  0.993778  1
  Co  Co14  1  0.275766  0.238562  0.493778  1
  Co  Co15  1  0.275766  0.738562  0.006222  1
  P  P16  1  0.591321  0.064283  0.752424  1
  P  P17  1  0.591321  0.564283  0.747576  1
  P  P18  1  0.408679  0.435717  0.247576  1
  P  P19  1  0.408679  0.935717  0.252424  1
  C  C20  1  0.961654  0.371639  0.258571  1
  C  C21  1  0.961654  0.871639  0.241429  1
  C  C22  1  0.038346  0.128361  0.741429  1
  C  C23  1  0.038346  0.628361  0.758571  1
  O  O24  1  0.931061  0.010768  0.252421  1
  O  O25  1  0.931061  0.510768  0.247579  1
  O  O26  1  0.889282  0.234945  0.737416  1
  O  O27  1  0.851490  0.327015  0.261521  1
  O  O28  1  0.889282  0.734945  0.762584  1
  O  O29  1  0.851490  0.827015  0.238479  1
  O  O30  1  0.685867  0.071638  0.943347  1
  O  O31  1  0.690069  0.070729  0.559041  1
  O  O32  1  0.690069  0.570729  0.940959  1
  O  O33  1  0.685867  0.571638  0.556653  1
  O  O34  1  0.579376  0.304365  0.255335  1
  O  O35  1  0.579053  0.411066  0.747918  1
  O  O36  1  0.579376  0.804365  0.244665  1
  O  O37  1  0.579053  0.911066  0.752082  1
  O  O38  1  0.420947  0.088934  0.252082  1
  O  O39  1  0.420624  0.195635  0.744665  1
  O  O40  1  0.420947  0.588934  0.247918  1
  O  O41  1  0.420624  0.695635  0.755335  1
  O  O42  1  0.314133  0.428362  0.056653  1
  O  O43  1  0.309931  0.429271  0.440959  1
  O  O44  1  0.309931  0.929271  0.059041  1
  O  O45  1  0.314133  0.928362  0.443347  1
  O  O46  1  0.148510  0.172985  0.738479  1
  O  O47  1  0.110718  0.265055  0.262584  1
  O  O48  1  0.148510  0.672985  0.761521  1
  O  O49  1  0.110718  0.765055  0.237416  1
  O  O50  1  0.068939  0.489232  0.747579  1
  O  O51  1  0.068939  0.989232  0.752421  1
