# generated using pymatgen
data_ZnP2(HO3)2
_symmetry_space_group_name_H-M   'P 1'
_cell_length_a   12.56936417
_cell_length_b   12.56936418
_cell_length_c   12.56936381
_cell_angle_alpha   115.62495977
_cell_angle_beta   115.62495973
_cell_angle_gamma   115.62496262
_symmetry_Int_Tables_number   1
_chemical_formula_structural   ZnP2(HO3)2
_chemical_formula_sum   'Zn6 P12 H12 O36'
_cell_volume   1045.35502305
_cell_formula_units_Z   6
loop_
 _symmetry_equiv_pos_site_id
 _symmetry_equiv_pos_as_xyz
  1  'x, y, z'
loop_
 _atom_site_type_symbol
 _atom_site_label
 _atom_site_symmetry_multiplicity
 _atom_site_fract_x
 _atom_site_fract_y
 _atom_site_fract_z
 _atom_site_occupancy
  Zn  Zn0  1  0.569061  0.336527  0.916093  1
  Zn  Zn1  1  0.336527  0.916093  0.569061  1
  Zn  Zn2  1  0.916093  0.569061  0.336527  1
  Zn  Zn3  1  0.430939  0.663473  0.083907  1
  Zn  Zn4  1  0.663473  0.083907  0.430939  1
  Zn  Zn5  1  0.083907  0.430939  0.663473  1
  P  P6  1  0.198249  0.990573  0.735358  1
  P  P7  1  0.990573  0.735358  0.198249  1
  P  P8  1  0.735358  0.198249  0.990573  1
  P  P9  1  0.801751  0.009427  0.264642  1
  P  P10  1  0.009427  0.264642  0.801751  1
  P  P11  1  0.264642  0.801751  0.009427  1
  P  P12  1  0.605734  0.556384  0.229379  1
  P  P13  1  0.556384  0.229379  0.605734  1
  P  P14  1  0.229379  0.605734  0.556384  1
  P  P15  1  0.394266  0.443616  0.770621  1
  P  P16  1  0.443616  0.770621  0.394266  1
  P  P17  1  0.770621  0.394266  0.443616  1
  H  H18  1  0.265803  0.054289  0.895965  1
  H  H19  1  0.054289  0.895965  0.265803  1
  H  H20  1  0.895965  0.265803  0.054289  1
  H  H21  1  0.734197  0.945711  0.104035  1
  H  H22  1  0.945711  0.104035  0.734197  1
  H  H23  1  0.104035  0.734197  0.945711  1
  H  H24  1  0.724653  0.664818  0.414303  1
  H  H25  1  0.664818  0.414303  0.724653  1
  H  H26  1  0.414303  0.724653  0.664818  1
  H  H27  1  0.275347  0.335182  0.585697  1
  H  H28  1  0.335182  0.585697  0.275347  1
  H  H29  1  0.585697  0.275347  0.335182  1
  O  O30  1  0.356518  0.068189  0.766710  1
  O  O31  1  0.068189  0.766710  0.356518  1
  O  O32  1  0.766710  0.356518  0.068189  1
  O  O33  1  0.643482  0.931811  0.233290  1
  O  O34  1  0.931811  0.233290  0.643482  1
  O  O35  1  0.233290  0.643482  0.931811  1
  O  O36  1  0.672052  0.494053  0.173761  1
  O  O37  1  0.494053  0.173761  0.672052  1
  O  O38  1  0.173761  0.672052  0.494053  1
  O  O39  1  0.327948  0.505947  0.826239  1
  O  O40  1  0.505947  0.826239  0.327948  1
  O  O41  1  0.826239  0.327948  0.505947  1
  O  O42  1  0.780530  0.577277  0.033260  1
  O  O43  1  0.577277  0.033260  0.780530  1
  O  O44  1  0.033260  0.780530  0.577277  1
  O  O45  1  0.219470  0.422723  0.966740  1
  O  O46  1  0.422723  0.966740  0.219470  1
  O  O47  1  0.966740  0.219470  0.422723  1
  O  O48  1  0.395122  0.333422  0.792065  1
  O  O49  1  0.333422  0.792065  0.395122  1
  O  O50  1  0.792065  0.395122  0.333422  1
  O  O51  1  0.604878  0.666578  0.207935  1
  O  O52  1  0.666578  0.207935  0.604878  1
  O  O53  1  0.207935  0.604878  0.666578  1
  O  O54  1  0.103714  0.032483  0.673409  1
  O  O55  1  0.032483  0.673409  0.103714  1
  O  O56  1  0.673409  0.103714  0.032483  1
  O  O57  1  0.896286  0.967517  0.326591  1
  O  O58  1  0.967517  0.326591  0.896286  1
  O  O59  1  0.326591  0.896286  0.967517  1
  O  O60  1  0.410174  0.384810  0.112021  1
  O  O61  1  0.384810  0.112021  0.410174  1
  O  O62  1  0.112021  0.410174  0.384810  1
  O  O63  1  0.589826  0.615190  0.887979  1
  O  O64  1  0.615190  0.887979  0.589826  1
  O  O65  1  0.887979  0.589826  0.615190  1
