# generated using pymatgen
data_Li4Mn3V2Cu3O16
_symmetry_space_group_name_H-M   'P 1'
_cell_length_a   5.87527723
_cell_length_b   5.81907633
_cell_length_c   9.60741371
_cell_angle_alpha   89.97842459
_cell_angle_beta   88.52570538
_cell_angle_gamma   119.64935882
_symmetry_Int_Tables_number   1
_chemical_formula_structural   Li4Mn3V2Cu3O16
_chemical_formula_sum   'Li4 Mn3 V2 Cu3 O16'
_cell_volume   285.33169500
_cell_formula_units_Z   1
loop_
 _symmetry_equiv_pos_site_id
 _symmetry_equiv_pos_as_xyz
  1  'x, y, z'
loop_
 _atom_site_type_symbol
 _atom_site_label
 _atom_site_symmetry_multiplicity
 _atom_site_fract_x
 _atom_site_fract_y
 _atom_site_fract_z
 _atom_site_occupancy
  Li  Li0  1  0.343582  0.671891  0.901730  1
  Li  Li1  1  0.995348  0.997662  0.994666  1
  Li  Li2  1  0.001323  0.000673  0.486989  1
  Li  Li3  1  0.648648  0.324291  0.405415  1
  Mn  Mn4  1  0.648997  0.824443  0.218776  1
  Mn  Mn5  1  0.832096  0.664282  0.717121  1
  Mn  Mn6  1  0.832120  0.167842  0.717113  1
  V  V7  1  0.278058  0.639023  0.480622  1
  V  V8  1  0.667657  0.334097  0.993188  1
  Cu  Cu9  1  0.161875  0.827007  0.207409  1
  Cu  Cu10  1  0.161838  0.334823  0.207384  1
  Cu  Cu11  1  0.342207  0.171142  0.712928  1
  O  O12  1  0.164259  0.821185  0.589594  1
  O  O13  1  0.020513  0.510075  0.370935  1
  O  O14  1  0.335095  0.667494  0.113789  1
  O  O15  1  0.992414  0.996249  0.296263  1
  O  O16  1  0.005079  0.002431  0.806024  1
  O  O17  1  0.164601  0.342789  0.589737  1
  O  O18  1  0.487332  0.956531  0.346566  1
  O  O19  1  0.487449  0.530801  0.346564  1
  O  O20  1  0.356222  0.178234  0.063802  1
  O  O21  1  0.687038  0.843608  0.608791  1
  O  O22  1  0.552855  0.506957  0.849093  1
  O  O23  1  0.552291  0.046109  0.848783  1
  O  O24  1  0.675565  0.337933  0.615673  1
  O  O25  1  0.816854  0.654766  0.092916  1
  O  O26  1  0.971881  0.485868  0.833197  1
  O  O27  1  0.816804  0.162095  0.092773  1
