# generated using pymatgen
data_LiCuF2
_symmetry_space_group_name_H-M   'P 1'
_cell_length_a   6.27579616
_cell_length_b   5.71136481
_cell_length_c   5.24499339
_cell_angle_alpha   90.00000000
_cell_angle_beta   90.00000000
_cell_angle_gamma   90.76661199
_symmetry_Int_Tables_number   1
_chemical_formula_structural   LiCuF2
_chemical_formula_sum   'Li4 Cu4 F8'
_cell_volume   187.98136558
_cell_formula_units_Z   4
loop_
 _symmetry_equiv_pos_site_id
 _symmetry_equiv_pos_as_xyz
  1  'x, y, z'
loop_
 _atom_site_type_symbol
 _atom_site_label
 _atom_site_symmetry_multiplicity
 _atom_site_fract_x
 _atom_site_fract_y
 _atom_site_fract_z
 _atom_site_occupancy
  Li  Li0  1  0.407956  0.649075  0.821500  1
  Li  Li1  1  0.407956  0.149075  0.678500  1
  Li  Li2  1  0.592044  0.850925  0.321500  1
  Li  Li3  1  0.592044  0.350925  0.178500  1
  Cu  Cu4  1  0.082433  0.604434  0.243208  1
  Cu  Cu5  1  0.082433  0.104434  0.256792  1
  Cu  Cu6  1  0.917567  0.895566  0.743208  1
  Cu  Cu7  1  0.917567  0.395566  0.756792  1
  F  F8  1  0.211487  0.904975  0.777463  1
  F  F9  1  0.211487  0.404975  0.722537  1
  F  F10  1  0.379699  0.620634  0.195004  1
  F  F11  1  0.379699  0.120634  0.304996  1
  F  F12  1  0.620301  0.879366  0.695004  1
  F  F13  1  0.620301  0.379366  0.804996  1
  F  F14  1  0.788513  0.595025  0.277463  1
  F  F15  1  0.788513  0.095025  0.222537  1
