# generated using pymatgen
data_LiMnV(P2O7)2
_symmetry_space_group_name_H-M   'P 1'
_cell_length_a   13.66383743
_cell_length_b   8.16326330
_cell_length_c   7.15199941
_cell_angle_alpha   91.35135356
_cell_angle_beta   97.87835749
_cell_angle_gamma   88.35625121
_symmetry_Int_Tables_number   1
_chemical_formula_structural   LiMnV(P2O7)2
_chemical_formula_sum   'Li3 Mn3 V3 P12 O42'
_cell_volume   789.73434040
_cell_formula_units_Z   3
loop_
 _symmetry_equiv_pos_site_id
 _symmetry_equiv_pos_as_xyz
  1  'x, y, z'
loop_
 _atom_site_type_symbol
 _atom_site_label
 _atom_site_symmetry_multiplicity
 _atom_site_fract_x
 _atom_site_fract_y
 _atom_site_fract_z
 _atom_site_occupancy
  Li  Li0  1  0.165504  0.863588  0.837734  1
  Li  Li1  1  0.499688  0.863459  0.171882  1
  Li  Li2  1  0.832209  0.357964  0.159516  1
  Mn  Mn3  1  0.171747  0.007145  0.439735  1
  Mn  Mn4  1  0.506548  0.007326  0.771554  1
  Mn  Mn5  1  0.837417  0.992503  0.115430  1
  V  V6  1  0.163268  0.494782  0.880440  1
  V  V7  1  0.495089  0.494954  0.215740  1
  V  V8  1  0.829103  0.505867  0.554624  1
  P  P9  1  0.043028  0.780040  0.134385  1
  P  P10  1  0.039578  0.678228  0.524666  1
  P  P11  1  0.290171  0.287180  0.204739  1
  P  P12  1  0.295013  0.176054  0.815371  1
  P  P13  1  0.375323  0.782002  0.467368  1
  P  P14  1  0.373464  0.679425  0.857189  1
  P  P15  1  0.627596  0.177698  0.150495  1
  P  P16  1  0.625210  0.288702  0.539148  1
  P  P17  1  0.704937  0.682687  0.188292  1
  P  P18  1  0.709259  0.782056  0.799860  1
  P  P19  1  0.960387  0.174607  0.478570  1
  P  P20  1  0.957819  0.287959  0.867100  1
  O  O21  1  0.052552  0.651595  0.304896  1
  O  O22  1  0.103861  0.932428  0.189833  1
  O  O23  1  0.070267  0.174695  0.462012  1
  O  O24  1  0.079196  0.843618  0.590757  1
  O  O25  1  0.098335  0.535266  0.626153  1
  O  O26  1  0.228146  0.439383  0.128957  1
  O  O27  1  0.067539  0.332858  0.909549  1
  O  O28  1  0.284721  0.149910  0.035247  1
  O  O29  1  0.085792  0.685752  0.973964  1
  O  O30  1  0.257448  0.202623  0.366866  1
  O  O31  1  0.266126  0.826123  0.410609  1
  O  O32  1  0.232861  0.038327  0.715585  1
  O  O33  1  0.250525  0.347573  0.765785  1
  O  O34  1  0.260819  0.672536  0.866211  1
  O  O35  1  0.399776  0.336652  0.244720  1
  O  O36  1  0.416628  0.687342  0.305408  1
  O  O37  1  0.385849  0.652916  0.637001  1
  O  O38  1  0.437570  0.932890  0.522368  1
  O  O39  1  0.403835  0.172170  0.792051  1
  O  O40  1  0.567656  0.038981  0.049195  1
  O  O41  1  0.582442  0.348259  0.099162  1
  O  O42  1  0.414431  0.844572  0.923151  1
  O  O43  1  0.430270  0.535451  0.958463  1
  O  O44  1  0.592913  0.670107  0.200823  1
  O  O45  1  0.561745  0.439375  0.463700  1
  O  O46  1  0.618625  0.150978  0.369591  1
  O  O47  1  0.593113  0.203466  0.701700  1
  O  O48  1  0.737308  0.177308  0.127007  1
  O  O49  1  0.600222  0.828534  0.742591  1
  O  O50  1  0.742350  0.848383  0.250297  1
  O  O51  1  0.765434  0.537488  0.284447  1
  O  O52  1  0.734367  0.341814  0.576443  1
  O  O53  1  0.746544  0.682561  0.639093  1
  O  O54  1  0.920934  0.210587  0.032290  1
  O  O55  1  0.717176  0.649899  0.968233  1
  O  O56  1  0.933881  0.819588  0.074011  1
  O  O57  1  0.770926  0.931003  0.865989  1
  O  O58  1  0.902378  0.037601  0.372156  1
  O  O59  1  0.912068  0.344447  0.425948  1
  O  O60  1  0.927890  0.662149  0.533854  1
  O  O61  1  0.894497  0.441942  0.802410  1
  O  O62  1  0.949193  0.151456  0.699135  1
