# generated using pymatgen
data_SrLaMnFeO6
_symmetry_space_group_name_H-M   'P 1'
_cell_length_a   5.53450351
_cell_length_b   22.10032930
_cell_length_c   9.56409740
_cell_angle_alpha   30.05828463
_cell_angle_beta   55.08957200
_cell_angle_gamma   60.30843518
_symmetry_Int_Tables_number   1
_chemical_formula_structural   SrLaMnFeO6
_chemical_formula_sum   'Sr4 La4 Mn4 Fe4 O24'
_cell_volume   480.50160514
_cell_formula_units_Z   4
loop_
 _symmetry_equiv_pos_site_id
 _symmetry_equiv_pos_as_xyz
  1  'x, y, z'
loop_
 _atom_site_type_symbol
 _atom_site_label
 _atom_site_symmetry_multiplicity
 _atom_site_fract_x
 _atom_site_fract_y
 _atom_site_fract_z
 _atom_site_occupancy
  Sr  Sr0  1  0.250000  0.004012  0.241977  1
  Sr  Sr1  1  0.250000  0.243779  0.262443  1
  Sr  Sr2  1  0.750000  0.006221  0.737557  1
  Sr  Sr3  1  0.750000  0.245988  0.758023  1
  La  La4  1  0.250000  0.498483  0.253035  1
  La  La5  1  0.250000  0.756285  0.237430  1
  La  La6  1  0.750000  0.493715  0.762570  1
  La  La7  1  0.750000  0.751517  0.746965  1
  Mn  Mn8  1  0.003217  0.001634  0.995852  1
  Mn  Mn9  1  0.996783  0.248366  0.004148  1
  Mn  Mn10  1  0.496783  0.001634  0.497612  1
  Mn  Mn11  1  0.503217  0.248366  0.502388  1
  Fe  Fe12  1  0.997175  0.497558  0.005701  1
  Fe  Fe13  1  0.002825  0.752442  0.994299  1
  Fe  Fe14  1  0.502825  0.497558  0.504068  1
  Fe  Fe15  1  0.497175  0.752442  0.495932  1
  O  O16  1  0.284044  0.133861  0.215343  1
  O  O17  1  0.250000  0.010613  0.728773  1
  O  O18  1  0.215956  0.133861  0.749212  1
  O  O19  1  0.298613  0.387086  0.207753  1
  O  O20  1  0.784044  0.116139  0.250788  1
  O  O21  1  0.250000  0.274506  0.700989  1
  O  O22  1  0.750000  0.239387  0.271227  1
  O  O23  1  0.201387  0.387086  0.743901  1
  O  O24  1  0.715956  0.116139  0.784657  1
  O  O25  1  0.301848  0.636866  0.202127  1
  O  O26  1  0.776893  0.368252  0.242486  1
  O  O27  1  0.250000  0.524722  0.700556  1
  O  O28  1  0.750000  0.481637  0.286725  1
  O  O29  1  0.198152  0.636866  0.750408  1
  O  O30  1  0.723107  0.368252  0.784506  1
  O  O31  1  0.276893  0.881748  0.215494  1
  O  O32  1  0.801848  0.613134  0.249592  1
  O  O33  1  0.250000  0.768363  0.713275  1
  O  O34  1  0.750000  0.725278  0.299444  1
  O  O35  1  0.223107  0.881748  0.757514  1
  O  O36  1  0.698152  0.613134  0.797873  1
  O  O37  1  0.798613  0.862914  0.256099  1
  O  O38  1  0.750000  0.975494  0.299011  1
  O  O39  1  0.701387  0.862914  0.792247  1
