# generated using pymatgen
data_Ba4La8Mn11SnO36
_symmetry_space_group_name_H-M   'P 1'
_cell_length_a   5.62733984
_cell_length_b   11.25360364
_cell_length_c   16.87007794
_cell_angle_alpha   60.26288643
_cell_angle_beta   60.27764540
_cell_angle_gamma   60.26613511
_symmetry_Int_Tables_number   1
_chemical_formula_structural   Ba4La8Mn11SnO36
_chemical_formula_sum   'Ba4 La8 Mn11 Sn1 O36'
_cell_volume   760.03208152
_cell_formula_units_Z   1
loop_
 _symmetry_equiv_pos_site_id
 _symmetry_equiv_pos_as_xyz
  1  'x, y, z'
loop_
 _atom_site_type_symbol
 _atom_site_label
 _atom_site_symmetry_multiplicity
 _atom_site_fract_x
 _atom_site_fract_y
 _atom_site_fract_z
 _atom_site_occupancy
  Ba  Ba0  1  0.748117  0.377572  0.581865  1
  Ba  Ba1  1  0.744575  0.874671  0.253439  1
  Ba  Ba2  1  0.751011  0.378241  0.914901  1
  Ba  Ba3  1  0.757602  0.871617  0.914031  1
  La  La4  1  0.237257  0.134419  0.086818  1
  La  La5  1  0.256268  0.616162  0.084634  1
  La  La6  1  0.248223  0.124576  0.418245  1
  La  La7  1  0.248466  0.624895  0.418156  1
  La  La8  1  0.257757  0.128415  0.742860  1
  La  La9  1  0.747174  0.375483  0.251534  1
  La  La10  1  0.250255  0.624822  0.749459  1
  La  La11  1  0.750225  0.871841  0.585211  1
  Mn  Mn12  1  0.999042  0.500723  0.000076  1
  Mn  Mn13  1  0.997055  0.000268  0.335145  1
  Mn  Mn14  1  0.002510  0.999290  0.665418  1
  Mn  Mn15  1  0.000166  0.499272  0.333941  1
  Mn  Mn16  1  0.493949  0.250703  0.170062  1
  Mn  Mn17  1  0.000656  0.500970  0.665775  1
  Mn  Mn18  1  0.503334  0.249342  0.497769  1
  Mn  Mn19  1  0.502798  0.745445  0.168541  1
  Mn  Mn20  1  0.496914  0.751499  0.500940  1
  Mn  Mn21  1  0.500316  0.253714  0.830883  1
  Mn  Mn22  1  0.503098  0.749023  0.831201  1
  Sn  Sn23  1  0.000523  0.999249  0.000033  1
  O  O24  1  0.201436  0.375381  0.100516  1
  O  O25  1  0.264256  0.117134  0.251633  1
  O  O26  1  0.251878  0.349407  0.265629  1
  O  O27  1  0.740734  0.141671  0.078157  1
  O  O28  1  0.236618  0.370415  0.422029  1
  O  O29  1  0.225944  0.867002  0.096371  1
  O  O30  1  0.695327  0.399444  0.090405  1
  O  O31  1  0.302226  0.100385  0.580463  1
  O  O32  1  0.300340  0.600006  0.250366  1
  O  O33  1  0.796291  0.133752  0.234950  1
  O  O34  1  0.254043  0.347954  0.597479  1
  O  O35  1  0.244859  0.844880  0.272949  1
  O  O36  1  0.750170  0.148150  0.401476  1
  O  O37  1  0.753733  0.630641  0.077749  1
  O  O38  1  0.230465  0.376860  0.756680  1
  O  O39  1  0.199640  0.878906  0.433870  1
  O  O40  1  0.701004  0.398368  0.410980  1
  O  O41  1  0.683505  0.902731  0.086321  1
  O  O42  1  0.282069  0.115673  0.915318  1
  O  O43  1  0.264947  0.620084  0.582556  1
  O  O44  1  0.806480  0.116385  0.563932  1
  O  O45  1  0.802949  0.617591  0.231858  1
  O  O46  1  0.246590  0.348827  0.937905  1
  O  O47  1  0.249838  0.848819  0.600617  1
  O  O48  1  0.756269  0.135027  0.738429  1
  O  O49  1  0.746182  0.637012  0.410945  1
  O  O50  1  0.238326  0.874480  0.752473  1
  O  O51  1  0.693221  0.403036  0.749736  1
  O  O52  1  0.689552  0.904334  0.423524  1
  O  O53  1  0.272395  0.612855  0.916185  1
  O  O54  1  0.796793  0.636546  0.565480  1
  O  O55  1  0.810156  0.128275  0.893293  1
  O  O56  1  0.258522  0.842489  0.933703  1
  O  O57  1  0.748183  0.649394  0.734985  1
  O  O58  1  0.703195  0.900850  0.741897  1
  O  O59  1  0.804571  0.623021  0.898203  1
