# generated using pymatgen
data_Li3Bi(PO4)2
_symmetry_space_group_name_H-M   'P 1'
_cell_length_a   8.36194465
_cell_length_b   5.74160642
_cell_length_c   6.38103870
_cell_angle_alpha   90.00000000
_cell_angle_beta   38.49366022
_cell_angle_gamma   69.92086354
_symmetry_Int_Tables_number   1
_chemical_formula_structural   Li3Bi(PO4)2
_chemical_formula_sum   'Li3 Bi1 P2 O8'
_cell_volume   159.05650661
_cell_formula_units_Z   1
loop_
 _symmetry_equiv_pos_site_id
 _symmetry_equiv_pos_as_xyz
  1  'x, y, z'
loop_
 _atom_site_type_symbol
 _atom_site_label
 _atom_site_symmetry_multiplicity
 _atom_site_fract_x
 _atom_site_fract_y
 _atom_site_fract_z
 _atom_site_occupancy
  Li  Li0  1  0.180195  0.659902  0.117594  1
  Li  Li1  1  0.502282  0.998859  0.999186  1
  Li  Li2  1  0.821544  0.339228  0.887932  1
  Bi  Bi3  1  0.498888  0.000556  0.503695  1
  P  P4  1  0.211555  0.644222  0.546230  1
  P  P5  1  0.789199  0.355401  0.456345  1
  O  O6  1  0.026535  0.236733  0.389056  1
  O  O7  1  0.944661  0.277670  0.076352  1
  O  O8  1  0.434535  0.316291  0.301404  1
  O  O9  1  0.434535  0.749174  0.301404  1
  O  O10  1  0.566829  0.249603  0.701257  1
  O  O11  1  0.566829  0.683568  0.701257  1
  O  O12  1  0.050469  0.724766  0.930252  1
  O  O13  1  0.977175  0.761412  0.608091  1
