# generated using pymatgen
data_Li2Cr3CuO8
_symmetry_space_group_name_H-M   'P 1'
_cell_length_a   5.84419889
_cell_length_b   5.85129000
_cell_length_c   9.56498245
_cell_angle_alpha   90.43037777
_cell_angle_beta   89.78455850
_cell_angle_gamma   120.04014555
_symmetry_Int_Tables_number   1
_chemical_formula_structural   Li2Cr3CuO8
_chemical_formula_sum   'Li4 Cr6 Cu2 O16'
_cell_volume   283.14137641
_cell_formula_units_Z   2
loop_
 _symmetry_equiv_pos_site_id
 _symmetry_equiv_pos_as_xyz
  1  'x, y, z'
loop_
 _atom_site_type_symbol
 _atom_site_label
 _atom_site_symmetry_multiplicity
 _atom_site_fract_x
 _atom_site_fract_y
 _atom_site_fract_z
 _atom_site_occupancy
  Li  Li0  1  0.331368  0.663811  0.899588  1
  Li  Li1  1  0.999932  0.002821  0.996540  1
  Li  Li2  1  0.000068  0.002889  0.496540  1
  Li  Li3  1  0.668632  0.332443  0.399588  1
  Cr  Cr4  1  0.172626  0.828310  0.215559  1
  Cr  Cr5  1  0.170620  0.334638  0.209438  1
  Cr  Cr6  1  0.667270  0.829285  0.208797  1
  Cr  Cr7  1  0.332730  0.162016  0.708797  1
  Cr  Cr8  1  0.827374  0.655684  0.715559  1
  Cr  Cr9  1  0.829380  0.164017  0.709438  1
  Cu  Cu10  1  0.337891  0.674725  0.483098  1
  Cu  Cu11  1  0.662109  0.336834  0.983098  1
  O  O12  1  0.170623  0.847370  0.605636  1
  O  O13  1  0.040095  0.512206  0.335530  1
  O  O14  1  0.335607  0.663674  0.102650  1
  O  O15  1  0.001017  0.001539  0.313253  1
  O  O16  1  0.998983  0.000521  0.813253  1
  O  O17  1  0.165120  0.328918  0.610399  1
  O  O18  1  0.490133  0.962833  0.334377  1
  O  O19  1  0.481155  0.522317  0.332363  1
  O  O20  1  0.324205  0.171534  0.106694  1
  O  O21  1  0.675795  0.847330  0.606694  1
  O  O22  1  0.509867  0.472700  0.834377  1
  O  O23  1  0.518845  0.041162  0.832363  1
  O  O24  1  0.664393  0.328067  0.602650  1
  O  O25  1  0.829377  0.676747  0.105636  1
  O  O26  1  0.959905  0.472111  0.835530  1
  O  O27  1  0.834880  0.163798  0.110399  1
