# generated using pymatgen
data_Li2CrSiO5
_symmetry_space_group_name_H-M   'P 1'
_cell_length_a   13.11334378
_cell_length_b   5.03768541
_cell_length_c   12.48266538
_cell_angle_alpha   90.00000000
_cell_angle_beta   61.21846773
_cell_angle_gamma   90.00000000
_symmetry_Int_Tables_number   1
_chemical_formula_structural   Li2CrSiO5
_chemical_formula_sum   'Li16 Cr8 Si8 O40'
_cell_volume   722.74462100
_cell_formula_units_Z   8
loop_
 _symmetry_equiv_pos_site_id
 _symmetry_equiv_pos_as_xyz
  1  'x, y, z'
loop_
 _atom_site_type_symbol
 _atom_site_label
 _atom_site_symmetry_multiplicity
 _atom_site_fract_x
 _atom_site_fract_y
 _atom_site_fract_z
 _atom_site_occupancy
  Li  Li0  1  0.320477  0.761136  0.823967  1
  Li  Li1  1  0.092210  0.778033  0.563104  1
  Li  Li2  1  0.183323  0.212207  0.641613  1
  Li  Li3  1  0.591665  0.725246  0.845396  1
  Li  Li4  1  0.408335  0.225246  0.654604  1
  Li  Li5  1  0.816677  0.712207  0.858387  1
  Li  Li6  1  0.320477  0.738864  0.323967  1
  Li  Li7  1  0.092210  0.721967  0.063104  1
  Li  Li8  1  0.907790  0.278033  0.936896  1
  Li  Li9  1  0.679523  0.261136  0.676033  1
  Li  Li10  1  0.183323  0.287793  0.141613  1
  Li  Li11  1  0.591665  0.774754  0.345396  1
  Li  Li12  1  0.408335  0.274754  0.154604  1
  Li  Li13  1  0.816677  0.787793  0.358387  1
  Li  Li14  1  0.907790  0.221967  0.436896  1
  Li  Li15  1  0.679523  0.238864  0.176033  1
  Cr  Cr16  1  0.060759  0.729277  0.806326  1
  Cr  Cr17  1  0.437499  0.269863  0.867799  1
  Cr  Cr18  1  0.060759  0.770723  0.306326  1
  Cr  Cr19  1  0.562501  0.769863  0.632201  1
  Cr  Cr20  1  0.437499  0.230137  0.367799  1
  Cr  Cr21  1  0.939241  0.229277  0.693674  1
  Cr  Cr22  1  0.562501  0.730137  0.132201  1
  Cr  Cr23  1  0.939241  0.270723  0.193674  1
  Si  Si24  1  0.160079  0.212018  0.904681  1
  Si  Si25  1  0.662311  0.220250  0.932037  1
  Si  Si26  1  0.160079  0.287982  0.404681  1
  Si  Si27  1  0.337689  0.720250  0.567963  1
  Si  Si28  1  0.662311  0.279750  0.432037  1
  Si  Si29  1  0.839921  0.712018  0.595319  1
  Si  Si30  1  0.337689  0.779750  0.067963  1
  Si  Si31  1  0.839921  0.787982  0.095319  1
  O  O32  1  0.994954  0.046412  0.792579  1
  O  O33  1  0.132312  0.891361  0.902717  1
  O  O34  1  0.124250  0.382236  0.815084  1
  O  O35  1  0.381801  0.618853  0.938596  1
  O  O36  1  0.301113  0.232582  0.841974  1
  O  O37  1  0.095519  0.164667  0.543483  1
  O  O38  1  0.200220  0.805051  0.646445  1
  O  O39  1  0.644686  0.896865  0.960291  1
  O  O40  1  0.500280  0.953013  0.788964  1
  O  O41  1  0.994954  0.453588  0.292579  1
  O  O42  1  0.594048  0.327540  0.859927  1
  O  O43  1  0.132312  0.608639  0.402717  1
  O  O44  1  0.405952  0.827540  0.640073  1
  O  O45  1  0.124250  0.117764  0.315084  1
  O  O46  1  0.499720  0.453013  0.711036  1
  O  O47  1  0.355314  0.396865  0.539709  1
  O  O48  1  0.381801  0.881147  0.438596  1
  O  O49  1  0.301113  0.267418  0.341974  1
  O  O50  1  0.799780  0.305051  0.853555  1
  O  O51  1  0.904481  0.664667  0.956517  1
  O  O52  1  0.095519  0.335333  0.043483  1
  O  O53  1  0.200220  0.694949  0.146445  1
  O  O54  1  0.698887  0.732582  0.658026  1
  O  O55  1  0.618199  0.118853  0.561404  1
  O  O56  1  0.644686  0.603135  0.460291  1
  O  O57  1  0.500280  0.546987  0.288964  1
  O  O58  1  0.875750  0.882236  0.684916  1
  O  O59  1  0.594048  0.172460  0.359927  1
  O  O60  1  0.867688  0.391361  0.597283  1
  O  O61  1  0.405952  0.672460  0.140073  1
  O  O62  1  0.005046  0.546412  0.707421  1
  O  O63  1  0.499720  0.046987  0.211036  1
  O  O64  1  0.355314  0.103135  0.039709  1
  O  O65  1  0.799780  0.194949  0.353555  1
  O  O66  1  0.904481  0.835333  0.456517  1
  O  O67  1  0.698887  0.767418  0.158026  1
  O  O68  1  0.618199  0.381147  0.061404  1
  O  O69  1  0.875750  0.617764  0.184916  1
  O  O70  1  0.867688  0.108639  0.097283  1
  O  O71  1  0.005046  0.953588  0.207421  1
