# generated using pymatgen
data_Mn6O5F7
_symmetry_space_group_name_H-M   'P 1'
_cell_length_a   4.72850430
_cell_length_b   7.90600411
_cell_length_c   5.70740063
_cell_angle_alpha   93.80043403
_cell_angle_beta   91.31480988
_cell_angle_gamma   88.85619675
_symmetry_Int_Tables_number   1
_chemical_formula_structural   Mn6O5F7
_chemical_formula_sum   'Mn6 O5 F7'
_cell_volume   212.80141972
_cell_formula_units_Z   1
loop_
 _symmetry_equiv_pos_site_id
 _symmetry_equiv_pos_as_xyz
  1  'x, y, z'
loop_
 _atom_site_type_symbol
 _atom_site_label
 _atom_site_symmetry_multiplicity
 _atom_site_fract_x
 _atom_site_fract_y
 _atom_site_fract_z
 _atom_site_occupancy
  Mn  Mn0  1  0.523259  0.001430  0.492035  1
  Mn  Mn1  1  0.521365  0.670642  0.158453  1
  Mn  Mn2  1  0.464093  0.345817  0.816399  1
  Mn  Mn3  1  0.994395  0.674447  0.676633  1
  Mn  Mn4  1  0.006149  0.310833  0.345718  1
  Mn  Mn5  1  0.976746  0.993579  0.009250  1
  O  O6  1  0.803934  0.780654  0.957782  1
  O  O7  1  0.810518  0.093883  0.291699  1
  O  O8  1  0.694387  0.769522  0.461339  1
  O  O9  1  0.301501  0.574672  0.877037  1
  O  O10  1  0.313198  0.224927  0.523199  1
  F  F11  1  0.808175  0.433627  0.635851  1
  F  F12  1  0.694243  0.120071  0.801299  1
  F  F13  1  0.705166  0.421365  0.136033  1
  F  F14  1  0.300272  0.896261  0.204255  1
  F  F15  1  0.191994  0.557354  0.374682  1
  F  F16  1  0.188984  0.212980  0.024889  1
  F  F17  1  0.201620  0.917937  0.713448  1
