# generated using pymatgen
data_V3OF11
_symmetry_space_group_name_H-M   'P 1'
_cell_length_a   5.44221252
_cell_length_b   5.27528547
_cell_length_c   14.59581887
_cell_angle_alpha   90.00000000
_cell_angle_beta   100.45075900
_cell_angle_gamma   90.00000000
_symmetry_Int_Tables_number   1
_chemical_formula_structural   V3OF11
_chemical_formula_sum   'V6 O2 F22'
_cell_volume   412.08334411
_cell_formula_units_Z   2
loop_
 _symmetry_equiv_pos_site_id
 _symmetry_equiv_pos_as_xyz
  1  'x, y, z'
loop_
 _atom_site_type_symbol
 _atom_site_label
 _atom_site_symmetry_multiplicity
 _atom_site_fract_x
 _atom_site_fract_y
 _atom_site_fract_z
 _atom_site_occupancy
  V  V0  1  0.000036  0.999968  0.000012  1
  V  V1  1  0.165555  0.506826  0.327570  1
  V  V2  1  0.334445  0.006826  0.672430  1
  V  V3  1  0.499964  0.499968  0.999988  1
  V  V4  1  0.667436  0.001674  0.334194  1
  V  V5  1  0.832564  0.501674  0.665806  1
  O  O6  1  0.376621  0.082104  0.781706  1
  O  O7  1  0.123379  0.582104  0.218294  1
  F  F8  1  0.028187  0.200447  0.640847  1
  F  F9  1  0.191156  0.299582  0.974972  1
  F  F10  1  0.140387  0.704463  0.691208  1
  F  F11  1  0.043397  0.086241  0.118814  1
  F  F12  1  0.209695  0.413094  0.450875  1
  F  F13  1  0.290305  0.913094  0.549125  1
  F  F14  1  0.456603  0.586241  0.881186  1
  F  F15  1  0.359613  0.204463  0.308792  1
  F  F16  1  0.526414  0.293852  0.641016  1
  F  F17  1  0.691487  0.200534  0.975055  1
  F  F18  1  0.308844  0.799582  0.025028  1
  F  F19  1  0.471813  0.700447  0.359153  1
  F  F20  1  0.638255  0.798715  0.691507  1
  F  F21  1  0.543471  0.413502  0.118781  1
  F  F22  1  0.710640  0.084971  0.452463  1
  F  F23  1  0.876803  0.414026  0.784637  1
  F  F24  1  0.623197  0.914026  0.215363  1
  F  F25  1  0.789360  0.584971  0.547537  1
  F  F26  1  0.956529  0.913502  0.881219  1
  F  F27  1  0.861745  0.298715  0.308493  1
  F  F28  1  0.808513  0.700534  0.024945  1
  F  F29  1  0.973586  0.793852  0.358984  1
