# generated using pymatgen
data_Ti17(NO4)6
_symmetry_space_group_name_H-M   'P 1'
_cell_length_a   7.50170517
_cell_length_b   7.50170517
_cell_length_c   10.73655896
_cell_angle_alpha   74.21144134
_cell_angle_beta   74.21144134
_cell_angle_gamma   80.28099719
_symmetry_Int_Tables_number   1
_chemical_formula_structural   Ti17(NO4)6
_chemical_formula_sum   'Ti17 N6 O24'
_cell_volume   556.53671260
_cell_formula_units_Z   1
loop_
 _symmetry_equiv_pos_site_id
 _symmetry_equiv_pos_as_xyz
  1  'x, y, z'
loop_
 _atom_site_type_symbol
 _atom_site_label
 _atom_site_symmetry_multiplicity
 _atom_site_fract_x
 _atom_site_fract_y
 _atom_site_fract_z
 _atom_site_occupancy
  Ti  Ti0  1  0.287026  0.002252  0.076908  1
  Ti  Ti1  1  0.051632  0.329801  0.927735  1
  Ti  Ti2  1  0.170199  0.448368  0.572265  1
  Ti  Ti3  1  0.217686  0.611028  0.249726  1
  Ti  Ti4  1  0.497748  0.212974  0.423092  1
  Ti  Ti5  1  0.446071  0.053929  0.750000  1
  Ti  Ti6  1  0.612146  0.328576  0.077358  1
  Ti  Ti7  1  0.171424  0.887854  0.422642  1
  Ti  Ti8  1  0.836674  0.114340  0.574589  1
  Ti  Ti9  1  0.888972  0.282314  0.250274  1
  Ti  Ti10  1  0.115801  0.720640  0.748954  1
  Ti  Ti11  1  0.779360  0.384199  0.751046  1
  Ti  Ti12  1  0.385660  0.663326  0.925411  1
  Ti  Ti13  1  0.945717  0.676213  0.067581  1
  Ti  Ti14  1  0.508196  0.786815  0.557124  1
  Ti  Ti15  1  0.823787  0.554283  0.432419  1
  Ti  Ti16  1  0.713185  0.991804  0.942876  1
  N  N17  1  0.019192  0.480808  0.750000  1
  N  N18  1  0.650078  0.209217  0.250183  1
  N  N19  1  0.684662  0.144869  0.750880  1
  N  N20  1  0.290783  0.849922  0.249817  1
  N  N21  1  0.979857  0.520143  0.250000  1
  N  N22  1  0.355131  0.815338  0.749120  1
  O  O23  1  0.080751  0.175935  0.118021  1
  O  O24  1  0.360275  0.006259  0.450399  1
  O  O25  1  0.493741  0.139725  0.049601  1
  O  O26  1  0.044497  0.661178  0.437594  1
  O  O27  1  0.324065  0.419249  0.381979  1
  O  O28  1  0.344664  0.249704  0.620381  1
  O  O29  1  0.250296  0.155336  0.879619  1
  O  O30  1  0.412519  0.507414  0.118812  1
  O  O31  1  0.169503  0.786167  0.062292  1
  O  O32  1  0.713833  0.330497  0.437708  1
  O  O33  1  0.292051  0.667490  0.562190  1
  O  O34  1  0.173303  0.540176  0.931194  1
  O  O35  1  0.992586  0.087481  0.381188  1
  O  O36  1  0.838822  0.455503  0.062406  1
  O  O37  1  0.005088  0.908794  0.619588  1
  O  O38  1  0.591206  0.494912  0.880412  1
  O  O39  1  0.832510  0.207949  0.937810  1
  O  O40  1  0.659960  0.746957  0.390694  1
  O  O41  1  0.753043  0.840040  0.109306  1
  O  O42  1  0.675350  0.575575  0.622061  1
  O  O43  1  0.959824  0.326697  0.568806  1
  O  O44  1  0.498686  0.876363  0.937159  1
  O  O45  1  0.623637  0.001314  0.562841  1
  O  O46  1  0.924425  0.824650  0.877939  1
