# generated using pymatgen
data_B5H2Pb2O11
_symmetry_space_group_name_H-M   'P 1'
_cell_length_a   11.34629868
_cell_length_b   6.70027128
_cell_length_c   11.51813020
_cell_angle_alpha   90.00000000
_cell_angle_beta   90.00000000
_cell_angle_gamma   91.00003710
_symmetry_Int_Tables_number   1
_chemical_formula_structural   B5H2Pb2O11
_chemical_formula_sum   'B20 H8 Pb8 O44'
_cell_volume   875.51265329
_cell_formula_units_Z   4
loop_
 _symmetry_equiv_pos_site_id
 _symmetry_equiv_pos_as_xyz
  1  'x, y, z'
loop_
 _atom_site_type_symbol
 _atom_site_label
 _atom_site_symmetry_multiplicity
 _atom_site_fract_x
 _atom_site_fract_y
 _atom_site_fract_z
 _atom_site_occupancy
  B  B0  1  0.460444  0.680885  0.221557  1
  B  B1  1  0.039556  0.819115  0.721557  1
  B  B2  1  0.539556  0.319115  0.778443  1
  B  B3  1  0.960444  0.180885  0.278443  1
  B  B4  1  0.758800  0.496216  0.009476  1
  B  B5  1  0.741200  0.003784  0.509476  1
  B  B6  1  0.241200  0.503784  0.990524  1
  B  B7  1  0.258800  0.996216  0.490524  1
  B  B8  1  0.227113  0.711041  0.808951  1
  B  B9  1  0.272887  0.788959  0.308951  1
  B  B10  1  0.772887  0.288959  0.191049  1
  B  B11  1  0.727113  0.211041  0.691049  1
  B  B12  1  0.712801  0.554504  0.785664  1
  B  B13  1  0.787199  0.945496  0.285664  1
  B  B14  1  0.287199  0.445496  0.214336  1
  B  B15  1  0.212801  0.054504  0.714336  1
  B  B16  1  0.682890  0.629394  0.201407  1
  B  B17  1  0.817110  0.870606  0.701407  1
  B  B18  1  0.317111  0.370606  0.798593  1
  B  B19  1  0.182890  0.129394  0.298593  1
  H  H20  1  0.499285  0.694210  0.933710  1
  H  H21  1  0.000715  0.805790  0.433710  1
  H  H22  1  0.500715  0.305790  0.066290  1
  H  H23  1  0.999285  0.194210  0.566290  1
  H  H24  1  0.488330  0.692701  0.470195  1
  H  H25  1  0.011670  0.807299  0.970195  1
  H  H26  1  0.511670  0.307299  0.529805  1
  H  H27  1  0.988330  0.192701  0.029805  1
  Pb  Pb28  1  0.517711  0.174875  0.283879  1
  Pb  Pb29  1  0.982289  0.325125  0.783879  1
  Pb  Pb30  1  0.482289  0.825125  0.716121  1
  Pb  Pb31  1  0.017711  0.674875  0.216121  1
  Pb  Pb32  1  0.813431  0.518600  0.478417  1
  Pb  Pb33  1  0.686569  0.981400  0.978417  1
  Pb  Pb34  1  0.186569  0.481400  0.521583  1
  Pb  Pb35  1  0.313431  0.018600  0.021583  1
  O  O36  1  0.322143  0.583835  0.766097  1
  O  O37  1  0.177857  0.916165  0.266097  1
  O  O38  1  0.677857  0.416165  0.233903  1
  O  O39  1  0.822143  0.083835  0.733903  1
  O  O40  1  0.238562  0.575467  0.305567  1
  O  O41  1  0.261438  0.924533  0.805567  1
  O  O42  1  0.761438  0.424533  0.694433  1
  O  O43  1  0.738562  0.075467  0.194433  1
  O  O44  1  0.575284  0.734623  0.226656  1
  O  O45  1  0.924716  0.765377  0.726656  1
  O  O46  1  0.424716  0.265377  0.773344  1
  O  O47  1  0.075284  0.234623  0.273344  1
  O  O48  1  0.781745  0.732076  0.260395  1
  O  O49  1  0.718255  0.767924  0.760395  1
  O  O50  1  0.218255  0.267924  0.739605  1
  O  O51  1  0.281745  0.232076  0.239605  1
  O  O52  1  0.197279  0.666047  0.932027  1
  O  O53  1  0.302721  0.833953  0.432027  1
  O  O54  1  0.802721  0.333953  0.067973  1
  O  O55  1  0.697279  0.166047  0.567973  1
  O  O56  1  0.699137  0.642554  0.068987  1
  O  O57  1  0.800863  0.857446  0.568987  1
  O  O58  1  0.300863  0.357446  0.931013  1
  O  O59  1  0.199137  0.142554  0.431013  1
  O  O60  1  0.119295  0.667407  0.738095  1
  O  O61  1  0.380705  0.832593  0.238095  1
  O  O62  1  0.880705  0.332593  0.261905  1
  O  O63  1  0.619295  0.167407  0.761905  1
  O  O64  1  0.581390  0.510643  0.798262  1
  O  O65  1  0.918610  0.989357  0.298262  1
  O  O66  1  0.418610  0.489357  0.201738  1
  O  O67  1  0.081390  0.010643  0.701738  1
  O  O68  1  0.009071  0.661122  0.427522  1
  O  O69  1  0.490929  0.838878  0.927522  1
  O  O70  1  0.990929  0.338878  0.572478  1
  O  O71  1  0.509071  0.161122  0.072478  1
  O  O72  1  0.776913  0.500759  0.892911  1
  O  O73  1  0.723087  0.999241  0.392911  1
  O  O74  1  0.223087  0.499241  0.107089  1
  O  O75  1  0.276913  0.000759  0.607089  1
  O  O76  1  0.543839  0.641559  0.528441  1
  O  O77  1  0.956161  0.858441  0.028441  1
  O  O78  1  0.456161  0.358441  0.471559  1
  O  O79  1  0.043839  0.141559  0.971559  1
