# generated using pymatgen
data_Mn2Fe3Sb(PO4)6
_symmetry_space_group_name_H-M   'P 1'
_cell_length_a   8.70139334
_cell_length_b   8.70139305
_cell_length_c   8.70139329
_cell_angle_alpha   59.81437179
_cell_angle_beta   59.81437305
_cell_angle_gamma   59.81437320
_symmetry_Int_Tables_number   1
_chemical_formula_structural   Mn2Fe3Sb(PO4)6
_chemical_formula_sum   'Mn2 Fe3 Sb1 P6 O24'
_cell_volume   463.89277927
_cell_formula_units_Z   1
loop_
 _symmetry_equiv_pos_site_id
 _symmetry_equiv_pos_as_xyz
  1  'x, y, z'
loop_
 _atom_site_type_symbol
 _atom_site_label
 _atom_site_symmetry_multiplicity
 _atom_site_fract_x
 _atom_site_fract_y
 _atom_site_fract_z
 _atom_site_occupancy
  Mn  Mn0  1  0.006731  0.006731  0.006731  1
  Mn  Mn1  1  0.499473  0.499473  0.499473  1
  Fe  Fe2  1  0.146879  0.146879  0.146879  1
  Fe  Fe3  1  0.353871  0.353871  0.353871  1
  Fe  Fe4  1  0.644914  0.644914  0.644914  1
  Sb  Sb5  1  0.855790  0.855790  0.855790  1
  P  P6  1  0.044994  0.746498  0.454083  1
  P  P7  1  0.454083  0.044994  0.746498  1
  P  P8  1  0.746498  0.454083  0.044994  1
  P  P9  1  0.252368  0.539406  0.955754  1
  P  P10  1  0.539406  0.955754  0.252368  1
  P  P11  1  0.955754  0.252368  0.539406  1
  O  O12  1  0.115432  0.301547  0.510621  1
  O  O13  1  0.301547  0.510621  0.115432  1
  O  O14  1  0.057510  0.913784  0.265682  1
  O  O15  1  0.510621  0.115432  0.301547  1
  O  O16  1  0.011628  0.805552  0.616106  1
  O  O17  1  0.236695  0.585440  0.442659  1
  O  O18  1  0.265682  0.057510  0.913784  1
  O  O19  1  0.442659  0.236695  0.585440  1
  O  O20  1  0.187754  0.386566  0.994177  1
  O  O21  1  0.585440  0.442659  0.236695  1
  O  O22  1  0.081604  0.739070  0.940330  1
  O  O23  1  0.386566  0.994177  0.187754  1
  O  O24  1  0.616106  0.011628  0.805552  1
  O  O25  1  0.913784  0.265682  0.057510  1
  O  O26  1  0.410436  0.562082  0.761519  1
  O  O27  1  0.805552  0.616106  0.011628  1
  O  O28  1  0.562082  0.761519  0.410436  1
  O  O29  1  0.739070  0.940330  0.081604  1
  O  O30  1  0.761519  0.410436  0.562082  1
  O  O31  1  0.994177  0.187754  0.386566  1
  O  O32  1  0.499171  0.883634  0.690242  1
  O  O33  1  0.940330  0.081604  0.739070  1
  O  O34  1  0.690242  0.499171  0.883634  1
  O  O35  1  0.883634  0.690242  0.499171  1
