# generated using pymatgen
data_LiAgF4
_symmetry_space_group_name_H-M   'P 1'
_cell_length_a   5.80865056
_cell_length_b   3.47363769
_cell_length_c   6.71733757
_cell_angle_alpha   89.89289919
_cell_angle_beta   125.43601209
_cell_angle_gamma   53.36318031
_symmetry_Int_Tables_number   1
_chemical_formula_structural   LiAgF4
_chemical_formula_sum   'Li1 Ag1 F4'
_cell_volume   75.02948444
_cell_formula_units_Z   1
loop_
 _symmetry_equiv_pos_site_id
 _symmetry_equiv_pos_as_xyz
  1  'x, y, z'
loop_
 _atom_site_type_symbol
 _atom_site_label
 _atom_site_symmetry_multiplicity
 _atom_site_fract_x
 _atom_site_fract_y
 _atom_site_fract_z
 _atom_site_occupancy
  Li  Li0  1  0.496873  0.005935  0.500870  1
  Ag  Ag1  1  0.500275  0.500177  0.002917  1
  F  F2  1  0.116918  0.884058  0.325905  1
  F  F3  1  0.470332  0.029609  0.187623  1
  F  F4  1  0.525344  0.975691  0.815471  1
  F  F5  1  0.882128  0.118583  0.680748  1
