# generated using pymatgen
data_V9O22
_symmetry_space_group_name_H-M   'P 1'
_cell_length_a   9.71175619
_cell_length_b   5.61139632
_cell_length_c   13.97734213
_cell_angle_alpha   89.80075659
_cell_angle_beta   89.76506921
_cell_angle_gamma   90.37298461
_symmetry_Int_Tables_number   1
_chemical_formula_structural   V9O22
_chemical_formula_sum   'V18 O44'
_cell_volume   761.68918651
_cell_formula_units_Z   2
loop_
 _symmetry_equiv_pos_site_id
 _symmetry_equiv_pos_as_xyz
  1  'x, y, z'
loop_
 _atom_site_type_symbol
 _atom_site_label
 _atom_site_symmetry_multiplicity
 _atom_site_fract_x
 _atom_site_fract_y
 _atom_site_fract_z
 _atom_site_occupancy
  V  V0  1  0.006987  0.972002  0.856761  1
  V  V1  1  0.019171  0.518493  0.490999  1
  V  V2  1  0.167918  0.502190  0.217614  1
  V  V3  1  0.224572  0.242966  0.009435  1
  V  V4  1  0.278966  0.214290  0.517942  1
  V  V5  1  0.333705  0.009740  0.786758  1
  V  V6  1  0.495015  0.509144  0.864456  1
  V  V7  1  0.486251  0.504663  0.362660  1
  V  V8  1  0.503304  0.475393  0.644249  1
  V  V9  1  0.507244  0.967640  0.016387  1
  V  V10  1  0.521005  0.480382  0.144507  1
  V  V11  1  0.665796  0.985096  0.278835  1
  V  V12  1  0.721144  0.754996  0.498192  1
  V  V13  1  0.771231  0.279877  0.978066  1
  V  V14  1  0.832441  0.514678  0.712416  1
  V  V15  1  0.972802  0.989531  0.139864  1
  V  V16  1  0.993251  0.002717  0.637107  1
  V  V17  1  0.014374  0.023043  0.358063  1
  O  O18  1  0.071194  0.759147  0.582782  1
  O  O19  1  0.072302  0.753880  0.914563  1
  O  O20  1  0.078890  0.237602  0.254012  1
  O  O21  1  0.082550  0.765502  0.250320  1
  O  O22  1  0.086220  0.257914  0.574172  1
  O  O23  1  0.098481  0.232352  0.920015  1
  O  O24  1  0.161948  0.511237  0.428011  1
  O  O25  1  0.156558  0.014434  0.754918  1
  O  O26  1  0.156898  0.025040  0.083021  1
  O  O27  1  0.160933  0.018228  0.420561  1
  O  O28  1  0.172123  0.486155  0.092145  1
  O  O29  1  0.327550  0.004551  0.590227  1
  O  O30  1  0.344949  0.484242  0.922435  1
  O  O31  1  0.339180  0.475784  0.587313  1
  O  O32  1  0.336107  0.020960  0.911856  1
  O  O33  1  0.341575  0.485693  0.248146  1
  O  O34  1  0.409781  0.230332  0.069662  1
  O  O35  1  0.406390  0.250243  0.424668  1
  O  O36  1  0.417428  0.747164  0.758634  1
  O  O37  1  0.410432  0.730368  0.410368  1
  O  O38  1  0.427753  0.744633  0.081967  1
  O  O39  1  0.426760  0.278852  0.754449  1
  O  O40  1  0.572621  0.239253  0.248136  1
  O  O41  1  0.568383  0.758428  0.916268  1
  O  O42  1  0.579479  0.712831  0.248805  1
  O  O43  1  0.582288  0.264429  0.589856  1
  O  O44  1  0.590714  0.261004  0.920135  1
  O  O45  1  0.589363  0.743341  0.582886  1
  O  O46  1  0.658689  0.513824  0.747077  1
  O  O47  1  0.657985  0.000096  0.071116  1
  O  O48  1  0.652814  0.515119  0.417524  1
  O  O49  1  0.665686  0.467758  0.078866  1
  O  O50  1  0.672139  0.986393  0.400811  1
  O  O51  1  0.831523  0.496821  0.913377  1
  O  O52  1  0.844307  0.002213  0.578006  1
  O  O53  1  0.843793  0.028887  0.912628  1
  O  O54  1  0.834840  0.524676  0.586692  1
  O  O55  1  0.847349  0.991728  0.251154  1
  O  O56  1  0.900702  0.231428  0.079745  1
  O  O57  1  0.919188  0.747467  0.425785  1
  O  O58  1  0.917953  0.758398  0.084378  1
  O  O59  1  0.923717  0.790488  0.745078  1
  O  O60  1  0.934521  0.252541  0.417467  1
  O  O61  1  0.922329  0.258695  0.737347  1
