# generated using pymatgen
data_Na3ZnPCO7
_symmetry_space_group_name_H-M   'P 1'
_cell_length_a   8.99473981
_cell_length_b   5.31185925
_cell_length_c   6.60227773
_cell_angle_alpha   90.00000000
_cell_angle_beta   90.00000000
_cell_angle_gamma   90.94659431
_symmetry_Int_Tables_number   1
_chemical_formula_structural   Na3ZnPCO7
_chemical_formula_sum   'Na6 Zn2 P2 C2 O14'
_cell_volume   315.40580363
_cell_formula_units_Z   2
loop_
 _symmetry_equiv_pos_site_id
 _symmetry_equiv_pos_as_xyz
  1  'x, y, z'
loop_
 _atom_site_type_symbol
 _atom_site_label
 _atom_site_symmetry_multiplicity
 _atom_site_fract_x
 _atom_site_fract_y
 _atom_site_fract_z
 _atom_site_occupancy
  Na  Na0  1  0.002138  0.006876  0.488348  1
  Na  Na1  1  0.168619  0.445507  0.191336  1
  Na  Na2  1  0.488262  0.496089  0.490957  1
  Na  Na3  1  0.511738  0.503911  0.990957  1
  Na  Na4  1  0.831381  0.554493  0.691336  1
  Na  Na5  1  0.997862  0.993124  0.988348  1
  Zn  Zn6  1  0.299121  0.017030  0.740171  1
  Zn  Zn7  1  0.700879  0.982970  0.240171  1
  P  P8  1  0.345994  0.980187  0.239949  1
  P  P9  1  0.654006  0.019813  0.739949  1
  C  C10  1  0.151162  0.491604  0.740570  1
  C  C11  1  0.848838  0.508396  0.240570  1
  O  O12  1  0.042131  0.326881  0.743906  1
  O  O13  1  0.119560  0.732795  0.742391  1
  O  O14  1  0.253169  0.067988  0.052395  1
  O  O15  1  0.252800  0.060075  0.428283  1
  O  O16  1  0.287735  0.420766  0.739451  1
  O  O17  1  0.370429  0.695026  0.232924  1
  O  O18  1  0.497962  0.129376  0.243919  1
  O  O19  1  0.502038  0.870624  0.743919  1
  O  O20  1  0.629571  0.304974  0.732924  1
  O  O21  1  0.712265  0.579234  0.239451  1
  O  O22  1  0.747200  0.939925  0.928283  1
  O  O23  1  0.746831  0.932012  0.552395  1
  O  O24  1  0.880440  0.267205  0.242391  1
  O  O25  1  0.957869  0.673119  0.243906  1
