# generated using pymatgen
data_Li2AlNiO4
_symmetry_space_group_name_H-M   'P 1'
_cell_length_a   6.35900106
_cell_length_b   10.74494167
_cell_length_c   4.98509548
_cell_angle_alpha   90.00007077
_cell_angle_beta   90.00012808
_cell_angle_gamma   89.99920981
_symmetry_Int_Tables_number   1
_chemical_formula_structural   Li2AlNiO4
_chemical_formula_sum   'Li8 Al4 Ni4 O16'
_cell_volume   340.61709477
_cell_formula_units_Z   4
loop_
 _symmetry_equiv_pos_site_id
 _symmetry_equiv_pos_as_xyz
  1  'x, y, z'
loop_
 _atom_site_type_symbol
 _atom_site_label
 _atom_site_symmetry_multiplicity
 _atom_site_fract_x
 _atom_site_fract_y
 _atom_site_fract_z
 _atom_site_occupancy
  Li  Li0  1  0.004342  0.835013  0.755992  1
  Li  Li1  1  0.244318  0.082597  0.755933  1
  Li  Li2  1  0.255684  0.582595  0.755934  1
  Li  Li3  1  0.495658  0.335013  0.755990  1
  Li  Li4  1  0.504344  0.664987  0.255988  1
  Li  Li5  1  0.744315  0.417406  0.255932  1
  Li  Li6  1  0.755684  0.917403  0.255933  1
  Li  Li7  1  0.995659  0.164986  0.255992  1
  Al  Al8  1  0.007329  0.666105  0.261380  1
  Al  Al9  1  0.492672  0.166106  0.261382  1
  Al  Al10  1  0.507330  0.833896  0.761383  1
  Al  Al11  1  0.992672  0.333895  0.761388  1
  Ni  Ni12  1  0.242651  0.414189  0.259642  1
  Ni  Ni13  1  0.257348  0.914193  0.259629  1
  Ni  Ni14  1  0.742656  0.085810  0.759630  1
  Ni  Ni15  1  0.757343  0.585809  0.759621  1
  O  O16  1  0.006485  0.336919  0.119662  1
  O  O17  1  0.019330  0.825127  0.156508  1
  O  O18  1  0.263050  0.081330  0.159805  1
  O  O19  1  0.225291  0.405335  0.634226  1
  O  O20  1  0.274707  0.905337  0.634213  1
  O  O21  1  0.236951  0.581326  0.159810  1
  O  O22  1  0.480673  0.325123  0.156510  1
  O  O23  1  0.493518  0.836921  0.119661  1
  O  O24  1  0.506484  0.163079  0.619661  1
  O  O25  1  0.519321  0.674878  0.656503  1
  O  O26  1  0.763048  0.418669  0.659803  1
  O  O27  1  0.725294  0.094663  0.134213  1
  O  O28  1  0.774708  0.594665  0.134209  1
  O  O29  1  0.736950  0.918672  0.659805  1
  O  O30  1  0.980675  0.174875  0.656505  1
  O  O31  1  0.993512  0.663079  0.619659  1
