# generated using pymatgen
data_LiMnVP2(HO5)2
_symmetry_space_group_name_H-M   'P 1'
_cell_length_a   7.44397966
_cell_length_b   11.32063386
_cell_length_c   6.79434581
_cell_angle_alpha   73.04740117
_cell_angle_beta   88.85579690
_cell_angle_gamma   81.35157958
_symmetry_Int_Tables_number   1
_chemical_formula_structural   LiMnVP2(HO5)2
_chemical_formula_sum   'Li3 Mn3 V3 P6 H6 O30'
_cell_volume   541.28343329
_cell_formula_units_Z   3
loop_
 _symmetry_equiv_pos_site_id
 _symmetry_equiv_pos_as_xyz
  1  'x, y, z'
loop_
 _atom_site_type_symbol
 _atom_site_label
 _atom_site_symmetry_multiplicity
 _atom_site_fract_x
 _atom_site_fract_y
 _atom_site_fract_z
 _atom_site_occupancy
  Li  Li0  1  0.696231  0.158206  0.746469  1
  Li  Li1  1  0.640627  0.507003  0.919985  1
  Li  Li2  1  0.304031  0.840354  0.253229  1
  Mn  Mn3  1  0.668242  0.333175  0.333510  1
  Mn  Mn4  1  0.329827  0.664435  0.670105  1
  Mn  Mn5  1  0.001507  0.999488  0.999681  1
  V  V6  1  0.666388  0.834902  0.830655  1
  V  V7  1  0.335930  0.166195  0.171145  1
  V  V8  1  0.000340  0.501298  0.497164  1
  P  P9  1  0.928831  0.301725  0.949241  1
  P  P10  1  0.742345  0.030320  0.382733  1
  P  P11  1  0.406007  0.362650  0.717811  1
  P  P12  1  0.594669  0.637066  0.282465  1
  P  P13  1  0.259854  0.967924  0.616491  1
  P  P14  1  0.073938  0.699021  0.049724  1
  H  H15  1  0.330817  0.016828  0.957243  1
  H  H16  1  0.999148  0.335308  0.316203  1
  H  H17  1  0.662044  0.681865  0.626396  1
  H  H18  1  0.334738  0.332346  0.349251  1
  H  H19  1  0.000041  0.663009  0.688701  1
  H  H20  1  0.670001  0.983860  0.042607  1
  O  O21  1  0.920220  0.193842  0.860559  1
  O  O22  1  0.409452  0.234769  0.889758  1
  O  O23  1  0.922346  0.429221  0.776662  1
  O  O24  1  0.903488  0.720979  0.903650  1
  O  O25  1  0.737307  0.135957  0.478701  1
  O  O26  1  0.915464  0.015323  0.260211  1
  O  O27  1  0.418253  0.469485  0.807360  1
  O  O28  1  0.582354  0.338296  0.599199  1
  O  O29  1  0.911313  0.368946  0.405242  1
  O  O30  1  0.574372  0.050937  0.233792  1
  O  O31  1  0.260762  0.093165  0.440936  1
  O  O32  1  0.745339  0.972683  0.924119  1
  O  O33  1  0.247214  0.681769  0.927342  1
  O  O34  1  0.585807  0.693114  0.744228  1
  O  O35  1  0.238584  0.387228  0.568974  1
  O  O36  1  0.759362  0.615473  0.434389  1
  O  O37  1  0.422458  0.297644  0.260995  1
  O  O38  1  0.752374  0.325138  0.068514  1
  O  O39  1  0.256842  0.027107  0.076389  1
  O  O40  1  0.737566  0.904120  0.558688  1
  O  O41  1  0.428010  0.949070  0.765924  1
  O  O42  1  0.086977  0.629901  0.598471  1
  O  O43  1  0.417936  0.657855  0.401031  1
  O  O44  1  0.597841  0.531138  0.187913  1
  O  O45  1  0.086638  0.981975  0.740253  1
  O  O46  1  0.268794  0.860945  0.522708  1
  O  O47  1  0.096570  0.278271  0.097112  1
  O  O48  1  0.069867  0.574055  0.224984  1
  O  O49  1  0.589164  0.765788  0.109615  1
  O  O50  1  0.079708  0.806357  0.140841  1
