# generated using pymatgen
data_Fe21HO32
_symmetry_space_group_name_H-M   'P 1'
_cell_length_a   8.56353316
_cell_length_b   8.56353316
_cell_length_c   17.07410625
_cell_angle_alpha   90.00000000
_cell_angle_beta   90.00000000
_cell_angle_gamma   89.74569931
_symmetry_Int_Tables_number   1
_chemical_formula_structural   Fe21HO32
_chemical_formula_sum   'Fe42 H2 O64'
_cell_volume   1252.10188452
_cell_formula_units_Z   2
loop_
 _symmetry_equiv_pos_site_id
 _symmetry_equiv_pos_as_xyz
  1  'x, y, z'
loop_
 _atom_site_type_symbol
 _atom_site_label
 _atom_site_symmetry_multiplicity
 _atom_site_fract_x
 _atom_site_fract_y
 _atom_site_fract_z
 _atom_site_occupancy
  Fe  Fe0  1  0.000567  0.000567  0.000676  1
  Fe  Fe1  1  -0.000567  -0.000567  0.500676  1
  Fe  Fe2  1  -0.000814  0.498926  0.250532  1
  Fe  Fe3  1  0.000814  0.501074  0.750532  1
  Fe  Fe4  1  0.127968  0.127968  0.312634  1
  Fe  Fe5  1  0.132669  0.620354  0.066381  1
  Fe  Fe6  1  0.131620  0.131620  0.809900  1
  Fe  Fe7  1  0.133003  0.618285  0.566912  1
  Fe  Fe8  1  0.131720  0.380984  0.434007  1
  Fe  Fe9  1  0.133491  0.867551  0.190703  1
  Fe  Fe10  1  0.132554  0.379411  0.934738  1
  Fe  Fe11  1  0.132449  0.866509  0.690703  1
  Fe  Fe12  1  0.248892  0.248892  0.127092  1
  Fe  Fe13  1  0.244169  0.244169  0.622913  1
  Fe  Fe14  1  0.248955  0.750006  0.377219  1
  Fe  Fe15  1  0.249994  0.751045  0.877219  1
  Fe  Fe16  1  0.381715  0.866997  0.066912  1
  Fe  Fe17  1  0.379411  0.132554  0.934738  1
  Fe  Fe18  1  0.379646  0.867331  0.566381  1
  Fe  Fe19  1  0.380984  0.131720  0.434007  1
  Fe  Fe20  1  0.520166  0.520166  0.255224  1
  Fe  Fe21  1  0.479834  0.479834  0.755224  1
  Fe  Fe22  1  0.498926  -0.000814  0.250532  1
  Fe  Fe23  1  0.500543  0.500543  -0.002095  1
  Fe  Fe24  1  0.501074  0.000814  0.750532  1
  Fe  Fe25  1  0.499457  0.499457  0.497905  1
  Fe  Fe26  1  0.620354  0.132669  0.066381  1
  Fe  Fe27  1  0.618285  0.133003  0.566912  1
  Fe  Fe28  1  0.619016  0.868280  0.934007  1
  Fe  Fe29  1  0.620589  0.867446  0.434738  1
  Fe  Fe30  1  0.750006  0.248955  0.377219  1
  Fe  Fe31  1  0.755831  0.755831  0.122913  1
  Fe  Fe32  1  0.751045  0.249994  0.877219  1
  Fe  Fe33  1  0.751108  0.751108  0.627092  1
  Fe  Fe34  1  0.867551  0.133491  0.190703  1
  Fe  Fe35  1  0.866997  0.381715  0.066912  1
  Fe  Fe36  1  0.866509  0.132449  0.690703  1
  Fe  Fe37  1  0.867331  0.379646  0.566381  1
  Fe  Fe38  1  0.868280  0.619016  0.934007  1
  Fe  Fe39  1  0.867446  0.620589  0.434738  1
  Fe  Fe40  1  0.868380  0.868380  0.309900  1
  Fe  Fe41  1  0.872032  0.872032  0.812634  1
  H  H42  1  0.327967  0.327967  0.257269  1
  H  H43  1  0.672033  0.672033  0.757269  1
  O  O44  1  0.116527  0.116527  0.191614  1
  O  O45  1  0.110317  0.110317  0.690731  1
  O  O46  1  0.111247  0.382836  0.556351  1
  O  O47  1  0.118541  0.381380  0.059948  1
  O  O48  1  0.132538  0.132538  0.934719  1
  O  O49  1  0.111562  0.637496  0.681453  1
  O  O50  1  0.131078  0.131078  0.435019  1
  O  O51  1  0.114531  0.359761  0.318638  1
  O  O52  1  0.110036  0.638465  0.181259  1
  O  O53  1  0.133452  0.867814  0.066325  1
  O  O54  1  0.110870  0.360342  0.819515  1
  O  O55  1  0.112482  0.616440  0.942995  1
  O  O56  1  0.132186  0.866548  0.566325  1
  O  O57  1  0.112499  0.618638  0.444449  1
  O  O58  1  0.114917  0.886945  0.309567  1
  O  O59  1  0.113055  0.885083  0.809567  1
  O  O60  1  0.381380  0.118541  0.059948  1
  O  O61  1  0.364818  0.364818  0.205360  1
  O  O62  1  0.382836  0.111247  0.556351  1
  O  O63  1  0.359761  0.114531  0.318638  1
  O  O64  1  0.359857  0.359857  0.446005  1
  O  O65  1  0.367732  0.367732  0.680525  1
  O  O66  1  0.361688  0.361688  0.945249  1
  O  O67  1  0.361408  0.637147  0.056309  1
  O  O68  1  0.362504  0.888438  0.181453  1
  O  O69  1  0.383560  0.887518  0.442995  1
  O  O70  1  0.360342  0.110870  0.819515  1
  O  O71  1  0.373698  0.630143  0.317533  1
  O  O72  1  0.362853  0.638592  0.556309  1
  O  O73  1  0.361535  0.889964  0.681259  1
  O  O74  1  0.381362  0.887501  0.944449  1
  O  O75  1  0.369857  0.626302  0.817533  1
  O  O76  1  0.638465  0.110036  0.181259  1
  O  O77  1  0.637147  0.361408  0.056309  1
  O  O78  1  0.630143  0.373698  0.317533  1
  O  O79  1  0.632268  0.632268  0.180525  1
  O  O80  1  0.637496  0.111562  0.681453  1
  O  O81  1  0.616440  0.112482  0.942995  1
  O  O82  1  0.618638  0.112499  0.444449  1
  O  O83  1  0.638592  0.362853  0.556309  1
  O  O84  1  0.626302  0.369857  0.817533  1
  O  O85  1  0.638312  0.638312  0.445249  1
  O  O86  1  0.635182  0.635182  0.705360  1
  O  O87  1  0.640143  0.640143  0.946005  1
  O  O88  1  0.617164  0.888753  0.056351  1
  O  O89  1  0.639658  0.889130  0.319515  1
  O  O90  1  0.618620  0.881459  0.559948  1
  O  O91  1  0.640239  0.885469  0.818638  1
  O  O92  1  0.866548  0.132186  0.566325  1
  O  O93  1  0.867814  0.133452  0.066325  1
  O  O94  1  0.886945  0.114917  0.309567  1
  O  O95  1  0.885083  0.113055  0.809567  1
  O  O96  1  0.888438  0.362504  0.181453  1
  O  O97  1  0.888753  0.617164  0.056351  1
  O  O98  1  0.889130  0.639658  0.319515  1
  O  O99  1  0.881459  0.618620  0.559948  1
  O  O100  1  0.889964  0.361535  0.681259  1
  O  O101  1  0.885469  0.640239  0.818638  1
  O  O102  1  0.887501  0.381362  0.944449  1
  O  O103  1  0.887518  0.383560  0.442995  1
  O  O104  1  0.889683  0.889683  0.190731  1
  O  O105  1  0.883473  0.883473  0.691614  1
  O  O106  1  0.868922  0.868922  0.935019  1
  O  O107  1  0.867462  0.867462  0.434719  1
