# generated using pymatgen
data_LiFeP2O7
_symmetry_space_group_name_H-M   'P 1'
_cell_length_a   9.69259562
_cell_length_b   9.74538932
_cell_length_c   11.21361606
_cell_angle_alpha   89.92244353
_cell_angle_beta   101.65772584
_cell_angle_gamma   89.91757237
_symmetry_Int_Tables_number   1
_chemical_formula_structural   LiFeP2O7
_chemical_formula_sum   'Li8 Fe8 P16 O56'
_cell_volume   1037.36517759
_cell_formula_units_Z   8
loop_
 _symmetry_equiv_pos_site_id
 _symmetry_equiv_pos_as_xyz
  1  'x, y, z'
loop_
 _atom_site_type_symbol
 _atom_site_label
 _atom_site_symmetry_multiplicity
 _atom_site_fract_x
 _atom_site_fract_y
 _atom_site_fract_z
 _atom_site_occupancy
  Li  Li0  1  0.164021  0.429710  0.532989  1
  Li  Li1  1  0.417449  0.597255  0.979688  1
  Li  Li2  1  0.339222  0.923578  0.466083  1
  Li  Li3  1  0.621135  0.045158  0.501618  1
  Li  Li4  1  0.654174  0.125151  0.035692  1
  Li  Li5  1  0.919448  0.902885  0.976648  1
  Li  Li6  1  0.823851  0.592971  0.454834  1
  Li  Li7  1  0.881685  0.287951  0.546179  1
  Fe  Fe8  1  0.203689  0.917214  0.674751  1
  Fe  Fe9  1  0.244989  0.210792  0.828781  1
  Fe  Fe10  1  0.238052  0.721896  0.172286  1
  Fe  Fe11  1  0.299638  0.420427  0.321707  1
  Fe  Fe12  1  0.703661  0.585741  0.680198  1
  Fe  Fe13  1  0.748352  0.288713  0.825900  1
  Fe  Fe14  1  0.738900  0.772014  0.169299  1
  Fe  Fe15  1  0.802472  0.073646  0.322586  1
  P  P16  1  0.018693  0.447046  0.754084  1
  P  P17  1  0.114048  0.712805  0.883435  1
  P  P18  1  0.068489  0.918612  0.244605  1
  P  P19  1  0.124796  0.146481  0.420367  1
  P  P20  1  0.378730  0.642413  0.578231  1
  P  P21  1  0.431235  0.422285  0.766328  1
  P  P22  1  0.517298  0.052713  0.751363  1
  P  P23  1  0.387073  0.211661  0.113977  1
  P  P24  1  0.611400  0.789054  0.884410  1
  P  P25  1  0.480016  0.951297  0.250295  1
  P  P26  1  0.569528  0.582906  0.244950  1
  P  P27  1  0.623472  0.353452  0.414888  1
  P  P28  1  0.877042  0.857379  0.577651  1
  P  P29  1  0.929336  0.077584  0.762453  1
  P  P30  1  0.899320  0.283172  0.113674  1
  P  P31  1  0.980559  0.547236  0.251242  1
  O  O32  1  0.020704  0.420473  0.621555  1
  O  O33  1  0.031838  0.849180  0.570073  1
  O  O34  1  0.083806  0.083151  0.739804  1
  O  O35  1  0.102955  0.585614  0.788281  1
  O  O36  1  0.093245  0.337724  0.841963  1
  O  O37  1  0.188134  0.821464  0.819193  1
  O  O38  1  0.217118  0.663948  0.002452  1
  O  O39  1  0.044001  0.251681  0.101639  1
  O  O40  1  0.121631  0.068567  0.292617  1
  O  O41  1  0.080996  0.898309  0.112975  1
  O  O42  1  0.134742  0.541247  0.225865  1
  O  O43  1  0.183486  0.290238  0.405219  1
  O  O44  1  0.175288  0.815301  0.316745  1
  O  O45  1  0.212165  0.058033  0.519484  1
  O  O46  1  0.290179  0.558500  0.476321  1
  O  O47  1  0.329899  0.309537  0.702401  1
  O  O48  1  0.323474  0.788748  0.593413  1
  O  O49  1  0.363243  0.037792  0.773677  1
  O  O50  1  0.369277  0.564956  0.703670  1
  O  O51  1  0.422744  0.427280  0.898015  1
  O  O52  1  0.470031  0.753305  0.904323  1
  O  O53  1  0.288467  0.165159  0.994679  1
  O  O54  1  0.322636  0.327964  0.177109  1
  O  O55  1  0.388534  0.084891  0.208907  1
  O  O56  1  0.414150  0.585673  0.261677  1
  O  O57  1  0.402460  0.835647  0.172157  1
  O  O58  1  0.471265  0.346940  0.428111  1
  O  O59  1  0.524432  0.080915  0.622063  1
  O  O60  1  0.488242  0.940985  0.385395  1
  O  O61  1  0.534776  0.648083  0.570883  1
  O  O62  1  0.598591  0.154091  0.847479  1
  O  O63  1  0.585095  0.412542  0.739222  1
  O  O64  1  0.598774  0.910303  0.785066  1
  O  O65  1  0.688411  0.677057  0.826025  1
  O  O66  1  0.714030  0.846629  0.001856  1
  O  O67  1  0.534473  0.234650  0.100156  1
  O  O68  1  0.587494  0.609017  0.114378  1
  O  O69  1  0.627695  0.432646  0.288126  1
  O  O70  1  0.632131  0.962582  0.218980  1
  O  O71  1  0.685636  0.208410  0.402893  1
  O  O72  1  0.674106  0.686742  0.319559  1
  O  O73  1  0.722568  0.433426  0.515048  1
  O  O74  1  0.789003  0.942202  0.474107  1
  O  O75  1  0.836954  0.195942  0.694411  1
  O  O76  1  0.818402  0.713156  0.593725  1
  O  O77  1  0.862928  0.463438  0.773424  1
  O  O78  1  0.908759  0.076797  0.891488  1
  O  O79  1  0.865612  0.936499  0.701466  1
  O  O80  1  0.970745  0.748115  0.899813  1
  O  O81  1  0.793142  0.324233  0.994066  1
  O  O82  1  0.819520  0.168666  0.172645  1
  O  O83  1  0.901496  0.660114  0.166892  1
  O  O84  1  0.895823  0.410078  0.206023  1
  O  O85  1  0.912872  0.911470  0.264553  1
  O  O86  1  0.968809  0.161199  0.432805  1
  O  O87  1  0.977934  0.559202  0.383832  1
