# generated using pymatgen
data_Li5V3P8O29
_symmetry_space_group_name_H-M   'P 1'
_cell_length_a   9.78982196
_cell_length_b   9.79896905
_cell_length_c   14.03799457
_cell_angle_alpha   90.14064828
_cell_angle_beta   90.23507712
_cell_angle_gamma   60.05961747
_symmetry_Int_Tables_number   1
_chemical_formula_structural   Li5V3P8O29
_chemical_formula_sum   'Li10 V6 P16 O58'
_cell_volume   1166.93795356
_cell_formula_units_Z   2
loop_
 _symmetry_equiv_pos_site_id
 _symmetry_equiv_pos_as_xyz
  1  'x, y, z'
loop_
 _atom_site_type_symbol
 _atom_site_label
 _atom_site_symmetry_multiplicity
 _atom_site_fract_x
 _atom_site_fract_y
 _atom_site_fract_z
 _atom_site_occupancy
  Li  Li0  1  0.770942  0.904217  0.560830  1
  Li  Li1  1  0.904381  0.327081  0.563240  1
  Li  Li2  1  0.765785  0.333523  0.055641  1
  Li  Li3  1  0.329762  0.904525  0.057618  1
  Li  Li4  1  0.682773  0.225470  0.439899  1
  Li  Li5  1  0.322849  0.772284  0.564997  1
  Li  Li6  1  0.671742  0.091910  0.939078  1
  Li  Li7  1  0.094235  0.676945  0.439966  1
  Li  Li8  1  0.226151  0.094552  0.441429  1
  Li  Li9  1  0.032380  0.949264  0.993587  1
  V  V10  1  0.566442  0.434540  0.250288  1
  V  V11  1  0.428939  0.567991  0.751440  1
  V  V12  1  0.566360  0.999349  0.749776  1
  V  V13  1  0.432187  0.000765  0.249077  1
  V  V14  1  0.996732  0.568456  0.241170  1
  V  V15  1  0.003542  0.433350  0.759490  1
  P  P16  1  0.917161  0.778393  0.842713  1
  P  P17  1  0.770539  0.910378  0.339029  1
  P  P18  1  0.914063  0.321252  0.344694  1
  P  P19  1  0.664428  0.665316  0.127367  1
  P  P20  1  0.669541  0.663729  0.630750  1
  P  P21  1  0.771335  0.314510  0.840168  1
  P  P22  1  0.679269  0.232170  0.657480  1
  P  P23  1  0.314380  0.912782  0.841972  1
  P  P24  1  0.683308  0.088891  0.156591  1
  P  P25  1  0.320504  0.767828  0.344802  1
  P  P26  1  0.224397  0.692129  0.160539  1
  P  P27  1  0.329339  0.336281  0.368500  1
  P  P28  1  0.337561  0.332739  0.871279  1
  P  P29  1  0.084883  0.680622  0.657136  1
  P  P30  1  0.227864  0.091997  0.660533  1
  P  P31  1  0.082670  0.223946  0.159652  1
  O  O32  1  0.997365  0.753227  0.565811  1
  O  O33  1  0.919141  0.744103  0.338055  1
  O  O34  1  0.767839  0.015890  0.065973  1
  O  O35  1  0.743816  0.915349  0.838544  1
  O  O36  1  0.920400  0.617321  0.832213  1
  O  O37  1  0.811546  0.671725  0.175163  1
  O  O38  1  0.905381  0.479115  0.321451  1
  O  O39  1  0.988911  0.218070  0.077910  1
  O  O40  1  0.916253  0.339540  0.835566  1
  O  O41  1  0.672821  0.814017  0.669266  1
  O  O42  1  0.619864  0.900831  0.320965  1
  O  O43  1  0.815989  0.515390  0.678025  1
  O  O44  1  0.675297  0.660845  0.021655  1
  O  O45  1  0.682582  0.655532  0.524354  1
  O  O46  1  0.677572  0.510964  0.168151  1
  O  O47  1  0.469316  0.913676  0.830406  1
  O  O48  1  0.511416  0.810960  0.166311  1
  O  O49  1  0.749310  0.336227  0.342567  1
  O  O50  1  0.792589  0.206183  0.747963  1
  O  O51  1  0.758208  0.243087  0.567992  1
  O  O52  1  0.778510  0.223745  0.928638  1
  O  O53  1  0.619345  0.470111  0.828979  1
  O  O54  1  0.514773  0.670877  0.666091  1
  O  O55  1  0.658199  0.258983  0.165030  1
  O  O56  1  0.480512  0.619524  0.323277  1
  O  O57  1  0.336900  0.916839  0.342418  1
  O  O58  1  0.792540  0.999310  0.248899  1
  O  O59  1  0.760138  0.997355  0.429696  1
  O  O60  1  0.238280  0.003252  0.570452  1
  O  O61  1  0.661273  0.084076  0.656606  1
  O  O62  1  0.521605  0.382175  0.675670  1
  O  O63  1  0.343932  0.743360  0.829578  1
  O  O64  1  0.483853  0.329710  0.330700  1
  O  O65  1  0.380482  0.538305  0.168111  1
  O  O66  1  0.206541  0.799429  0.080000  1
  O  O67  1  0.249190  0.753212  0.436264  1
  O  O68  1  0.202827  0.789257  0.258957  1
  O  O69  1  0.249729  0.664147  0.657571  1
  O  O70  1  0.489949  0.186343  0.831050  1
  O  O71  1  0.527169  0.091440  0.171262  1
  O  O72  1  0.326447  0.481505  0.826349  1
  O  O73  1  0.332179  0.329269  0.976932  1
  O  O74  1  0.321726  0.343191  0.474780  1
  O  O75  1  0.182720  0.486189  0.323011  1
  O  O76  1  0.378067  0.101744  0.677780  1
  O  O77  1  0.325456  0.186793  0.329838  1
  O  O78  1  0.083838  0.659322  0.164169  1
  O  O79  1  0.991138  0.797236  0.743743  1
  O  O80  1  0.002439  0.793281  0.925357  1
  O  O81  1  0.093752  0.522177  0.678997  1
  O  O82  1  0.188206  0.327230  0.824804  1
  O  O83  1  0.083915  0.382399  0.170227  1
  O  O84  1  0.254317  0.084139  0.159537  1
  O  O85  1  0.227280  0.983015  0.932756  1
  O  O86  1  0.204268  0.004981  0.750811  1
  O  O87  1  0.079882  0.258547  0.661237  1
  O  O88  1  0.000127  0.249550  0.436308  1
  O  O89  1  0.011548  0.202557  0.258949  1
