# generated using pymatgen
data_Li2La3Ti2Nb2O13
_symmetry_space_group_name_H-M   'P 1'
_cell_length_a   4.01138734
_cell_length_b   17.09735123
_cell_length_c   4.01302804
_cell_angle_alpha   83.39774548
_cell_angle_beta   90.02981988
_cell_angle_gamma   96.73801544
_symmetry_Int_Tables_number   1
_chemical_formula_structural   Li2La3Ti2Nb2O13
_chemical_formula_sum   'Li2 La3 Ti2 Nb2 O13'
_cell_volume   271.49278468
_cell_formula_units_Z   1
loop_
 _symmetry_equiv_pos_site_id
 _symmetry_equiv_pos_as_xyz
  1  'x, y, z'
loop_
 _atom_site_type_symbol
 _atom_site_label
 _atom_site_symmetry_multiplicity
 _atom_site_fract_x
 _atom_site_fract_y
 _atom_site_fract_z
 _atom_site_occupancy
  Li  Li0  1  0.245374  0.499253  0.256462  1
  Li  Li1  1  0.743387  0.499771  0.751855  1
  La  La2  1  0.496031  0.000607  0.511584  1
  La  La3  1  0.621106  0.239009  0.369464  1
  La  La4  1  0.372496  0.760717  0.623589  1
  Ti  Ti5  1  0.051071  0.116476  0.942685  1
  Ti  Ti6  1  0.940122  0.883829  0.061111  1
  Nb  Nb7  1  0.178942  0.358232  0.819426  1
  Nb  Nb8  1  0.816154  0.640946  0.183282  1
  O  O9  1  0.993879  0.000141  0.996256  1
  O  O10  1  0.049322  0.114822  0.443041  1
  O  O11  1  0.551250  0.116553  0.942586  1
  O  O12  1  0.109391  0.232791  0.887684  1
  O  O13  1  0.172495  0.341543  0.328831  1
  O  O14  1  0.668893  0.340212  0.826476  1
  O  O15  1  0.231086  0.471425  0.769087  1
  O  O16  1  0.760346  0.527860  0.242402  1
  O  O17  1  0.325499  0.658636  0.172912  1
  O  O18  1  0.824482  0.658668  0.675053  1
  O  O19  1  0.882583  0.767114  0.124082  1
  O  O20  1  0.439854  0.884122  0.059732  1
  O  O21  1  0.943237  0.885329  0.560271  1
