# generated using pymatgen
data_LiNiOF
_symmetry_space_group_name_H-M   'P 1'
_cell_length_a   2.95292103
_cell_length_b   2.95292293
_cell_length_c   12.63850247
_cell_angle_alpha   89.99998825
_cell_angle_beta   89.99997474
_cell_angle_gamma   89.99998642
_symmetry_Int_Tables_number   1
_chemical_formula_structural   LiNiOF
_chemical_formula_sum   'Li3 Ni3 O3 F3'
_cell_volume   110.20455953
_cell_formula_units_Z   3
loop_
 _symmetry_equiv_pos_site_id
 _symmetry_equiv_pos_as_xyz
  1  'x, y, z'
loop_
 _atom_site_type_symbol
 _atom_site_label
 _atom_site_symmetry_multiplicity
 _atom_site_fract_x
 _atom_site_fract_y
 _atom_site_fract_z
 _atom_site_occupancy
  Li  Li0  1  0.500000  0.500000  0.999077  1
  Li  Li1  1  0.500000  0.500000  0.667591  1
  Li  Li2  1  1.000000  0.000000  0.833335  1
  Ni  Ni3  1  1.000000  0.000002  0.167016  1
  Ni  Ni4  1  0.499999  0.500000  0.333322  1
  Ni  Ni5  1  0.000002  0.999997  0.499668  1
  O  O6  1  0.500000  0.500000  0.164400  1
  O  O7  1  0.000001  0.000002  0.333333  1
  O  O8  1  0.500001  0.499999  0.502265  1
  F  F9  1  -0.000000  1.000000  0.994004  1
  F  F10  1  0.999999  -0.000000  0.672656  1
  F  F11  1  0.499999  0.500000  0.833330  1
