# generated using pymatgen
data_Co3OF5
_symmetry_space_group_name_H-M   'P 1'
_cell_length_a   4.69768347
_cell_length_b   14.15076250
_cell_length_c   3.15041228
_cell_angle_alpha   90.00004809
_cell_angle_beta   89.99986841
_cell_angle_gamma   90.15479952
_symmetry_Int_Tables_number   1
_chemical_formula_structural   Co3OF5
_chemical_formula_sum   'Co6 O2 F10'
_cell_volume   209.42542201
_cell_formula_units_Z   2
loop_
 _symmetry_equiv_pos_site_id
 _symmetry_equiv_pos_as_xyz
  1  'x, y, z'
loop_
 _atom_site_type_symbol
 _atom_site_label
 _atom_site_symmetry_multiplicity
 _atom_site_fract_x
 _atom_site_fract_y
 _atom_site_fract_z
 _atom_site_occupancy
  Co  Co0  1  0.022638  0.005762  0.000002  1
  Co  Co1  1  0.977974  0.333338  0.000000  1
  Co  Co2  1  0.030879  0.660591  0.999999  1
  Co  Co3  1  0.471544  0.157926  0.500000  1
  Co  Co4  1  0.470650  0.506831  0.500001  1
  Co  Co5  1  0.522197  0.835026  0.500000  1
  O  O6  1  0.204650  0.598562  0.499998  1
  O  O7  1  0.299581  0.100506  0.000000  1
  F  F8  1  0.182770  0.270625  0.500000  1
  F  F9  1  0.205948  0.933641  0.500000  1
  F  F10  1  0.318031  0.770121  1.000000  1
  F  F11  1  0.298009  0.432643  0.999999  1
  F  F12  1  0.694384  0.563148  -0.000000  1
  F  F13  1  0.677058  0.228738  0.000001  1
  F  F14  1  0.720470  0.903344  -0.000000  1
  F  F15  1  0.807942  0.065134  0.500000  1
  F  F16  1  0.778670  0.404164  0.500000  1
  F  F17  1  0.816605  0.729898  0.499999  1
