# generated using pymatgen
data_Li4Ti2Fe4(CoO6)3
_symmetry_space_group_name_H-M   'P 1'
_cell_length_a   8.79639282
_cell_length_b   25.32644876
_cell_length_c   2.91219057
_cell_angle_alpha   90.07743568
_cell_angle_beta   89.98882771
_cell_angle_gamma   90.09502776
_symmetry_Int_Tables_number   1
_chemical_formula_structural   Li4Ti2Fe4(CoO6)3
_chemical_formula_sum   'Li8 Ti4 Fe8 Co6 O36'
_cell_volume   648.78037184
_cell_formula_units_Z   2
loop_
 _symmetry_equiv_pos_site_id
 _symmetry_equiv_pos_as_xyz
  1  'x, y, z'
loop_
 _atom_site_type_symbol
 _atom_site_label
 _atom_site_symmetry_multiplicity
 _atom_site_fract_x
 _atom_site_fract_y
 _atom_site_fract_z
 _atom_site_occupancy
  Li  Li0  1  0.194428  0.987012  0.999953  1
  Li  Li1  1  0.188137  0.205476  0.000065  1
  Li  Li2  1  0.311345  0.706093  0.000065  1
  Li  Li3  1  0.303951  0.486073  0.999886  1
  Li  Li4  1  0.695939  0.513334  0.000109  1
  Li  Li5  1  0.689422  0.293701  0.999979  1
  Li  Li6  1  0.810911  0.793461  0.999866  1
  Li  Li7  1  0.805540  0.014289  0.000046  1
  Ti  Ti8  1  0.998809  0.104879  0.000289  1
  Ti  Ti9  1  0.500748  0.604438  0.001380  1
  Ti  Ti10  1  0.499823  0.395571  0.999858  1
  Ti  Ti11  1  0.001006  0.895207  0.999438  1
  Fe  Fe12  1  0.022750  0.304217  0.999914  1
  Fe  Fe13  1  0.136647  0.588157  0.500303  1
  Fe  Fe14  1  0.362280  0.088007  0.500170  1
  Fe  Fe15  1  0.474709  0.804840  0.998750  1
  Fe  Fe16  1  0.525579  0.195492  0.000075  1
  Fe  Fe17  1  0.637390  0.911935  0.499749  1
  Fe  Fe18  1  0.863528  0.411904  0.499794  1
  Fe  Fe19  1  0.976082  0.695847  -0.000121  1
  Co  Co20  1  0.000051  0.500123  0.000016  1
  Co  Co21  1  0.147512  0.804552  0.497384  1
  Co  Co22  1  0.352669  0.304368  0.499773  1
  Co  Co23  1  0.499835  0.999898  0.999972  1
  Co  Co24  1  0.646434  0.695801  0.501848  1
  Co  Co25  1  0.852885  0.195409  0.500943  1
  O  O26  1  0.008798  0.427594  0.999829  1
  O  O27  1  0.991175  0.572485  0.000209  1
  O  O28  1  0.066055  0.938894  0.500186  1
  O  O29  1  0.044430  0.160977  0.499861  1
  O  O30  1  0.097801  0.664621  0.500047  1
  O  O31  1  0.096961  0.760565  0.002753  1
  O  O32  1  0.142982  0.505881  0.499972  1
  O  O33  1  0.158641  0.276420  0.499779  1
  O  O34  1  0.199380  0.849806  0.996865  1
  O  O35  1  0.202816  0.086056  0.999968  1
  O  O36  1  0.296619  0.586299  0.000269  1
  O  O37  1  0.302123  0.349297  0.000003  1
  O  O38  1  0.341751  0.775727  0.500125  1
  O  O39  1  0.356805  0.005648  0.499899  1
  O  O40  1  0.402687  0.259959  0.999932  1
  O  O41  1  0.404626  0.164468  0.499767  1
  O  O42  1  0.457315  0.660439  0.500141  1
  O  O43  1  0.433558  0.438975  0.500524  1
  O  O44  1  0.507152  0.072243  0.000187  1
  O  O45  1  0.492087  0.927495  0.999739  1
  O  O46  1  0.566544  0.560930  0.500419  1
  O  O47  1  0.542294  0.339374  0.500043  1
  O  O48  1  0.596628  0.835460  0.499258  1
  O  O49  1  0.595958  0.740244  0.997968  1
  O  O50  1  0.643217  0.994274  0.500075  1
  O  O51  1  0.658540  0.224480  0.499867  1
  O  O52  1  0.697769  0.650807  0.003182  1
  O  O53  1  0.703070  0.413754  0.000031  1
  O  O54  1  0.796919  0.913612  0.999952  1
  O  O55  1  0.801375  0.150060  0.000952  1
  O  O56  1  0.842012  0.723969  0.499532  1
  O  O57  1  0.857114  0.494181  0.500046  1
  O  O58  1  0.903617  0.239419  0.999008  1
  O  O59  1  0.902413  0.335286  0.500099  1
  O  O60  1  0.956438  0.839091  0.500446  1
  O  O61  1  0.933921  0.061130  0.499561  1
