# generated using pymatgen
data_LiMn5P3O13
_symmetry_space_group_name_H-M   'P 1'
_cell_length_a   9.31188906
_cell_length_b   9.31142879
_cell_length_c   6.54391817
_cell_angle_alpha   90.00047291
_cell_angle_beta   89.99988434
_cell_angle_gamma   120.00049385
_symmetry_Int_Tables_number   1
_chemical_formula_structural   LiMn5P3O13
_chemical_formula_sum   'Li2 Mn10 P6 O26'
_cell_volume   491.38336466
_cell_formula_units_Z   2
loop_
 _symmetry_equiv_pos_site_id
 _symmetry_equiv_pos_as_xyz
  1  'x, y, z'
loop_
 _atom_site_type_symbol
 _atom_site_label
 _atom_site_symmetry_multiplicity
 _atom_site_fract_x
 _atom_site_fract_y
 _atom_site_fract_z
 _atom_site_occupancy
  Li  Li0  1  0.999922  0.000055  0.525970  1
  Li  Li1  1  0.000052  0.999989  0.025973  1
  Mn  Mn2  1  0.253030  0.014864  0.271731  1
  Mn  Mn3  1  0.985129  0.238108  0.271703  1
  Mn  Mn4  1  0.333285  0.666650  0.015899  1
  Mn  Mn5  1  0.333318  0.666652  0.505996  1
  Mn  Mn6  1  0.238147  0.252987  0.771692  1
  Mn  Mn7  1  0.761838  0.747007  0.271698  1
  Mn  Mn8  1  0.666694  0.333352  0.005996  1
  Mn  Mn9  1  0.666691  0.333349  0.515892  1
  Mn  Mn10  1  0.014878  0.761924  0.771705  1
  Mn  Mn11  1  0.746957  0.985124  0.771710  1
  P  P12  1  0.026299  0.398283  0.768042  1
  P  P13  1  0.372011  0.973698  0.768020  1
  P  P14  1  0.398298  0.371961  0.268006  1
  P  P15  1  0.601691  0.627999  0.768021  1
  P  P16  1  0.628024  0.026331  0.267998  1
  P  P17  1  0.973663  0.601717  0.268053  1
  O  O18  1  0.250998  0.925465  0.582902  1
  O  O19  1  0.262739  0.919474  0.963823  1
  O  O20  1  0.160626  0.658764  0.266225  1
  O  O21  1  0.132491  0.592898  0.757195  1
  O  O22  1  0.080512  0.343211  0.963845  1
  O  O23  1  0.074536  0.325492  0.582925  1
  O  O24  1  0.999967  0.000028  0.276171  1
  O  O25  1  0.000040  0.999959  0.776170  1
  O  O26  1  0.460426  0.867503  0.757149  1
  O  O27  1  0.341252  0.501891  0.266190  1
  O  O28  1  0.498094  0.839362  0.266178  1
  O  O29  1  0.407082  0.539577  0.757205  1
  O  O30  1  0.325510  0.250964  0.082883  1
  O  O31  1  0.343211  0.262685  0.463788  1
  O  O32  1  0.656793  0.737308  0.963801  1
  O  O33  1  0.674452  0.749014  0.582889  1
  O  O34  1  0.592886  0.460413  0.257172  1
  O  O35  1  0.501917  0.160619  0.766195  1
  O  O36  1  0.658696  0.498089  0.766188  1
  O  O37  1  0.539601  0.132499  0.257157  1
  O  O38  1  0.925456  0.674507  0.082928  1
  O  O39  1  0.919475  0.656791  0.463848  1
  O  O40  1  0.867513  0.407116  0.257203  1
  O  O41  1  0.839389  0.341263  0.766206  1
  O  O42  1  0.749014  0.074540  0.082873  1
  O  O43  1  0.737298  0.080517  0.463787  1
