# generated using pymatgen
data_Li7V3P8O29
_symmetry_space_group_name_H-M   'P 1'
_cell_length_a   9.79223842
_cell_length_b   9.81314070
_cell_length_c   13.83506704
_cell_angle_alpha   89.88522728
_cell_angle_beta   90.08632319
_cell_angle_gamma   60.09603024
_symmetry_Int_Tables_number   1
_chemical_formula_structural   Li7V3P8O29
_chemical_formula_sum   'Li14 V6 P16 O58'
_cell_volume   1152.44088655
_cell_formula_units_Z   2
loop_
 _symmetry_equiv_pos_site_id
 _symmetry_equiv_pos_as_xyz
  1  'x, y, z'
loop_
 _atom_site_type_symbol
 _atom_site_label
 _atom_site_symmetry_multiplicity
 _atom_site_fract_x
 _atom_site_fract_y
 _atom_site_fract_z
 _atom_site_occupancy
  Li  Li0  1  0.900213  0.763669  0.062326  1
  Li  Li1  1  0.765184  0.898733  0.561519  1
  Li  Li2  1  0.899827  0.335963  0.561853  1
  Li  Li3  1  0.764121  0.336618  0.062000  1
  Li  Li4  1  0.339644  0.897852  0.061251  1
  Li  Li5  1  0.660353  0.237858  0.438335  1
  Li  Li6  1  0.339304  0.762363  0.561322  1
  Li  Li7  1  0.660275  0.102522  0.938554  1
  Li  Li8  1  0.235220  0.664279  0.939153  1
  Li  Li9  1  0.099733  0.664052  0.437829  1
  Li  Li10  1  0.235206  0.100643  0.438962  1
  Li  Li11  1  0.099810  0.235831  0.938039  1
  Li  Li12  1  -0.000015  0.000171  -0.000189  1
  Li  Li13  1  0.000103  -0.000341  0.500287  1
  V  V14  1  0.563859  0.435682  0.249909  1
  V  V15  1  0.436333  0.561617  0.750742  1
  V  V16  1  0.565748  0.999294  0.749232  1
  V  V17  1  0.434988  0.001699  0.251501  1
  V  V18  1  -0.000459  0.564304  0.249793  1
  V  V19  1  0.999707  0.435614  0.749880  1
  P  P20  1  0.912525  0.775228  0.843035  1
  P  P21  1  0.774294  0.913801  0.343621  1
  P  P22  1  0.912113  0.312392  0.343031  1
  P  P23  1  0.663848  0.667947  0.127389  1
  P  P24  1  0.664026  0.668066  0.627493  1
  P  P25  1  0.774231  0.311986  0.843798  1
  P  P26  1  0.685921  0.225893  0.657420  1
  P  P27  1  0.314477  0.911209  0.843419  1
  P  P28  1  0.685451  0.088517  0.156843  1
  P  P29  1  0.314298  0.773941  0.342896  1
  P  P30  1  0.226249  0.687695  0.156316  1
  P  P31  1  0.335683  0.332363  0.372511  1
  P  P32  1  0.336145  0.331604  0.873027  1
  P  P33  1  0.087773  0.687707  0.656308  1
  P  P34  1  0.226052  0.086116  0.656268  1
  P  P35  1  0.087638  0.224847  0.156406  1
  O  O36  1  -0.000092  0.783651  0.566666  1
  O  O37  1  0.918833  0.751107  0.345210  1
  O  O38  1  0.776319  0.000031  0.067521  1
  O  O39  1  0.743416  0.922676  0.839783  1
  O  O40  1  0.906394  0.625387  0.835702  1
  O  O41  1  0.808209  0.678753  0.164884  1
  O  O42  1  0.906140  0.468473  0.335417  1
  O  O43  1  0.000347  0.216305  0.066859  1
  O  O44  1  0.919219  0.330317  0.845019  1
  O  O45  1  0.675719  0.811968  0.669295  1
  O  O46  1  0.620214  0.909528  0.328524  1
  O  O47  1  0.807804  0.512871  0.664896  1
  O  O48  1  0.654952  0.667684  0.019128  1
  O  O49  1  0.653750  0.677212  0.519440  1
  O  O50  1  0.673924  0.512310  0.170082  1
  O  O51  1  0.470443  0.909509  0.830218  1
  O  O52  1  0.511800  0.812324  0.171731  1
  O  O53  1  0.744030  0.332920  0.340801  1
  O  O54  1  0.794547  0.203056  0.750540  1
  O  O55  1  0.775217  0.224444  0.567498  1
  O  O56  1  0.769965  0.224348  0.933724  1
  O  O57  1  0.621403  0.470280  0.829773  1
  O  O58  1  0.510944  0.674341  0.672013  1
  O  O59  1  0.664638  0.254749  0.157103  1
  O  O60  1  0.471591  0.621490  0.329982  1
  O  O61  1  0.336464  0.918707  0.343670  1
  O  O62  1  0.793270  0.002567  0.250391  1
  O  O63  1  0.769960  0.005441  0.433450  1
  O  O64  1  0.229760  0.994833  0.566326  1
  O  O65  1  0.663142  0.081049  0.657135  1
  O  O66  1  0.528918  0.379908  0.667976  1
  O  O67  1  0.335807  0.745133  0.844063  1
  O  O68  1  0.490276  0.321818  0.329576  1
  O  O69  1  0.381330  0.530573  0.170436  1
  O  O70  1  0.229762  0.775581  0.066457  1
  O  O71  1  0.224411  0.775440  0.432509  1
  O  O72  1  0.206533  0.795705  0.249234  1
  O  O73  1  0.254222  0.668535  0.658377  1
  O  O74  1  0.488942  0.190124  0.829549  1
  O  O75  1  0.529376  0.089795  0.168453  1
  O  O76  1  0.326446  0.488308  0.828909  1
  O  O77  1  0.343969  0.334952  0.980869  1
  O  O78  1  0.345116  0.321653  0.480660  1
  O  O79  1  0.192355  0.486659  0.335071  1
  O  O80  1  0.381273  0.088371  0.671780  1
  O  O81  1  0.324924  0.186777  0.329786  1
  O  O82  1  0.081614  0.669081  0.154810  1
  O  O83  1  -0.000193  0.796667  0.749942  1
  O  O84  1  -0.001363  0.784467  0.933083  1
  O  O85  1  0.093076  0.531818  0.664816  1
  O  O86  1  0.191636  0.322122  0.834967  1
  O  O87  1  0.093433  0.374975  0.164782  1
  O  O88  1  0.254760  0.078062  0.159612  1
  O  O89  1  0.223360  0.000311  0.932664  1
  O  O90  1  0.207652  0.997728  0.749445  1
  O  O91  1  0.081291  0.249187  0.654368  1
  O  O92  1  0.998817  0.216717  0.432872  1
  O  O93  1  -0.000163  0.203471  0.250080  1
