# generated using pymatgen
data_Li2VFeP2(HO5)2
_symmetry_space_group_name_H-M   'P 1'
_cell_length_a   5.43610806
_cell_length_b   7.40542502
_cell_length_c   14.33845774
_cell_angle_alpha   86.35830455
_cell_angle_beta   85.09174354
_cell_angle_gamma   106.27117730
_symmetry_Int_Tables_number   1
_chemical_formula_structural   Li2VFeP2(HO5)2
_chemical_formula_sum   'Li6 V3 Fe3 P6 H6 O30'
_cell_volume   549.75261547
_cell_formula_units_Z   3
loop_
 _symmetry_equiv_pos_site_id
 _symmetry_equiv_pos_as_xyz
  1  'x, y, z'
loop_
 _atom_site_type_symbol
 _atom_site_label
 _atom_site_symmetry_multiplicity
 _atom_site_fract_x
 _atom_site_fract_y
 _atom_site_fract_z
 _atom_site_occupancy
  Li  Li0  1  0.148866  0.574430  0.248732  1
  Li  Li1  1  0.184391  0.759291  0.417939  1
  Li  Li2  1  0.482275  0.907376  0.915394  1
  Li  Li3  1  0.517801  0.092237  0.084601  1
  Li  Li4  1  0.815067  0.241789  0.582903  1
  Li  Li5  1  0.851599  0.424878  0.750431  1
  V  V6  1  0.999503  0.999810  0.999678  1
  V  V7  1  0.333333  0.833333  0.666667  1
  V  V8  1  0.667163  0.666857  0.333655  1
  Fe  Fe9  1  0.000195  0.499957  0.000026  1
  Fe  Fe10  1  0.333333  0.333333  0.666667  1
  Fe  Fe11  1  0.666472  0.166710  0.333307  1
  P  P12  1  0.198265  0.326229  0.441704  1
  P  P13  1  0.135359  0.007308  0.225471  1
  P  P14  1  0.531308  0.659359  0.107862  1
  P  P15  1  0.468401  0.340438  0.891629  1
  P  P16  1  0.863558  0.993532  0.773950  1
  P  P17  1  0.803108  0.673135  0.559383  1
  H  H18  1  0.061310  0.782041  0.879678  1
  H  H19  1  0.271259  0.553387  0.786577  1
  H  H20  1  0.605357  0.884626  0.453656  1
  H  H21  1  0.395408  0.113279  0.546756  1
  H  H22  1  0.728433  0.449000  0.213012  1
  H  H23  1  0.938233  0.217667  0.120321  1
  O  O24  1  0.129595  0.948477  0.123627  1
  O  O25  1  0.043126  0.824965  0.295639  1
  O  O26  1  0.036850  0.863533  0.757566  1
  O  O27  1  0.091061  0.777623  0.565082  1
  O  O28  1  0.101753  0.777845  0.946032  1
  O  O29  1  0.242658  0.558166  0.101476  1
  O  O30  1  0.290313  0.508319  0.371092  1
  O  O31  1  0.207200  0.385295  0.543713  1
  O  O32  1  0.231523  0.555483  0.720198  1
  O  O33  1  0.623540  0.841701  0.037694  1
  O  O34  1  0.537071  0.718190  0.209707  1
  O  O35  1  0.564914  0.888822  0.387301  1
  O  O36  1  0.295249  0.471751  0.908359  1
  O  O37  1  0.371418  0.194916  0.424975  1
  O  O38  1  0.575606  0.889044  0.768252  1
  O  O39  1  0.424009  0.108500  0.231858  1
  O  O40  1  0.629817  0.803133  0.575767  1
  O  O41  1  0.704427  0.527949  0.091349  1
  O  O42  1  0.435144  0.111183  0.613135  1
  O  O43  1  0.459466  0.281371  0.789621  1
  O  O44  1  0.376354  0.158348  0.962241  1
  O  O45  1  0.768296  0.444779  0.279494  1
  O  O46  1  0.798893  0.616769  0.456933  1
  O  O47  1  0.713163  0.490142  0.628898  1
  O  O48  1  0.756923  0.441462  0.898024  1
  O  O49  1  0.898371  0.221888  0.053839  1
  O  O50  1  0.909743  0.225205  0.435310  1
  O  O51  1  0.962239  0.138718  0.241985  1
  O  O52  1  0.953504  0.176525  0.704436  1
  O  O53  1  0.867773  0.049898  0.876400  1
