# generated using pymatgen
data_Ti3CuNi2(PO4)6
_symmetry_space_group_name_H-M   'P 1'
_cell_length_a   8.46612697
_cell_length_b   8.46612761
_cell_length_c   8.46612711
_cell_angle_alpha   61.24031003
_cell_angle_beta   61.24030557
_cell_angle_gamma   61.24030578
_symmetry_Int_Tables_number   1
_chemical_formula_structural   Ti3CuNi2(PO4)6
_chemical_formula_sum   'Ti3 Cu1 Ni2 P6 O24'
_cell_volume   441.04900897
_cell_formula_units_Z   1
loop_
 _symmetry_equiv_pos_site_id
 _symmetry_equiv_pos_as_xyz
  1  'x, y, z'
loop_
 _atom_site_type_symbol
 _atom_site_label
 _atom_site_symmetry_multiplicity
 _atom_site_fract_x
 _atom_site_fract_y
 _atom_site_fract_z
 _atom_site_occupancy
  Ti  Ti0  1  0.142263  0.142263  0.142263  1
  Ti  Ti1  1  0.355002  0.355002  0.355002  1
  Ti  Ti2  1  0.644939  0.644939  0.644939  1
  Cu  Cu3  1  0.855444  0.855444  0.855444  1
  Ni  Ni4  1  0.997164  0.997164  0.997164  1
  Ni  Ni5  1  0.498643  0.498643  0.498643  1
  P  P6  1  0.250411  0.545572  0.953055  1
  P  P7  1  0.545572  0.953055  0.250411  1
  P  P8  1  0.953055  0.250411  0.545572  1
  P  P9  1  0.047754  0.752248  0.455374  1
  P  P10  1  0.455374  0.047754  0.752248  1
  P  P11  1  0.752248  0.455374  0.047754  1
  O  O12  1  0.111065  0.330538  0.486307  1
  O  O13  1  0.330538  0.486307  0.111065  1
  O  O14  1  0.058568  0.908937  0.254081  1
  O  O15  1  0.486307  0.111065  0.330538  1
  O  O16  1  0.017638  0.818713  0.605541  1
  O  O17  1  0.245258  0.589437  0.430980  1
  O  O18  1  0.254081  0.058568  0.908937  1
  O  O19  1  0.430980  0.245258  0.589437  1
  O  O20  1  0.182177  0.381774  0.002342  1
  O  O21  1  0.589437  0.430980  0.245258  1
  O  O22  1  0.096964  0.739950  0.947163  1
  O  O23  1  0.381774  0.002342  0.182177  1
  O  O24  1  0.605541  0.017638  0.818713  1
  O  O25  1  0.908937  0.254081  0.058568  1
  O  O26  1  0.412727  0.553679  0.756637  1
  O  O27  1  0.818713  0.605541  0.017638  1
  O  O28  1  0.553679  0.756637  0.412727  1
  O  O29  1  0.739950  0.947163  0.096964  1
  O  O30  1  0.756637  0.412727  0.553679  1
  O  O31  1  0.002342  0.182177  0.381774  1
  O  O32  1  0.505246  0.882402  0.684008  1
  O  O33  1  0.947163  0.096964  0.739950  1
  O  O34  1  0.684008  0.505246  0.882402  1
  O  O35  1  0.882402  0.684008  0.505246  1
