# generated using pymatgen
data_Sr3Ir2O7
_symmetry_space_group_name_H-M   'P 1'
_cell_length_a   5.57120564
_cell_length_b   10.93457725
_cell_length_c   5.57264660
_cell_angle_alpha   90.00000000
_cell_angle_beta   90.00000000
_cell_angle_gamma   104.75887642
_symmetry_Int_Tables_number   1
_chemical_formula_structural   Sr3Ir2O7
_chemical_formula_sum   'Sr6 Ir4 O14'
_cell_volume   328.27822378
_cell_formula_units_Z   2
loop_
 _symmetry_equiv_pos_site_id
 _symmetry_equiv_pos_as_xyz
  1  'x, y, z'
loop_
 _atom_site_type_symbol
 _atom_site_label
 _atom_site_symmetry_multiplicity
 _atom_site_fract_x
 _atom_site_fract_y
 _atom_site_fract_z
 _atom_site_occupancy
  Sr  Sr0  1  0.500000  0.000000  0.000000  1
  Sr  Sr1  1  0.687389  0.374778  0.000000  1
  Sr  Sr2  1  0.312611  0.625222  0.000000  1
  Sr  Sr3  1  0.812611  0.625222  0.500000  1
  Sr  Sr4  1  0.187389  0.374778  0.500000  1
  Sr  Sr5  1  0.000000  0.000000  0.500000  1
  Ir  Ir6  1  0.902668  0.805336  0.000000  1
  Ir  Ir7  1  0.097332  0.194664  0.000000  1
  Ir  Ir8  1  0.597332  0.194664  0.500000  1
  Ir  Ir9  1  0.402668  0.805336  0.500000  1
  O  O10  1  0.805929  0.611857  0.000000  1
  O  O11  1  0.908021  0.193490  0.311248  1
  O  O12  1  0.408021  0.193490  0.188752  1
  O  O13  1  0.000000  0.000000  0.000000  1
  O  O14  1  0.194071  0.388143  0.000000  1
  O  O15  1  0.591979  0.806510  0.188752  1
  O  O16  1  0.694071  0.388143  0.500000  1
  O  O17  1  0.500000  0.000000  0.500000  1
  O  O18  1  0.785469  0.193490  0.811248  1
  O  O19  1  0.714531  0.806510  0.688752  1
  O  O20  1  0.305929  0.611857  0.500000  1
  O  O21  1  0.285469  0.193490  0.688752  1
  O  O22  1  0.091979  0.806510  0.311248  1
  O  O23  1  0.214531  0.806510  0.811248  1
