# generated using pymatgen
data_Li2FePCO7
_symmetry_space_group_name_H-M   'P 1'
_cell_length_a   5.05965335
_cell_length_b   11.01609171
_cell_length_c   10.15763905
_cell_angle_alpha   74.28197065
_cell_angle_beta   96.94282986
_cell_angle_gamma   91.97331354
_symmetry_Int_Tables_number   1
_chemical_formula_structural   Li2FePCO7
_chemical_formula_sum   'Li8 Fe4 P4 C4 O28'
_cell_volume   540.99458141
_cell_formula_units_Z   4
loop_
 _symmetry_equiv_pos_site_id
 _symmetry_equiv_pos_as_xyz
  1  'x, y, z'
loop_
 _atom_site_type_symbol
 _atom_site_label
 _atom_site_symmetry_multiplicity
 _atom_site_fract_x
 _atom_site_fract_y
 _atom_site_fract_z
 _atom_site_occupancy
  Li  Li0  1  0.710042  0.152333  0.128938  1
  Li  Li1  1  0.750078  0.174807  0.769621  1
  Li  Li2  1  0.687091  0.657966  0.616609  1
  Li  Li3  1  0.603800  0.910001  0.335948  1
  Li  Li4  1  0.342368  0.706477  0.098741  1
  Li  Li5  1  0.236411  0.463863  0.305847  1
  Li  Li6  1  0.195660  0.441287  0.665132  1
  Li  Li7  1  0.258465  0.958077  0.818332  1
  Fe  Fe8  1  0.784899  0.262376  0.424712  1
  Fe  Fe9  1  0.786555  0.757682  0.922156  1
  Fe  Fe10  1  0.161506  0.353939  0.009835  1
  Fe  Fe11  1  0.159360  0.858770  0.512237  1
  P  P12  1  0.699038  0.474903  0.127807  1
  P  P13  1  0.700005  0.977141  0.629044  1
  P  P14  1  0.247294  0.141452  0.306662  1
  P  P15  1  0.245607  0.639427  0.805326  1
  C  C16  1  0.719237  0.903741  0.066413  1
  C  C17  1  0.645031  0.417520  0.548247  1
  C  C18  1  0.228101  0.712607  0.368312  1
  C  C19  1  0.300764  0.198440  0.886615  1
  O  O20  1  0.951433  0.865189  0.053297  1
  O  O21  1  0.822879  0.426345  0.020455  1
  O  O22  1  0.857247  0.421027  0.271879  1
  O  O23  1  0.893385  0.379332  0.563807  1
  O  O24  1  0.700372  0.621074  0.088456  1
  O  O25  1  0.803610  0.929853  0.513491  1
  O  O26  1  0.728983  0.122087  0.599570  1
  O  O27  1  0.867252  0.917892  0.769645  1
  O  O28  1  0.546643  0.182426  0.300083  1
  O  O29  1  0.674869  0.971189  0.144189  1
  O  O30  1  0.562616  0.488093  0.614925  1
  O  O31  1  0.399602  0.434087  0.134293  1
  O  O32  1  0.484993  0.371189  0.463147  1
  O  O33  1  0.427495  0.753188  0.445890  1
  O  O34  1  0.541928  0.680581  0.794034  1
  O  O35  1  0.272715  0.645048  0.290682  1
  O  O36  1  0.460765  0.244611  0.971848  1
  O  O37  1  0.383159  0.127798  0.819963  1
  O  O38  1  0.403597  0.936095  0.640169  1
  O  O39  1  0.519448  0.862991  0.989188  1
  O  O40  1  0.088765  0.195393  0.162718  1
  O  O41  1  0.246234  0.995280  0.345901  1
  O  O42  1  0.123502  0.189903  0.414116  1
  O  O43  1  0.216864  0.494452  0.834920  1
  O  O44  1  0.995817  0.751462  0.380890  1
  O  O45  1  0.077945  0.698636  0.664827  1
  O  O46  1  0.142485  0.686836  0.920916  1
  O  O47  1  0.052578  0.236884  0.870803  1
