# generated using pymatgen
data_Li2MnVP2(HO5)2
_symmetry_space_group_name_H-M   'P 1'
_cell_length_a   5.48861689
_cell_length_b   14.34969057
_cell_length_c   7.43203783
_cell_angle_alpha   95.14043864
_cell_angle_beta   69.95811137
_cell_angle_gamma   88.51532721
_symmetry_Int_Tables_number   1
_chemical_formula_structural   Li2MnVP2(HO5)2
_chemical_formula_sum   'Li6 Mn3 V3 P6 H6 O30'
_cell_volume   546.68452795
_cell_formula_units_Z   3
loop_
 _symmetry_equiv_pos_site_id
 _symmetry_equiv_pos_as_xyz
  1  'x, y, z'
loop_
 _atom_site_type_symbol
 _atom_site_label
 _atom_site_symmetry_multiplicity
 _atom_site_fract_x
 _atom_site_fract_y
 _atom_site_fract_z
 _atom_site_occupancy
  Li  Li0  1  0.743952  0.695257  0.861944  1
  Li  Li1  1  0.931775  0.640715  0.465956  1
  Li  Li2  1  0.592181  0.974983  0.796846  1
  Li  Li3  1  0.406149  0.025904  0.202624  1
  Li  Li4  1  0.067299  0.357767  0.538317  1
  Li  Li5  1  0.256764  0.305797  0.132748  1
  Mn  Mn6  1  0.664192  0.835490  0.335428  1
  Mn  Mn7  1  0.333243  0.667204  0.667543  1
  Mn  Mn8  1  0.331676  0.166145  0.667265  1
  V  V9  1  0.665981  0.331994  0.334194  1
  V  V10  1  0.005663  0.499125  0.996795  1
  V  V11  1  0.998546  0.000010  0.999051  1
  P  P12  1  0.986239  0.145640  0.379104  1
  P  P13  1  0.679958  0.186963  0.953629  1
  P  P14  1  0.651503  0.480907  0.714940  1
  P  P15  1  0.359489  0.518465  0.284691  1
  P  P16  1  0.318082  0.812881  0.047810  1
  P  P17  1  0.007630  0.854624  0.618723  1
  H  H18  1  0.947496  0.325229  0.987548  1
  H  H19  1  0.721982  0.007401  0.347635  1
  H  H20  1  0.609589  0.661310  0.324811  1
  H  H21  1  0.383310  0.338562  0.682550  1
  H  H22  1  0.277605  0.992336  0.651754  1
  H  H23  1  0.056963  0.675981  0.009134  1
  O  O24  1  0.906871  0.902271  0.830530  1
  O  O25  1  0.940302  0.225066  0.841219  1
  O  O26  1  0.862341  0.447687  0.796243  1
  O  O27  1  0.788413  0.885839  0.542771  1
  O  O28  1  0.702190  0.078313  0.958389  1
  O  O29  1  0.963944  0.254404  0.373437  1
  O  O30  1  0.648862  0.587882  0.708349  1
  O  O31  1  0.750206  0.430901  0.506036  1
  O  O32  1  0.945391  0.371834  0.096966  1
  O  O33  1  0.725592  0.107847  0.491689  1
  O  O34  1  0.719416  0.961298  0.238223  1
  O  O35  1  0.423255  0.766048  0.835540  1
  O  O36  1  0.458630  0.214371  0.878278  1
  O  O37  1  0.611182  0.706552  0.434348  1
  O  O38  1  0.380438  0.447342  0.826432  1
  O  O39  1  0.628754  0.552241  0.172760  1
  O  O40  1  0.382356  0.292972  0.573460  1
  O  O41  1  0.538921  0.786831  0.125247  1
  O  O42  1  0.576882  0.233289  0.165502  1
  O  O43  1  0.278704  0.039060  0.761005  1
  O  O44  1  0.270337  0.892343  0.507918  1
  O  O45  1  0.057193  0.629698  0.898834  1
  O  O46  1  0.255734  0.567070  0.494632  1
  O  O47  1  0.370224  0.409782  0.291785  1
  O  O48  1  0.020379  0.747242  0.623028  1
  O  O49  1  0.294189  0.921634  0.043167  1
  O  O50  1  0.207580  0.118885  0.454500  1
  O  O51  1  0.147959  0.547496  0.201627  1
  O  O52  1  0.057628  0.774335  0.159415  1
  O  O53  1  0.088860  0.098779  0.167628  1
