# generated using pymatgen
data_Li2Cu2(SO4)3
_symmetry_space_group_name_H-M   'P 1'
_cell_length_a   12.77888208
_cell_length_b   8.58778549
_cell_length_c   8.59295738
_cell_angle_alpha   90.00406495
_cell_angle_beta   89.98902023
_cell_angle_gamma   89.99436884
_symmetry_Int_Tables_number   1
_chemical_formula_structural   Li2Cu2(SO4)3
_chemical_formula_sum   'Li8 Cu8 S12 O48'
_cell_volume   943.01086653
_cell_formula_units_Z   4
loop_
 _symmetry_equiv_pos_site_id
 _symmetry_equiv_pos_as_xyz
  1  'x, y, z'
loop_
 _atom_site_type_symbol
 _atom_site_label
 _atom_site_symmetry_multiplicity
 _atom_site_fract_x
 _atom_site_fract_y
 _atom_site_fract_z
 _atom_site_occupancy
  Li  Li0  1  0.185915  0.222497  0.276301  1
  Li  Li1  1  0.185922  0.777500  0.776354  1
  Li  Li2  1  0.314090  0.277505  0.776299  1
  Li  Li3  1  0.314113  0.722483  0.276298  1
  Li  Li4  1  0.685898  0.277504  0.723765  1
  Li  Li5  1  0.685898  0.722488  0.223745  1
  Li  Li6  1  0.814059  0.222503  0.223664  1
  Li  Li7  1  0.814062  0.777504  0.723676  1
  Cu  Cu8  1  0.107422  0.250105  0.960859  1
  Cu  Cu9  1  0.107315  0.749926  0.460885  1
  Cu  Cu10  1  0.392600  0.750117  0.960867  1
  Cu  Cu11  1  0.392578  0.249899  0.460894  1
  Cu  Cu12  1  0.607460  0.249874  0.039111  1
  Cu  Cu13  1  0.607437  0.750111  0.539117  1
  Cu  Cu14  1  0.892595  0.250123  0.539104  1
  Cu  Cu15  1  0.892646  0.749916  0.039119  1
  S  S16  1  0.000058  0.456938  0.250020  1
  S  S17  1  0.000047  0.543193  0.750034  1
  S  S18  1  0.143577  0.100198  0.607987  1
  S  S19  1  0.143475  0.899780  0.108073  1
  S  S20  1  0.356573  0.399791  0.108041  1
  S  S21  1  0.356531  0.600204  0.607969  1
  S  S22  1  0.500012  0.043182  0.749971  1
  S  S23  1  0.500014  0.956877  0.249986  1
  S  S24  1  0.643403  0.399827  0.391886  1
  S  S25  1  0.643504  0.600173  0.891932  1
  S  S26  1  0.856583  0.100215  0.892070  1
  S  S27  1  0.856643  0.899672  0.392026  1
  O  O28  1  0.033454  0.133821  0.578813  1
  O  O29  1  0.033551  0.866195  0.078840  1
  O  O30  1  0.058869  0.547922  0.365221  1
  O  O31  1  0.058857  0.452150  0.865210  1
  O  O32  1  0.079676  0.354057  0.172014  1
  O  O33  1  0.079701  0.646018  0.671932  1
  O  O34  1  0.160536  0.072870  0.113591  1
  O  O35  1  0.160535  0.927029  0.613531  1
  O  O36  1  0.179110  0.164760  0.762595  1
  O  O37  1  0.179068  0.835172  0.262670  1
  O  O38  1  0.212009  0.832868  0.985789  1
  O  O39  1  0.211989  0.167094  0.485812  1
  O  O40  1  0.288004  0.332888  0.985783  1
  O  O41  1  0.287969  0.667129  0.485809  1
  O  O42  1  0.320894  0.664804  0.762623  1
  O  O43  1  0.320895  0.335235  0.262555  1
  O  O44  1  0.339442  0.427132  0.613604  1
  O  O45  1  0.339443  0.572910  0.113581  1
  O  O46  1  0.420332  0.145937  0.672045  1
  O  O47  1  0.420316  0.854027  0.172003  1
  O  O48  1  0.441158  0.047846  0.365191  1
  O  O49  1  0.441139  0.952106  0.865229  1
  O  O50  1  0.466357  0.633792  0.578859  1
  O  O51  1  0.466301  0.366216  0.078878  1
  O  O52  1  0.533636  0.366220  0.421134  1
  O  O53  1  0.533566  0.633814  0.921160  1
  O  O54  1  0.558830  0.047807  0.134844  1
  O  O55  1  0.558854  0.952119  0.634803  1
  O  O56  1  0.579638  0.145916  0.827906  1
  O  O57  1  0.579653  0.854040  0.327958  1
  O  O58  1  0.660552  0.427215  0.886374  1
  O  O59  1  0.660547  0.572841  0.386397  1
  O  O60  1  0.679112  0.335242  0.237492  1
  O  O61  1  0.679092  0.664782  0.737456  1
  O  O62  1  0.712032  0.332831  0.514312  1
  O  O63  1  0.711997  0.667137  0.014240  1
  O  O64  1  0.788052  0.167082  0.014210  1
  O  O65  1  0.788033  0.832877  0.514198  1
  O  O66  1  0.820887  0.164799  0.737366  1
  O  O67  1  0.820910  0.835180  0.237379  1
  O  O68  1  0.839459  0.072957  0.386392  1
  O  O69  1  0.839458  0.927086  0.886425  1
  O  O70  1  0.920303  0.354003  0.328007  1
  O  O71  1  0.920324  0.645994  0.827997  1
  O  O72  1  0.941102  0.452080  0.634715  1
  O  O73  1  0.941136  0.547908  0.134760  1
  O  O74  1  0.966381  0.133770  0.921120  1
  O  O75  1  0.966413  0.866215  0.421125  1
