# generated using pymatgen
data_Fe3(OF2)2
_symmetry_space_group_name_H-M   'P 1'
_cell_length_a   4.82972983
_cell_length_b   7.81474963
_cell_length_c   5.78217586
_cell_angle_alpha   95.70138938
_cell_angle_beta   92.47328282
_cell_angle_gamma   87.61937978
_symmetry_Int_Tables_number   1
_chemical_formula_structural   Fe3(OF2)2
_chemical_formula_sum   'Fe6 O4 F8'
_cell_volume   216.80317120
_cell_formula_units_Z   2
loop_
 _symmetry_equiv_pos_site_id
 _symmetry_equiv_pos_as_xyz
  1  'x, y, z'
loop_
 _atom_site_type_symbol
 _atom_site_label
 _atom_site_symmetry_multiplicity
 _atom_site_fract_x
 _atom_site_fract_y
 _atom_site_fract_z
 _atom_site_occupancy
  Fe  Fe0  1  0.497458  0.664725  0.168429  1
  Fe  Fe1  1  0.521680  0.998959  0.519203  1
  Fe  Fe2  1  0.479639  0.337067  0.810497  1
  Fe  Fe3  1  -0.000675  0.663343  0.663776  1
  Fe  Fe4  1  0.019195  0.327192  0.347700  1
  Fe  Fe5  1  0.978920  0.009897  0.986869  1
  O  O6  1  0.699120  0.106468  0.804907  1
  O  O7  1  0.676288  0.771117  0.449506  1
  O  O8  1  0.319787  0.564968  0.883377  1
  O  O9  1  0.316629  0.220142  0.534109  1
  F  F10  1  0.791787  0.432386  0.639968  1
  F  F11  1  0.803777  0.778371  0.975735  1
  F  F12  1  0.800626  0.090004  0.287933  1
  F  F13  1  0.706395  0.429563  0.137091  1
  F  F14  1  0.285752  0.904861  0.190384  1
  F  F15  1  0.199783  0.223578  0.025932  1
  F  F16  1  0.207436  0.571076  0.359967  1
  F  F17  1  0.196402  0.906286  0.714617  1
