# generated using pymatgen
data_K2Zn3P4(HO3)4
_symmetry_space_group_name_H-M   'P 1'
_cell_length_a   12.55645297
_cell_length_b   13.85102712
_cell_length_c   8.75424163
_cell_angle_alpha   90.00000000
_cell_angle_beta   90.75350094
_cell_angle_gamma   90.00000000
_symmetry_Int_Tables_number   1
_chemical_formula_structural   K2Zn3P4(HO3)4
_chemical_formula_sum   'K8 Zn12 P16 H16 O48'
_cell_volume   1522.40403585
_cell_formula_units_Z   4
loop_
 _symmetry_equiv_pos_site_id
 _symmetry_equiv_pos_as_xyz
  1  'x, y, z'
loop_
 _atom_site_type_symbol
 _atom_site_label
 _atom_site_symmetry_multiplicity
 _atom_site_fract_x
 _atom_site_fract_y
 _atom_site_fract_z
 _atom_site_occupancy
  K  K0  1  0.018855  0.053899  0.238904  1
  K  K1  1  0.981145  0.553899  0.261096  1
  K  K2  1  0.981145  0.946101  0.761096  1
  K  K3  1  0.018855  0.446101  0.738904  1
  K  K4  1  0.474018  0.054386  0.256576  1
  K  K5  1  0.525982  0.554386  0.243424  1
  K  K6  1  0.525982  0.945614  0.743424  1
  K  K7  1  0.474018  0.445614  0.756576  1
  Zn  Zn8  1  0.750171  0.063260  0.056756  1
  Zn  Zn9  1  0.249829  0.563260  0.443244  1
  Zn  Zn10  1  0.249829  0.936740  0.943244  1
  Zn  Zn11  1  0.750171  0.436740  0.556756  1
  Zn  Zn12  1  0.575829  0.824203  0.382267  1
  Zn  Zn13  1  0.424171  0.324203  0.117733  1
  Zn  Zn14  1  0.424171  0.175797  0.617733  1
  Zn  Zn15  1  0.575829  0.675797  0.882267  1
  Zn  Zn16  1  0.071662  0.314998  0.087368  1
  Zn  Zn17  1  0.928338  0.814998  0.412632  1
  Zn  Zn18  1  0.928338  0.685002  0.912632  1
  Zn  Zn19  1  0.071662  0.185002  0.587368  1
  P  P20  1  0.576710  0.201186  0.904209  1
  P  P21  1  0.423290  0.701186  0.595791  1
  P  P22  1  0.423290  0.798814  0.095791  1
  P  P23  1  0.576710  0.298814  0.404209  1
  P  P24  1  0.756455  0.989617  0.431130  1
  P  P25  1  0.243544  0.489617  0.068870  1
  P  P26  1  0.243544  0.010383  0.568870  1
  P  P27  1  0.756455  0.510383  0.931130  1
  P  P28  1  0.918735  0.197130  0.871553  1
  P  P29  1  0.081265  0.697130  0.628447  1
  P  P30  1  0.081265  0.802870  0.128447  1
  P  P31  1  0.918735  0.302870  0.371553  1
  P  P32  1  0.744021  0.843554  0.930249  1
  P  P33  1  0.255979  0.343554  0.569751  1
  P  P34  1  0.255979  0.156446  0.069751  1
  P  P35  1  0.744021  0.656446  0.430249  1
  H  H36  1  0.662149  0.227782  0.809685  1
  H  H37  1  0.337851  0.727782  0.690315  1
  H  H38  1  0.337851  0.772218  0.190315  1
  H  H39  1  0.662149  0.272218  0.309685  1
  H  H40  1  0.759408  0.071557  0.526947  1
  H  H41  1  0.240592  0.571557  0.973053  1
  H  H42  1  0.240592  0.928443  0.473053  1
  H  H43  1  0.759408  0.428443  0.026947  1
  H  H44  1  0.828468  0.218532  0.780534  1
  H  H45  1  0.171532  0.718532  0.719466  1
  H  H46  1  0.171532  0.781468  0.219466  1
  H  H47  1  0.828468  0.281468  0.280534  1
  H  H48  1  0.731842  0.819504  0.085709  1
  H  H49  1  0.268158  0.319504  0.414291  1
  H  H50  1  0.268158  0.180496  0.914291  1
  H  H51  1  0.731842  0.680496  0.585709  1
  O  O52  1  0.737160  0.954035  0.913086  1
  O  O53  1  0.262840  0.454035  0.586914  1
  O  O54  1  0.262840  0.045965  0.086914  1
  O  O55  1  0.737160  0.545965  0.413086  1
  O  O56  1  0.882513  0.132087  0.004095  1
  O  O57  1  0.117487  0.632087  0.495905  1
  O  O58  1  0.117487  0.867913  0.995905  1
  O  O59  1  0.882513  0.367913  0.504095  1
  O  O60  1  0.621015  0.142474  0.040978  1
  O  O61  1  0.378985  0.642474  0.459022  1
  O  O62  1  0.378985  0.857526  0.959022  1
  O  O63  1  0.621015  0.357526  0.540978  1
  O  O64  1  0.777290  0.023902  0.267963  1
  O  O65  1  0.222710  0.523902  0.232037  1
  O  O66  1  0.222710  0.976098  0.732037  1
  O  O67  1  0.777290  0.476098  0.767963  1
  O  O68  1  0.643497  0.946059  0.451885  1
  O  O69  1  0.356503  0.446059  0.048115  1
  O  O70  1  0.356503  0.053941  0.548115  1
  O  O71  1  0.643497  0.553941  0.951885  1
  O  O72  1  0.527494  0.297846  0.953482  1
  O  O73  1  0.472506  0.797846  0.546518  1
  O  O74  1  0.472506  0.702154  0.046518  1
  O  O75  1  0.527494  0.202154  0.453482  1
  O  O76  1  0.500999  0.137410  0.806393  1
  O  O77  1  0.499001  0.637410  0.693607  1
  O  O78  1  0.499001  0.862590  0.193607  1
  O  O79  1  0.500999  0.362590  0.306393  1
  O  O80  1  0.651109  0.795771  0.840773  1
  O  O81  1  0.348891  0.295771  0.659227  1
  O  O82  1  0.348891  0.204229  0.159227  1
  O  O83  1  0.651109  0.704229  0.340773  1
  O  O84  1  0.853366  0.806416  0.879766  1
  O  O85  1  0.146634  0.306416  0.620234  1
  O  O86  1  0.146634  0.193584  0.120234  1
  O  O87  1  0.853366  0.693584  0.379766  1
  O  O88  1  0.847294  0.924967  0.493325  1
  O  O89  1  0.152706  0.424967  0.006675  1
  O  O90  1  0.152706  0.075033  0.506675  1
  O  O91  1  0.847294  0.575033  0.993325  1
  O  O92  1  0.996133  0.140680  0.769152  1
  O  O93  1  0.003867  0.640680  0.730848  1
  O  O94  1  0.003867  0.859320  0.230848  1
  O  O95  1  0.996133  0.359320  0.269152  1
  O  O96  1  0.961774  0.295621  0.925160  1
  O  O97  1  0.038226  0.795621  0.574840  1
  O  O98  1  0.038226  0.704379  0.074840  1
  O  O99  1  0.961774  0.204379  0.425160  1
