# generated using pymatgen
data_Li4Ti3Mn4(FeO9)2
_symmetry_space_group_name_H-M   'P 1'
_cell_length_a   9.17193698
_cell_length_b   25.38955972
_cell_length_c   2.94015807
_cell_angle_alpha   89.99998678
_cell_angle_beta   90.00010401
_cell_angle_gamma   89.98271424
_symmetry_Int_Tables_number   1
_chemical_formula_structural   Li4Ti3Mn4(FeO9)2
_chemical_formula_sum   'Li8 Ti6 Mn8 Fe4 O36'
_cell_volume   684.67881773
_cell_formula_units_Z   2
loop_
 _symmetry_equiv_pos_site_id
 _symmetry_equiv_pos_as_xyz
  1  'x, y, z'
loop_
 _atom_site_type_symbol
 _atom_site_label
 _atom_site_symmetry_multiplicity
 _atom_site_fract_x
 _atom_site_fract_y
 _atom_site_fract_z
 _atom_site_occupancy
  Li  Li0  1  0.180923  0.992733  0.999998  1
  Li  Li1  1  0.194557  0.208569  0.000001  1
  Li  Li2  1  0.305444  0.708420  -0.000000  1
  Li  Li3  1  0.319015  0.492625  0.000002  1
  Li  Li4  1  0.680588  0.498856  -0.000001  1
  Li  Li5  1  0.697674  0.308688  0.000002  1
  Li  Li6  1  0.802656  0.808543  0.999999  1
  Li  Li7  1  0.819335  0.998698  0.000002  1
  Ti  Ti8  1  0.000675  0.105264  0.999997  1
  Ti  Ti9  1  0.499314  0.605193  -0.000001  1
  Ti  Ti10  1  0.493728  0.393927  0.999999  1
  Ti  Ti11  1  0.652891  0.694465  0.500000  1
  Ti  Ti12  1  0.847004  0.194562  0.499999  1
  Ti  Ti13  1  0.006310  0.893845  0.999998  1
  Mn  Mn14  1  0.014857  0.312563  0.000003  1
  Mn  Mn15  1  0.148032  0.586601  0.499994  1
  Mn  Mn16  1  0.352197  0.086670  0.499997  1
  Mn  Mn17  1  0.485244  0.812499  0.000006  1
  Mn  Mn18  1  0.508033  0.186065  -0.000003  1
  Mn  Mn19  1  0.644431  0.913824  0.500001  1
  Mn  Mn20  1  0.855614  0.413842  0.500001  1
  Mn  Mn21  1  0.991845  0.685925  0.000038  1
  Fe  Fe22  1  0.000697  0.500280  0.999998  1
  Fe  Fe23  1  0.147105  0.803650  0.499999  1
  Fe  Fe24  1  0.353059  0.303741  0.500000  1
  Fe  Fe25  1  0.499107  0.000209  0.999999  1
  O  O26  1  0.993095  0.420502  0.000001  1
  O  O27  1  0.010485  0.580781  0.999991  1
  O  O28  1  0.039926  0.942613  0.499999  1
  O  O29  1  0.045396  0.161363  0.500000  1
  O  O30  1  0.119515  0.661058  0.499997  1
  O  O31  1  0.120640  0.753517  0.000004  1
  O  O32  1  0.154290  0.508563  0.499995  1
  O  O33  1  0.132614  0.285937  0.500003  1
  O  O34  1  0.183481  0.859989  0.000001  1
  O  O35  1  0.214189  0.087313  0.999997  1
  O  O36  1  0.285858  0.587219  0.999992  1
  O  O37  1  0.316602  0.360026  0.000001  1
  O  O38  1  0.367543  0.785914  0.500005  1
  O  O39  1  0.345639  0.008589  0.499998  1
  O  O40  1  0.379427  0.253656  -0.000000  1
  O  O41  1  0.380529  0.161145  0.499994  1
  O  O42  1  0.454483  0.661267  0.499998  1
  O  O43  1  0.459921  0.442675  0.499999  1
  O  O44  1  0.489495  0.080725  0.999998  1
  O  O45  1  0.506904  0.920474  -0.000000  1
  O  O46  1  0.538320  0.559176  0.499998  1
  O  O47  1  0.554756  0.339996  0.500002  1
  O  O48  1  0.614429  0.838526  0.500006  1
  O  O49  1  0.624252  0.742355  0.000001  1
  O  O50  1  0.652563  0.991621  0.499999  1
  O  O51  1  0.636023  0.206337  0.499993  1
  O  O52  1  0.682489  0.641443  1.000000  1
  O  O53  1  0.718440  0.413640  0.000000  1
  O  O54  1  0.781519  0.913523  0.000000  1
  O  O55  1  0.817491  0.141552  0.999999  1
  O  O56  1  0.863867  0.706296  0.500002  1
  O  O57  1  0.847368  0.491696  0.499999  1
  O  O58  1  0.875514  0.242496  -0.000000  1
  O  O59  1  0.885520  0.338583  0.500002  1
  O  O60  1  0.945297  0.839910  0.500000  1
  O  O61  1  0.961786  0.059264  0.499998  1
