# generated using pymatgen
data_Li3Co2SbO6
_symmetry_space_group_name_H-M   'P 1'
_cell_length_a   15.70105671
_cell_length_b   10.18430437
_cell_length_c   10.18430412
_cell_angle_alpha   17.36110898
_cell_angle_beta   16.50593801
_cell_angle_gamma   16.50594054
_symmetry_Int_Tables_number   1
_chemical_formula_structural   Li3Co2SbO6
_chemical_formula_sum   'Li3 Co2 Sb1 O6'
_cell_volume   118.32682324
_cell_formula_units_Z   1
loop_
 _symmetry_equiv_pos_site_id
 _symmetry_equiv_pos_as_xyz
  1  'x, y, z'
loop_
 _atom_site_type_symbol
 _atom_site_label
 _atom_site_symmetry_multiplicity
 _atom_site_fract_x
 _atom_site_fract_y
 _atom_site_fract_z
 _atom_site_occupancy
  Li  Li0  1  0.166667  0.500000  0.500000  1
  Li  Li1  1  0.499065  0.491925  0.491925  1
  Li  Li2  1  0.834268  0.508074  0.508074  1
  Co  Co3  1  0.929659  0.054729  0.054729  1
  Co  Co4  1  0.403674  0.945271  0.945271  1
  Sb  Sb5  1  0.666667  0.000000  0.000000  1
  O  O6  1  0.253210  0.255823  0.255823  1
  O  O7  1  0.569643  0.256966  0.256966  1
  O  O8  1  0.080123  0.744177  0.744177  1
  O  O9  1  0.887254  0.278643  0.278643  1
  O  O10  1  0.446079  0.721357  0.721357  1
  O  O11  1  0.763691  0.743034  0.743034  1
