# generated using pymatgen
data_V5BiO10
_symmetry_space_group_name_H-M   'P 1'
_cell_length_a   10.07838366
_cell_length_b   10.35878832
_cell_length_c   10.08547374
_cell_angle_alpha   60.91241381
_cell_angle_beta   90.04875130
_cell_angle_gamma   61.13587751
_symmetry_Int_Tables_number   1
_chemical_formula_structural   V5BiO10
_chemical_formula_sum   'V20 Bi4 O40'
_cell_volume   766.70480150
_cell_formula_units_Z   4
loop_
 _symmetry_equiv_pos_site_id
 _symmetry_equiv_pos_as_xyz
  1  'x, y, z'
loop_
 _atom_site_type_symbol
 _atom_site_label
 _atom_site_symmetry_multiplicity
 _atom_site_fract_x
 _atom_site_fract_y
 _atom_site_fract_z
 _atom_site_occupancy
  V  V0  1  0.046442  0.196453  0.571884  1
  V  V1  1  0.170712  0.996791  0.356344  1
  V  V2  1  0.229957  0.202472  0.041790  1
  V  V3  1  0.031231  0.597409  0.848436  1
  V  V4  1  0.356558  0.998720  0.830508  1
  V  V5  1  0.154595  0.399375  0.629929  1
  V  V6  1  0.443484  0.403315  0.968554  1
  V  V7  1  0.644714  0.005172  0.165868  1
  V  V8  1  0.245606  0.798467  0.769835  1
  V  V9  1  0.367353  0.598012  0.553474  1
  V  V10  1  0.568043  0.204725  0.750721  1
  V  V11  1  0.428428  0.804612  0.243772  1
  V  V12  1  0.831417  0.995696  0.642964  1
  V  V13  1  0.632496  0.394068  0.447071  1
  V  V14  1  0.554714  0.603088  0.028821  1
  V  V15  1  0.753622  0.207810  0.226920  1
  V  V16  1  0.843938  0.590958  0.373278  1
  V  V17  1  0.967081  0.401434  0.154416  1
  V  V18  1  0.768527  0.803242  0.958142  1
  V  V19  1  0.950311  0.799297  0.431302  1
  Bi  Bi20  1  0.413422  0.177743  0.408374  1
  Bi  Bi21  1  0.192672  0.621413  0.192548  1
  Bi  Bi22  1  0.981903  0.038472  0.984427  1
  Bi  Bi23  1  0.614642  0.762705  0.616423  1
  O  O24  1  0.149467  0.005790  0.805033  1
  O  O25  1  0.162205  0.006765  0.540312  1
  O  O26  1  0.184601  0.011551  0.143239  1
  O  O27  1  0.002155  0.609547  0.044167  1
  O  O28  1  0.209186  0.187162  0.254068  1
  O  O29  1  0.234745  0.206967  0.856388  1
  O  O30  1  0.042866  0.590630  0.664179  1
  O  O31  1  0.048435  0.596954  0.396298  1
  O  O32  1  0.249820  0.200978  0.593590  1
  O  O33  1  0.256147  0.400450  0.968973  1
  O  O34  1  0.450609  0.009079  0.156788  1
  O  O35  1  0.052144  0.798474  0.762444  1
  O  O36  1  0.138125  0.813663  0.430280  1
  O  O37  1  0.341576  0.392272  0.637526  1
  O  O38  1  0.547534  0.003727  0.835083  1
  O  O39  1  0.349521  0.598142  0.010248  1
  O  O40  1  0.550331  0.205810  0.206835  1
  O  O41  1  0.365522  0.588734  0.749652  1
  O  O42  1  0.556076  0.212184  0.937787  1
  O  O43  1  0.597127  0.186550  0.554199  1
  O  O44  1  0.392135  0.603805  0.348447  1
  O  O45  1  0.404224  0.805876  0.447399  1
  O  O46  1  0.601953  0.385763  0.647315  1
  O  O47  1  0.802731  0.002510  0.844830  1
  O  O48  1  0.440198  0.792752  0.056348  1
  O  O49  1  0.828747  0.006366  0.455579  1
  O  O50  1  0.638643  0.402387  0.253383  1
  O  O51  1  0.636333  0.407405  0.003328  1
  O  O52  1  0.453885  0.790364  0.794240  1
  O  O53  1  0.844570  0.008851  0.189745  1
  O  O54  1  0.863463  0.188293  0.568623  1
  O  O55  1  0.661911  0.599208  0.364545  1
  O  O56  1  0.740258  0.607112  0.032278  1
  O  O57  1  0.941310  0.192933  0.241213  1
  O  O58  1  0.963008  0.392315  0.597799  1
  O  O59  1  0.752564  0.794960  0.405204  1
  O  O60  1  0.964989  0.395283  0.348205  1
  O  O61  1  0.768272  0.793337  0.143630  1
  O  O62  1  0.005708  0.402521  0.960035  1
  O  O63  1  0.797512  0.795360  0.754924  1
