# generated using pymatgen
data_LiNiPO4
_symmetry_space_group_name_H-M   'P 1'
_cell_length_a   9.51371861
_cell_length_b   6.22417180
_cell_length_c   4.85518149
_cell_angle_alpha   90.00000935
_cell_angle_beta   90.00128606
_cell_angle_gamma   90.00009659
_symmetry_Int_Tables_number   1
_chemical_formula_structural   LiNiPO4
_chemical_formula_sum   'Li4 Ni4 P4 O16'
_cell_volume   287.49966456
_cell_formula_units_Z   4
loop_
 _symmetry_equiv_pos_site_id
 _symmetry_equiv_pos_as_xyz
  1  'x, y, z'
loop_
 _atom_site_type_symbol
 _atom_site_label
 _atom_site_symmetry_multiplicity
 _atom_site_fract_x
 _atom_site_fract_y
 _atom_site_fract_z
 _atom_site_occupancy
  Li  Li0  1  0.999999  0.999996  0.000007  1
  Li  Li1  1  0.999999  0.500004  0.000007  1
  Li  Li2  1  0.500007  0.999986  0.499992  1
  Li  Li3  1  0.500007  0.500014  0.499992  1
  Ni  Ni4  1  0.147357  0.749999  0.463882  1
  Ni  Ni5  1  0.352642  0.250001  0.963886  1
  Ni  Ni6  1  0.647357  0.749995  0.036115  1
  Ni  Ni7  1  0.852663  0.249999  0.536134  1
  P  P8  1  0.183048  0.250000  0.464146  1
  P  P9  1  0.316943  0.750000  0.964158  1
  P  P10  1  0.683071  0.250000  0.035856  1
  P  P11  1  0.816979  0.749999  0.535915  1
  O  O12  1  0.162866  0.250000  0.780634  1
  O  O13  1  0.110731  0.050265  0.339817  1
  O  O14  1  0.110732  0.449735  0.339817  1
  O  O15  1  0.157524  0.750001  0.882582  1
  O  O16  1  0.342474  0.250000  0.382567  1
  O  O17  1  0.389269  0.949742  0.839806  1
  O  O18  1  0.389269  0.550259  0.839806  1
  O  O19  1  0.337133  0.750000  0.280637  1
  O  O20  1  0.662866  0.250001  0.719354  1
  O  O21  1  0.610733  0.050264  0.160180  1
  O  O22  1  0.610733  0.449735  0.160180  1
  O  O23  1  0.657515  0.750000  0.617420  1
  O  O24  1  0.842461  0.250000  0.117426  1
  O  O25  1  0.889247  0.550318  0.660167  1
  O  O26  1  0.889248  0.949683  0.660168  1
  O  O27  1  0.837125  0.750000  0.219347  1
