# generated using pymatgen
data_Li5Mn6(BO3)6
_symmetry_space_group_name_H-M   'P 1'
_cell_length_a   9.14488344
_cell_length_b   9.13762213
_cell_length_c   11.61007400
_cell_angle_alpha   66.82520219
_cell_angle_beta   68.44993393
_cell_angle_gamma   60.07891151
_symmetry_Int_Tables_number   1
_chemical_formula_structural   Li5Mn6(BO3)6
_chemical_formula_sum   'Li10 Mn12 B12 O36'
_cell_volume   754.99120561
_cell_formula_units_Z   2
loop_
 _symmetry_equiv_pos_site_id
 _symmetry_equiv_pos_as_xyz
  1  'x, y, z'
loop_
 _atom_site_type_symbol
 _atom_site_label
 _atom_site_symmetry_multiplicity
 _atom_site_fract_x
 _atom_site_fract_y
 _atom_site_fract_z
 _atom_site_occupancy
  Li  Li0  1  0.446133  0.095945  0.334182  1
  Li  Li1  1  0.742479  0.087127  0.086645  1
  Li  Li2  1  0.115559  0.766691  0.329587  1
  Li  Li3  1  0.243864  0.581398  0.590009  1
  Li  Li4  1  0.408190  0.759975  0.085411  1
  Li  Li5  1  0.781550  0.420890  0.335518  1
  Li  Li6  1  0.613656  0.289299  0.831761  1
  Li  Li7  1  0.910910  0.247017  0.586109  1
  Li  Li8  1  0.279809  0.965178  0.834689  1
  Li  Li9  1  0.943617  0.624504  0.836226  1
  Mn  Mn10  1  0.060884  0.094779  0.118487  1
  Mn  Mn11  1  0.097558  0.432674  0.365336  1
  Mn  Mn12  1  0.388654  0.404814  0.113819  1
  Mn  Mn13  1  0.267182  0.278934  0.872248  1
  Mn  Mn14  1  0.767698  0.083029  0.371999  1
  Mn  Mn15  1  0.562651  0.225878  0.618641  1
  Mn  Mn16  1  0.444484  0.752024  0.366392  1
  Mn  Mn17  1  0.256637  0.903718  0.616236  1
  Mn  Mn18  1  0.756117  0.724065  0.117023  1
  Mn  Mn19  1  0.597428  0.605998  0.865439  1
  Mn  Mn20  1  0.891242  0.592635  0.614402  1
  Mn  Mn21  1  0.942670  0.938270  0.865283  1
  B  B22  1  0.099317  0.094212  0.373235  1
  B  B23  1  0.413390  0.054665  0.122787  1
  B  B24  1  0.223124  0.250933  0.627379  1
  B  B25  1  0.069392  0.744053  0.123440  1
  B  B26  1  0.426054  0.423975  0.374092  1
  B  B27  1  0.722770  0.399812  0.125406  1
  B  B28  1  0.264585  0.607572  0.867528  1
  B  B29  1  0.570529  0.561696  0.625575  1
  B  B30  1  0.925279  0.276115  0.875216  1
  B  B31  1  0.766938  0.760460  0.367725  1
  B  B32  1  0.596737  0.935570  0.874781  1
  B  B33  1  0.914522  0.909556  0.622351  1
  O  O34  1  0.042546  0.018109  0.323319  1
  O  O35  1  0.266838  0.151542  0.070995  1
  O  O36  1  0.261921  0.998658  0.405643  1
  O  O37  1  0.494551  0.137309  0.137003  1
  O  O38  1  0.127165  0.563188  0.162212  1
  O  O39  1  0.073924  0.349261  0.577079  1
  O  O40  1  0.305111  0.074934  0.647912  1
  O  O41  1  0.085460  0.173599  0.912655  1
  O  O42  1  0.370020  0.342471  0.330079  1
  O  O43  1  0.290132  0.335983  0.660369  1
  O  O44  1  0.154610  0.823505  0.137010  1
  O  O45  1  0.790205  0.215074  0.157090  1
  O  O46  1  0.574904  0.500877  0.072854  1
  O  O47  1  0.326947  0.593708  0.384760  1
  O  O48  1  0.585756  0.329052  0.411513  1
  O  O49  1  0.540926  0.117712  0.826906  1
  O  O50  1  0.166358  0.537585  0.863903  1
  O  O51  1  0.976844  0.992462  0.660284  1
  O  O52  1  0.801549  0.473522  0.149346  1
  O  O53  1  0.477143  0.871796  0.160343  1
  O  O54  1  0.419243  0.661023  0.576869  1
  O  O55  1  0.656274  0.384419  0.637486  1
  O  O56  1  0.423350  0.496043  0.905674  1
  O  O57  1  0.995601  0.258174  0.392526  1
  O  O58  1  0.214030  0.788596  0.832725  1
  O  O59  1  0.826191  0.194826  0.885694  1
  O  O60  1  0.716261  0.663711  0.334052  1
  O  O61  1  0.629286  0.645101  0.665126  1
  O  O62  1  0.918546  0.845256  0.074108  1
  O  O63  1  0.669454  0.932836  0.361418  1
  O  O64  1  0.925026  0.675780  0.406843  1
  O  O65  1  0.869926  0.457267  0.831866  1
  O  O66  1  0.492690  0.856477  0.892438  1
  O  O67  1  0.768184  0.009132  0.570842  1
  O  O68  1  0.997611  0.731550  0.636817  1
  O  O69  1  0.759632  0.834459  0.906571  1
