# generated using pymatgen
data_Ti2N2O
_symmetry_space_group_name_H-M   'P 1'
_cell_length_a   8.22850229
_cell_length_b   8.23174730
_cell_length_c   8.20165665
_cell_angle_alpha   109.35059367
_cell_angle_beta   109.37143638
_cell_angle_gamma   109.57881318
_symmetry_Int_Tables_number   1
_chemical_formula_structural   Ti2N2O
_chemical_formula_sum   'Ti16 N16 O8'
_cell_volume   428.24682250
_cell_formula_units_Z   8
loop_
 _symmetry_equiv_pos_site_id
 _symmetry_equiv_pos_as_xyz
  1  'x, y, z'
loop_
 _atom_site_type_symbol
 _atom_site_label
 _atom_site_symmetry_multiplicity
 _atom_site_fract_x
 _atom_site_fract_y
 _atom_site_fract_z
 _atom_site_occupancy
  Ti  Ti0  1  0.500320  0.000482  0.986438  1
  Ti  Ti1  1  0.747931  0.298909  0.538532  1
  Ti  Ti2  1  0.212131  0.956729  0.249964  1
  Ti  Ti3  1  0.712141  0.464236  0.246991  1
  Ti  Ti4  1  0.240932  0.204449  0.946297  1
  Ti  Ti5  1  0.013044  0.514789  0.010064  1
  Ti  Ti6  1  0.966890  0.261037  0.204858  1
  Ti  Ti7  1  0.501460  0.497726  0.511883  1
  Ti  Ti8  1  0.539983  0.747174  0.300330  1
  Ti  Ti9  1  0.996129  0.996398  0.507912  1
  Ti  Ti10  1  0.455995  0.258293  0.714207  1
  Ti  Ti11  1  0.034122  0.736396  0.784195  1
  Ti  Ti12  1  0.754077  0.791048  0.043978  1
  Ti  Ti13  1  0.795454  0.041728  0.760422  1
  Ti  Ti14  1  0.286850  0.541301  0.745808  1
  Ti  Ti15  1  0.253080  0.701515  0.462884  1
  N  N16  1  0.724899  0.992660  0.953426  1
  N  N17  1  0.511106  0.233567  0.960340  1
  N  N18  1  0.458124  0.223495  0.450224  1
  N  N19  1  0.773977  0.548318  0.536912  1
  N  N20  1  0.773176  0.727403  0.266330  1
  N  N21  1  0.052807  0.275736  0.012035  1
  N  N22  1  0.957708  0.506680  0.233044  1
  N  N23  1  0.223886  0.448307  0.460701  1
  N  N24  1  0.550914  0.539487  0.777980  1
  N  N25  1  0.279000  0.740331  0.225442  1
  N  N26  1  0.541109  0.773338  0.546505  1
  N  N27  1  0.951393  0.726361  0.992811  1
  N  N28  1  0.988633  0.950309  0.723358  1
  N  N29  1  0.222992  0.270485  0.732932  1
  N  N30  1  0.037446  0.486797  0.761722  1
  N  N31  1  0.270529  0.779538  0.727554  1
  O  O32  1  0.273861  0.007582  0.049440  1
  O  O33  1  0.768148  0.042621  0.490214  1
  O  O34  1  0.729877  0.221695  0.277256  1
  O  O35  1  0.448593  0.461871  0.220678  1
  O  O36  1  0.225044  0.956073  0.502694  1
  O  O37  1  0.723275  0.258266  0.767275  1
  O  O38  1  0.011145  0.049644  0.274625  1
  O  O39  1  0.491821  0.767227  0.041743  1
