# generated using pymatgen
data_NiOF2
_symmetry_space_group_name_H-M   'P 1'
_cell_length_a   7.90607531
_cell_length_b   4.00263227
_cell_length_c   7.58036933
_cell_angle_alpha   90.00000000
_cell_angle_beta   112.57410996
_cell_angle_gamma   90.00000000
_symmetry_Int_Tables_number   1
_chemical_formula_structural   NiOF2
_chemical_formula_sum   'Ni4 O4 F8'
_cell_volume   221.50281154
_cell_formula_units_Z   4
loop_
 _symmetry_equiv_pos_site_id
 _symmetry_equiv_pos_as_xyz
  1  'x, y, z'
loop_
 _atom_site_type_symbol
 _atom_site_label
 _atom_site_symmetry_multiplicity
 _atom_site_fract_x
 _atom_site_fract_y
 _atom_site_fract_z
 _atom_site_occupancy
  Ni  Ni0  1  0.339859  0.230174  0.686597  1
  Ni  Ni1  1  0.339859  0.269826  0.186597  1
  Ni  Ni2  1  0.660141  0.730174  0.813403  1
  Ni  Ni3  1  0.660141  0.769826  0.313403  1
  O  O4  1  0.974644  0.611726  0.938831  1
  O  O5  1  0.974644  0.888274  0.438831  1
  O  O6  1  0.025356  0.111726  0.561169  1
  O  O7  1  0.025356  0.388274  0.061169  1
  F  F8  1  0.286565  0.251370  0.915167  1
  F  F9  1  0.286565  0.248630  0.415167  1
  F  F10  1  0.380313  0.733150  0.702054  1
  F  F11  1  0.380313  0.766850  0.202054  1
  F  F12  1  0.619687  0.233150  0.797946  1
  F  F13  1  0.619687  0.266850  0.297946  1
  F  F14  1  0.713435  0.751370  0.584833  1
  F  F15  1  0.713435  0.748630  0.084833  1
