# generated using pymatgen
data_LiMnB3(HO3)3
_symmetry_space_group_name_H-M   'P 1'
_cell_length_a   11.64231370
_cell_length_b   9.11765718
_cell_length_c   14.23762224
_cell_angle_alpha   90.00000000
_cell_angle_beta   90.00000000
_cell_angle_gamma   90.00000000
_symmetry_Int_Tables_number   1
_chemical_formula_structural   LiMnB3(HO3)3
_chemical_formula_sum   'Li8 Mn8 B24 H24 O72'
_cell_volume   1511.33250069
_cell_formula_units_Z   8
loop_
 _symmetry_equiv_pos_site_id
 _symmetry_equiv_pos_as_xyz
  1  'x, y, z'
loop_
 _atom_site_type_symbol
 _atom_site_label
 _atom_site_symmetry_multiplicity
 _atom_site_fract_x
 _atom_site_fract_y
 _atom_site_fract_z
 _atom_site_occupancy
  Li  Li0  1  0.000000  0.163278  0.250000  1
  Li  Li1  1  0.000000  0.505217  0.250000  1
  Li  Li2  1  0.000000  0.494783  0.750000  1
  Li  Li3  1  0.000000  0.836722  0.750000  1
  Li  Li4  1  0.500000  0.663278  0.250000  1
  Li  Li5  1  0.500000  0.994783  0.750000  1
  Li  Li6  1  0.500000  0.336722  0.750000  1
  Li  Li7  1  0.500000  0.005217  0.250000  1
  Mn  Mn8  1  0.234093  0.342132  0.326918  1
  Mn  Mn9  1  0.234093  0.657868  0.826918  1
  Mn  Mn10  1  0.265907  0.157868  0.826918  1
  Mn  Mn11  1  0.265907  0.842132  0.326918  1
  Mn  Mn12  1  0.734093  0.157868  0.673082  1
  Mn  Mn13  1  0.734093  0.842132  0.173082  1
  Mn  Mn14  1  0.765907  0.342132  0.173082  1
  Mn  Mn15  1  0.765907  0.657868  0.673082  1
  B  B16  1  0.147393  0.031600  0.082544  1
  B  B17  1  0.147393  0.968400  0.582544  1
  B  B18  1  0.145779  0.531103  0.075058  1
  B  B19  1  0.145779  0.468897  0.575058  1
  B  B20  1  0.243436  0.089716  0.446046  1
  B  B21  1  0.243436  0.910284  0.946046  1
  B  B22  1  0.256564  0.410284  0.946046  1
  B  B23  1  0.256564  0.589716  0.446046  1
  B  B24  1  0.354221  0.031103  0.075058  1
  B  B25  1  0.354221  0.968897  0.575058  1
  B  B26  1  0.352607  0.531600  0.082544  1
  B  B27  1  0.352607  0.468400  0.582544  1
  B  B28  1  0.647393  0.468400  0.917456  1
  B  B29  1  0.647393  0.531600  0.417456  1
  B  B30  1  0.645779  0.031103  0.424942  1
  B  B31  1  0.645779  0.968897  0.924942  1
  B  B32  1  0.743436  0.410284  0.553954  1
  B  B33  1  0.743436  0.589716  0.053954  1
  B  B34  1  0.756564  0.089716  0.053954  1
  B  B35  1  0.756564  0.910284  0.553954  1
  B  B36  1  0.854221  0.468897  0.924942  1
  B  B37  1  0.854221  0.531103  0.424942  1
  B  B38  1  0.852607  0.031600  0.417456  1
  B  B39  1  0.852607  0.968400  0.917456  1
  H  H40  1  0.981260  0.062639  0.084863  1
  H  H41  1  0.981260  0.937361  0.584863  1
  H  H42  1  0.024048  0.560442  0.423122  1
  H  H43  1  0.024048  0.439558  0.923122  1
  H  H44  1  0.200286  0.286883  0.700812  1
  H  H45  1  0.200286  0.713117  0.200812  1
  H  H46  1  0.299714  0.213117  0.200812  1
  H  H47  1  0.299714  0.786883  0.700812  1
  H  H48  1  0.475952  0.060442  0.423122  1
  H  H49  1  0.475952  0.939558  0.923122  1
  H  H50  1  0.518740  0.562639  0.084863  1
  H  H51  1  0.518740  0.437361  0.584863  1
  H  H52  1  0.481260  0.437361  0.915137  1
  H  H53  1  0.481260  0.562639  0.415137  1
  H  H54  1  0.524048  0.060442  0.076878  1
  H  H55  1  0.524048  0.939558  0.576878  1
  H  H56  1  0.700286  0.786883  0.799188  1
  H  H57  1  0.700286  0.213117  0.299188  1
  H  H58  1  0.799714  0.286883  0.799188  1
  H  H59  1  0.799714  0.713117  0.299188  1
  H  H60  1  0.975952  0.439558  0.576878  1
  H  H61  1  0.975952  0.560442  0.076878  1
  H  H62  1  0.018740  0.062639  0.415137  1
  H  H63  1  0.018740  0.937361  0.915137  1
  O  O64  1  0.044502  0.569489  0.118430  1
  O  O65  1  0.044502  0.430511  0.618430  1
  O  O66  1  0.048764  0.082401  0.125148  1
  O  O67  1  0.048764  0.917599  0.625148  1
  O  O68  1  0.103533  0.334298  0.283914  1
  O  O69  1  0.103533  0.665702  0.783914  1
  O  O70  1  0.141902  0.948851  0.002874  1
  O  O71  1  0.141902  0.051149  0.502874  1
  O  O72  1  0.147837  0.542082  0.491346  1
  O  O73  1  0.147837  0.457918  0.991346  1
  O  O74  1  0.165198  0.791217  0.240577  1
  O  O75  1  0.165198  0.208783  0.740577  1
  O  O76  1  0.229289  0.025415  0.351283  1
  O  O77  1  0.229289  0.974585  0.851283  1
  O  O78  1  0.248497  0.250069  0.433642  1
  O  O79  1  0.248497  0.749931  0.933642  1
  O  O80  1  0.246598  0.430558  0.622155  1
  O  O81  1  0.246598  0.569442  0.122155  1
  O  O82  1  0.253402  0.069442  0.122155  1
  O  O83  1  0.253402  0.930558  0.622155  1
  O  O84  1  0.251503  0.750069  0.433642  1
  O  O85  1  0.251503  0.249931  0.933642  1
  O  O86  1  0.270711  0.474585  0.851283  1
  O  O87  1  0.270711  0.525415  0.351283  1
  O  O88  1  0.334802  0.291217  0.240577  1
  O  O89  1  0.334802  0.708783  0.740577  1
  O  O90  1  0.352163  0.042082  0.491346  1
  O  O91  1  0.352163  0.957918  0.991346  1
  O  O92  1  0.358098  0.551149  0.502874  1
  O  O93  1  0.358098  0.448851  0.002874  1
  O  O94  1  0.396467  0.834298  0.283914  1
  O  O95  1  0.396467  0.165702  0.783914  1
  O  O96  1  0.451236  0.582401  0.125148  1
  O  O97  1  0.451236  0.417599  0.625148  1
  O  O98  1  0.455498  0.069489  0.118430  1
  O  O99  1  0.455498  0.930511  0.618430  1
  O  O100  1  0.544502  0.069489  0.381570  1
  O  O101  1  0.544502  0.930511  0.881570  1
  O  O102  1  0.548764  0.582401  0.374852  1
  O  O103  1  0.548764  0.417599  0.874852  1
  O  O104  1  0.603533  0.834298  0.216086  1
  O  O105  1  0.603533  0.165702  0.716086  1
  O  O106  1  0.641902  0.448851  0.497126  1
  O  O107  1  0.641902  0.551149  0.997126  1
  O  O108  1  0.647837  0.042082  0.008654  1
  O  O109  1  0.647837  0.957918  0.508654  1
  O  O110  1  0.665198  0.291217  0.259423  1
  O  O111  1  0.665198  0.708783  0.759423  1
  O  O112  1  0.729289  0.474585  0.648717  1
  O  O113  1  0.729289  0.525415  0.148717  1
  O  O114  1  0.748498  0.249931  0.566358  1
  O  O115  1  0.748498  0.750069  0.066358  1
  O  O116  1  0.746598  0.930558  0.877845  1
  O  O117  1  0.746598  0.069442  0.377845  1
  O  O118  1  0.753402  0.430558  0.877845  1
  O  O119  1  0.753402  0.569442  0.377845  1
  O  O120  1  0.751502  0.250069  0.066358  1
  O  O121  1  0.751502  0.749931  0.566358  1
  O  O122  1  0.770711  0.025415  0.148717  1
  O  O123  1  0.770711  0.974585  0.648717  1
  O  O124  1  0.834802  0.208783  0.759423  1
  O  O125  1  0.834802  0.791217  0.259423  1
  O  O126  1  0.852163  0.457918  0.508654  1
  O  O127  1  0.852163  0.542082  0.008654  1
  O  O128  1  0.858098  0.051149  0.997126  1
  O  O129  1  0.858098  0.948851  0.497126  1
  O  O130  1  0.896467  0.334298  0.216086  1
  O  O131  1  0.896467  0.665702  0.716086  1
  O  O132  1  0.951236  0.082401  0.374852  1
  O  O133  1  0.951236  0.917599  0.874852  1
  O  O134  1  0.955498  0.430511  0.881570  1
  O  O135  1  0.955498  0.569489  0.381570  1
