# generated using pymatgen
data_Li4Fe5Cu3O16
_symmetry_space_group_name_H-M   'P 1'
_cell_length_a   5.91311908
_cell_length_b   5.85010285
_cell_length_c   9.50225351
_cell_angle_alpha   89.98934970
_cell_angle_beta   89.23732898
_cell_angle_gamma   119.62670318
_symmetry_Int_Tables_number   1
_chemical_formula_structural   Li4Fe5Cu3O16
_chemical_formula_sum   'Li4 Fe5 Cu3 O16'
_cell_volume   285.69794206
_cell_formula_units_Z   1
loop_
 _symmetry_equiv_pos_site_id
 _symmetry_equiv_pos_as_xyz
  1  'x, y, z'
loop_
 _atom_site_type_symbol
 _atom_site_label
 _atom_site_symmetry_multiplicity
 _atom_site_fract_x
 _atom_site_fract_y
 _atom_site_fract_z
 _atom_site_occupancy
  Li  Li0  1  0.320122  0.660322  0.895363  1
  Li  Li1  1  0.000428  0.000302  0.996923  1
  Li  Li2  1  0.012799  0.006210  0.492986  1
  Li  Li3  1  0.673641  0.336815  0.393406  1
  Fe  Fe4  1  0.342069  0.670968  0.491140  1
  Fe  Fe5  1  0.657024  0.828624  0.214413  1
  Fe  Fe6  1  0.655602  0.327938  0.990543  1
  Fe  Fe7  1  0.831094  0.661586  0.715554  1
  Fe  Fe8  1  0.831116  0.169466  0.715521  1
  Cu  Cu9  1  0.169200  0.829290  0.212872  1
  Cu  Cu10  1  0.169375  0.340163  0.212818  1
  Cu  Cu11  1  0.342272  0.171203  0.711450  1
  O  O12  1  0.166987  0.833885  0.596376  1
  O  O13  1  0.044698  0.522197  0.341034  1
  O  O14  1  0.322569  0.661396  0.107278  1
  O  O15  1  0.008562  0.004099  0.302644  1
  O  O16  1  0.015475  0.007627  0.807958  1
  O  O17  1  0.167428  0.332590  0.596430  1
  O  O18  1  0.493132  0.965868  0.342601  1
  O  O19  1  0.493608  0.527659  0.342646  1
  O  O20  1  0.319050  0.159577  0.099142  1
  O  O21  1  0.679160  0.839494  0.600238  1
  O  O22  1  0.514897  0.482129  0.842858  1
  O  O23  1  0.514417  0.033148  0.842720  1
  O  O24  1  0.663030  0.331516  0.603824  1
  O  O25  1  0.816073  0.665176  0.098707  1
  O  O26  1  0.960527  0.480247  0.841787  1
  O  O27  1  0.815643  0.150805  0.098607  1
