# generated using pymatgen
data_TiFe5(PO4)6
_symmetry_space_group_name_H-M   'P 1'
_cell_length_a   8.47175400
_cell_length_b   8.65061657
_cell_length_c   8.65061618
_cell_angle_alpha   59.99999997
_cell_angle_beta   59.29909806
_cell_angle_gamma   59.29910194
_symmetry_Int_Tables_number   1
_chemical_formula_structural   TiFe5(PO4)6
_chemical_formula_sum   'Ti1 Fe5 P6 O24'
_cell_volume   443.47517300
_cell_formula_units_Z   1
loop_
 _symmetry_equiv_pos_site_id
 _symmetry_equiv_pos_as_xyz
  1  'x, y, z'
loop_
 _atom_site_type_symbol
 _atom_site_label
 _atom_site_symmetry_multiplicity
 _atom_site_fract_x
 _atom_site_fract_y
 _atom_site_fract_z
 _atom_site_occupancy
  Ti  Ti0  1  0.571046  0.142984  0.142984  1
  Fe  Fe1  1  0.003938  0.998687  0.998687  1
  Fe  Fe2  1  0.060176  0.646608  0.646608  1
  Fe  Fe3  1  0.502553  0.499149  0.499149  1
  Fe  Fe4  1  0.432629  0.855790  0.855790  1
  Fe  Fe5  1  0.938963  0.353679  0.353679  1
  P  P6  1  0.251162  0.251455  0.544526  1
  P  P7  1  0.251162  0.952857  0.251455  1
  P  P8  1  0.251162  0.544526  0.952857  1
  P  P9  1  0.746487  0.456203  0.047499  1
  P  P10  1  0.746487  0.047499  0.749812  1
  P  P11  1  0.746487  0.749812  0.456203  1
  O  O12  1  0.067834  0.106059  0.325166  1
  O  O13  1  0.067834  0.500941  0.106059  1
  O  O14  1  0.067834  0.325166  0.500941  1
  O  O15  1  0.226848  0.094946  0.741075  1
  O  O16  1  0.432343  0.180456  0.381980  1
  O  O17  1  0.287887  0.408603  0.551023  1
  O  O18  1  0.226848  0.937131  0.094946  1
  O  O19  1  0.287887  0.752486  0.408603  1
  O  O20  1  0.563352  0.611120  0.005621  1
  O  O21  1  0.287887  0.551023  0.752486  1
  O  O22  1  0.770513  0.256460  0.065737  1
  O  O23  1  0.563352  0.005621  0.819906  1
  O  O24  1  0.432343  0.005221  0.180456  1
  O  O25  1  0.226848  0.741075  0.937131  1
  O  O26  1  0.718107  0.441410  0.248967  1
  O  O27  1  0.432343  0.381980  0.005221  1
  O  O28  1  0.718107  0.248967  0.591516  1
  O  O29  1  0.770513  0.065737  0.907290  1
  O  O30  1  0.718107  0.591516  0.441410  1
  O  O31  1  0.563352  0.819906  0.611120  1
  O  O32  1  0.770513  0.907290  0.256460  1
  O  O33  1  0.932365  0.681176  0.494700  1
  O  O34  1  0.932365  0.494700  0.891759  1
  O  O35  1  0.932365  0.891759  0.681176  1
