# generated using pymatgen
data_Zr2N2O
_symmetry_space_group_name_H-M   'P 1'
_cell_length_a   8.89733256
_cell_length_b   8.88694147
_cell_length_c   8.84913782
_cell_angle_alpha   109.40436248
_cell_angle_beta   109.39305461
_cell_angle_gamma   109.61130539
_symmetry_Int_Tables_number   1
_chemical_formula_structural   Zr2N2O
_chemical_formula_sum   'Zr16 N16 O8'
_cell_volume   538.66180775
_cell_formula_units_Z   8
loop_
 _symmetry_equiv_pos_site_id
 _symmetry_equiv_pos_as_xyz
  1  'x, y, z'
loop_
 _atom_site_type_symbol
 _atom_site_label
 _atom_site_symmetry_multiplicity
 _atom_site_fract_x
 _atom_site_fract_y
 _atom_site_fract_z
 _atom_site_occupancy
  Zr  Zr0  1  0.499034  0.998405  0.987504  1
  Zr  Zr1  1  0.756566  0.296078  0.539331  1
  Zr  Zr2  1  0.212000  0.955691  0.249086  1
  Zr  Zr3  1  0.719617  0.472590  0.249318  1
  Zr  Zr4  1  0.241227  0.210597  0.955604  1
  Zr  Zr5  1  0.009602  0.508787  0.006219  1
  Zr  Zr6  1  0.968991  0.259051  0.212115  1
  Zr  Zr7  1  0.501637  0.509097  0.511364  1
  Zr  Zr8  1  0.537365  0.750061  0.292584  1
  Zr  Zr9  1  0.007128  0.996400  0.505432  1
  Zr  Zr10  1  0.456960  0.249986  0.720922  1
  Zr  Zr11  1  0.029205  0.741109  0.778155  1
  Zr  Zr12  1  0.750513  0.782263  0.032277  1
  Zr  Zr13  1  0.790188  0.034330  0.757918  1
  Zr  Zr14  1  0.282338  0.532992  0.743726  1
  Zr  Zr15  1  0.250453  0.713206  0.465550  1
  N  N16  1  0.725990  0.990012  0.957093  1
  N  N17  1  0.513491  0.237703  0.968104  1
  N  N18  1  0.767978  0.729413  0.260583  1
  N  N19  1  0.235138  0.966858  0.507811  1
  N  N20  1  0.767902  0.539217  0.528007  1
  N  N21  1  0.047196  0.274908  0.012410  1
  N  N22  1  0.275609  0.739598  0.223606  1
  N  N23  1  0.227234  0.449916  0.464359  1
  N  N24  1  0.545770  0.534141  0.773280  1
  N  N25  1  0.959033  0.732148  0.993081  1
  N  N26  1  0.963678  0.508607  0.237478  1
  N  N27  1  0.536988  0.770188  0.542755  1
  N  N28  1  0.987862  0.954349  0.727182  1
  N  N29  1  0.225196  0.271151  0.739213  1
  N  N30  1  0.028316  0.481633  0.755522  1
  N  N31  1  0.264751  0.776259  0.732780  1
  O  O32  1  0.759097  0.036062  0.486921  1
  O  O33  1  0.279372  0.016725  0.053824  1
  O  O34  1  0.736377  0.220562  0.275718  1
  O  O35  1  0.464953  0.225148  0.452966  1
  O  O36  1  0.451248  0.466328  0.225267  1
  O  O37  1  0.723597  0.256698  0.764019  1
  O  O38  1  0.011254  0.046923  0.273928  1
  O  O39  1  0.489147  0.764814  0.036992  1
