# generated using pymatgen
data_K4Sb2O5
_symmetry_space_group_name_H-M   'P 1'
_cell_length_a   7.97489945
_cell_length_b   18.36148695
_cell_length_c   6.45030172
_cell_angle_alpha   90.00004345
_cell_angle_beta   89.99878145
_cell_angle_gamma   89.99998061
_symmetry_Int_Tables_number   1
_chemical_formula_structural   K4Sb2O5
_chemical_formula_sum   'K16 Sb8 O20'
_cell_volume   944.52420961
_cell_formula_units_Z   4
loop_
 _symmetry_equiv_pos_site_id
 _symmetry_equiv_pos_as_xyz
  1  'x, y, z'
loop_
 _atom_site_type_symbol
 _atom_site_label
 _atom_site_symmetry_multiplicity
 _atom_site_fract_x
 _atom_site_fract_y
 _atom_site_fract_z
 _atom_site_occupancy
  K  K0  1  0.999906  0.097758  0.250000  1
  K  K1  1  0.000078  0.236740  0.749997  1
  K  K2  1  0.000077  0.901899  0.750000  1
  K  K3  1  0.999924  0.762067  0.250000  1
  K  K4  1  0.250075  0.262067  0.250000  1
  K  K5  1  0.249922  0.401899  0.750000  1
  K  K6  1  0.250095  0.597758  0.250000  1
  K  K7  1  0.249923  0.736740  0.750003  1
  K  K8  1  0.500076  0.098101  0.250000  1
  K  K9  1  0.499924  0.237933  0.750001  1
  K  K10  1  0.499905  0.902242  0.750000  1
  K  K11  1  0.500077  0.763260  0.249997  1
  K  K12  1  0.749924  0.598101  0.250000  1
  K  K13  1  0.750075  0.737933  0.749999  1
  K  K14  1  0.750095  0.402242  0.750000  1
  K  K15  1  0.749923  0.263260  0.250003  1
  Sb  Sb16  1  0.996850  0.417511  0.250003  1
  Sb  Sb17  1  0.003159  0.582476  0.749997  1
  Sb  Sb18  1  0.246841  0.082476  0.750003  1
  Sb  Sb19  1  0.253151  0.917511  0.249997  1
  Sb  Sb20  1  0.503159  0.417524  0.249997  1
  Sb  Sb21  1  0.496850  0.582489  0.750003  1
  Sb  Sb22  1  0.746841  0.917524  0.250003  1
  Sb  Sb23  1  0.753150  0.082489  0.749997  1
  O  O24  1  0.000031  0.052660  0.750000  1
  O  O25  1  0.000919  0.348347  0.478010  1
  O  O26  1  0.999097  0.651651  0.522015  1
  O  O27  1  0.000924  0.348350  0.022006  1
  O  O28  1  0.999093  0.651648  0.977968  1
  O  O29  1  0.249969  0.552660  0.750000  1
  O  O30  1  0.249082  0.848347  0.021990  1
  O  O31  1  0.249077  0.848350  0.477994  1
  O  O32  1  0.250902  0.151651  0.977984  1
  O  O33  1  0.250907  0.151648  0.522032  1
  O  O34  1  0.500924  0.651650  0.522006  1
  O  O35  1  0.499097  0.348349  0.022015  1
  O  O36  1  0.499093  0.348352  0.477969  1
  O  O37  1  0.500919  0.651653  0.978010  1
  O  O38  1  0.500031  0.947340  0.250000  1
  O  O39  1  0.750907  0.848352  0.022032  1
  O  O40  1  0.750902  0.848349  0.477985  1
  O  O41  1  0.749081  0.151653  0.521990  1
  O  O42  1  0.749076  0.151650  0.977994  1
  O  O43  1  0.749969  0.447340  0.250000  1
