# generated using pymatgen
data_BaSr2I6
_symmetry_space_group_name_H-M   'P 1'
_cell_length_a   9.06898657
_cell_length_b   8.97438347
_cell_length_c   11.92077572
_cell_angle_alpha   92.91825705
_cell_angle_beta   84.21704651
_cell_angle_gamma   120.34932911
_symmetry_Int_Tables_number   1
_chemical_formula_structural   BaSr2I6
_chemical_formula_sum   'Ba2 Sr4 I12'
_cell_volume   832.99637122
_cell_formula_units_Z   2
loop_
 _symmetry_equiv_pos_site_id
 _symmetry_equiv_pos_as_xyz
  1  'x, y, z'
loop_
 _atom_site_type_symbol
 _atom_site_label
 _atom_site_symmetry_multiplicity
 _atom_site_fract_x
 _atom_site_fract_y
 _atom_site_fract_z
 _atom_site_occupancy
  Ba  Ba0  1  0.031580  0.063159  0.250000  1
  Ba  Ba1  1  0.968420  0.936841  0.750000  1
  Sr  Sr2  1  0.295656  0.689846  0.555085  1
  Sr  Sr3  1  0.394190  0.689846  0.944915  1
  Sr  Sr4  1  0.605810  0.310154  0.055085  1
  Sr  Sr5  1  0.704344  0.310154  0.444915  1
  I  I6  1  0.303349  0.913621  0.133966  1
  I  I7  1  0.933690  0.386058  0.194646  1
  I  I8  1  0.022113  0.264591  0.533142  1
  I  I9  1  0.242478  0.264591  0.966858  1
  I  I10  1  0.452368  0.386058  0.305354  1
  I  I11  1  0.610272  0.913621  0.366034  1
  I  I12  1  0.389728  0.086379  0.633966  1
  I  I13  1  0.547632  0.613942  0.694646  1
  I  I14  1  0.757522  0.735409  0.033142  1
  I  I15  1  0.977887  0.735409  0.466858  1
  I  I16  1  0.066310  0.613942  0.805354  1
  I  I17  1  0.696651  0.086379  0.866034  1
