# generated using pymatgen
data_Li3CrSiO5
_symmetry_space_group_name_H-M   'P 1'
_cell_length_a   6.24905057
_cell_length_b   5.73268983
_cell_length_c   5.09717924
_cell_angle_alpha   106.49197820
_cell_angle_beta   76.03552084
_cell_angle_gamma   103.66330734
_symmetry_Int_Tables_number   1
_chemical_formula_structural   Li3CrSiO5
_chemical_formula_sum   'Li6 Cr2 Si2 O10'
_cell_volume   167.13126250
_cell_formula_units_Z   2
loop_
 _symmetry_equiv_pos_site_id
 _symmetry_equiv_pos_as_xyz
  1  'x, y, z'
loop_
 _atom_site_type_symbol
 _atom_site_label
 _atom_site_symmetry_multiplicity
 _atom_site_fract_x
 _atom_site_fract_y
 _atom_site_fract_z
 _atom_site_occupancy
  Li  Li0  1  0.994474  0.756803  0.510912  1
  Li  Li1  1  0.400833  0.552385  0.297377  1
  Li  Li2  1  0.396181  0.051409  0.313764  1
  Li  Li3  1  0.603819  0.948591  0.686236  1
  Li  Li4  1  0.599167  0.447615  0.702623  1
  Li  Li5  1  0.005526  0.243197  0.489088  1
  Cr  Cr6  1  0.213452  0.654790  0.900216  1
  Cr  Cr7  1  0.786548  0.345210  0.099784  1
  Si  Si8  1  0.215358  0.151055  0.897544  1
  Si  Si9  1  0.784642  0.848945  0.102456  1
  O  O10  1  0.282964  0.880122  0.644963  1
  O  O11  1  0.280853  0.332135  0.648043  1
  O  O12  1  0.094351  0.954923  0.157489  1
  O  O13  1  0.475124  0.242339  0.000911  1
  O  O14  1  0.107378  0.421704  0.159619  1
  O  O15  1  0.892622  0.578296  0.840381  1
  O  O16  1  0.524876  0.757661  0.999089  1
  O  O17  1  0.905649  0.045077  0.842511  1
  O  O18  1  0.719147  0.667865  0.351957  1
  O  O19  1  0.717036  0.119878  0.355037  1
