# generated using pymatgen
data_BaYF5
_symmetry_space_group_name_H-M   'P 1'
_cell_length_a   6.08254601
_cell_length_b   20.47084782
_cell_length_c   8.03145680
_cell_angle_alpha   90.00000000
_cell_angle_beta   96.17622122
_cell_angle_gamma   90.00000000
_symmetry_Int_Tables_number   1
_chemical_formula_structural   BaYF5
_chemical_formula_sum   'Ba8 Y8 F40'
_cell_volume   994.23132155
_cell_formula_units_Z   8
loop_
 _symmetry_equiv_pos_site_id
 _symmetry_equiv_pos_as_xyz
  1  'x, y, z'
loop_
 _atom_site_type_symbol
 _atom_site_label
 _atom_site_symmetry_multiplicity
 _atom_site_fract_x
 _atom_site_fract_y
 _atom_site_fract_z
 _atom_site_occupancy
  Ba  Ba0  1  0.141261  0.549658  0.765391  1
  Ba  Ba1  1  0.276438  0.275516  0.468005  1
  Ba  Ba2  1  0.358739  0.049658  0.734609  1
  Ba  Ba3  1  0.223562  0.775516  0.031995  1
  Ba  Ba4  1  0.776438  0.224484  0.968005  1
  Ba  Ba5  1  0.641261  0.950342  0.265391  1
  Ba  Ba6  1  0.723562  0.724484  0.531995  1
  Ba  Ba7  1  0.858739  0.450342  0.234609  1
  Y  Y8  1  0.277026  0.369546  0.973209  1
  Y  Y9  1  0.222974  0.869546  0.526791  1
  Y  Y10  1  0.207277  0.098869  0.150776  1
  Y  Y11  1  0.292723  0.598869  0.349224  1
  Y  Y12  1  0.707277  0.401131  0.650776  1
  Y  Y13  1  0.792723  0.901131  0.849224  1
  Y  Y14  1  0.777026  0.130454  0.473209  1
  Y  Y15  1  0.722974  0.630454  0.026791  1
  F  F16  1  0.034711  0.116862  0.903778  1
  F  F17  1  0.982063  0.366205  0.518415  1
  F  F18  1  0.115855  0.156462  0.554816  1
  F  F19  1  0.112875  0.924688  0.745332  1
  F  F20  1  0.056666  0.586074  0.121205  1
  F  F21  1  0.106635  0.340729  0.185828  1
  F  F22  1  0.146273  0.284087  0.835117  1
  F  F23  1  0.111257  0.199541  0.209295  1
  F  F24  1  0.218964  0.967984  0.423273  1
  F  F25  1  0.201542  0.505089  0.439568  1
  F  F26  1  0.353727  0.784087  0.664883  1
  F  F27  1  0.298458  0.005089  0.060432  1
  F  F28  1  0.281036  0.467984  0.076727  1
  F  F29  1  0.388742  0.699541  0.290705  1
  F  F30  1  0.387125  0.424688  0.754668  1
  F  F31  1  0.384145  0.656462  0.945184  1
  F  F32  1  0.393365  0.840729  0.314172  1
  F  F33  1  0.443334  0.086074  0.378795  1
  F  F34  1  0.517937  0.866205  0.981585  1
  F  F35  1  0.465289  0.616862  0.596222  1
  F  F36  1  0.534711  0.383138  0.403778  1
  F  F37  1  0.482063  0.133795  0.018415  1
  F  F38  1  0.556666  0.913926  0.621205  1
  F  F39  1  0.606635  0.159271  0.685828  1
  F  F40  1  0.615855  0.343538  0.054816  1
  F  F41  1  0.612875  0.575312  0.245332  1
  F  F42  1  0.611258  0.300459  0.709295  1
  F  F43  1  0.718964  0.532016  0.923273  1
  F  F44  1  0.701542  0.994911  0.939568  1
  F  F45  1  0.646273  0.215913  0.335117  1
  F  F46  1  0.798458  0.494911  0.560432  1
  F  F47  1  0.781036  0.032016  0.576727  1
  F  F48  1  0.888742  0.800459  0.790705  1
  F  F49  1  0.853727  0.715913  0.164883  1
  F  F50  1  0.893365  0.659271  0.814172  1
  F  F51  1  0.943334  0.413926  0.878795  1
  F  F52  1  0.887125  0.075312  0.254668  1
  F  F53  1  0.884145  0.843538  0.445184  1
  F  F54  1  0.017937  0.633795  0.481585  1
  F  F55  1  0.965289  0.883138  0.096222  1
