# generated using pymatgen
data_Fe10O9F11
_symmetry_space_group_name_H-M   'P 1'
_cell_length_a   4.78247627
_cell_length_b   4.77972378
_cell_length_c   15.44881168
_cell_angle_alpha   90.12402835
_cell_angle_beta   90.02599392
_cell_angle_gamma   93.30841717
_symmetry_Int_Tables_number   1
_chemical_formula_structural   Fe10O9F11
_chemical_formula_sum   'Fe10 O9 F11'
_cell_volume   352.55363043
_cell_formula_units_Z   1
loop_
 _symmetry_equiv_pos_site_id
 _symmetry_equiv_pos_as_xyz
  1  'x, y, z'
loop_
 _atom_site_type_symbol
 _atom_site_label
 _atom_site_symmetry_multiplicity
 _atom_site_fract_x
 _atom_site_fract_y
 _atom_site_fract_z
 _atom_site_occupancy
  Fe  Fe0  1  0.009007  0.987427  0.005521  1
  Fe  Fe1  1  0.977925  0.954973  0.196465  1
  Fe  Fe2  1  0.999176  0.998125  0.399388  1
  Fe  Fe3  1  0.036736  0.016645  0.603296  1
  Fe  Fe4  1  0.037548  0.016312  0.796560  1
  Fe  Fe5  1  0.476664  0.537089  0.095881  1
  Fe  Fe6  1  0.498184  0.487297  0.491695  1
  Fe  Fe7  1  0.510332  0.497861  0.304827  1
  Fe  Fe8  1  0.451005  0.519856  0.699558  1
  Fe  Fe9  1  0.503024  0.477680  0.907698  1
  O  O10  1  0.181074  0.804671  0.100552  1
  O  O11  1  0.194029  0.821144  0.700690  1
  O  O12  1  0.297530  0.300449  0.000084  1
  O  O13  1  0.308213  0.299051  0.398810  1
  O  O14  1  0.314948  0.318551  0.599532  1
  O  O15  1  0.316353  0.319800  0.802151  1
  O  O16  1  0.693612  0.701902  0.995750  1
  O  O17  1  0.676514  0.677857  0.199382  1
  O  O18  1  0.698684  0.689053  0.401698  1
  F  F19  1  0.194016  0.787364  0.292356  1
  F  F20  1  0.205222  0.800658  0.508787  1
  F  F21  1  0.196214  0.809748  0.897291  1
  F  F22  1  0.281824  0.288920  0.199994  1
  F  F23  1  0.705141  0.710617  0.602236  1
  F  F24  1  0.707227  0.711789  0.799468  1
  F  F25  1  0.798074  0.186832  0.100105  1
  F  F26  1  0.805782  0.197563  0.511795  1
  F  F27  1  0.795781  0.186890  0.290154  1
  F  F28  1  0.815164  0.190417  0.896456  1
  F  F29  1  0.814997  0.203461  0.701820  1
