# generated using pymatgen
data_Li4Mn3Nb2V3O16
_symmetry_space_group_name_H-M   'P 1'
_cell_length_a   6.10464191
_cell_length_b   5.92107472
_cell_length_c   9.80416081
_cell_angle_alpha   90.00148404
_cell_angle_beta   92.21750379
_cell_angle_gamma   119.13799086
_symmetry_Int_Tables_number   1
_chemical_formula_structural   Li4Mn3Nb2V3O16
_chemical_formula_sum   'Li4 Mn3 Nb2 V3 O16'
_cell_volume   309.23038531
_cell_formula_units_Z   1
loop_
 _symmetry_equiv_pos_site_id
 _symmetry_equiv_pos_as_xyz
  1  'x, y, z'
loop_
 _atom_site_type_symbol
 _atom_site_label
 _atom_site_symmetry_multiplicity
 _atom_site_fract_x
 _atom_site_fract_y
 _atom_site_fract_z
 _atom_site_occupancy
  Li  Li0  1  0.315073  0.656276  0.900136  1
  Li  Li1  1  0.000671  0.002760  0.990626  1
  Li  Li2  1  0.009590  0.006251  0.489209  1
  Li  Li3  1  0.661400  0.328975  0.402073  1
  Mn  Mn4  1  0.666128  0.833780  0.210286  1
  Mn  Mn5  1  0.828448  0.660113  0.715112  1
  Mn  Mn6  1  0.829177  0.169081  0.714851  1
  Nb  Nb7  1  0.340171  0.672265  0.494161  1
  Nb  Nb8  1  0.647131  0.323980  0.994958  1
  V  V9  1  0.174613  0.829318  0.214920  1
  V  V10  1  0.175464  0.351730  0.220784  1
  V  V11  1  0.341902  0.171776  0.718663  1
  O  O12  1  0.186659  0.844556  0.589347  1
  O  O13  1  0.038585  0.509948  0.344234  1
  O  O14  1  0.303776  0.635795  0.105973  1
  O  O15  1  0.025479  0.022184  0.301578  1
  O  O16  1  0.003406  0.001931  0.803032  1
  O  O17  1  0.189358  0.344372  0.590063  1
  O  O18  1  0.467103  0.957417  0.345841  1
  O  O19  1  0.465709  0.505070  0.346288  1
  O  O20  1  0.337564  0.172825  0.098849  1
  O  O21  1  0.681508  0.840582  0.590567  1
  O  O22  1  0.504121  0.472978  0.849902  1
  O  O23  1  0.502554  0.030874  0.851144  1
  O  O24  1  0.662818  0.331298  0.614285  1
  O  O25  1  0.846198  0.666232  0.087141  1
  O  O26  1  0.951439  0.475842  0.836552  1
  O  O27  1  0.843957  0.182091  0.087265  1
