# generated using pymatgen
data_Li3V2(O2F)2
_symmetry_space_group_name_H-M   'P 1'
_cell_length_a   5.92425324
_cell_length_b   5.19685790
_cell_length_c   14.92245275
_cell_angle_alpha   89.68397579
_cell_angle_beta   90.00000000
_cell_angle_gamma   90.00000000
_symmetry_Int_Tables_number   1
_chemical_formula_structural   Li3V2(O2F)2
_chemical_formula_sum   'Li12 V8 O16 F8'
_cell_volume   459.41805939
_cell_formula_units_Z   4
loop_
 _symmetry_equiv_pos_site_id
 _symmetry_equiv_pos_as_xyz
  1  'x, y, z'
loop_
 _atom_site_type_symbol
 _atom_site_label
 _atom_site_symmetry_multiplicity
 _atom_site_fract_x
 _atom_site_fract_y
 _atom_site_fract_z
 _atom_site_occupancy
  Li  Li0  1  0.021334  0.333333  0.166667  1
  Li  Li1  1  0.007909  0.333333  0.666667  1
  Li  Li2  1  0.997184  0.987213  0.038901  1
  Li  Li3  1  0.997184  0.679453  0.294432  1
  Li  Li4  1  0.250000  0.833333  0.166667  1
  Li  Li5  1  0.478666  0.333333  0.166667  1
  Li  Li6  1  0.492091  0.333333  0.666667  1
  Li  Li7  1  0.502816  0.987213  0.038901  1
  Li  Li8  1  0.502816  0.679453  0.294432  1
  Li  Li9  1  0.750000  0.833333  0.666667  1
  Li  Li10  1  0.750000  0.526783  0.037177  1
  Li  Li11  1  0.750000  0.139884  0.296157  1
  V  V12  1  0.010273  0.998688  0.500829  1
  V  V13  1  0.010273  0.667978  0.832504  1
  V  V14  1  0.250000  0.506251  0.502398  1
  V  V15  1  0.250000  0.160416  0.830936  1
  V  V16  1  0.489727  0.998688  0.500829  1
  V  V17  1  0.489727  0.667978  0.832504  1
  V  V18  1  0.750000  0.501481  0.497064  1
  V  V19  1  0.750000  0.165185  0.836269  1
  O  O20  1  0.992421  0.334853  0.437221  1
  O  O21  1  0.992421  0.331813  0.896113  1
  O  O22  1  0.985900  0.003326  0.760201  1
  O  O23  1  0.985900  0.663340  0.573132  1
  O  O24  1  0.250000  0.835358  0.432750  1
  O  O25  1  0.250000  0.831308  0.900583  1
  O  O26  1  0.250000  0.487760  0.757015  1
  O  O27  1  0.250000  0.178907  0.576318  1
  O  O28  1  0.507579  0.334853  0.437221  1
  O  O29  1  0.507579  0.331813  0.896113  1
  O  O30  1  0.514100  0.003326  0.760201  1
  O  O31  1  0.514100  0.663340  0.573132  1
  O  O32  1  0.750000  0.831219  0.432868  1
  O  O33  1  0.750000  0.835448  0.900465  1
  O  O34  1  0.750000  0.506402  0.758752  1
  O  O35  1  0.750000  0.160264  0.574581  1
  F  F36  1  0.004636  0.005228  0.246760  1
  F  F37  1  0.004636  0.661438  0.086573  1
  F  F38  1  0.250000  0.522675  0.243116  1
  F  F39  1  0.250000  0.143991  0.090218  1
  F  F40  1  0.495364  0.005228  0.246760  1
  F  F41  1  0.495364  0.661438  0.086573  1
  F  F42  1  0.750000  0.479506  0.258122  1
  F  F43  1  0.750000  0.187161  0.075211  1
