# generated using pymatgen
data_Li4Fe(PO3)6
_symmetry_space_group_name_H-M   'P 1'
_cell_length_a   7.61989223
_cell_length_b   7.32367159
_cell_length_c   7.55424606
_cell_angle_alpha   66.60714711
_cell_angle_beta   106.72439628
_cell_angle_gamma   80.44510420
_symmetry_Int_Tables_number   1
_chemical_formula_structural   Li4Fe(PO3)6
_chemical_formula_sum   'Li4 Fe1 P6 O18'
_cell_volume   351.21285920
_cell_formula_units_Z   1
loop_
 _symmetry_equiv_pos_site_id
 _symmetry_equiv_pos_as_xyz
  1  'x, y, z'
loop_
 _atom_site_type_symbol
 _atom_site_label
 _atom_site_symmetry_multiplicity
 _atom_site_fract_x
 _atom_site_fract_y
 _atom_site_fract_z
 _atom_site_occupancy
  Li  Li0  1  0.122911  0.240214  0.918455  1
  Li  Li1  1  0.155153  0.622619  0.563641  1
  Li  Li2  1  0.451661  0.474889  0.995581  1
  Li  Li3  1  0.859550  0.369645  0.445491  1
  Fe  Fe4  1  0.853371  0.785914  0.066051  1
  P  P5  1  0.221250  0.986169  0.687455  1
  P  P6  1  0.217929  0.329783  0.321636  1
  P  P7  1  0.500380  0.208151  0.733088  1
  P  P8  1  0.510217  0.776323  0.275449  1
  P  P9  1  0.793502  0.675711  0.675605  1
  P  P10  1  0.762065  0.026944  0.305009  1
  O  O11  1  0.069476  0.119579  0.714616  1
  O  O12  1  0.066313  0.492744  0.323715  1
  O  O13  1  0.193357  0.102731  0.440982  1
  O  O14  1  0.247750  0.759269  0.750299  1
  O  O15  1  0.392325  0.368015  0.774878  1
  O  O16  1  0.429688  0.002647  0.798304  1
  O  O17  1  0.231740  0.355771  0.120645  1
  O  O18  1  0.298825  0.821385  0.186931  1
  O  O19  1  0.429857  0.300848  0.480195  1
  O  O20  1  0.583698  0.690127  0.530339  1
  O  O21  1  0.716670  0.120105  0.832264  1
  O  O22  1  0.785533  0.655567  0.878237  1
  O  O23  1  0.556627  -0.000087  0.204372  1
  O  O24  1  0.648509  0.638191  0.234571  1
  O  O25  1  0.731135  0.254465  0.237313  1
  O  O26  1  0.804532  0.908573  0.552115  1
  O  O27  1  0.946918  0.515814  0.677155  1
  O  O28  1  0.919060  0.897892  0.275610  1
