# generated using pymatgen
data_ThH10N4O17
_symmetry_space_group_name_H-M   'P 1'
_cell_length_a   12.70062518
_cell_length_b   7.72593745
_cell_length_c   7.75896158
_cell_angle_alpha   93.07797930
_cell_angle_beta   73.15745494
_cell_angle_gamma   73.21828155
_symmetry_Int_Tables_number   1
_chemical_formula_structural   ThH10N4O17
_chemical_formula_sum   'Th2 H20 N8 O34'
_cell_volume   689.76900764
_cell_formula_units_Z   2
loop_
 _symmetry_equiv_pos_site_id
 _symmetry_equiv_pos_as_xyz
  1  'x, y, z'
loop_
 _atom_site_type_symbol
 _atom_site_label
 _atom_site_symmetry_multiplicity
 _atom_site_fract_x
 _atom_site_fract_y
 _atom_site_fract_z
 _atom_site_occupancy
  Th  Th0  1  0.498764  0.749462  0.247746  1
  Th  Th1  1  -0.000061  0.997804  0.996092  1
  H  H2  1  0.236282  0.885015  0.264852  1
  H  H3  1  0.761167  0.497621  0.119940  1
  H  H4  1  0.251890  0.701369  0.357624  1
  H  H5  1  0.132536  0.524271  0.405167  1
  H  H6  1  0.261970  0.871171  0.747638  1
  H  H7  1  0.779132  0.725986  0.674347  1
  H  H8  1  0.068587  0.698059  0.665755  1
  H  H9  1  0.931482  0.727619  0.767738  1
  H  H10  1  0.223791  0.455792  0.506618  1
  H  H11  1  0.740036  0.017265  0.130148  1
  H  H12  1  0.867671  0.532056  0.658408  1
  H  H13  1  0.252677  0.704898  0.862362  1
  H  H14  1  0.748857  0.615496  0.958473  1
  H  H15  1  0.365298  0.407598  0.786474  1
  H  H16  1  0.722193  0.257838  0.708262  1
  H  H17  1  0.430117  0.516823  0.977326  1
  H  H18  1  0.565462  0.414513  0.954675  1
  H  H19  1  0.277281  0.427011  0.981243  1
  H  H20  1  0.631312  0.152757  0.780806  1
  H  H21  1  0.752058  0.112240  0.947450  1
  N  N22  1  0.988308  0.689939  0.218626  1
  N  N23  1  0.651883  0.853332  0.451614  1
  N  N24  1  0.152093  0.198791  0.099411  1
  N  N25  1  0.488106  0.971162  0.940781  1
  N  N26  1  0.511392  0.431572  0.458945  1
  N  N27  1  0.848578  0.257499  0.352865  1
  N  N28  1  0.346580  0.102345  0.508708  1
  N  N29  1  0.010424  0.208512  0.678960  1
  O  O30  1  0.406112  0.906502  0.007752  1
  O  O31  1  0.626711  0.936271  0.321551  1
  O  O32  1  0.908723  0.754292  0.148431  1
  O  O33  1  0.077296  0.748258  0.168176  1
  O  O34  1  0.705152  0.584799  0.075367  1
  O  O35  1  0.496149  0.522294  0.021910  1
  O  O36  1  0.293073  0.783893  0.293985  1
  O  O37  1  0.372552  0.945645  0.564338  1
  O  O38  1  0.711747  0.899128  0.534336  1
  O  O39  1  0.982804  0.580853  0.328145  1
  O  O40  1  0.610612  0.722472  0.489350  1
  O  O41  1  0.215174  0.277645  0.140413  1
  O  O42  1  0.876074  0.315164  0.197753  1
  O  O43  1  0.591749  0.418224  0.309764  1
  O  O44  1  0.176144  0.567008  0.474975  1
  O  O45  1  0.420705  0.576070  0.494650  1
  O  O46  1  0.795452  0.043421  0.025189  1
  O  O47  1  0.999285  0.768602  0.771803  1
  O  O48  1  0.207491  0.822937  0.833660  1
  O  O49  1  0.579052  0.911757  0.992893  1
  O  O50  1  0.826177  0.649106  0.740200  1
  O  O51  1  0.125273  0.070502  0.184472  1
  O  O52  1  0.785333  0.362764  0.493952  1
  O  O53  1  0.389296  0.100849  0.337597  1
  O  O54  1  0.517982  0.318394  0.563496  1
  O  O55  1  0.017807  0.312151  0.563261  1
  O  O56  1  0.891245  0.085424  0.349620  1
  O  O57  1  0.284634  0.244104  0.614668  1
  O  O58  1  0.322032  0.493473  0.900320  1
  O  O59  1  0.920836  0.249370  0.824558  1
  O  O60  1  0.673899  0.227422  0.819738  1
  O  O61  1  0.089097  0.057392  0.664784  1
  O  O62  1  0.108965  0.238463  0.971288  1
  O  O63  1  0.483594  0.084133  0.834784  1
