# generated using pymatgen
data_Ni4P2O9
_symmetry_space_group_name_H-M   'P 1'
_cell_length_a   8.46451783
_cell_length_b   6.34730313
_cell_length_c   13.26822776
_cell_angle_alpha   90.00102188
_cell_angle_beta   89.99743154
_cell_angle_gamma   89.99868812
_symmetry_Int_Tables_number   1
_chemical_formula_structural   Ni4P2O9
_chemical_formula_sum   'Ni16 P8 O36'
_cell_volume   712.86022165
_cell_formula_units_Z   4
loop_
 _symmetry_equiv_pos_site_id
 _symmetry_equiv_pos_as_xyz
  1  'x, y, z'
loop_
 _atom_site_type_symbol
 _atom_site_label
 _atom_site_symmetry_multiplicity
 _atom_site_fract_x
 _atom_site_fract_y
 _atom_site_fract_z
 _atom_site_occupancy
  Ni  Ni0  1  0.073225  0.750009  0.416363  1
  Ni  Ni1  1  0.145020  0.249993  0.064350  1
  Ni  Ni2  1  0.143509  0.515444  0.854158  1
  Ni  Ni3  1  0.143508  0.984574  0.854146  1
  Ni  Ni4  1  0.356503  0.015459  0.354166  1
  Ni  Ni5  1  0.356503  0.484572  0.354152  1
  Ni  Ni6  1  0.354956  0.749984  0.564344  1
  Ni  Ni7  1  0.426776  0.250006  0.916364  1
  Ni  Ni8  1  0.573213  0.750006  0.083636  1
  Ni  Ni9  1  0.645063  0.249995  0.435651  1
  Ni  Ni10  1  0.643503  0.515439  0.645840  1
  Ni  Ni11  1  0.643502  0.984570  0.645848  1
  Ni  Ni12  1  0.856485  0.015447  0.145840  1
  Ni  Ni13  1  0.856483  0.484571  0.145849  1
  Ni  Ni14  1  0.854957  0.749993  0.935659  1
  Ni  Ni15  1  0.926783  0.250000  0.583634  1
  P  P16  1  0.006086  0.250011  0.344617  1
  P  P17  1  0.165912  0.749989  0.076355  1
  P  P18  1  0.334091  0.249989  0.576357  1
  P  P19  1  0.493929  0.750010  0.844622  1
  P  P20  1  0.506071  0.250006  0.155381  1
  P  P21  1  0.665904  0.749988  0.423640  1
  P  P22  1  0.834088  0.249985  0.923642  1
  P  P23  1  0.993922  0.750003  0.655381  1
  O  O24  1  0.096110  0.545595  0.124091  1
  O  O25  1  0.096104  0.954409  0.124086  1
  O  O26  1  0.109032  0.750000  0.960824  1
  O  O27  1  0.091636  0.749993  0.755688  1
  O  O28  1  0.110764  0.049419  0.350625  1
  O  O29  1  0.110749  0.450570  0.350625  1
  O  O30  1  0.115173  0.749995  0.567921  1
  O  O31  1  0.156791  0.250007  0.586041  1
  O  O32  1  0.193577  0.250000  0.917574  1
  O  O33  1  0.306423  0.749999  0.417573  1
  O  O34  1  0.343198  0.750003  0.086032  1
  O  O35  1  0.384827  0.249998  0.067925  1
  O  O36  1  0.389251  0.549418  0.850632  1
  O  O37  1  0.389255  0.950575  0.850632  1
  O  O38  1  0.408365  0.249999  0.255690  1
  O  O39  1  0.390976  0.250001  0.460830  1
  O  O40  1  0.403880  0.045592  0.624094  1
  O  O41  1  0.403880  0.454407  0.624086  1
  O  O42  1  0.596126  0.545595  0.375909  1
  O  O43  1  0.596122  0.954410  0.375914  1
  O  O44  1  0.609025  0.749999  0.539175  1
  O  O45  1  0.591648  0.749994  0.744311  1
  O  O46  1  0.610756  0.049417  0.149368  1
  O  O47  1  0.610742  0.450573  0.149370  1
  O  O48  1  0.615166  0.749997  0.932080  1
  O  O49  1  0.656790  0.250011  0.913963  1
  O  O50  1  0.693586  0.249993  0.582431  1
  O  O51  1  0.806409  0.749991  0.082431  1
  O  O52  1  0.843213  0.750007  0.413956  1
  O  O53  1  0.884849  0.250001  0.432082  1
  O  O54  1  0.889249  0.549422  0.649368  1
  O  O55  1  0.889252  0.950573  0.649371  1
  O  O56  1  0.908363  0.249999  0.244315  1
  O  O57  1  0.890959  0.249997  0.039171  1
  O  O58  1  0.903882  0.045591  0.875906  1
  O  O59  1  0.903882  0.454409  0.875915  1
