# generated using pymatgen
data_CsB6H8O7
_symmetry_space_group_name_H-M   'P 1'
_cell_length_a   13.24434021
_cell_length_b   7.40786826
_cell_length_c   8.56279631
_cell_angle_alpha   90.00000000
_cell_angle_beta   96.38747022
_cell_angle_gamma   90.00000000
_symmetry_Int_Tables_number   1
_chemical_formula_structural   CsB6H8O7
_chemical_formula_sum   'Cs4 B24 H32 O28'
_cell_volume   834.90066475
_cell_formula_units_Z   4
loop_
 _symmetry_equiv_pos_site_id
 _symmetry_equiv_pos_as_xyz
  1  'x, y, z'
loop_
 _atom_site_type_symbol
 _atom_site_label
 _atom_site_symmetry_multiplicity
 _atom_site_fract_x
 _atom_site_fract_y
 _atom_site_fract_z
 _atom_site_occupancy
  Cs  Cs0  1  0.305947  0.721559  0.461096  1
  Cs  Cs1  1  0.194053  0.221559  0.538904  1
  Cs  Cs2  1  0.694053  0.278441  0.538904  1
  Cs  Cs3  1  0.805947  0.778441  0.461096  1
  B  B4  1  0.376609  0.547375  0.927228  1
  B  B5  1  0.123391  0.047375  0.072772  1
  B  B6  1  0.623391  0.452625  0.072772  1
  B  B7  1  0.876609  0.952625  0.927228  1
  B  B8  1  0.468446  0.475619  0.801832  1
  B  B9  1  0.031554  0.975619  0.198168  1
  B  B10  1  0.531554  0.524381  0.198168  1
  B  B11  1  0.968446  0.024381  0.801832  1
  B  B12  1  0.479935  0.692298  0.890368  1
  B  B13  1  0.020065  0.192298  0.109632  1
  B  B14  1  0.520065  0.307702  0.109632  1
  B  B15  1  0.979935  0.807702  0.890368  1
  B  B16  1  0.442102  0.674700  0.085528  1
  B  B17  1  0.057898  0.174700  0.914472  1
  B  B18  1  0.557898  0.325300  0.914472  1
  B  B19  1  0.942102  0.825300  0.085528  1
  B  B20  1  0.407405  0.444951  0.117488  1
  B  B21  1  0.092595  0.944951  0.882512  1
  B  B22  1  0.592595  0.555049  0.882512  1
  B  B23  1  0.907405  0.055049  0.117488  1
  B  B24  1  0.425492  0.321955  0.940743  1
  B  B25  1  0.074508  0.821955  0.059257  1
  B  B26  1  0.574508  0.678045  0.059257  1
  B  B27  1  0.925492  0.178045  0.940743  1
  H  H28  1  0.555431  0.850026  0.621988  1
  H  H29  1  0.944569  0.350026  0.378012  1
  H  H30  1  0.444569  0.149974  0.378012  1
  H  H31  1  0.055431  0.649974  0.621988  1
  H  H32  1  0.534430  0.914561  0.445558  1
  H  H33  1  0.965570  0.414561  0.554442  1
  H  H34  1  0.465570  0.085439  0.554442  1
  H  H35  1  0.034430  0.585439  0.445558  1
  H  H36  1  0.229296  0.472424  0.858122  1
  H  H37  1  0.270704  0.972424  0.141878  1
  H  H38  1  0.770704  0.527576  0.141878  1
  H  H39  1  0.729296  0.027576  0.858122  1
  H  H40  1  0.429580  0.347573  0.589418  1
  H  H41  1  0.070420  0.847573  0.410582  1
  H  H42  1  0.570420  0.652427  0.410582  1
  H  H43  1  0.929580  0.152427  0.589418  1
  H  H44  1  0.424272  0.947469  0.829104  1
  H  H45  1  0.075728  0.447469  0.170896  1
  H  H46  1  0.575728  0.052531  0.170896  1
  H  H47  1  0.924272  0.552531  0.829104  1
  H  H48  1  0.438295  0.935049  0.158571  1
  H  H49  1  0.061705  0.435049  0.841429  1
  H  H50  1  0.561705  0.064951  0.841429  1
  H  H51  1  0.938295  0.564951  0.158571  1
  H  H52  1  0.292649  0.291362  0.184592  1
  H  H53  1  0.207351  0.791362  0.815408  1
  H  H54  1  0.707351  0.708638  0.815408  1
  H  H55  1  0.792649  0.208638  0.184592  1
  H  H56  1  0.312375  0.134621  0.946599  1
  H  H57  1  0.187625  0.634621  0.053401  1
  H  H58  1  0.687625  0.865379  0.053401  1
  H  H59  1  0.812375  0.365379  0.946599  1
  O  O60  1  0.588286  0.877096  0.525975  1
  O  O61  1  0.911714  0.377096  0.474025  1
  O  O62  1  0.411714  0.122904  0.474025  1
  O  O63  1  0.088286  0.622904  0.525975  1
  O  O64  1  0.271150  0.582687  0.866164  1
  O  O65  1  0.228850  0.082687  0.133836  1
  O  O66  1  0.728850  0.417313  0.133836  1
  O  O67  1  0.771150  0.917313  0.866164  1
  O  O68  1  0.438654  0.467712  0.636048  1
  O  O69  1  0.061346  0.967712  0.363952  1
  O  O70  1  0.561346  0.532288  0.363952  1
  O  O71  1  0.938654  0.032288  0.636048  1
  O  O72  1  0.471167  0.855589  0.792893  1
  O  O73  1  0.028833  0.355589  0.207107  1
  O  O74  1  0.528833  0.144411  0.207107  1
  O  O75  1  0.971167  0.644411  0.792893  1
  O  O76  1  0.396308  0.825530  0.162134  1
  O  O77  1  0.103692  0.325530  0.837866  1
  O  O78  1  0.603692  0.174470  0.837866  1
  O  O79  1  0.896308  0.674470  0.162134  1
  O  O80  1  0.330534  0.402219  0.218789  1
  O  O81  1  0.169466  0.902219  0.781211  1
  O  O82  1  0.669466  0.597781  0.781211  1
  O  O83  1  0.830534  0.097781  0.218789  1
  O  O84  1  0.366739  0.164872  0.881313  1
  O  O85  1  0.133261  0.664872  0.118687  1
  O  O86  1  0.633261  0.835128  0.118687  1
  O  O87  1  0.866739  0.335128  0.881313  1
