# generated using pymatgen
data_Li3VP3O11
_symmetry_space_group_name_H-M   'P 1'
_cell_length_a   9.57552396
_cell_length_b   8.27486592
_cell_length_c   6.04103934
_cell_angle_alpha   95.63733965
_cell_angle_beta   101.50579991
_cell_angle_gamma   114.17832167
_symmetry_Int_Tables_number   1
_chemical_formula_structural   Li3VP3O11
_chemical_formula_sum   'Li6 V2 P6 O22'
_cell_volume   419.14528737
_cell_formula_units_Z   2
loop_
 _symmetry_equiv_pos_site_id
 _symmetry_equiv_pos_as_xyz
  1  'x, y, z'
loop_
 _atom_site_type_symbol
 _atom_site_label
 _atom_site_symmetry_multiplicity
 _atom_site_fract_x
 _atom_site_fract_y
 _atom_site_fract_z
 _atom_site_occupancy
  Li  Li0  1  0.961749  0.855529  0.604979  1
  Li  Li1  1  0.115454  0.575165  0.385255  1
  Li  Li2  1  0.523420  0.977899  0.767908  1
  Li  Li3  1  0.476580  0.022101  0.232092  1
  Li  Li4  1  0.884546  0.424835  0.614745  1
  Li  Li5  1  0.038251  0.144471  0.395021  1
  V  V6  1  0.724297  0.698515  0.894575  1
  V  V7  1  0.275703  0.301485  0.105425  1
  P  P8  1  0.229944  0.661239  0.923925  1
  P  P9  1  0.107283  0.884359  0.144382  1
  P  P10  1  0.402938  0.311912  0.643012  1
  P  P11  1  0.597062  0.688088  0.356988  1
  P  P12  1  0.892717  0.115641  0.855618  1
  P  P13  1  0.770056  0.338761  0.076075  1
  O  O14  1  0.102228  0.613198  0.699306  1
  O  O15  1  0.063832  0.901643  0.368261  1
  O  O16  1  0.227904  0.488748  0.001487  1
  O  O17  1  0.161978  0.722287  0.137923  1
  O  O18  1  0.387101  0.812672  0.934479  1
  O  O19  1  0.035231  0.175924  0.071402  1
  O  O20  1  0.268366  0.308667  0.437872  1
  O  O21  1  0.307374  0.233122  0.823817  1
  O  O22  1  0.516432  0.801252  0.424608  1
  O  O23  1  0.512131  0.515647  0.751690  1
  O  O24  1  0.744704  0.954139  0.877279  1
  O  O25  1  0.255296  0.045861  0.122721  1
  O  O26  1  0.487869  0.484353  0.248310  1
  O  O27  1  0.483568  0.198748  0.575392  1
  O  O28  1  0.692626  0.766878  0.176183  1
  O  O29  1  0.731634  0.691333  0.562128  1
  O  O30  1  0.964769  0.824076  0.928598  1
  O  O31  1  0.612899  0.187328  0.065521  1
  O  O32  1  0.838022  0.277713  0.862077  1
  O  O33  1  0.772096  0.511252  0.998513  1
  O  O34  1  0.936168  0.098357  0.631739  1
  O  O35  1  0.897772  0.386802  0.300694  1
