# generated using pymatgen
data_Li2CrSiO4
_symmetry_space_group_name_H-M   'P 1'
_cell_length_a   10.74434838
_cell_length_b   5.08006009
_cell_length_c   6.64017394
_cell_angle_alpha   89.99773626
_cell_angle_beta   90.00681687
_cell_angle_gamma   89.99601538
_symmetry_Int_Tables_number   1
_chemical_formula_structural   Li2CrSiO4
_chemical_formula_sum   'Li8 Cr4 Si4 O16'
_cell_volume   362.43354161
_cell_formula_units_Z   4
loop_
 _symmetry_equiv_pos_site_id
 _symmetry_equiv_pos_as_xyz
  1  'x, y, z'
loop_
 _atom_site_type_symbol
 _atom_site_label
 _atom_site_symmetry_multiplicity
 _atom_site_fract_x
 _atom_site_fract_y
 _atom_site_fract_z
 _atom_site_occupancy
  Li  Li0  1  0.077236  0.792998  0.869582  1
  Li  Li1  1  0.163208  0.197940  0.119517  1
  Li  Li2  1  0.336813  0.697938  0.619463  1
  Li  Li3  1  0.422718  0.293025  0.369442  1
  Li  Li4  1  0.577266  0.707055  0.869595  1
  Li  Li5  1  0.663264  0.302128  0.119523  1
  Li  Li6  1  0.836798  0.802047  0.619482  1
  Li  Li7  1  0.922775  0.206966  0.369523  1
  Cr  Cr8  1  0.160221  0.203801  0.616624  1
  Cr  Cr9  1  0.339811  0.703990  0.116573  1
  Cr  Cr10  1  0.660032  0.295821  0.616613  1
  Cr  Cr11  1  0.839822  0.796109  0.116558  1
  Si  Si12  1  0.083484  0.695141  0.366259  1
  Si  Si13  1  0.416492  0.195207  0.866197  1
  Si  Si14  1  0.583530  0.804830  0.366176  1
  Si  Si15  1  0.916483  0.304819  0.866166  1
  O  O16  1  0.062958  0.205082  0.875171  1
  O  O17  1  0.089910  0.369897  0.353937  1
  O  O18  1  0.153032  0.791449  0.577710  1
  O  O19  1  0.151575  0.814817  0.163459  1
  O  O20  1  0.348465  0.314857  0.663435  1
  O  O21  1  0.346940  0.291495  0.077680  1
  O  O22  1  0.410149  0.869977  0.853913  1
  O  O23  1  0.437054  0.705184  0.375160  1
  O  O24  1  0.562936  0.294922  0.875348  1
  O  O25  1  0.589868  0.130090  0.353857  1
  O  O26  1  0.652997  0.708508  0.577695  1
  O  O27  1  0.651583  0.685229  0.163439  1
  O  O28  1  0.848348  0.185231  0.663479  1
  O  O29  1  0.846996  0.208564  0.077700  1
  O  O30  1  0.910167  0.630093  0.853923  1
  O  O31  1  0.937067  0.794789  0.375207  1
