# generated using pymatgen
data_Ce(ClO4)4
_symmetry_space_group_name_H-M   'P 1'
_cell_length_a   8.06323114
_cell_length_b   13.99120367
_cell_length_c   8.06323114
_cell_angle_alpha   75.34651782
_cell_angle_beta   116.13310638
_cell_angle_gamma   104.65348218
_symmetry_Int_Tables_number   1
_chemical_formula_structural   Ce(ClO4)4
_chemical_formula_sum   'Ce2 Cl8 O32'
_cell_volume   779.53203988
_cell_formula_units_Z   2
loop_
 _symmetry_equiv_pos_site_id
 _symmetry_equiv_pos_as_xyz
  1  'x, y, z'
loop_
 _atom_site_type_symbol
 _atom_site_label
 _atom_site_symmetry_multiplicity
 _atom_site_fract_x
 _atom_site_fract_y
 _atom_site_fract_z
 _atom_site_occupancy
  Ce  Ce0  1  0.404596  0.902618  0.649640  1
  Ce  Ce1  1  0.350360  0.402618  0.595404  1
  Cl  Cl2  1  0.580113  0.733628  0.957433  1
  Cl  Cl3  1  0.042567  0.233628  0.419887  1
  Cl  Cl4  1  0.168015  0.574016  0.300969  1
  Cl  Cl5  1  0.747393  0.501414  0.630138  1
  Cl  Cl6  1  0.699031  0.074016  0.831985  1
  Cl  Cl7  1  0.993196  0.837160  0.589647  1
  Cl  Cl8  1  0.369862  0.001414  0.252608  1
  Cl  Cl9  1  0.410352  0.337160  0.006804  1
  O  O10  1  0.130385  0.925574  0.675509  1
  O  O11  1  0.484046  0.812740  0.964556  1
  O  O12  1  0.115324  0.794552  0.533132  1
  O  O13  1  0.324491  0.425574  0.869615  1
  O  O14  1  0.035444  0.312740  0.515954  1
  O  O15  1  0.553984  0.758985  0.752253  1
  O  O16  1  0.192152  0.543453  0.504407  1
  O  O17  1  0.716268  0.993217  0.745490  1
  O  O18  1  0.466868  0.294552  0.884676  1
  O  O19  1  0.444376  0.905520  0.372657  1
  O  O20  1  0.211714  0.978548  0.087541  1
  O  O21  1  0.617375  0.533415  0.689833  1
  O  O22  1  0.275973  0.669804  0.275502  1
  O  O23  1  0.247747  0.258985  0.446016  1
  O  O24  1  0.495593  0.043453  0.807848  1
  O  O25  1  0.254510  0.493217  0.283732  1
  O  O26  1  0.944201  0.766003  0.728099  1
  O  O27  1  0.627343  0.405520  0.555624  1
  O  O28  1  0.912459  0.478548  0.788286  1
  O  O29  1  0.839752  0.870179  0.426967  1
  O  O30  1  0.310167  0.033415  0.382625  1
  O  O31  1  0.724498  0.169804  0.724027  1
  O  O32  1  0.777252  0.573751  0.482109  1
  O  O33  1  0.271901  0.266003  0.055799  1
  O  O34  1  0.481624  0.636467  0.991809  1
  O  O35  1  0.573033  0.370179  0.160248  1
  O  O36  1  0.773905  0.749899  0.075705  1
  O  O37  1  0.517891  0.073751  0.222748  1
  O  O38  1  0.008191  0.136467  0.518376  1
  O  O39  1  0.975069  0.565166  0.179901  1
  O  O40  1  0.924295  0.249898  0.226095  1
  O  O41  1  0.820099  0.065166  0.024931  1
