# generated using pymatgen
data_Li7Mn8(BO3)8
_symmetry_space_group_name_H-M   'P 1'
_cell_length_a   5.24928785
_cell_length_b   9.14671756
_cell_length_c   11.53834746
_cell_angle_alpha   68.51936995
_cell_angle_beta   77.81948348
_cell_angle_gamma   89.90015313
_symmetry_Int_Tables_number   1
_chemical_formula_structural   Li7Mn8(BO3)8
_chemical_formula_sum   'Li7 Mn8 B8 O24'
_cell_volume   502.17400373
_cell_formula_units_Z   1
loop_
 _symmetry_equiv_pos_site_id
 _symmetry_equiv_pos_as_xyz
  1  'x, y, z'
loop_
 _atom_site_type_symbol
 _atom_site_label
 _atom_site_symmetry_multiplicity
 _atom_site_fract_x
 _atom_site_fract_y
 _atom_site_fract_z
 _atom_site_occupancy
  Li  Li0  1  0.029598  0.042489  0.084400  1
  Li  Li1  1  0.269272  0.242981  0.335361  1
  Li  Li2  1  0.290791  0.287891  0.586912  1
  Li  Li3  1  0.487632  0.508890  0.839364  1
  Li  Li4  1  0.773635  0.744367  0.331464  1
  Li  Li5  1  0.784495  0.782544  0.597882  1
  Li  Li6  1  0.982803  0.011643  0.835532  1
  Mn  Mn7  1  0.018573  0.362960  0.121894  1
  Mn  Mn8  1  0.240556  0.563770  0.364124  1
  Mn  Mn9  1  0.273216  0.945204  0.616287  1
  Mn  Mn10  1  0.522787  0.845504  0.113965  1
  Mn  Mn11  1  0.477466  0.157097  0.870590  1
  Mn  Mn12  1  0.749874  0.063168  0.366704  1
  Mn  Mn13  1  0.767087  0.442823  0.617725  1
  Mn  Mn14  1  0.985892  0.657674  0.868481  1
  B  B15  1  0.038668  0.695376  0.113480  1
  B  B16  1  0.237697  0.885854  0.378006  1
  B  B17  1  0.260538  0.602490  0.633558  1
  B  B18  1  0.516544  0.173662  0.130597  1
  B  B19  1  0.486960  0.821352  0.864351  1
  B  B20  1  0.725487  0.391373  0.378941  1
  B  B21  1  0.766410  0.108109  0.626827  1
  B  B22  1  0.969743  0.319059  0.875155  1
  O  O23  1  0.020115  0.112129  0.642408  1
  O  O24  1  0.259979  0.653663  0.160010  1
  O  O25  1  0.088946  0.705094  0.674614  1
  O  O26  1  0.167038  0.499742  0.586282  1
  O  O27  1  0.370649  0.285735  0.155305  1
  O  O28  1  0.417150  0.074491  0.079344  1
  O  O29  1  0.074219  0.176378  0.889855  1
  O  O30  1  0.100618  0.431229  0.904076  1
  O  O31  1  0.339248  0.001840  0.412965  1
  O  O32  1  0.406581  0.791679  0.332174  1
  O  O33  1  0.241672  0.849653  0.831753  1
  O  O34  1  0.457964  0.366602  0.397970  1
  O  O35  1  0.515590  0.609974  0.642966  1
  O  O36  1  0.767092  0.154120  0.158347  1
  O  O37  1  0.596349  0.213382  0.657997  1
  O  O38  1  0.677976  0.998334  0.583515  1
  O  O39  1  0.904847  0.818244  0.131034  1
  O  O40  1  0.947425  0.602708  0.053297  1
  O  O41  1  0.610735  0.692692  0.857169  1
  O  O42  1  0.828621  0.512260  0.407510  1
  O  O43  1  0.601467  0.927944  0.902714  1
  O  O44  1  0.895595  0.296921  0.333706  1
  O  O45  1  0.737630  0.352717  0.834831  1
  O  O46  1  0.969456  0.865031  0.394529  1
