# generated using pymatgen
data_LiMn(PO3)4
_symmetry_space_group_name_H-M   'P 1'
_cell_length_a   7.96272103
_cell_length_b   8.69642121
_cell_length_c   9.23567699
_cell_angle_alpha   118.59506440
_cell_angle_beta   115.53642779
_cell_angle_gamma   62.75373434
_symmetry_Int_Tables_number   1
_chemical_formula_structural   LiMn(PO3)4
_chemical_formula_sum   'Li2 Mn2 P8 O24'
_cell_volume   480.47374671
_cell_formula_units_Z   2
loop_
 _symmetry_equiv_pos_site_id
 _symmetry_equiv_pos_as_xyz
  1  'x, y, z'
loop_
 _atom_site_type_symbol
 _atom_site_label
 _atom_site_symmetry_multiplicity
 _atom_site_fract_x
 _atom_site_fract_y
 _atom_site_fract_z
 _atom_site_occupancy
  Li  Li0  1  0.000000  0.500000  0.500000  1
  Li  Li1  1  0.000000  0.000000  0.000000  1
  Mn  Mn2  1  0.676096  0.750000  0.750000  1
  Mn  Mn3  1  0.323904  0.250000  0.250000  1
  P  P4  1  0.698460  0.866245  0.138028  1
  P  P5  1  0.345892  0.808778  0.103914  1
  P  P6  1  0.050754  0.691222  0.396086  1
  P  P7  1  0.426676  0.633755  0.361972  1
  P  P8  1  0.573324  0.366245  0.638028  1
  P  P9  1  0.949246  0.308778  0.603914  1
  P  P10  1  0.654108  0.191222  0.896086  1
  P  P11  1  0.301540  0.133755  0.861972  1
  O  O12  1  0.280188  0.011914  0.214278  1
  O  O13  1  0.792570  0.789625  0.993737  1
  O  O14  1  0.869072  0.822884  0.297247  1
  O  O15  1  0.564103  0.746087  0.086053  1
  O  O16  1  0.409876  0.932246  0.804219  1
  O  O17  1  0.224136  0.753913  0.413947  1
  O  O18  1  0.394709  0.677116  0.202753  1
  O  O19  1  0.021846  0.743083  0.563580  1
  O  O20  1  0.588458  0.710375  0.506263  1
  O  O21  1  0.201349  0.756917  0.936420  1
  O  O22  1  0.077822  0.488086  0.285722  1
  O  O23  1  0.537903  0.567754  0.695781  1
  O  O24  1  0.462097  0.432246  0.304219  1
  O  O25  1  0.922178  0.511914  0.714278  1
  O  O26  1  0.798651  0.243083  0.063580  1
  O  O27  1  0.411542  0.289625  0.493737  1
  O  O28  1  0.978154  0.256917  0.436420  1
  O  O29  1  0.605291  0.322884  0.797247  1
  O  O30  1  0.775864  0.246087  0.586053  1
  O  O31  1  0.590124  0.067754  0.195781  1
  O  O32  1  0.435897  0.253913  0.913947  1
  O  O33  1  0.130928  0.177116  0.702753  1
  O  O34  1  0.207430  0.210375  0.006263  1
  O  O35  1  0.719812  0.988086  0.785722  1
