# generated using pymatgen
data_Li8Sb2S
_symmetry_space_group_name_H-M   'P 1'
_cell_length_a   8.10989556
_cell_length_b   9.01813201
_cell_length_c   7.92165217
_cell_angle_alpha   111.30682711
_cell_angle_beta   59.21075390
_cell_angle_gamma   116.72084089
_symmetry_Int_Tables_number   1
_chemical_formula_structural   Li8Sb2S
_chemical_formula_sum   'Li16 Sb4 S2'
_cell_volume   437.80193509
_cell_formula_units_Z   2
loop_
 _symmetry_equiv_pos_site_id
 _symmetry_equiv_pos_as_xyz
  1  'x, y, z'
loop_
 _atom_site_type_symbol
 _atom_site_label
 _atom_site_symmetry_multiplicity
 _atom_site_fract_x
 _atom_site_fract_y
 _atom_site_fract_z
 _atom_site_occupancy
  Li  Li0  1  0.126970  0.298246  0.060282  1
  Li  Li1  1  0.422873  0.127235  0.974575  1
  Li  Li2  1  0.770212  0.372765  0.525425  1
  Li  Li3  1  0.389007  0.201754  0.439718  1
  Li  Li4  1  0.509536  0.451853  0.212624  1
  Li  Li5  1  0.229694  0.951853  0.712624  1
  Li  Li6  1  0.928685  0.580840  0.215870  1
  Li  Li7  1  0.936285  0.080840  0.715870  1
  Li  Li8  1  0.063715  0.919160  0.284130  1
  Li  Li9  1  0.071315  0.419160  0.784130  1
  Li  Li10  1  0.770306  0.048147  0.287376  1
  Li  Li11  1  0.490464  0.548147  0.787376  1
  Li  Li12  1  0.610993  0.798246  0.560282  1
  Li  Li13  1  0.229788  0.627235  0.474575  1
  Li  Li14  1  0.577127  0.872765  0.025425  1
  Li  Li15  1  0.873030  0.701754  0.939718  1
  Sb  Sb16  1  0.743668  0.244393  0.098447  1
  Sb  Sb17  1  0.097722  0.255607  0.401553  1
  Sb  Sb18  1  0.902278  0.744393  0.598447  1
  Sb  Sb19  1  0.256332  0.755607  0.901553  1
  S  S20  1  0.599116  0.750000  0.250000  1
  S  S21  1  0.400884  0.250000  0.750000  1
