# generated using pymatgen
data_Li2VCrP2(O4F)2
_symmetry_space_group_name_H-M   'P 1'
_cell_length_a   7.98553671
_cell_length_b   6.96240885
_cell_length_c   7.34338008
_cell_angle_alpha   62.41367110
_cell_angle_beta   89.32060163
_cell_angle_gamma   91.61927787
_symmetry_Int_Tables_number   1
_chemical_formula_structural   Li2VCrP2(O4F)2
_chemical_formula_sum   'Li4 V2 Cr2 P4 O16 F4'
_cell_volume   361.57770554
_cell_formula_units_Z   2
loop_
 _symmetry_equiv_pos_site_id
 _symmetry_equiv_pos_as_xyz
  1  'x, y, z'
loop_
 _atom_site_type_symbol
 _atom_site_label
 _atom_site_symmetry_multiplicity
 _atom_site_fract_x
 _atom_site_fract_y
 _atom_site_fract_z
 _atom_site_occupancy
  Li  Li0  1  0.171886  0.558375  0.188431  1
  Li  Li1  1  0.672942  0.056921  0.188402  1
  Li  Li2  1  0.327058  0.943079  0.811598  1
  Li  Li3  1  0.828114  0.441625  0.811569  1
  V  V4  1  0.000000  0.000000  0.500000  1
  V  V5  1  0.500000  0.500000  0.000000  1
  Cr  Cr6  1  0.000000  0.000000  0.000000  1
  Cr  Cr7  1  0.500000  0.500000  0.500000  1
  P  P8  1  0.158992  0.516530  0.762157  1
  P  P9  1  0.659378  0.019765  0.761344  1
  P  P10  1  0.340622  0.980235  0.238656  1
  P  P11  1  0.841008  0.483470  0.237843  1
  O  O12  1  0.233217  0.019050  0.391969  1
  O  O13  1  0.439045  0.191272  0.085847  1
  O  O14  1  0.060123  0.307672  0.916564  1
  O  O15  1  0.016812  0.675110  0.655323  1
  O  O16  1  0.267321  0.480231  0.608619  1
  O  O17  1  0.516267  0.176768  0.657319  1
  O  O18  1  0.229715  0.895579  0.113062  1
  O  O19  1  0.731006  0.396976  0.111820  1
  O  O20  1  0.268994  0.603024  0.888180  1
  O  O21  1  0.770285  0.104421  0.886938  1
  O  O22  1  0.483733  0.823232  0.342681  1
  O  O23  1  0.732679  0.519769  0.391381  1
  O  O24  1  0.983188  0.324890  0.344677  1
  O  O25  1  0.939877  0.692328  0.083436  1
  O  O26  1  0.560955  0.808728  0.914153  1
  O  O27  1  0.766783  0.980950  0.608031  1
  F  F28  1  0.100046  0.028586  0.741292  1
  F  F29  1  0.400082  0.471442  0.267232  1
  F  F30  1  0.599918  0.528558  0.732768  1
  F  F31  1  0.899954  0.971414  0.258708  1
