# generated using pymatgen
data_Li2VCrP2(HO5)2
_symmetry_space_group_name_H-M   'P 1'
_cell_length_a   10.81995294
_cell_length_b   7.38183933
_cell_length_c   5.16801600
_cell_angle_alpha   108.95245482
_cell_angle_beta   97.77703066
_cell_angle_gamma   106.30593170
_symmetry_Int_Tables_number   1
_chemical_formula_structural   Li2VCrP2(HO5)2
_chemical_formula_sum   'Li4 V2 Cr2 P4 H4 O20'
_cell_volume   362.84253912
_cell_formula_units_Z   2
loop_
 _symmetry_equiv_pos_site_id
 _symmetry_equiv_pos_as_xyz
  1  'x, y, z'
loop_
 _atom_site_type_symbol
 _atom_site_label
 _atom_site_symmetry_multiplicity
 _atom_site_fract_x
 _atom_site_fract_y
 _atom_site_fract_z
 _atom_site_occupancy
  Li  Li0  1  0.199056  0.822372  0.747266  1
  Li  Li1  1  0.302014  0.176534  0.253355  1
  Li  Li2  1  0.697986  0.823466  0.746645  1
  Li  Li3  1  0.800944  0.177628  0.252734  1
  V  V4  1  0.000000  0.000000  0.000000  1
  V  V5  1  0.500000  0.500000  0.000000  1
  Cr  Cr6  1  0.000000  0.500000  0.000000  1
  Cr  Cr7  1  0.500000  0.000000  0.000000  1
  P  P8  1  0.180296  0.233182  0.678117  1
  P  P9  1  0.319730  0.768722  0.324172  1
  P  P10  1  0.680270  0.231278  0.675828  1
  P  P11  1  0.819704  0.766818  0.321883  1
  H  H12  1  0.029292  0.341582  0.360226  1
  H  H13  1  0.470239  0.662913  0.640608  1
  H  H14  1  0.529761  0.337087  0.359392  1
  H  H15  1  0.970708  0.658418  0.639774  1
  O  O16  1  0.023463  0.722215  0.838870  1
  O  O17  1  0.101795  0.381335  0.727295  1
  O  O18  1  0.171738  0.660315  0.305892  1
  O  O19  1  0.126838  0.073156  0.371447  1
  O  O20  1  0.170019  0.120140  0.887406  1
  O  O21  1  0.330467  0.880569  0.113960  1
  O  O22  1  0.374164  0.928828  0.631419  1
  O  O23  1  0.327927  0.343597  0.696524  1
  O  O24  1  0.397705  0.619254  0.274084  1
  O  O25  1  0.525525  0.728023  0.837311  1
  O  O26  1  0.474475  0.271977  0.162689  1
  O  O27  1  0.602295  0.380746  0.725916  1
  O  O28  1  0.672073  0.656403  0.303476  1
  O  O29  1  0.625836  0.071172  0.368581  1
  O  O30  1  0.669533  0.119431  0.886040  1
  O  O31  1  0.829981  0.879860  0.112594  1
  O  O32  1  0.873162  0.926844  0.628553  1
  O  O33  1  0.828262  0.339685  0.694108  1
  O  O34  1  0.898205  0.618665  0.272705  1
  O  O35  1  0.976537  0.277785  0.161130  1
