# generated using pymatgen
data_Li4TiV8O18
_symmetry_space_group_name_H-M   'P 1'
_cell_length_a   9.14403496
_cell_length_b   25.13541166
_cell_length_c   2.96071038
_cell_angle_alpha   89.56298843
_cell_angle_beta   90.19611932
_cell_angle_gamma   90.72674766
_symmetry_Int_Tables_number   1
_chemical_formula_structural   Li4TiV8O18
_chemical_formula_sum   'Li8 Ti2 V16 O36'
_cell_volume   680.40866238
_cell_formula_units_Z   2
loop_
 _symmetry_equiv_pos_site_id
 _symmetry_equiv_pos_as_xyz
  1  'x, y, z'
loop_
 _atom_site_type_symbol
 _atom_site_label
 _atom_site_symmetry_multiplicity
 _atom_site_fract_x
 _atom_site_fract_y
 _atom_site_fract_z
 _atom_site_occupancy
  Li  Li0  1  0.184437  0.990201  0.999643  1
  Li  Li1  1  0.168435  0.209137  0.000418  1
  Li  Li2  1  0.327670  0.698305  0.996674  1
  Li  Li3  1  0.312394  0.488288  0.002756  1
  Li  Li4  1  0.698640  0.518824  0.999740  1
  Li  Li5  1  0.701188  0.313266  0.003106  1
  Li  Li6  1  0.804131  0.808950  0.999747  1
  Li  Li7  1  0.809771  0.015472  0.989116  1
  Ti  Ti8  1  0.488870  0.396337  0.005103  1
  Ti  Ti9  1  0.010607  0.897970  0.011588  1
  V  V10  1  0.003775  0.498881  0.000435  1
  V  V11  1  0.993574  0.104688  0.004756  1
  V  V12  1  0.008549  0.310839  0.010422  1
  V  V13  1  0.160198  0.584860  0.499365  1
  V  V14  1  0.152768  0.805018  0.517297  1
  V  V15  1  0.344936  0.302236  0.509912  1
  V  V16  1  0.343244  0.084447  0.491967  1
  V  V17  1  0.490700  0.809544  0.998533  1
  V  V18  1  0.510243  0.602601  0.003576  1
  V  V19  1  0.497960  0.996886  0.998390  1
  V  V20  1  0.512908  0.190086  0.000278  1
  V  V21  1  0.661278  0.915473  0.500649  1
  V  V22  1  0.653683  0.695109  0.499585  1
  V  V23  1  0.843363  0.194624  0.490288  1
  V  V24  1  0.841425  0.415203  0.503068  1
  V  V25  1  0.993683  0.687690  0.995914  1
  O  O26  1  0.993715  0.423939  0.004197  1
  O  O27  1  0.011573  0.575030  0.998144  1
  O  O28  1  0.072332  0.941582  0.500404  1
  O  O29  1  0.044318  0.158646  0.506176  1
  O  O30  1  0.120752  0.662325  0.497895  1
  O  O31  1  0.101642  0.756344  0.979733  1
  O  O32  1  0.152281  0.502884  0.502106  1
  O  O33  1  0.133378  0.283061  0.508377  1
  O  O34  1  0.193031  0.854741  0.018849  1
  O  O35  1  0.201295  0.079087  0.989065  1
  O  O36  1  0.310914  0.582773  0.001084  1
  O  O37  1  0.304840  0.352531  0.010230  1
  O  O38  1  0.360775  0.784392  0.494951  1
  O  O39  1  0.349201  0.003713  0.497584  1
  O  O40  1  0.376463  0.250150  0.995247  1
  O  O41  1  0.389112  0.155638  0.498188  1
  O  O42  1  0.461467  0.660446  0.499284  1
  O  O43  1  0.430660  0.439734  0.497374  1
  O  O44  1  0.485885  0.073395  0.995594  1
  O  O45  1  0.505269  0.923467  0.000450  1
  O  O46  1  0.568752  0.557988  0.507147  1
  O  O47  1  0.539228  0.339741  0.501698  1
  O  O48  1  0.622696  0.837770  0.499077  1
  O  O49  1  0.605742  0.742558  0.996744  1
  O  O50  1  0.645203  0.997104  0.498908  1
  O  O51  1  0.635612  0.215474  0.504243  1
  O  O52  1  0.688191  0.642965  0.003024  1
  O  O53  1  0.692728  0.415356  0.001589  1
  O  O54  1  0.809704  0.919668  0.000024  1
  O  O55  1  0.804343  0.144420  0.983685  1
  O  O56  1  0.856227  0.710836  0.494823  1
  O  O57  1  0.855048  0.496939  0.499121  1
  O  O58  1  0.893932  0.242915  0.024321  1
  O  O59  1  0.875162  0.336835  0.507487  1
  O  O60  1  0.955876  0.842291  0.499501  1
  O  O61  1  0.934224  0.058331  0.451350  1
