# generated using pymatgen
data_K3SbPCO7
_symmetry_space_group_name_H-M   'P 1'
_cell_length_a   10.32556296
_cell_length_b   7.14307052
_cell_length_c   6.03502545
_cell_angle_alpha   90.00000000
_cell_angle_beta   84.47996161
_cell_angle_gamma   90.00000000
_symmetry_Int_Tables_number   1
_chemical_formula_structural   K3SbPCO7
_chemical_formula_sum   'K6 Sb2 P2 C2 O14'
_cell_volume   443.05649597
_cell_formula_units_Z   2
loop_
 _symmetry_equiv_pos_site_id
 _symmetry_equiv_pos_as_xyz
  1  'x, y, z'
loop_
 _atom_site_type_symbol
 _atom_site_label
 _atom_site_symmetry_multiplicity
 _atom_site_fract_x
 _atom_site_fract_y
 _atom_site_fract_z
 _atom_site_occupancy
  K  K0  1  0.078268  0.250000  0.759875  1
  K  K1  1  0.269819  0.999148  0.220632  1
  K  K2  1  0.269819  0.500852  0.220632  1
  K  K3  1  0.730181  0.499148  0.779368  1
  K  K4  1  0.730181  0.000852  0.779368  1
  K  K5  1  0.921732  0.750000  0.240125  1
  Sb  Sb6  1  0.353201  0.750000  0.719807  1
  Sb  Sb7  1  0.646799  0.250000  0.280193  1
  P  P8  1  0.407405  0.250000  0.672313  1
  P  P9  1  0.592595  0.750000  0.327687  1
  C  C10  1  0.055770  0.750000  0.723694  1
  C  C11  1  0.944230  0.250000  0.276306  1
  O  O12  1  0.069062  0.250000  0.227434  1
  O  O13  1  0.132365  0.750000  0.888899  1
  O  O14  1  0.107620  0.750000  0.519772  1
  O  O15  1  0.320120  0.075162  0.743835  1
  O  O16  1  0.320120  0.424838  0.743835  1
  O  O17  1  0.430067  0.250000  0.408423  1
  O  O18  1  0.463398  0.750000  0.225953  1
  O  O19  1  0.536601  0.250000  0.774047  1
  O  O20  1  0.569933  0.750000  0.591577  1
  O  O21  1  0.679880  0.575162  0.256165  1
  O  O22  1  0.679880  0.924838  0.256165  1
  O  O23  1  0.892380  0.250000  0.480228  1
  O  O24  1  0.867635  0.250000  0.111101  1
  O  O25  1  0.930938  0.750000  0.772566  1
