# generated using pymatgen
data_Na5CoHO4
_symmetry_space_group_name_H-M   'P 1'
_cell_length_a   9.94047231
_cell_length_b   10.11242647
_cell_length_c   11.99202964
_cell_angle_alpha   90.00000000
_cell_angle_beta   90.00000000
_cell_angle_gamma   90.00000000
_symmetry_Int_Tables_number   1
_chemical_formula_structural   Na5CoHO4
_chemical_formula_sum   'Na40 Co8 H8 O32'
_cell_volume   1205.46634486
_cell_formula_units_Z   8
loop_
 _symmetry_equiv_pos_site_id
 _symmetry_equiv_pos_as_xyz
  1  'x, y, z'
loop_
 _atom_site_type_symbol
 _atom_site_label
 _atom_site_symmetry_multiplicity
 _atom_site_fract_x
 _atom_site_fract_y
 _atom_site_fract_z
 _atom_site_occupancy
  Na  Na0  1  0.980933  0.590175  0.209551  1
  Na  Na1  1  0.980933  0.909825  0.209551  1
  Na  Na2  1  0.073195  0.067054  0.413650  1
  Na  Na3  1  0.073195  0.432946  0.413650  1
  Na  Na4  1  0.080867  0.750000  0.446076  1
  Na  Na5  1  0.117356  0.250000  0.983701  1
  Na  Na6  1  0.131284  0.566792  0.990433  1
  Na  Na7  1  0.131284  0.933208  0.990433  1
  Na  Na8  1  0.218317  0.579721  0.678163  1
  Na  Na9  1  0.218317  0.920279  0.678163  1
  Na  Na10  1  0.281683  0.079721  0.178163  1
  Na  Na11  1  0.281683  0.420279  0.178163  1
  Na  Na12  1  0.368716  0.066792  0.490433  1
  Na  Na13  1  0.368716  0.433208  0.490433  1
  Na  Na14  1  0.382644  0.750000  0.483701  1
  Na  Na15  1  0.419133  0.250000  0.946076  1
  Na  Na16  1  0.426805  0.567054  0.913651  1
  Na  Na17  1  0.426805  0.932946  0.913651  1
  Na  Na18  1  0.519067  0.090175  0.709551  1
  Na  Na19  1  0.519067  0.409825  0.709551  1
  Na  Na20  1  0.480933  0.590175  0.290449  1
  Na  Na21  1  0.480933  0.909825  0.290449  1
  Na  Na22  1  0.573195  0.067054  0.086349  1
  Na  Na23  1  0.573195  0.432946  0.086349  1
  Na  Na24  1  0.580867  0.750000  0.053924  1
  Na  Na25  1  0.617356  0.250000  0.516299  1
  Na  Na26  1  0.631284  0.566792  0.509567  1
  Na  Na27  1  0.631284  0.933208  0.509567  1
  Na  Na28  1  0.718317  0.579721  0.821837  1
  Na  Na29  1  0.718317  0.920279  0.821837  1
  Na  Na30  1  0.781683  0.079721  0.321837  1
  Na  Na31  1  0.781683  0.420279  0.321837  1
  Na  Na32  1  0.868716  0.066792  0.009567  1
  Na  Na33  1  0.868716  0.433208  0.009567  1
  Na  Na34  1  0.882644  0.750000  0.016299  1
  Na  Na35  1  0.919133  0.250000  0.553924  1
  Na  Na36  1  0.926805  0.932946  0.586349  1
  Na  Na37  1  0.926805  0.567054  0.586349  1
  Na  Na38  1  0.019067  0.090175  0.790449  1
  Na  Na39  1  0.019067  0.409825  0.790449  1
  Co  Co40  1  0.012513  0.250000  0.210640  1
  Co  Co41  1  0.208581  0.250000  0.618931  1
  Co  Co42  1  0.291419  0.750000  0.118931  1
  Co  Co43  1  0.487487  0.750000  0.710640  1
  Co  Co44  1  0.512513  0.250000  0.289360  1
  Co  Co45  1  0.708581  0.250000  0.881069  1
  Co  Co46  1  0.791419  0.750000  0.381069  1
  Co  Co47  1  0.987487  0.750000  0.789360  1
  H  H48  1  0.226942  0.624662  0.309922  1
  H  H49  1  0.226942  0.875338  0.309922  1
  H  H50  1  0.273058  0.124662  0.809922  1
  H  H51  1  0.273058  0.375338  0.809922  1
  H  H52  1  0.726942  0.624662  0.190078  1
  H  H53  1  0.726942  0.875338  0.190078  1
  H  H54  1  0.773058  0.124662  0.690078  1
  H  H55  1  0.773058  0.375338  0.690078  1
  O  O56  1  0.058951  0.750000  0.649124  1
  O  O57  1  0.059706  0.099195  0.124833  1
  O  O58  1  0.059706  0.400805  0.124833  1
  O  O59  1  0.095670  0.099361  0.606817  1
  O  O60  1  0.095670  0.400639  0.606817  1
  O  O61  1  0.108092  0.750000  0.118679  1
  O  O62  1  0.246765  0.080420  0.878455  1
  O  O63  1  0.246765  0.419580  0.878455  1
  O  O64  1  0.253235  0.580420  0.378455  1
  O  O65  1  0.253235  0.919580  0.378455  1
  O  O66  1  0.391908  0.250000  0.618679  1
  O  O67  1  0.404330  0.599361  0.106817  1
  O  O68  1  0.404330  0.900639  0.106817  1
  O  O69  1  0.440294  0.599195  0.624833  1
  O  O70  1  0.440294  0.900805  0.624833  1
  O  O71  1  0.441049  0.250000  0.149124  1
  O  O72  1  0.558951  0.750000  0.850876  1
  O  O73  1  0.559706  0.099195  0.375167  1
  O  O74  1  0.559706  0.400805  0.375167  1
  O  O75  1  0.595670  0.099361  0.893183  1
  O  O76  1  0.595670  0.400639  0.893183  1
  O  O77  1  0.608092  0.750000  0.381321  1
  O  O78  1  0.746765  0.080420  0.621545  1
  O  O79  1  0.746765  0.419580  0.621545  1
  O  O80  1  0.753235  0.580420  0.121545  1
  O  O81  1  0.753235  0.919580  0.121545  1
  O  O82  1  0.891908  0.250000  0.881321  1
  O  O83  1  0.904330  0.900639  0.393183  1
  O  O84  1  0.904330  0.599361  0.393183  1
  O  O85  1  0.940294  0.900805  0.875167  1
  O  O86  1  0.940294  0.599195  0.875167  1
  O  O87  1  0.941049  0.250000  0.350876  1
