# generated using pymatgen
data_BaNa4O3
_symmetry_space_group_name_H-M   'P 1'
_cell_length_a   5.93946693
_cell_length_b   9.43542052
_cell_length_c   5.84049389
_cell_angle_alpha   89.28043801
_cell_angle_beta   92.28672558
_cell_angle_gamma   108.34530495
_symmetry_Int_Tables_number   1
_chemical_formula_structural   BaNa4O3
_chemical_formula_sum   'Ba2 Na8 O6'
_cell_volume   310.42699601
_cell_formula_units_Z   2
loop_
 _symmetry_equiv_pos_site_id
 _symmetry_equiv_pos_as_xyz
  1  'x, y, z'
loop_
 _atom_site_type_symbol
 _atom_site_label
 _atom_site_symmetry_multiplicity
 _atom_site_fract_x
 _atom_site_fract_y
 _atom_site_fract_z
 _atom_site_occupancy
  Ba  Ba0  1  0.152782  0.310669  0.260993  1
  Ba  Ba1  1  0.842113  0.689331  0.760993  1
  Na  Na2  1  0.476651  0.961048  0.770035  1
  Na  Na3  1  0.013041  0.052879  0.755952  1
  Na  Na4  1  0.246754  0.526290  0.790161  1
  Na  Na5  1  0.323206  0.726715  0.302152  1
  Na  Na6  1  0.596491  0.273285  0.802152  1
  Na  Na7  1  0.515603  0.038952  0.270035  1
  Na  Na8  1  0.960162  0.947121  0.255952  1
  Na  Na9  1  0.720464  0.473710  0.290161  1
  O  O10  1  0.172617  0.853383  0.012141  1
  O  O11  1  0.047209  0.532116  0.481599  1
  O  O12  1  0.319234  0.146617  0.512141  1
  O  O13  1  0.672543  0.858130  0.519655  1
  O  O14  1  0.515093  0.467884  0.981599  1
  O  O15  1  0.814411  0.141870  0.019655  1
