# generated using pymatgen
data_Li3V4(OF3)3
_symmetry_space_group_name_H-M   'P 1'
_cell_length_a   5.12435592
_cell_length_b   5.51201427
_cell_length_c   7.70100596
_cell_angle_alpha   85.26217353
_cell_angle_beta   89.03984443
_cell_angle_gamma   92.33340165
_symmetry_Int_Tables_number   1
_chemical_formula_structural   Li3V4(OF3)3
_chemical_formula_sum   'Li3 V4 O3 F9'
_cell_volume   216.55173139
_cell_formula_units_Z   1
loop_
 _symmetry_equiv_pos_site_id
 _symmetry_equiv_pos_as_xyz
  1  'x, y, z'
loop_
 _atom_site_type_symbol
 _atom_site_label
 _atom_site_symmetry_multiplicity
 _atom_site_fract_x
 _atom_site_fract_y
 _atom_site_fract_z
 _atom_site_occupancy
  Li  Li0  1  0.022102  0.395970  0.216385  1
  Li  Li1  1  0.489331  0.947025  0.189463  1
  Li  Li2  1  0.510070  0.061063  0.807111  1
  V  V3  1  0.011013  0.009969  0.501766  1
  V  V4  1  0.487627  0.487860  0.497364  1
  V  V5  1  0.497564  0.501994  0.994319  1
  V  V6  1  0.996937  0.994039  0.998047  1
  O  O7  1  0.194149  0.302835  0.440636  1
  O  O8  1  0.296396  0.198774  0.053873  1
  O  O9  1  0.674978  0.816007  0.962697  1
  F  F10  1  0.149352  0.979176  0.750953  1
  F  F11  1  0.181568  0.687652  0.087516  1
  F  F12  1  0.313596  0.811833  0.420814  1
  F  F13  1  0.384143  0.503138  0.745435  1
  F  F14  1  0.642446  0.490022  0.250875  1
  F  F15  1  0.684826  0.175352  0.579738  1
  F  F16  1  0.805118  0.694807  0.547219  1
  F  F17  1  0.803444  0.300577  0.924853  1
  F  F18  1  0.856859  0.031182  0.252112  1
