# generated using pymatgen
data_H7IN2
_symmetry_space_group_name_H-M   'P 1'
_cell_length_a   7.37231284
_cell_length_b   7.35795857
_cell_length_c   9.74706865
_cell_angle_alpha   90.00006205
_cell_angle_beta   89.99994174
_cell_angle_gamma   90.00001844
_symmetry_Int_Tables_number   1
_chemical_formula_structural   H7IN2
_chemical_formula_sum   'H28 I4 N8'
_cell_volume   528.73141972
_cell_formula_units_Z   4
loop_
 _symmetry_equiv_pos_site_id
 _symmetry_equiv_pos_as_xyz
  1  'x, y, z'
loop_
 _atom_site_type_symbol
 _atom_site_label
 _atom_site_symmetry_multiplicity
 _atom_site_fract_x
 _atom_site_fract_y
 _atom_site_fract_z
 _atom_site_occupancy
  H  H0  1  1.000000  0.000000  0.500000  1
  H  H1  1  0.500000  0.499999  1.000000  1
  H  H2  1  0.500000  0.500000  0.499999  1
  H  H3  1  1.000000  1.000000  0.000000  1
  H  H4  1  0.844175  0.170473  0.597091  1
  H  H5  1  0.655824  0.329527  0.097091  1
  H  H6  1  0.655824  0.670473  0.402909  1
  H  H7  1  0.844176  0.829527  0.902909  1
  H  H8  1  0.155824  0.829527  0.402909  1
  H  H9  1  0.344176  0.670472  0.902908  1
  H  H10  1  0.344176  0.329528  0.597091  1
  H  H11  1  0.155824  0.170473  0.097091  1
  H  H12  1  0.911361  0.234098  0.441659  1
  H  H13  1  0.588638  0.265902  0.941659  1
  H  H14  1  0.588638  0.734098  0.558341  1
  H  H15  1  0.911361  0.765902  0.058341  1
  H  H16  1  0.088639  0.765902  0.558341  1
  H  H17  1  0.411361  0.734098  0.058340  1
  H  H18  1  0.411362  0.265902  0.441659  1
  H  H19  1  0.088639  0.234098  0.941659  1
  H  H20  1  0.754967  0.073194  0.458388  1
  H  H21  1  0.745033  0.426806  0.958388  1
  H  H22  1  0.745033  0.573194  0.541611  1
  H  H23  1  0.754967  0.926805  0.041612  1
  H  H24  1  0.245033  0.926805  0.541612  1
  H  H25  1  0.254967  0.573194  0.041611  1
  H  H26  1  0.254967  0.426805  0.458388  1
  H  H27  1  0.245033  0.073195  0.958388  1
  I  I28  1  0.010731  0.500001  0.750000  1
  I  I29  1  0.489275  0.000001  0.250000  1
  I  I30  1  0.989271  0.500000  0.250000  1
  I  I31  1  0.510728  0.000001  0.750000  1
  N  N32  1  0.872728  0.123669  0.500361  1
  N  N33  1  0.627272  0.376332  0.000361  1
  N  N34  1  0.627270  0.623667  0.499639  1
  N  N35  1  0.872727  0.876330  0.999640  1
  N  N36  1  0.127271  0.876333  0.499639  1
  N  N37  1  0.372729  0.623667  0.999638  1
  N  N38  1  0.372728  0.376332  0.500361  1
  N  N39  1  0.127272  0.123669  0.000361  1
