# generated using pymatgen
data_Li2NbCr3O8
_symmetry_space_group_name_H-M   'P 1'
_cell_length_a   8.53029556
_cell_length_b   8.53029759
_cell_length_c   8.53039695
_cell_angle_alpha   89.99996225
_cell_angle_beta   89.99994385
_cell_angle_gamma   90.00003432
_symmetry_Int_Tables_number   1
_chemical_formula_structural   Li2NbCr3O8
_chemical_formula_sum   'Li8 Nb4 Cr12 O32'
_cell_volume   620.72252033
_cell_formula_units_Z   4
loop_
 _symmetry_equiv_pos_site_id
 _symmetry_equiv_pos_as_xyz
  1  'x, y, z'
loop_
 _atom_site_type_symbol
 _atom_site_label
 _atom_site_symmetry_multiplicity
 _atom_site_fract_x
 _atom_site_fract_y
 _atom_site_fract_z
 _atom_site_occupancy
  Li  Li0  1  0.995551  0.995560  0.995555  1
  Li  Li1  1  0.254439  0.254435  0.254437  1
  Li  Li2  1  0.245566  0.745568  0.754434  1
  Li  Li3  1  0.504448  0.004444  0.495555  1
  Li  Li4  1  0.495559  0.504445  0.004449  1
  Li  Li5  1  0.754444  0.245569  0.745569  1
  Li  Li6  1  0.745562  0.754437  0.245564  1
  Li  Li7  1  0.004452  0.495557  0.504449  1
  Nb  Nb8  1  0.124920  0.875079  0.375047  1
  Nb  Nb9  1  0.375076  0.124931  0.875049  1
  Nb  Nb10  1  0.624924  0.624923  0.624951  1
  Nb  Nb11  1  0.875077  0.375075  0.124964  1
  Cr  Cr12  1  0.121447  0.128670  0.625066  1
  Cr  Cr13  1  0.125045  0.378562  0.871315  1
  Cr  Cr14  1  0.128680  0.625064  0.121429  1
  Cr  Cr15  1  0.371321  0.374944  0.621456  1
  Cr  Cr16  1  0.374930  0.621473  0.371312  1
  Cr  Cr17  1  0.378555  0.871324  0.125058  1
  Cr  Cr18  1  0.621416  0.371298  0.374951  1
  Cr  Cr19  1  0.625045  0.121447  0.128694  1
  Cr  Cr20  1  0.628683  0.874942  0.878560  1
  Cr  Cr21  1  0.871311  0.125067  0.378580  1
  Cr  Cr22  1  0.874927  0.878563  0.628684  1
  Cr  Cr23  1  0.878570  0.628696  0.874936  1
  O  O24  1  0.113595  0.111796  0.385745  1
  O  O25  1  0.114268  0.886408  0.611775  1
  O  O26  1  0.111304  0.611305  0.888709  1
  O  O27  1  0.138214  0.136413  0.864282  1
  O  O28  1  0.111802  0.385734  0.113581  1
  O  O29  1  0.138720  0.361281  0.638696  1
  O  O30  1  0.135720  0.638217  0.363599  1
  O  O31  1  0.136411  0.864287  0.138189  1
  O  O32  1  0.363594  0.135715  0.638193  1
  O  O33  1  0.364283  0.361788  0.863602  1
  O  O34  1  0.361284  0.638718  0.138693  1
  O  O35  1  0.388203  0.614270  0.613583  1
  O  O36  1  0.361791  0.863590  0.364280  1
  O  O37  1  0.388701  0.388700  0.388715  1
  O  O38  1  0.385727  0.113589  0.111780  1
  O  O39  1  0.386410  0.888206  0.885744  1
  O  O40  1  0.613594  0.388205  0.614267  1
  O  O41  1  0.614270  0.613588  0.388231  1
  O  O42  1  0.611297  0.888705  0.111291  1
  O  O43  1  0.638214  0.363591  0.135729  1
  O  O44  1  0.611797  0.114275  0.886424  1
  O  O45  1  0.638717  0.138710  0.361314  1
  O  O46  1  0.635715  0.861791  0.636401  1
  O  O47  1  0.636416  0.635722  0.861813  1
  O  O48  1  0.863595  0.364282  0.361815  1
  O  O49  1  0.864279  0.138217  0.136406  1
  O  O50  1  0.861284  0.861294  0.861302  1
  O  O51  1  0.888204  0.885732  0.386415  1
  O  O52  1  0.861791  0.636417  0.635720  1
  O  O53  1  0.888705  0.111302  0.611293  1
  O  O54  1  0.885734  0.386416  0.888227  1
  O  O55  1  0.886412  0.611802  0.114259  1
