# generated using pymatgen
data_Fe2Ni3Sb(PO4)6
_symmetry_space_group_name_H-M   'P 1'
_cell_length_a   8.45525797
_cell_length_b   8.45525777
_cell_length_c   8.45525755
_cell_angle_alpha   61.73664335
_cell_angle_beta   61.73664081
_cell_angle_gamma   61.73663664
_symmetry_Int_Tables_number   1
_chemical_formula_structural   Fe2Ni3Sb(PO4)6
_chemical_formula_sum   'Fe2 Ni3 Sb1 P6 O24'
_cell_volume   444.06529062
_cell_formula_units_Z   1
loop_
 _symmetry_equiv_pos_site_id
 _symmetry_equiv_pos_as_xyz
  1  'x, y, z'
loop_
 _atom_site_type_symbol
 _atom_site_label
 _atom_site_symmetry_multiplicity
 _atom_site_fract_x
 _atom_site_fract_y
 _atom_site_fract_z
 _atom_site_occupancy
  Fe  Fe0  1  0.010042  0.010042  0.010042  1
  Fe  Fe1  1  0.499206  0.499206  0.499206  1
  Ni  Ni2  1  0.146016  0.146016  0.146016  1
  Ni  Ni3  1  0.356065  0.356065  0.356065  1
  Ni  Ni4  1  0.641970  0.641970  0.641970  1
  Sb  Sb5  1  0.857219  0.857219  0.857219  1
  P  P6  1  0.743075  0.453353  0.048027  1
  P  P7  1  0.254185  0.542070  0.950067  1
  P  P8  1  0.542070  0.950067  0.254185  1
  P  P9  1  0.950067  0.254185  0.542070  1
  P  P10  1  0.048027  0.743075  0.453353  1
  P  P11  1  0.453353  0.048027  0.743075  1
  O  O12  1  0.103439  0.317945  0.512702  1
  O  O13  1  0.317945  0.512702  0.103439  1
  O  O14  1  0.059671  0.902864  0.255078  1
  O  O15  1  0.512702  0.103439  0.317945  1
  O  O16  1  0.009963  0.819727  0.610302  1
  O  O17  1  0.250219  0.596761  0.442608  1
  O  O18  1  0.255078  0.059671  0.902864  1
  O  O19  1  0.442608  0.250219  0.596761  1
  O  O20  1  0.176936  0.395177  0.987704  1
  O  O21  1  0.596761  0.442608  0.250219  1
  O  O22  1  0.090328  0.752331  0.936600  1
  O  O23  1  0.395177  0.987704  0.176936  1
  O  O24  1  0.610302  0.009963  0.819727  1
  O  O25  1  0.902864  0.255078  0.059671  1
  O  O26  1  0.400601  0.564520  0.746142  1
  O  O27  1  0.819727  0.610302  0.009963  1
  O  O28  1  0.564520  0.746142  0.400601  1
  O  O29  1  0.752331  0.936600  0.090328  1
  O  O30  1  0.746142  0.400601  0.564520  1
  O  O31  1  0.987704  0.176936  0.395177  1
  O  O32  1  0.500379  0.894959  0.671752  1
  O  O33  1  0.936600  0.090328  0.752331  1
  O  O34  1  0.671752  0.500379  0.894959  1
  O  O35  1  0.894959  0.671752  0.500379  1
