# generated using pymatgen
data_Li2Fe3F8
_symmetry_space_group_name_H-M   'P 1'
_cell_length_a   5.28579887
_cell_length_b   5.74519074
_cell_length_c   7.00382390
_cell_angle_alpha   55.36421190
_cell_angle_beta   68.58713291
_cell_angle_gamma   62.40584834
_symmetry_Int_Tables_number   1
_chemical_formula_structural   Li2Fe3F8
_chemical_formula_sum   'Li2 Fe3 F8'
_cell_volume   153.57335151
_cell_formula_units_Z   1
loop_
 _symmetry_equiv_pos_site_id
 _symmetry_equiv_pos_as_xyz
  1  'x, y, z'
loop_
 _atom_site_type_symbol
 _atom_site_label
 _atom_site_symmetry_multiplicity
 _atom_site_fract_x
 _atom_site_fract_y
 _atom_site_fract_z
 _atom_site_occupancy
  Li  Li0  1  0.437953  0.339396  0.761314  1
  Li  Li1  1  0.562047  0.660604  0.238686  1
  Fe  Fe2  1  0.000000  0.000000  0.000000  1
  Fe  Fe3  1  0.230977  0.172497  0.356451  1
  Fe  Fe4  1  0.769023  0.827503  0.643549  1
  F  F5  1  0.219191  0.171070  0.061276  1
  F  F6  1  0.197714  0.722653  0.552420  1
  F  F7  1  0.330941  0.074844  0.679858  1
  F  F8  1  0.274770  0.591660  0.183049  1
  F  F9  1  0.725230  0.408340  0.816951  1
  F  F10  1  0.669059  0.925156  0.320142  1
  F  F11  1  0.802286  0.277347  0.447580  1
  F  F12  1  0.780809  0.828930  0.938724  1
