# generated using pymatgen
data_Na4Al4H10O13
_symmetry_space_group_name_H-M   'P 1'
_cell_length_a   10.58900181
_cell_length_b   10.58873128
_cell_length_c   5.37252781
_cell_angle_alpha   89.99882280
_cell_angle_beta   90.00116307
_cell_angle_gamma   89.99999481
_symmetry_Int_Tables_number   1
_chemical_formula_structural   Na4Al4H10O13
_chemical_formula_sum   'Na8 Al8 H20 O26'
_cell_volume   602.38981676
_cell_formula_units_Z   2
loop_
 _symmetry_equiv_pos_site_id
 _symmetry_equiv_pos_as_xyz
  1  'x, y, z'
loop_
 _atom_site_type_symbol
 _atom_site_label
 _atom_site_symmetry_multiplicity
 _atom_site_fract_x
 _atom_site_fract_y
 _atom_site_fract_z
 _atom_site_occupancy
  Na  Na0  1  0.100286  0.600333  0.406801  1
  Na  Na1  1  0.197579  0.302379  0.673928  1
  Na  Na2  1  0.302410  0.802375  0.326058  1
  Na  Na3  1  0.399721  0.100348  0.593200  1
  Na  Na4  1  0.600269  0.899659  0.593198  1
  Na  Na5  1  0.697625  0.197588  0.326058  1
  Na  Na6  1  0.802406  0.697631  0.673955  1
  Na  Na7  1  0.899662  0.399717  0.406800  1
  Al  Al8  1  0.094878  0.810751  0.897758  1
  Al  Al9  1  0.189248  0.094885  0.102264  1
  Al  Al10  1  0.310737  0.594884  0.897742  1
  Al  Al11  1  0.405117  0.310746  0.102239  1
  Al  Al12  1  0.594878  0.689261  0.102244  1
  Al  Al13  1  0.689259  0.405123  0.897747  1
  Al  Al14  1  0.810746  0.905118  0.102268  1
  Al  Al15  1  0.905120  0.189251  0.897736  1
  H  H16  1  0.015986  0.838545  0.485707  1
  H  H17  1  0.053989  0.553924  0.887051  1
  H  H18  1  0.085428  0.310904  0.180193  1
  H  H19  1  0.161515  0.016007  0.514293  1
  H  H20  1  0.189101  0.414570  0.180198  1
  H  H21  1  0.310879  0.914575  0.819819  1
  H  H22  1  0.338481  0.516009  0.485722  1
  H  H23  1  0.414541  0.810894  0.819867  1
  H  H24  1  0.446001  0.053919  0.112943  1
  H  H25  1  0.484019  0.338540  0.514275  1
  H  H26  1  0.515980  0.661455  0.514283  1
  H  H27  1  0.553995  0.946084  0.112931  1
  H  H28  1  0.585455  0.189107  0.819846  1
  H  H29  1  0.661461  0.484023  0.485717  1
  H  H30  1  0.689119  0.085428  0.819828  1
  H  H31  1  0.810879  0.585449  0.180143  1
  H  H32  1  0.838488  0.983990  0.514303  1
  H  H33  1  0.914554  0.689118  0.180134  1
  H  H34  1  0.946076  0.446009  0.887050  1
  H  H35  1  0.983989  0.161508  0.485703  1
  O  O36  1  0.000023  0.499976  0.777375  1
  O  O37  1  0.062782  0.189803  0.999019  1
  O  O38  1  0.095562  0.810212  0.560698  1
  O  O39  1  0.115259  0.384741  0.286401  1
  O  O40  1  0.168458  0.668462  0.998311  1
  O  O41  1  0.189793  0.937219  0.000987  1
  O  O42  1  0.189824  0.095582  0.439329  1
  O  O43  1  0.310175  0.595574  0.560664  1
  O  O44  1  0.310186  0.437214  0.999026  1
  O  O45  1  0.331535  0.168456  0.001706  1
  O  O46  1  0.384722  0.884738  0.713634  1
  O  O47  1  0.404440  0.310221  0.439309  1
  O  O48  1  0.437207  0.689805  0.000969  1
  O  O49  1  0.500001  0.999998  0.222613  1
  O  O50  1  0.562784  0.310202  0.000950  1
  O  O51  1  0.595549  0.689789  0.439314  1
  O  O52  1  0.615276  0.115263  0.713632  1
  O  O53  1  0.668461  0.831547  0.001692  1
  O  O54  1  0.689804  0.562794  0.999025  1
  O  O55  1  0.689795  0.404448  0.560681  1
  O  O56  1  0.810167  0.904426  0.439336  1
  O  O57  1  0.810211  0.062785  0.000989  1
  O  O58  1  0.831545  0.331538  0.998293  1
  O  O59  1  0.884729  0.615272  0.286345  1
  O  O60  1  0.904420  0.189820  0.560670  1
  O  O61  1  0.937212  0.810206  0.999027  1
