# generated using pymatgen
data_Na3Ni2P2(CO7)2
_symmetry_space_group_name_H-M   'P 1'
_cell_length_a   8.92364179
_cell_length_b   10.36336658
_cell_length_c   6.55048399
_cell_angle_alpha   89.89899522
_cell_angle_beta   90.91708496
_cell_angle_gamma   88.51752004
_symmetry_Int_Tables_number   1
_chemical_formula_structural   Na3Ni2P2(CO7)2
_chemical_formula_sum   'Na6 Ni4 P4 C4 O28'
_cell_volume   605.50024499
_cell_formula_units_Z   2
loop_
 _symmetry_equiv_pos_site_id
 _symmetry_equiv_pos_as_xyz
  1  'x, y, z'
loop_
 _atom_site_type_symbol
 _atom_site_label
 _atom_site_symmetry_multiplicity
 _atom_site_fract_x
 _atom_site_fract_y
 _atom_site_fract_z
 _atom_site_occupancy
  Na  Na0  1  0.254887  0.123537  0.031063  1
  Na  Na1  1  0.252537  0.619839  0.009742  1
  Na  Na2  1  0.251566  0.623341  0.485205  1
  Na  Na3  1  0.745113  0.376463  0.968937  1
  Na  Na4  1  0.748434  0.876659  0.514795  1
  Na  Na5  1  0.747463  0.880161  0.990258  1
  Ni  Ni6  1  0.346883  0.387778  0.744529  1
  Ni  Ni7  1  0.343627  0.893502  0.745839  1
  Ni  Ni8  1  0.653117  0.112222  0.255471  1
  Ni  Ni9  1  0.656373  0.606498  0.254161  1
  P  P10  1  0.427355  0.361317  0.248641  1
  P  P11  1  0.422898  0.856649  0.250281  1
  P  P12  1  0.572645  0.138683  0.751359  1
  P  P13  1  0.577102  0.643351  0.749719  1
  C  C14  1  0.075128  0.356213  0.746062  1
  C  C15  1  0.072713  0.857214  0.752446  1
  C  C16  1  0.924872  0.143787  0.253938  1
  C  C17  1  0.927287  0.642786  0.247554  1
  O  O18  1  0.062937  0.161555  0.249751  1
  O  O19  1  0.065604  0.662163  0.243415  1
  O  O20  1  0.133277  0.470418  0.741078  1
  O  O21  1  0.130407  0.970189  0.751261  1
  O  O22  1  0.174012  0.262021  0.747880  1
  O  O23  1  0.174179  0.763200  0.748515  1
  O  O24  1  0.323477  0.396214  0.061677  1
  O  O25  1  0.331701  0.401112  0.434244  1
  O  O26  1  0.322263  0.893060  0.062439  1
  O  O27  1  0.323804  0.884485  0.437042  1
  O  O28  1  0.422983  0.067008  0.759242  1
  O  O29  1  0.428239  0.569798  0.748015  1
  O  O30  1  0.465289  0.214277  0.242723  1
  O  O31  1  0.461591  0.707364  0.245160  1
  O  O32  1  0.534711  0.285723  0.757277  1
  O  O33  1  0.538409  0.792636  0.754840  1
  O  O34  1  0.577017  0.432992  0.240758  1
  O  O35  1  0.571761  0.930202  0.251985  1
  O  O36  1  0.668299  0.098888  0.565756  1
  O  O37  1  0.676523  0.103786  0.938323  1
  O  O38  1  0.676196  0.615515  0.562958  1
  O  O39  1  0.677737  0.606940  0.937561  1
  O  O40  1  0.825988  0.237979  0.252120  1
  O  O41  1  0.825821  0.736800  0.251485  1
  O  O42  1  0.866723  0.029582  0.258922  1
  O  O43  1  0.869593  0.529811  0.248739  1
  O  O44  1  0.937063  0.338445  0.750249  1
  O  O45  1  0.934396  0.837837  0.756585  1
