# generated using pymatgen
data_Li2Fe2(SiO3)3
_symmetry_space_group_name_H-M   'P 1'
_cell_length_a   12.80535807
_cell_length_b   10.07081554
_cell_length_c   7.08146037
_cell_angle_alpha   90.00000000
_cell_angle_beta   90.00000000
_cell_angle_gamma   90.00000000
_symmetry_Int_Tables_number   1
_chemical_formula_structural   Li2Fe2(SiO3)3
_chemical_formula_sum   'Li8 Fe8 Si12 O36'
_cell_volume   913.22795515
_cell_formula_units_Z   4
loop_
 _symmetry_equiv_pos_site_id
 _symmetry_equiv_pos_as_xyz
  1  'x, y, z'
loop_
 _atom_site_type_symbol
 _atom_site_label
 _atom_site_symmetry_multiplicity
 _atom_site_fract_x
 _atom_site_fract_y
 _atom_site_fract_z
 _atom_site_occupancy
  Li  Li0  1  0.157902  0.511591  0.568582  1
  Li  Li1  1  0.157902  0.988409  0.568582  1
  Li  Li2  1  0.342098  0.011591  0.068582  1
  Li  Li3  1  0.342098  0.488409  0.068582  1
  Li  Li4  1  0.657902  0.511591  0.931418  1
  Li  Li5  1  0.657902  0.988409  0.931418  1
  Li  Li6  1  0.842098  0.011591  0.431418  1
  Li  Li7  1  0.842098  0.488409  0.431418  1
  Fe  Fe8  1  0.091056  0.567175  0.117606  1
  Fe  Fe9  1  0.091056  0.932825  0.117606  1
  Fe  Fe10  1  0.408944  0.067175  0.617606  1
  Fe  Fe11  1  0.408944  0.432825  0.617606  1
  Fe  Fe12  1  0.591056  0.567175  0.382394  1
  Fe  Fe13  1  0.591056  0.932825  0.382394  1
  Fe  Fe14  1  0.908944  0.067175  0.882394  1
  Fe  Fe15  1  0.908944  0.432825  0.882394  1
  Si  Si16  1  0.025636  0.750000  0.469479  1
  Si  Si17  1  0.062024  0.250000  0.129368  1
  Si  Si18  1  0.211836  0.250000  0.461011  1
  Si  Si19  1  0.288164  0.750000  0.961011  1
  Si  Si20  1  0.437976  0.750000  0.629368  1
  Si  Si21  1  0.474364  0.250000  0.969479  1
  Si  Si22  1  0.525636  0.750000  0.030521  1
  Si  Si23  1  0.562024  0.250000  0.370632  1
  Si  Si24  1  0.711836  0.250000  0.038989  1
  Si  Si25  1  0.788164  0.750000  0.538989  1
  Si  Si26  1  0.937976  0.750000  0.870632  1
  Si  Si27  1  0.974364  0.250000  0.530521  1
  O  O28  1  0.031446  0.750000  0.704212  1
  O  O29  1  0.050542  0.115290  0.004850  1
  O  O30  1  0.050542  0.384710  0.004850  1
  O  O31  1  0.080301  0.614369  0.391324  1
  O  O32  1  0.080301  0.885631  0.391324  1
  O  O33  1  0.100587  0.250000  0.582874  1
  O  O34  1  0.229869  0.889504  0.009352  1
  O  O35  1  0.229869  0.610496  0.009352  1
  O  O36  1  0.177934  0.250000  0.234335  1
  O  O37  1  0.322066  0.750000  0.734335  1
  O  O38  1  0.270131  0.110496  0.509352  1
  O  O39  1  0.270131  0.389504  0.509352  1
  O  O40  1  0.399413  0.750000  0.082874  1
  O  O41  1  0.419699  0.114369  0.891324  1
  O  O42  1  0.419699  0.385631  0.891324  1
  O  O43  1  0.449458  0.615290  0.504850  1
  O  O44  1  0.449458  0.884710  0.504850  1
  O  O45  1  0.468554  0.250000  0.204212  1
  O  O46  1  0.531446  0.750000  0.795788  1
  O  O47  1  0.550542  0.115290  0.495150  1
  O  O48  1  0.550542  0.384710  0.495150  1
  O  O49  1  0.580301  0.614369  0.108676  1
  O  O50  1  0.580301  0.885631  0.108676  1
  O  O51  1  0.600587  0.250000  0.917126  1
  O  O52  1  0.729869  0.610496  0.490648  1
  O  O53  1  0.729869  0.889504  0.490648  1
  O  O54  1  0.677934  0.250000  0.265665  1
  O  O55  1  0.822066  0.750000  0.765665  1
  O  O56  1  0.770131  0.110496  0.990648  1
  O  O57  1  0.770131  0.389504  0.990648  1
  O  O58  1  0.899413  0.750000  0.417126  1
  O  O59  1  0.919699  0.114369  0.608676  1
  O  O60  1  0.919699  0.385631  0.608676  1
  O  O61  1  0.949458  0.615290  0.995150  1
  O  O62  1  0.949458  0.884710  0.995150  1
  O  O63  1  0.968554  0.250000  0.295788  1
