# generated using pymatgen
data_FePO4
_symmetry_space_group_name_H-M   'P 1'
_cell_length_a   10.42315303
_cell_length_b   14.31537871
_cell_length_c   5.23831472
_cell_angle_alpha   90.00000000
_cell_angle_beta   90.00000000
_cell_angle_gamma   90.00000000
_symmetry_Int_Tables_number   1
_chemical_formula_structural   FePO4
_chemical_formula_sum   'Fe8 P8 O32'
_cell_volume   781.61618384
_cell_formula_units_Z   8
loop_
 _symmetry_equiv_pos_site_id
 _symmetry_equiv_pos_as_xyz
  1  'x, y, z'
loop_
 _atom_site_type_symbol
 _atom_site_label
 _atom_site_symmetry_multiplicity
 _atom_site_fract_x
 _atom_site_fract_y
 _atom_site_fract_z
 _atom_site_occupancy
  Fe  Fe0  1  0.037323  0.752715  0.068595  1
  Fe  Fe1  1  0.220068  0.000799  0.553445  1
  Fe  Fe2  1  0.279932  0.500799  0.553445  1
  Fe  Fe3  1  0.462677  0.252715  0.068595  1
  Fe  Fe4  1  0.537323  0.752715  0.931405  1
  Fe  Fe5  1  0.720068  0.000799  0.446555  1
  Fe  Fe6  1  0.779932  0.500799  0.446555  1
  Fe  Fe7  1  0.962677  0.252715  0.931405  1
  P  P8  1  0.030655  0.375647  0.427983  1
  P  P9  1  0.212045  0.128038  0.053667  1
  P  P10  1  0.287955  0.628038  0.053667  1
  P  P11  1  0.469345  0.875647  0.427983  1
  P  P12  1  0.530655  0.375647  0.572017  1
  P  P13  1  0.712045  0.128038  0.946333  1
  P  P14  1  0.787955  0.628038  0.946333  1
  P  P15  1  0.969345  0.875647  0.572017  1
  O  O16  1  0.992144  0.853791  0.857585  1
  O  O17  1  0.048541  0.963302  0.498893  1
  O  O18  1  0.010751  0.790106  0.411197  1
  O  O19  1  0.068582  0.149853  0.009515  1
  O  O20  1  0.174189  0.397632  0.473081  1
  O  O21  1  0.250954  0.541622  0.891063  1
  O  O22  1  0.206354  0.714672  0.982859  1
  O  O23  1  0.238081  0.105166  0.337897  1
  O  O24  1  0.261919  0.605166  0.337897  1
  O  O25  1  0.293646  0.214672  0.982859  1
  O  O26  1  0.249046  0.041622  0.891063  1
  O  O27  1  0.325811  0.897632  0.473081  1
  O  O28  1  0.431418  0.649853  0.009515  1
  O  O29  1  0.489249  0.290106  0.411197  1
  O  O30  1  0.451459  0.463302  0.498893  1
  O  O31  1  0.507856  0.353791  0.857585  1
  O  O32  1  0.492144  0.853791  0.142415  1
  O  O33  1  0.548541  0.963302  0.501107  1
  O  O34  1  0.510751  0.790106  0.588803  1
  O  O35  1  0.568582  0.149853  0.990485  1
  O  O36  1  0.674189  0.397632  0.526919  1
  O  O37  1  0.750954  0.541622  0.108937  1
  O  O38  1  0.706354  0.714672  0.017141  1
  O  O39  1  0.738081  0.105166  0.662103  1
  O  O40  1  0.761919  0.605166  0.662103  1
  O  O41  1  0.793646  0.214672  0.017141  1
  O  O42  1  0.749046  0.041622  0.108937  1
  O  O43  1  0.825811  0.897632  0.526919  1
  O  O44  1  0.931418  0.649853  0.990485  1
  O  O45  1  0.989249  0.290106  0.588803  1
  O  O46  1  0.951459  0.463302  0.501107  1
  O  O47  1  0.007856  0.353791  0.142415  1
