# generated using pymatgen
data_LiVFe(P2O7)2
_symmetry_space_group_name_H-M   'P 1'
_cell_length_a   9.76287096
_cell_length_b   16.90506543
_cell_length_c   7.17343748
_cell_angle_alpha   83.95957618
_cell_angle_beta   68.15598500
_cell_angle_gamma   73.25358314
_symmetry_Int_Tables_number   1
_chemical_formula_structural   LiVFe(P2O7)2
_chemical_formula_sum   'Li4 V4 Fe4 P16 O56'
_cell_volume   1052.30505160
_cell_formula_units_Z   4
loop_
 _symmetry_equiv_pos_site_id
 _symmetry_equiv_pos_as_xyz
  1  'x, y, z'
loop_
 _atom_site_type_symbol
 _atom_site_label
 _atom_site_symmetry_multiplicity
 _atom_site_fract_x
 _atom_site_fract_y
 _atom_site_fract_z
 _atom_site_occupancy
  Li  Li0  1  0.034551  0.432349  0.672716  1
  Li  Li1  1  0.408482  0.679952  0.326768  1
  Li  Li2  1  0.658389  0.180516  0.328813  1
  Li  Li3  1  0.284941  0.932566  0.672545  1
  V  V4  1  0.119637  0.247537  0.721994  1
  V  V5  1  0.370140  0.748076  0.727725  1
  V  V6  1  0.617538  0.253551  0.727245  1
  V  V7  1  0.866790  0.752937  0.721306  1
  Fe  Fe8  1  0.006591  0.504570  0.265787  1
  Fe  Fe9  1  0.256330  0.004871  0.264634  1
  Fe  Fe10  1  0.507673  0.497292  0.275406  1
  Fe  Fe11  1  0.757708  0.996750  0.276488  1
  P  P12  1  0.143340  0.591581  0.523357  1
  P  P13  1  0.395287  0.090462  0.523753  1
  P  P14  1  0.119748  0.890178  0.086827  1
  P  P15  1  0.368897  0.390738  0.085428  1
  P  P16  1  0.110375  0.642831  0.915345  1
  P  P17  1  0.364581  0.142738  0.913672  1
  P  P18  1  0.142110  0.840058  0.479097  1
  P  P19  1  0.389588  0.340949  0.476981  1
  P  P20  1  0.647085  0.587575  0.520725  1
  P  P21  1  0.895160  0.088456  0.519857  1
  P  P22  1  0.619700  0.890070  0.086408  1
  P  P23  1  0.870686  0.389705  0.087834  1
  P  P24  1  0.616187  0.641770  0.910697  1
  P  P25  1  0.862328  0.141819  0.911790  1
  P  P26  1  0.640276  0.839925  0.478288  1
  P  P27  1  0.893371  0.339026  0.479908  1
  O  O28  1  0.058142  0.088956  0.393025  1
  O  O29  1  0.013266  0.268952  0.530959  1
  O  O30  1  0.013747  0.166222  0.851033  1
  O  O31  1  0.086760  0.596245  0.110218  1
  O  O32  1  0.335949  0.096961  0.110195  1
  O  O33  1  0.196294  0.412643  0.142739  1
  O  O34  1  0.090040  0.520466  0.484767  1
  O  O35  1  0.340014  0.020419  0.484782  1
  O  O36  1  0.031467  0.676331  0.521436  1
  O  O37  1  0.283475  0.175823  0.520748  1
  O  O38  1  0.225026  0.336714  0.607911  1
  O  O39  1  0.232807  0.217851  0.903973  1
  O  O40  1  0.139053  0.575246  0.752630  1
  O  O41  1  0.389290  0.074825  0.752870  1
  O  O42  1  0.168603  0.824367  0.248848  1
  O  O43  1  0.415577  0.323052  0.249132  1
  O  O44  1  0.177282  0.965976  0.078528  1
  O  O45  1  0.427567  0.465010  0.086497  1
  O  O46  1  0.306476  0.592306  0.389853  1
  O  O47  1  0.557220  0.092212  0.389645  1
  O  O48  1  0.166731  0.923580  0.494805  1
  O  O49  1  0.407264  0.425876  0.490775  1
  O  O50  1  0.268148  0.768491  0.519007  1
  O  O51  1  0.514322  0.270041  0.520765  1
  O  O52  1  0.260847  0.670306  0.851504  1
  O  O53  1  0.513588  0.169949  0.849080  1
  O  O54  1  0.206566  0.842994  0.884888  1
  O  O55  1  0.451523  0.340399  0.889621  1
  O  O56  1  0.575750  0.600710  0.115506  1
  O  O57  1  0.825511  0.100213  0.115740  1
  O  O58  1  0.446685  0.912390  0.142302  1
  O  O59  1  0.698789  0.409350  0.140633  1
  O  O60  1  0.590128  0.520400  0.475340  1
  O  O61  1  0.840555  0.020074  0.474554  1
  O  O62  1  0.530251  0.673536  0.519299  1
  O  O63  1  0.778705  0.173816  0.518508  1
  O  O64  1  0.473591  0.835434  0.607973  1
  O  O65  1  0.729282  0.332922  0.607096  1
  O  O66  1  0.482902  0.718534  0.908532  1
  O  O67  1  0.730508  0.218985  0.911503  1
  O  O68  1  0.635951  0.574623  0.753868  1
  O  O69  1  0.885019  0.075050  0.753370  1
  O  O70  1  0.664029  0.822438  0.251603  1
  O  O71  1  0.917481  0.323855  0.251003  1
  O  O72  1  0.677479  0.964664  0.087558  1
  O  O73  1  0.926881  0.465984  0.080414  1
  O  O74  1  0.808769  0.589194  0.392745  1
  O  O75  1  0.654838  0.925782  0.490946  1
  O  O76  1  0.915050  0.423703  0.494399  1
  O  O77  1  0.759239  0.770258  0.532100  1
  O  O78  1  0.766208  0.666382  0.849426  1
  O  O79  1  0.703171  0.839512  0.891279  1
  O  O80  1  0.958151  0.342699  0.886398  1
  O  O81  1  0.948418  0.909530  0.140411  1
  O  O82  1  0.979833  0.834332  0.607647  1
  O  O83  1  0.980582  0.718381  0.907918  1
