# generated using pymatgen
data_Cs3ErO3
_symmetry_space_group_name_H-M   'P 1'
_cell_length_a   7.59831110
_cell_length_b   7.59831065
_cell_length_c   7.63076910
_cell_angle_alpha   83.97567186
_cell_angle_beta   96.02432559
_cell_angle_gamma   63.66987651
_symmetry_Int_Tables_number   1
_chemical_formula_structural   Cs3ErO3
_chemical_formula_sum   'Cs6 Er2 O6'
_cell_volume   386.95628803
_cell_formula_units_Z   2
loop_
 _symmetry_equiv_pos_site_id
 _symmetry_equiv_pos_as_xyz
  1  'x, y, z'
loop_
 _atom_site_type_symbol
 _atom_site_label
 _atom_site_symmetry_multiplicity
 _atom_site_fract_x
 _atom_site_fract_y
 _atom_site_fract_z
 _atom_site_occupancy
  Cs  Cs0  1  0.208956  0.208956  0.500000  1
  Cs  Cs1  1  0.261798  0.261798  0.000000  1
  Cs  Cs2  1  0.359201  0.640799  0.650193  1
  Cs  Cs3  1  0.640799  0.359201  0.349807  1
  Cs  Cs4  1  0.738202  0.738202  0.000000  1
  Cs  Cs5  1  0.791044  0.791044  0.500000  1
  Er  Er6  1  0.170695  0.829305  0.148468  1
  Er  Er7  1  0.829305  0.170695  0.851532  1
  O  O8  1  0.164450  0.567524  0.264495  1
  O  O9  1  0.099122  0.900878  0.858004  1
  O  O10  1  0.567524  0.164450  0.735505  1
  O  O11  1  0.432476  0.835550  0.264495  1
  O  O12  1  0.900878  0.099122  0.141996  1
  O  O13  1  0.835550  0.432476  0.735505  1
