# generated using pymatgen
data_VO2F
_symmetry_space_group_name_H-M   'P 1'
_cell_length_a   8.68607838
_cell_length_b   12.52125872
_cell_length_c   5.45074469
_cell_angle_alpha   90.00000000
_cell_angle_beta   121.74948000
_cell_angle_gamma   90.00000000
_symmetry_Int_Tables_number   1
_chemical_formula_structural   VO2F
_chemical_formula_sum   'V8 O16 F8'
_cell_volume   504.11412318
_cell_formula_units_Z   8
loop_
 _symmetry_equiv_pos_site_id
 _symmetry_equiv_pos_as_xyz
  1  'x, y, z'
loop_
 _atom_site_type_symbol
 _atom_site_label
 _atom_site_symmetry_multiplicity
 _atom_site_fract_x
 _atom_site_fract_y
 _atom_site_fract_z
 _atom_site_occupancy
  V  V0  1  0.195766  0.352148  0.806943  1
  V  V1  1  0.237575  0.118238  0.488173  1
  V  V2  1  0.262425  0.618238  0.511827  1
  V  V3  1  0.304234  0.852148  0.193057  1
  V  V4  1  0.695766  0.147852  0.806943  1
  V  V5  1  0.737575  0.381762  0.488173  1
  V  V6  1  0.762425  0.881762  0.511827  1
  V  V7  1  0.804234  0.647852  0.193057  1
  O  O8  1  0.035730  0.623985  0.457058  1
  O  O9  1  0.238424  0.038704  0.720416  1
  O  O10  1  0.314490  0.806478  0.925139  1
  O  O11  1  0.252427  0.248293  0.647962  1
  O  O12  1  0.247573  0.748293  0.352038  1
  O  O13  1  0.185510  0.306478  0.074861  1
  O  O14  1  0.261576  0.538704  0.279584  1
  O  O15  1  0.464270  0.123985  0.542942  1
  O  O16  1  0.535730  0.876015  0.457058  1
  O  O17  1  0.738424  0.461296  0.720416  1
  O  O18  1  0.814490  0.693522  0.925139  1
  O  O19  1  0.752427  0.251707  0.647962  1
  O  O20  1  0.747573  0.751707  0.352038  1
  O  O21  1  0.685510  0.193522  0.074861  1
  O  O22  1  0.761576  0.961296  0.279584  1
  O  O23  1  0.964270  0.376015  0.542942  1
  F  F24  1  0.005854  0.136973  0.182192  1
  F  F25  1  0.281568  0.488117  0.783294  1
  F  F26  1  0.218432  0.988117  0.216706  1
  F  F27  1  0.494146  0.636973  0.817808  1
  F  F28  1  0.505854  0.363027  0.182192  1
  F  F29  1  0.781568  0.011883  0.783294  1
  F  F30  1  0.718432  0.511883  0.216706  1
  F  F31  1  0.994146  0.863027  0.817808  1
