# generated using pymatgen
data_H4NOF
_symmetry_space_group_name_H-M   'P 1'
_cell_length_a   6.54187521
_cell_length_b   9.92067808
_cell_length_c   13.63179812
_cell_angle_alpha   90.00000000
_cell_angle_beta   90.00000000
_cell_angle_gamma   90.00000000
_symmetry_Int_Tables_number   1
_chemical_formula_structural   H4NOF
_chemical_formula_sum   'H64 N16 O16 F16'
_cell_volume   884.70148961
_cell_formula_units_Z   16
loop_
 _symmetry_equiv_pos_site_id
 _symmetry_equiv_pos_as_xyz
  1  'x, y, z'
loop_
 _atom_site_type_symbol
 _atom_site_label
 _atom_site_symmetry_multiplicity
 _atom_site_fract_x
 _atom_site_fract_y
 _atom_site_fract_z
 _atom_site_occupancy
  H  H0  1  0.202660  0.414810  0.313894  1
  H  H1  1  0.702660  0.585190  0.186106  1
  H  H2  1  0.797340  0.085190  0.813894  1
  H  H3  1  0.297340  0.914810  0.686106  1
  H  H4  1  0.797340  0.585190  0.686106  1
  H  H5  1  0.297340  0.414810  0.813894  1
  H  H6  1  0.202660  0.914810  0.186106  1
  H  H7  1  0.702660  0.085190  0.313894  1
  H  H8  1  0.981220  0.509520  0.340687  1
  H  H9  1  0.481220  0.490480  0.159313  1
  H  H10  1  0.018780  0.990480  0.840687  1
  H  H11  1  0.518780  0.009520  0.659313  1
  H  H12  1  0.018780  0.490480  0.659313  1
  H  H13  1  0.518780  0.509520  0.840687  1
  H  H14  1  0.981220  0.009520  0.159313  1
  H  H15  1  0.481220  0.990480  0.340687  1
  H  H16  1  0.102114  0.526788  0.231300  1
  H  H17  1  0.602114  0.473212  0.268700  1
  H  H18  1  0.897886  0.973212  0.731300  1
  H  H19  1  0.397886  0.026788  0.768700  1
  H  H20  1  0.897886  0.473212  0.768700  1
  H  H21  1  0.397886  0.526788  0.731300  1
  H  H22  1  0.102114  0.026788  0.268700  1
  H  H23  1  0.602114  0.973212  0.231300  1
  H  H24  1  0.934034  0.279953  0.289685  1
  H  H25  1  0.434034  0.720047  0.210315  1
  H  H26  1  0.065966  0.220047  0.789685  1
  H  H27  1  0.565966  0.779953  0.710315  1
  H  H28  1  0.065966  0.720047  0.710315  1
  H  H29  1  0.565966  0.279953  0.789685  1
  H  H30  1  0.934034  0.779953  0.210315  1
  H  H31  1  0.434034  0.220047  0.289685  1
  H  H32  1  0.035962  0.179344  0.457469  1
  H  H33  1  0.535962  0.820656  0.042531  1
  H  H34  1  0.964038  0.320656  0.957469  1
  H  H35  1  0.464038  0.679344  0.542531  1
  H  H36  1  0.964038  0.820656  0.542531  1
  H  H37  1  0.464038  0.179344  0.957469  1
  H  H38  1  0.035962  0.679344  0.042531  1
  H  H39  1  0.535962  0.320656  0.457469  1
  H  H40  1  0.123841  0.283706  0.551437  1
  H  H41  1  0.623841  0.716294  0.948563  1
  H  H42  1  0.876159  0.216294  0.051437  1
  H  H43  1  0.376159  0.783706  0.448563  1
  H  H44  1  0.876159  0.716294  0.448563  1
  H  H45  1  0.376159  0.283706  0.051437  1
  H  H46  1  0.123841  0.783706  0.948563  1
  H  H47  1  0.623841  0.216294  0.551437  1
  H  H48  1  0.992750  0.139933  0.577609  1
  H  H49  1  0.492750  0.860067  0.922391  1
  H  H50  1  0.007250  0.360067  0.077609  1
  H  H51  1  0.507250  0.639933  0.422391  1
  H  H52  1  0.007250  0.860067  0.422391  1
  H  H53  1  0.507250  0.139933  0.077609  1
  H  H54  1  0.992750  0.639933  0.922391  1
  H  H55  1  0.492750  0.360067  0.577609  1
  H  H56  1  0.281236  0.039628  0.483971  1
  H  H57  1  0.781236  0.960372  0.016029  1
  H  H58  1  0.718764  0.460372  0.983971  1
  H  H59  1  0.218764  0.539628  0.516029  1
  H  H60  1  0.718764  0.960372  0.516029  1
  H  H61  1  0.218764  0.039628  0.983971  1
  H  H62  1  0.281236  0.539628  0.016029  1
  H  H63  1  0.781236  0.460372  0.483971  1
  N  N64  1  0.066959  0.458741  0.286559  1
  N  N65  1  0.566959  0.541259  0.213441  1
  N  N66  1  0.933041  0.041259  0.786559  1
  N  N67  1  0.433041  0.958741  0.713441  1
  N  N68  1  0.933041  0.541259  0.713441  1
  N  N69  1  0.433041  0.458741  0.786559  1
  N  N70  1  0.066959  0.958741  0.213441  1
  N  N71  1  0.566959  0.041259  0.286559  1
  N  N72  1  0.096667  0.183522  0.529369  1
  N  N73  1  0.596667  0.816478  0.970631  1
  N  N74  1  0.903333  0.316478  0.029369  1
  N  N75  1  0.403333  0.683522  0.470631  1
  N  N76  1  0.903333  0.816478  0.470631  1
  N  N77  1  0.403333  0.183522  0.029369  1
  N  N78  1  0.096667  0.683522  0.970631  1
  N  N79  1  0.596667  0.316478  0.529369  1
  O  O80  1  0.938940  0.361072  0.241641  1
  O  O81  1  0.438940  0.638928  0.258359  1
  O  O82  1  0.061060  0.138928  0.741641  1
  O  O83  1  0.561060  0.861072  0.758359  1
  O  O84  1  0.061060  0.638928  0.758359  1
  O  O85  1  0.561060  0.361072  0.741641  1
  O  O86  1  0.938940  0.861072  0.258359  1
  O  O87  1  0.438940  0.138928  0.241641  1
  O  O88  1  0.287946  0.116511  0.535070  1
  O  O89  1  0.787946  0.883489  0.964930  1
  O  O90  1  0.712054  0.383489  0.035070  1
  O  O91  1  0.212054  0.616511  0.464930  1
  O  O92  1  0.712054  0.883489  0.464930  1
  O  O93  1  0.212054  0.116511  0.035070  1
  O  O94  1  0.287946  0.616511  0.964930  1
  O  O95  1  0.787946  0.383489  0.535070  1
  F  F96  1  0.921791  0.160800  0.350254  1
  F  F97  1  0.421791  0.839200  0.149746  1
  F  F98  1  0.078209  0.339200  0.850254  1
  F  F99  1  0.578209  0.660800  0.649746  1
  F  F100  1  0.078209  0.839200  0.649746  1
  F  F101  1  0.578209  0.160800  0.850254  1
  F  F102  1  0.921791  0.660800  0.149746  1
  F  F103  1  0.421791  0.339200  0.350254  1
  F  F104  1  0.282922  0.933918  0.409856  1
  F  F105  1  0.782922  0.066082  0.090144  1
  F  F106  1  0.717078  0.566082  0.909856  1
  F  F107  1  0.217078  0.433918  0.590144  1
  F  F108  1  0.717078  0.066082  0.590144  1
  F  F109  1  0.217078  0.933918  0.909856  1
  F  F110  1  0.282922  0.433918  0.090144  1
  F  F111  1  0.782922  0.566082  0.409856  1
