# generated using pymatgen
data_Li24MnCr11O36
_symmetry_space_group_name_H-M   'P 1'
_cell_length_a   5.07960016
_cell_length_b   13.02582073
_cell_length_c   10.58652603
_cell_angle_alpha   67.14436773
_cell_angle_beta   84.38198594
_cell_angle_gamma   96.68796704
_symmetry_Int_Tables_number   1
_chemical_formula_structural   Li24MnCr11O36
_chemical_formula_sum   'Li24 Mn1 Cr11 O36'
_cell_volume   633.19085003
_cell_formula_units_Z   1
loop_
 _symmetry_equiv_pos_site_id
 _symmetry_equiv_pos_as_xyz
  1  'x, y, z'
loop_
 _atom_site_type_symbol
 _atom_site_label
 _atom_site_symmetry_multiplicity
 _atom_site_fract_x
 _atom_site_fract_y
 _atom_site_fract_z
 _atom_site_occupancy
  Li  Li0  1  0.779692  0.060724  0.939635  1
  Li  Li1  1  0.667411  0.083740  0.666219  1
  Li  Li2  1  0.886903  0.273168  0.726313  1
  Li  Li3  1  0.333896  0.167236  0.832003  1
  Li  Li4  1  0.553075  0.107460  0.393979  1
  Li  Li5  1  0.000064  0.250196  0.999836  1
  Li  Li6  1  0.999249  0.000956  0.500162  1
  Li  Li7  1  0.779410  0.560246  0.939365  1
  Li  Li8  1  0.446799  0.392694  0.606649  1
  Li  Li9  1  0.666332  0.583071  0.666748  1
  Li  Li10  1  0.665013  0.333123  0.166801  1
  Li  Li11  1  0.115095  0.226197  0.274785  1
  Li  Li12  1  0.887220  0.772824  0.727310  1
  Li  Li13  1  0.333854  0.666390  0.833548  1
  Li  Li14  1  0.333914  0.415907  0.334271  1
  Li  Li15  1  0.552818  0.606489  0.393404  1
  Li  Li16  1  0.000503  0.500382  0.500085  1
  Li  Li17  1  0.219851  0.440084  0.059802  1
  Li  Li18  1  0.447705  0.893585  0.605617  1
  Li  Li19  1  0.667185  0.832943  0.166748  1
  Li  Li20  1  0.113047  0.727024  0.273032  1
  Li  Li21  1  0.333421  0.916711  0.333495  1
  Li  Li22  1  0.999376  0.749616  0.000371  1
  Li  Li23  1  0.219349  0.939583  0.060335  1
  Mn  Mn24  1  0.223979  0.194059  0.555047  1
  Cr  Cr25  1  0.890700  0.030786  0.219158  1
  Cr  Cr26  1  0.555883  0.364197  0.886270  1
  Cr  Cr27  1  0.782244  0.303515  0.445337  1
  Cr  Cr28  1  0.443608  0.135544  0.113713  1
  Cr  Cr29  1  0.108919  0.469286  0.780788  1
  Cr  Cr30  1  0.885731  0.531475  0.220556  1
  Cr  Cr31  1  0.557908  0.864249  0.885057  1
  Cr  Cr32  1  0.776440  0.802624  0.447525  1
  Cr  Cr33  1  0.223558  0.697422  0.552582  1
  Cr  Cr34  1  0.439698  0.636809  0.114134  1
  Cr  Cr35  1  0.109873  0.968604  0.781476  1
  O  O36  1  0.432435  0.999713  0.863188  1
  O  O37  1  0.642116  0.211765  0.923759  1
  O  O38  1  0.909605  0.163684  0.474498  1
  O  O39  1  0.311071  0.045506  0.590723  1
  O  O40  1  0.885992  0.408437  0.954650  1
  O  O41  1  0.023523  0.121252  0.742328  1
  O  O42  1  0.544480  0.240458  0.620675  1
  O  O43  1  0.780213  0.424369  0.712523  1
  O  O44  1  0.765347  0.166448  0.196252  1
  O  O45  1  0.234356  0.333384  0.804084  1
  O  O46  1  0.219711  0.075248  0.287264  1
  O  O47  1  0.451444  0.260321  0.377432  1
  O  O48  1  0.432393  0.500523  0.862419  1
  O  O49  1  0.970716  0.376865  0.258620  1
  O  O50  1  0.113745  0.091390  0.045252  1
  O  O51  1  0.693460  0.456260  0.409062  1
  O  O52  1  0.094084  0.334192  0.527030  1
  O  O53  1  0.643112  0.712582  0.923242  1
  O  O54  1  0.358248  0.288209  0.075839  1
  O  O55  1  0.901302  0.666634  0.470629  1
  O  O56  1  0.308769  0.545210  0.590660  1
  O  O57  1  0.886514  0.909070  0.954269  1
  O  O58  1  0.024471  0.621352  0.742899  1
  O  O59  1  0.570400  0.500907  0.137076  1
  O  O60  1  0.552745  0.741848  0.621146  1
  O  O61  1  0.780681  0.924695  0.712058  1
  O  O62  1  0.763881  0.668554  0.194533  1
  O  O63  1  0.235030  0.833552  0.803004  1
  O  O64  1  0.216594  0.574940  0.287853  1
  O  O65  1  0.447115  0.758076  0.378999  1
  O  O66  1  0.975369  0.878578  0.257196  1
  O  O67  1  0.115051  0.591028  0.046541  1
  O  O68  1  0.691379  0.954695  0.409544  1
  O  O69  1  0.098953  0.833472  0.529482  1
  O  O70  1  0.358177  0.788323  0.075834  1
  O  O71  1  0.567796  0.999542  0.137284  1
