# generated using pymatgen
data_Na3FeSiBO7
_symmetry_space_group_name_H-M   'P 1'
_cell_length_a   8.97514951
_cell_length_b   6.70342615
_cell_length_c   5.27498961
_cell_angle_alpha   90.00000000
_cell_angle_beta   88.16011856
_cell_angle_gamma   90.00000000
_symmetry_Int_Tables_number   1
_chemical_formula_structural   Na3FeSiBO7
_chemical_formula_sum   'Na6 Fe2 Si2 B2 O14'
_cell_volume   317.20218714
_cell_formula_units_Z   2
loop_
 _symmetry_equiv_pos_site_id
 _symmetry_equiv_pos_as_xyz
  1  'x, y, z'
loop_
 _atom_site_type_symbol
 _atom_site_label
 _atom_site_symmetry_multiplicity
 _atom_site_fract_x
 _atom_site_fract_y
 _atom_site_fract_z
 _atom_site_occupancy
  Na  Na0  1  0.087071  0.250000  0.766329  1
  Na  Na1  1  0.267110  0.007932  0.256224  1
  Na  Na2  1  0.267110  0.492068  0.256224  1
  Na  Na3  1  0.732890  0.507932  0.743776  1
  Na  Na4  1  0.732890  0.992068  0.743776  1
  Na  Na5  1  0.912929  0.750000  0.233671  1
  Fe  Fe6  1  0.343959  0.750000  0.783735  1
  Fe  Fe7  1  0.656041  0.250000  0.216265  1
  Si  Si8  1  0.421032  0.250000  0.721857  1
  Si  Si9  1  0.578968  0.750000  0.278143  1
  B  B10  1  0.066847  0.750000  0.730195  1
  B  B11  1  0.933153  0.250000  0.269805  1
  O  O12  1  0.081221  0.250000  0.300729  1
  O  O13  1  0.131979  0.750000  0.964867  1
  O  O14  1  0.172055  0.750000  0.530214  1
  O  O15  1  0.314957  0.054693  0.780110  1
  O  O16  1  0.314957  0.445307  0.780110  1
  O  O17  1  0.471848  0.250000  0.415641  1
  O  O18  1  0.426441  0.750000  0.115710  1
  O  O19  1  0.573559  0.250000  0.884290  1
  O  O20  1  0.528152  0.750000  0.584359  1
  O  O21  1  0.685043  0.554693  0.219890  1
  O  O22  1  0.685043  0.945307  0.219890  1
  O  O23  1  0.827945  0.250000  0.469786  1
  O  O24  1  0.868021  0.250000  0.035133  1
  O  O25  1  0.918779  0.750000  0.699271  1
