# generated using pymatgen
data_VFe3Sb2(PO4)6
_symmetry_space_group_name_H-M   'P 1'
_cell_length_a   8.88420823
_cell_length_b   8.68802114
_cell_length_c   8.68802149
_cell_angle_alpha   60.00000319
_cell_angle_beta   60.72783437
_cell_angle_gamma   60.72783829
_symmetry_Int_Tables_number   1
_chemical_formula_structural   VFe3Sb2(PO4)6
_chemical_formula_sum   'V1 Fe3 Sb2 P6 O24'
_cell_volume   479.33228670
_cell_formula_units_Z   1
loop_
 _symmetry_equiv_pos_site_id
 _symmetry_equiv_pos_as_xyz
  1  'x, y, z'
loop_
 _atom_site_type_symbol
 _atom_site_label
 _atom_site_symmetry_multiplicity
 _atom_site_fract_x
 _atom_site_fract_y
 _atom_site_fract_z
 _atom_site_occupancy
  V  V0  1  0.566116  0.144628  0.144628  1
  Fe  Fe1  1  0.050537  0.649821  0.649821  1
  Fe  Fe2  1  0.456738  0.847754  0.847754  1
  Fe  Fe3  1  0.945780  0.351406  0.351406  1
  Sb  Sb4  1  0.027748  0.990751  0.990751  1
  Sb  Sb5  1  0.502983  0.499006  0.499006  1
  P  P6  1  0.248423  0.250955  0.539569  1
  P  P7  1  0.248423  0.961053  0.250955  1
  P  P8  1  0.248423  0.539569  0.961053  1
  P  P9  1  0.749511  0.457954  0.043832  1
  P  P10  1  0.749511  0.043832  0.748702  1
  P  P11  1  0.749511  0.748702  0.457954  1
  O  O12  1  0.071015  0.115522  0.303227  1
  O  O13  1  0.071015  0.510237  0.115522  1
  O  O14  1  0.071015  0.303227  0.510237  1
  O  O15  1  0.244038  0.081184  0.735285  1
  O  O16  1  0.422133  0.192098  0.388053  1
  O  O17  1  0.253524  0.416669  0.561831  1
  O  O18  1  0.244038  0.939493  0.081184  1
  O  O19  1  0.253524  0.767978  0.416669  1
  O  O20  1  0.575125  0.618716  0.010101  1
  O  O21  1  0.253524  0.561831  0.767978  1
  O  O22  1  0.752268  0.267815  0.066790  1
  O  O23  1  0.575125  0.010101  0.796059  1
  O  O24  1  0.422133  0.997715  0.192098  1
  O  O25  1  0.244038  0.735285  0.939493  1
  O  O26  1  0.743209  0.439519  0.236706  1
  O  O27  1  0.422133  0.388053  0.997715  1
  O  O28  1  0.743209  0.236706  0.580566  1
  O  O29  1  0.752268  0.066790  0.913128  1
  O  O30  1  0.743209  0.580566  0.439519  1
  O  O31  1  0.575125  0.796059  0.618716  1
  O  O32  1  0.752268  0.913128  0.267815  1
  O  O33  1  0.924120  0.698232  0.492300  1
  O  O34  1  0.924120  0.492300  0.885348  1
  O  O35  1  0.924120  0.885348  0.698232  1
