# generated using pymatgen
data_Ca(ClO3)2
_symmetry_space_group_name_H-M   'P 1'
_cell_length_a   7.23157624
_cell_length_b   7.23157624
_cell_length_c   7.88822513
_cell_angle_alpha   53.71125550
_cell_angle_beta   126.28874450
_cell_angle_gamma   116.83274724
_symmetry_Int_Tables_number   1
_chemical_formula_structural   Ca(ClO3)2
_chemical_formula_sum   'Ca2 Cl4 O12'
_cell_volume   264.75314271
_cell_formula_units_Z   2
loop_
 _symmetry_equiv_pos_site_id
 _symmetry_equiv_pos_as_xyz
  1  'x, y, z'
loop_
 _atom_site_type_symbol
 _atom_site_label
 _atom_site_symmetry_multiplicity
 _atom_site_fract_x
 _atom_site_fract_y
 _atom_site_fract_z
 _atom_site_occupancy
  Ca  Ca0  1  0.837015  0.837015  0.750000  1
  Ca  Ca1  1  0.162985  0.162985  0.250000  1
  Cl  Cl2  1  0.305756  0.700504  0.793685  1
  Cl  Cl3  1  0.299496  0.694244  0.293685  1
  Cl  Cl4  1  0.700504  0.305756  0.706315  1
  Cl  Cl5  1  0.694244  0.299496  0.206315  1
  O  O6  1  0.087054  0.813031  0.622763  1
  O  O7  1  0.230531  0.444225  0.878615  1
  O  O8  1  0.407829  0.784151  0.632994  1
  O  O9  1  0.186969  0.912946  0.122763  1
  O  O10  1  0.555775  0.769469  0.378615  1
  O  O11  1  0.215849  0.592171  0.132994  1
  O  O12  1  0.784151  0.407829  0.867006  1
  O  O13  1  0.444225  0.230531  0.621385  1
  O  O14  1  0.813031  0.087054  0.877237  1
  O  O15  1  0.592171  0.215849  0.367006  1
  O  O16  1  0.769469  0.555775  0.121385  1
  O  O17  1  0.912946  0.186969  0.377237  1
