# generated using pymatgen
data_Cr4(OF3)3
_symmetry_space_group_name_H-M   'P 1'
_cell_length_a   5.03302286
_cell_length_b   5.30604842
_cell_length_c   8.82358681
_cell_angle_alpha   72.63457253
_cell_angle_beta   89.54830665
_cell_angle_gamma   62.14917701
_symmetry_Int_Tables_number   1
_chemical_formula_structural   Cr4(OF3)3
_chemical_formula_sum   'Cr4 O3 F9'
_cell_volume   196.41610560
_cell_formula_units_Z   1
loop_
 _symmetry_equiv_pos_site_id
 _symmetry_equiv_pos_as_xyz
  1  'x, y, z'
loop_
 _atom_site_type_symbol
 _atom_site_label
 _atom_site_symmetry_multiplicity
 _atom_site_fract_x
 _atom_site_fract_y
 _atom_site_fract_z
 _atom_site_occupancy
  Cr  Cr0  1  0.744624  0.503675  0.249345  1
  Cr  Cr1  1  0.510279  0.008802  0.498507  1
  Cr  Cr2  1  0.269710  0.487897  0.756041  1
  Cr  Cr3  1  0.968456  0.004289  0.993533  1
  O  O4  1  0.821446  0.739357  0.087762  1
  O  O5  1  0.688688  0.240922  0.816424  1
  O  O6  1  0.679003  0.265589  0.410635  1
  F  F7  1  0.824197  0.747317  0.684435  1
  F  F8  1  0.748768  0.743399  0.378013  1
  F  F9  1  0.745528  0.257557  0.121417  1
  F  F10  1  0.319964  0.754182  0.566859  1
  F  F11  1  0.312066  0.758001  0.180741  1
  F  F12  1  0.239276  0.748979  0.877531  1
  F  F13  1  0.263099  0.249708  0.625633  1
  F  F14  1  0.181242  0.242458  0.938365  1
  F  F15  1  0.183656  0.247868  0.314760  1
