# generated using pymatgen
data_Hg2SeO4
_symmetry_space_group_name_H-M   'P 1'
_cell_length_a   4.84604963
_cell_length_b   6.42865407
_cell_length_c   8.86581388
_cell_angle_alpha   92.25812856
_cell_angle_beta   90.00000000
_cell_angle_gamma   90.00000000
_symmetry_Int_Tables_number   1
_chemical_formula_structural   Hg2SeO4
_chemical_formula_sum   'Hg4 Se2 O8'
_cell_volume   275.98732977
_cell_formula_units_Z   2
loop_
 _symmetry_equiv_pos_site_id
 _symmetry_equiv_pos_as_xyz
  1  'x, y, z'
loop_
 _atom_site_type_symbol
 _atom_site_label
 _atom_site_symmetry_multiplicity
 _atom_site_fract_x
 _atom_site_fract_y
 _atom_site_fract_z
 _atom_site_occupancy
  O  O0  1  0.771268  0.494630  0.404370  1
  O  O1  1  0.771268  0.505370  0.095630  1
  O  O2  1  0.228732  0.505370  0.595630  1
  O  O3  1  0.228732  0.494630  0.904370  1
  O  O4  1  0.379443  0.279976  0.236145  1
  O  O5  1  0.379443  0.720024  0.263855  1
  O  O6  1  0.620556  0.279976  0.736145  1
  O  O7  1  0.620556  0.720024  0.763855  1
  Se  Se8  1  0.442992  0.500000  0.750000  1
  Se  Se9  1  0.557008  0.500000  0.250000  1
  Hg  Hg10  1  0.072330  0.809733  0.521788  1
  Hg  Hg11  1  0.072330  0.190267  0.978212  1
  Hg  Hg12  1  0.927670  0.190267  0.478212  1
  Hg  Hg13  1  0.927670  0.809733  0.021788  1
