# generated using pymatgen
data_CuH18C4N10(ClO)2
_symmetry_space_group_name_H-M   'P 1'
_cell_length_a   6.91004679
_cell_length_b   9.83286867
_cell_length_c   12.71954148
_cell_angle_alpha   67.66420475
_cell_angle_beta   73.08725641
_cell_angle_gamma   78.30150944
_symmetry_Int_Tables_number   1
_chemical_formula_structural   CuH18C4N10(ClO)2
_chemical_formula_sum   'Cu2 H36 C8 N20 Cl4 O4'
_cell_volume   760.65787029
_cell_formula_units_Z   2
loop_
 _symmetry_equiv_pos_site_id
 _symmetry_equiv_pos_as_xyz
  1  'x, y, z'
loop_
 _atom_site_type_symbol
 _atom_site_label
 _atom_site_symmetry_multiplicity
 _atom_site_fract_x
 _atom_site_fract_y
 _atom_site_fract_z
 _atom_site_occupancy
  Cu  Cu0  1  0.764603  0.052745  0.939972  1
  Cu  Cu1  1  0.235397  0.947255  0.060028  1
  H  H2  1  0.178794  0.543369  0.880243  1
  H  H3  1  0.821206  0.456631  0.119757  1
  H  H4  1  0.408729  0.538077  0.811455  1
  H  H5  1  0.591271  0.461923  0.188545  1
  H  H6  1  0.101584  0.642396  0.650285  1
  H  H7  1  0.898416  0.357604  0.349715  1
  H  H8  1  0.675084  0.319427  0.427829  1
  H  H9  1  0.324916  0.680573  0.572171  1
  H  H10  1  0.726563  0.250366  0.037439  1
  H  H11  1  0.273437  0.749634  0.962561  1
  H  H12  1  0.667637  0.879636  0.319080  1
  H  H13  1  0.332363  0.120364  0.680920  1
  H  H14  1  0.668071  0.255379  0.215419  1
  H  H15  1  0.331929  0.744621  0.784581  1
  H  H16  1  0.622465  0.097716  0.336992  1
  H  H17  1  0.377535  0.902284  0.663008  1
  H  H18  1  0.688578  0.655625  0.334676  1
  H  H19  1  0.311422  0.344375  0.665324  1
  H  H20  1  0.716874  0.597685  0.218570  1
  H  H21  1  0.283126  0.402315  0.781430  1
  H  H22  1  0.726813  0.768917  0.039271  1
  H  H23  1  0.273187  0.231083  0.960729  1
  H  H24  1  0.800837  0.336483  0.842191  1
  H  H25  1  0.199163  0.663517  0.157809  1
  H  H26  1  0.818057  0.508096  0.664476  1
  H  H27  1  0.181943  0.491904  0.335524  1
  H  H28  1  0.813003  0.453155  0.548292  1
  H  H29  1  0.186997  0.546845  0.451708  1
  H  H30  1  0.850194  0.227668  0.562536  1
  H  H31  1  0.149806  0.772332  0.437464  1
  H  H32  1  0.782157  0.015633  0.557092  1
  H  H33  1  0.217843  0.984367  0.442908  1
  H  H34  1  0.811967  0.852871  0.670528  1
  H  H35  1  0.188033  0.147129  0.329472  1
  H  H36  1  0.782334  0.857452  0.843080  1
  H  H37  1  0.217666  0.142548  0.156920  1
  C  C38  1  0.700054  0.071643  0.174734  1
  C  C39  1  0.299946  0.928357  0.825266  1
  C  C40  1  0.702847  0.820586  0.175246  1
  C  C41  1  0.297153  0.179414  0.824754  1
  C  C42  1  0.819548  0.285853  0.705889  1
  C  C43  1  0.180452  0.714147  0.294111  1
  C  C44  1  0.816984  0.035540  0.706189  1
  C  C45  1  0.183016  0.964460  0.293811  1
  N  N46  1  0.726205  0.138570  0.061370  1
  N  N47  1  0.273795  0.861430  0.938630  1
  N  N48  1  0.683036  0.143558  0.249604  1
  N  N49  1  0.316964  0.856442  0.750396  1
  N  N50  1  0.694135  0.921339  0.227798  1
  N  N51  1  0.305865  0.078661  0.772202  1
  N  N52  1  0.676757  0.681419  0.251536  1
  N  N53  1  0.323243  0.318581  0.748464  1
  N  N54  1  0.728530  0.857675  0.062039  1
  N  N55  1  0.271470  0.142325  0.937961  1
  N  N56  1  0.807725  0.246748  0.818351  1
  N  N57  1  0.192275  0.753252  0.181649  1
  N  N58  1  0.819433  0.427187  0.632727  1
  N  N59  1  0.180567  0.572813  0.367273  1
  N  N60  1  0.836223  0.183980  0.652597  1
  N  N61  1  0.163777  0.816020  0.347403  1
  N  N62  1  0.830143  0.962519  0.632361  1
  N  N63  1  0.169857  0.037481  0.367639  1
  N  N64  1  0.793821  0.968056  0.819367  1
  N  N65  1  0.206179  0.031944  0.180633  1
  Cl  Cl66  1  0.595530  0.788602  0.502623  1
  Cl  Cl67  1  0.404470  0.211398  0.497377  1
  Cl  Cl68  1  0.109394  0.398414  0.189694  1
  Cl  Cl69  1  0.890606  0.601586  0.810306  1
  O  O70  1  0.320449  0.516637  0.889848  1
  O  O71  1  0.679551  0.483363  0.110152  1
  O  O72  1  0.801246  0.355351  0.425454  1
  O  O73  1  0.198754  0.644649  0.574546  1
