# generated using pymatgen
data_LiMn3(PO4)4
_symmetry_space_group_name_H-M   'P 1'
_cell_length_a   4.80604716
_cell_length_b   9.85321836
_cell_length_c   5.91001046
_cell_angle_alpha   90.00000000
_cell_angle_beta   90.00000000
_cell_angle_gamma   90.90256939
_symmetry_Int_Tables_number   1
_chemical_formula_structural   LiMn3(PO4)4
_chemical_formula_sum   'Li1 Mn3 P4 O16'
_cell_volume   279.83401083
_cell_formula_units_Z   1
loop_
 _symmetry_equiv_pos_site_id
 _symmetry_equiv_pos_as_xyz
  1  'x, y, z'
loop_
 _atom_site_type_symbol
 _atom_site_label
 _atom_site_symmetry_multiplicity
 _atom_site_fract_x
 _atom_site_fract_y
 _atom_site_fract_z
 _atom_site_occupancy
  Li  Li0  1  0.955861  0.270391  0.250000  1
  Mn  Mn1  1  0.064181  0.720672  0.750000  1
  Mn  Mn2  1  0.465212  0.224619  0.750000  1
  Mn  Mn3  1  0.551106  0.785321  0.250000  1
  P  P4  1  0.081443  0.597018  0.250000  1
  P  P5  1  0.420596  0.092656  0.250000  1
  P  P6  1  0.592698  0.908583  0.750000  1
  P  P7  1  0.902910  0.399917  0.750000  1
  O  O8  1  0.134127  0.448535  0.250000  1
  O  O9  1  0.234493  0.674576  0.048198  1
  O  O10  1  0.234493  0.674576  0.451802  1
  O  O11  1  0.217502  0.377001  0.750000  1
  O  O12  1  0.275031  0.888539  0.750000  1
  O  O13  1  0.322390  0.940675  0.250000  1
  O  O14  1  0.287227  0.163861  0.039688  1
  O  O15  1  0.287227  0.163861  0.460312  1
  O  O16  1  0.673008  0.060004  0.750000  1
  O  O17  1  0.734614  0.833681  0.547638  1
  O  O18  1  0.734614  0.833681  0.952362  1
  O  O19  1  0.734891  0.102921  0.250000  1
  O  O20  1  0.767129  0.624790  0.250000  1
  O  O21  1  0.741024  0.327594  0.552995  1
  O  O22  1  0.741024  0.327594  0.947005  1
  O  O23  1  0.853082  0.554049  0.750000  1
