# generated using pymatgen
data_SbO2F
_symmetry_space_group_name_H-M   'P 1'
_cell_length_a   5.27166750
_cell_length_b   5.31640186
_cell_length_c   5.27166722
_cell_angle_alpha   116.99678291
_cell_angle_beta   56.48235869
_cell_angle_gamma   116.99678441
_symmetry_Int_Tables_number   1
_chemical_formula_structural   SbO2F
_chemical_formula_sum   'Sb2 O4 F2'
_cell_volume   105.56613248
_cell_formula_units_Z   2
loop_
 _symmetry_equiv_pos_site_id
 _symmetry_equiv_pos_as_xyz
  1  'x, y, z'
loop_
 _atom_site_type_symbol
 _atom_site_label
 _atom_site_symmetry_multiplicity
 _atom_site_fract_x
 _atom_site_fract_y
 _atom_site_fract_z
 _atom_site_occupancy
  Sb  Sb0  1  0.000000  0.000000  0.000000  1
  Sb  Sb1  1  0.500000  0.500000  0.500000  1
  O  O2  1  0.241869  0.744791  0.885147  1
  O  O3  1  0.614853  0.755209  0.258131  1
  O  O4  1  0.385147  0.244791  0.741869  1
  O  O5  1  0.758131  0.255209  0.114853  1
  F  F6  1  0.116212  0.250000  0.383788  1
  F  F7  1  0.883788  0.750000  0.616212  1
