# generated using pymatgen
data_Na13Ca7S12Cl(O24F)2
_symmetry_space_group_name_H-M   'P 1'
_cell_length_a   9.62928195
_cell_length_b   9.62573818
_cell_length_c   13.91180852
_cell_angle_alpha   89.99260676
_cell_angle_beta   90.01151571
_cell_angle_gamma   119.89697912
_symmetry_Int_Tables_number   1
_chemical_formula_structural   Na13Ca7S12Cl(O24F)2
_chemical_formula_sum   'Na13 Ca7 S12 Cl1 O48 F2'
_cell_volume   1117.87198055
_cell_formula_units_Z   1
loop_
 _symmetry_equiv_pos_site_id
 _symmetry_equiv_pos_as_xyz
  1  'x, y, z'
loop_
 _atom_site_type_symbol
 _atom_site_label
 _atom_site_symmetry_multiplicity
 _atom_site_fract_x
 _atom_site_fract_y
 _atom_site_fract_z
 _atom_site_occupancy
  Na  Na0  1  0.270270  0.989939  0.123691  1
  Na  Na1  1  0.259806  0.987748  0.623832  1
  Na  Na2  1  0.011163  0.280601  0.123676  1
  Na  Na3  1  0.013706  0.273989  0.623767  1
  Na  Na4  1  0.332404  0.666879  0.006646  1
  Na  Na5  1  0.327077  0.666205  0.506236  1
  Na  Na6  1  0.332559  0.666937  0.242056  1
  Na  Na7  1  0.326841  0.665930  0.745826  1
  Na  Na8  1  0.719074  0.730120  0.123556  1
  Na  Na9  1  0.666366  0.332548  0.244878  1
  Na  Na10  1  0.664862  0.327768  0.748150  1
  Na  Na11  1  0.664025  0.327485  0.500908  1
  Na  Na12  1  0.666257  0.332362  0.003218  1
  Ca  Ca13  1  0.247632  0.242539  0.376433  1
  Ca  Ca14  1  0.243615  0.238710  0.872752  1
  Ca  Ca15  1  0.733384  0.740856  0.625402  1
  Ca  Ca16  1  0.997295  0.752491  0.374517  1
  Ca  Ca17  1  0.997623  0.756049  0.874321  1
  Ca  Ca18  1  0.757301  0.007856  0.375207  1
  Ca  Ca19  1  0.761003  0.007924  0.874239  1
  S  S20  1  0.027086  0.389581  0.374654  1
  S  S21  1  0.027519  0.392728  0.876074  1
  S  S22  1  0.362837  0.972850  0.374607  1
  S  S23  1  0.365534  0.972126  0.876190  1
  S  S24  1  0.381416  0.357382  0.125023  1
  S  S25  1  0.395287  0.368339  0.624329  1
  S  S26  1  0.610841  0.636333  0.375450  1
  S  S27  1  0.607463  0.633593  0.875486  1
  S  S28  1  0.643296  0.024092  0.124881  1
  S  S29  1  0.633900  0.026793  0.624214  1
  S  S30  1  0.975304  0.618902  0.124802  1
  S  S31  1  0.968918  0.604629  0.623906  1
  Cl  Cl32  1  0.002267  0.002902  0.672508  1
  O  O33  1  0.253430  0.913100  0.459461  1
  O  O34  1  0.256590  0.914082  0.961303  1
  O  O35  1  0.256298  0.915637  0.288480  1
  O  O36  1  0.258937  0.912528  0.790082  1
  O  O37  1  0.151201  0.683683  0.125236  1
  O  O38  1  0.145135  0.678108  0.626068  1
  O  O39  1  0.097528  0.567430  0.375154  1
  O  O40  1  0.097180  0.570346  0.877528  1
  O  O41  1  0.084453  0.340021  0.288834  1
  O  O42  1  0.086439  0.345817  0.789638  1
  O  O43  1  0.086076  0.339976  0.459864  1
  O  O44  1  0.086168  0.342035  0.960888  1
  O  O45  1  0.470135  0.901983  0.375120  1
  O  O46  1  0.473308  0.902350  0.877874  1
  O  O47  1  0.316410  0.468688  0.125280  1
  O  O48  1  0.326880  0.476957  0.625578  1
  O  O49  1  0.532739  0.847831  0.125261  1
  O  O50  1  0.533827  0.847668  0.626277  1
  O  O51  1  0.433839  0.531372  0.376334  1
  O  O52  1  0.430608  0.527936  0.876664  1
  O  O53  1  0.323544  0.250690  0.038707  1
  O  O54  1  0.323692  0.250676  0.211705  1
  O  O55  1  0.334332  0.258087  0.540348  1
  O  O56  1  0.357928  0.273419  0.714271  1
  O  O57  1  0.661950  0.746104  0.291066  1
  O  O58  1  0.661469  0.744646  0.462041  1
  O  O59  1  0.654920  0.738600  0.787498  1
  O  O60  1  0.659894  0.745664  0.958583  1
  O  O61  1  0.559787  0.448665  0.125256  1
  O  O62  1  0.574573  0.465790  0.616335  1
  O  O63  1  0.460345  0.150978  0.375293  1
  O  O64  1  0.461382  0.150555  0.875718  1
  O  O65  1  0.691701  0.539070  0.375696  1
  O  O66  1  0.689837  0.537755  0.875489  1
  O  O67  1  0.551998  0.111140  0.125121  1
  O  O68  1  0.534252  0.103624  0.614200  1
  O  O69  1  0.926552  0.677157  0.038544  1
  O  O70  1  0.918593  0.671075  0.541081  1
  O  O71  1  0.926079  0.677158  0.211274  1
  O  O72  1  0.908003  0.644213  0.713151  1
  O  O73  1  0.888262  0.440550  0.125095  1
  O  O74  1  0.889238  0.428259  0.614483  1
  O  O75  1  0.848596  0.309200  0.375046  1
  O  O76  1  0.849178  0.310826  0.876052  1
  O  O77  1  0.750454  0.073162  0.211372  1
  O  O78  1  0.750090  0.072760  0.038685  1
  O  O79  1  0.727695  0.084664  0.714890  1
  O  O80  1  0.746610  0.073917  0.540654  1
  F  F81  1  0.998818  0.999330  0.373513  1
  F  F82  1  0.999116  0.999532  0.897473  1
