# generated using pymatgen
data_LiV(PO3)4
_symmetry_space_group_name_H-M   'P 1'
_cell_length_a   7.60440872
_cell_length_b   7.60440872
_cell_length_c   17.24392028
_cell_angle_alpha   90.00000000
_cell_angle_beta   90.00000000
_cell_angle_gamma   101.42301615
_symmetry_Int_Tables_number   1
_chemical_formula_structural   LiV(PO3)4
_chemical_formula_sum   'Li4 V4 P16 O48'
_cell_volume   977.41258652
_cell_formula_units_Z   4
loop_
 _symmetry_equiv_pos_site_id
 _symmetry_equiv_pos_as_xyz
  1  'x, y, z'
loop_
 _atom_site_type_symbol
 _atom_site_label
 _atom_site_symmetry_multiplicity
 _atom_site_fract_x
 _atom_site_fract_y
 _atom_site_fract_z
 _atom_site_occupancy
  Li  Li0  1  0.197180  0.097264  0.388132  1
  Li  Li1  1  0.902736  0.802820  0.611868  1
  Li  Li2  1  0.802820  0.902736  0.888132  1
  Li  Li3  1  0.097264  0.197180  0.111868  1
  V  V4  1  0.580301  0.971868  0.621855  1
  V  V5  1  0.028132  0.419699  0.378145  1
  V  V6  1  0.419699  0.028132  0.121855  1
  V  V7  1  0.971868  0.580301  0.878145  1
  P  P8  1  0.037816  0.757589  0.092156  1
  P  P9  1  0.242411  0.962184  0.907844  1
  P  P10  1  0.309602  0.780955  0.763500  1
  P  P11  1  0.219045  0.690398  0.236500  1
  P  P12  1  0.375685  0.624315  0.500000  1
  P  P13  1  0.253049  0.336472  0.940461  1
  P  P14  1  0.663528  0.746951  0.059539  1
  P  P15  1  0.353593  0.353593  0.250000  1
  P  P16  1  0.646407  0.646407  0.750000  1
  P  P17  1  0.336472  0.253049  0.559539  1
  P  P18  1  0.746951  0.663528  0.440461  1
  P  P19  1  0.624315  0.375685  0.000000  1
  P  P20  1  0.780955  0.309602  0.736500  1
  P  P21  1  0.690398  0.219045  0.263500  1
  P  P22  1  0.757589  0.037816  0.407844  1
  P  P23  1  0.962184  0.242411  0.592156  1
  O  O24  1  0.146045  0.948670  0.103820  1
  O  O25  1  0.051330  0.853955  0.896180  1
  O  O26  1  0.345108  0.956880  0.979916  1
  O  O27  1  0.043120  0.654892  0.020084  1
  O  O28  1  0.319230  0.880351  0.229956  1
  O  O29  1  0.119649  0.680770  0.770044  1
  O  O30  1  0.090545  0.635963  0.162674  1
  O  O31  1  0.364037  0.909455  0.837326  1
  O  O32  1  0.109875  0.637157  0.308478  1
  O  O33  1  0.362843  0.890125  0.691522  1
  O  O34  1  0.414589  0.793958  0.546866  1
  O  O35  1  0.206042  0.585411  0.453134  1
  O  O36  1  0.516646  0.807452  0.104361  1
  O  O37  1  0.192548  0.483354  0.895639  1
  O  O38  1  0.360187  0.557365  0.226934  1
  O  O39  1  0.442635  0.639813  0.773066  1
  O  O40  1  0.779535  0.837462  0.383444  1
  O  O41  1  0.162538  0.220465  0.616556  1
  O  O42  1  0.531160  0.609956  0.438439  1
  O  O43  1  0.390044  0.468840  0.561561  1
  O  O44  1  0.693389  0.762927  0.678888  1
  O  O45  1  0.237073  0.306611  0.321112  1
  O  O46  1  0.180682  0.290917  0.019205  1
  O  O47  1  0.709083  0.819318  0.980795  1
  O  O48  1  0.290917  0.180682  0.480795  1
  O  O49  1  0.819318  0.709083  0.519205  1
  O  O50  1  0.306611  0.237073  0.178888  1
  O  O51  1  0.762927  0.693389  0.821112  1
  O  O52  1  0.609956  0.531160  0.061561  1
  O  O53  1  0.468840  0.390044  0.938439  1
  O  O54  1  0.220465  0.162538  0.883444  1
  O  O55  1  0.837462  0.779535  0.116556  1
  O  O56  1  0.639813  0.442635  0.726934  1
  O  O57  1  0.557365  0.360187  0.273066  1
  O  O58  1  0.807452  0.516646  0.395639  1
  O  O59  1  0.483354  0.192548  0.604361  1
  O  O60  1  0.793958  0.414589  0.953134  1
  O  O61  1  0.585411  0.206042  0.046866  1
  O  O62  1  0.637157  0.109875  0.191522  1
  O  O63  1  0.890125  0.362843  0.808478  1
  O  O64  1  0.635963  0.090545  0.337326  1
  O  O65  1  0.909455  0.364037  0.662674  1
  O  O66  1  0.680770  0.119649  0.729956  1
  O  O67  1  0.880351  0.319230  0.270044  1
  O  O68  1  0.654892  0.043120  0.479916  1
  O  O69  1  0.956880  0.345108  0.520084  1
  O  O70  1  0.948670  0.146045  0.396180  1
  O  O71  1  0.853955  0.051330  0.603820  1
