# generated using pymatgen
data_AlH20C2S2NO14
_symmetry_space_group_name_H-M   'P 1'
_cell_length_a   6.50002700
_cell_length_b   12.13685633
_cell_length_c   10.72384703
_cell_angle_alpha   90.00000000
_cell_angle_beta   90.00000000
_cell_angle_gamma   112.51935006
_symmetry_Int_Tables_number   1
_chemical_formula_structural   AlH20C2S2NO14
_chemical_formula_sum   'Al2 H40 C4 S4 N2 O28'
_cell_volume   781.49561500
_cell_formula_units_Z   2
loop_
 _symmetry_equiv_pos_site_id
 _symmetry_equiv_pos_as_xyz
  1  'x, y, z'
loop_
 _atom_site_type_symbol
 _atom_site_label
 _atom_site_symmetry_multiplicity
 _atom_site_fract_x
 _atom_site_fract_y
 _atom_site_fract_z
 _atom_site_occupancy
  Al  Al0  1  0.998658  0.504516  0.749387  1
  Al  Al1  1  0.998658  0.004516  0.250613  1
  H  H2  1  0.018634  0.647279  0.567173  1
  H  H3  1  0.018634  0.147279  0.432827  1
  H  H4  1  0.239351  0.611326  0.559818  1
  H  H5  1  0.239351  0.111326  0.440182  1
  H  H6  1  0.427313  0.619873  0.769378  1
  H  H7  1  0.427313  0.119873  0.230622  1
  H  H8  1  0.307802  0.594253  0.906488  1
  H  H9  1  0.307802  0.094253  0.093512  1
  H  H10  1  0.827595  0.664967  0.775255  1
  H  H11  1  0.827595  0.164967  0.224745  1
  H  H12  1  0.996497  0.679962  0.894754  1
  H  H13  1  0.996497  0.179962  0.105246  1
  H  H14  1  0.996468  0.868869  0.064524  1
  H  H15  1  0.996468  0.368869  0.935476  1
  H  H16  1  0.765657  0.895559  0.058316  1
  H  H17  1  0.765657  0.395559  0.941684  1
  H  H18  1  0.568778  0.879447  0.260140  1
  H  H19  1  0.568778  0.379447  0.739860  1
  H  H20  1  0.671611  0.906321  0.399813  1
  H  H21  1  0.671611  0.406321  0.600187  1
  H  H22  1  0.164681  0.844620  0.280225  1
  H  H23  1  0.164681  0.344620  0.719775  1
  H  H24  1  0.003094  0.831298  0.401844  1
  H  H25  1  0.003094  0.331298  0.598156  1
  H  H26  1  0.524814  0.907265  0.844195  1
  H  H27  1  0.524814  0.407265  0.155805  1
  H  H28  1  0.589616  0.912010  0.689839  1
  H  H29  1  0.589616  0.412010  0.310161  1
  H  H30  1  0.717382  0.624644  0.312661  1
  H  H31  1  0.717382  0.124644  0.687339  1
  H  H32  1  0.645111  0.621755  0.150797  1
  H  H33  1  0.645111  0.121755  0.849203  1
  H  H34  1  0.862833  0.574283  0.198159  1
  H  H35  1  0.862833  0.074283  0.801841  1
  H  H36  1  0.320712  0.995788  0.639564  1
  H  H37  1  0.320712  0.495788  0.360436  1
  H  H38  1  0.248066  0.988614  0.801564  1
  H  H39  1  0.248066  0.488614  0.198436  1
  H  H40  1  0.197723  0.853528  0.714949  1
  H  H41  1  0.197723  0.353528  0.285051  1
  C  C42  1  0.702170  0.077569  0.775999  1
  C  C43  1  0.702170  0.577569  0.224001  1
  C  C44  1  0.308116  0.947166  0.726914  1
  C  C45  1  0.308116  0.447166  0.273086  1
  S  S46  1  0.675650  0.739310  0.571360  1
  S  S47  1  0.675650  0.239310  0.428640  1
  S  S48  1  0.320502  0.766118  0.067882  1
  S  S49  1  0.320502  0.266118  0.932118  1
  N  N50  1  0.534983  0.953441  0.760684  1
  N  N51  1  0.534983  0.453441  0.239316  1
  O  O52  1  0.084239  0.589273  0.595556  1
  O  O53  1  0.084239  0.089273  0.404444  1
  O  O54  1  0.291662  0.567307  0.816404  1
  O  O55  1  0.291662  0.067307  0.183596  1
  O  O56  1  0.928675  0.631396  0.818668  1
  O  O57  1  0.928675  0.131396  0.181332  1
  O  O58  1  0.921334  0.922194  0.094231  1
  O  O59  1  0.921334  0.422194  0.905769  1
  O  O60  1  0.700348  0.933141  0.310605  1
  O  O61  1  0.700348  0.433141  0.689395  1
  O  O62  1  0.068370  0.879193  0.325010  1
  O  O63  1  0.068370  0.379193  0.674990  1
  O  O64  1  0.661501  0.715448  0.709948  1
  O  O65  1  0.661501  0.215448  0.290052  1
  O  O66  1  0.894584  0.741290  0.524597  1
  O  O67  1  0.894584  0.241290  0.475403  1
  O  O68  1  0.488173  0.644783  0.508053  1
  O  O69  1  0.488173  0.144783  0.491947  1
  O  O70  1  0.666490  0.858814  0.550093  1
  O  O71  1  0.666490  0.358814  0.449907  1
  O  O72  1  0.331291  0.792912  0.205153  1
  O  O73  1  0.331291  0.292912  0.794847  1
  O  O74  1  0.110201  0.771467  0.015803  1
  O  O75  1  0.110201  0.271467  0.984197  1
  O  O76  1  0.515911  0.858636  0.004450  1
  O  O77  1  0.515911  0.358636  0.995550  1
  O  O78  1  0.324201  0.646268  0.048683  1
  O  O79  1  0.324201  0.146268  0.951317  1
