# generated using pymatgen
data_LiTi(PO3)4
_symmetry_space_group_name_H-M   'P 1'
_cell_length_a   7.50601122
_cell_length_b   8.61982736
_cell_length_c   14.53212253
_cell_angle_alpha   90.01478037
_cell_angle_beta   95.56433605
_cell_angle_gamma   90.01130943
_symmetry_Int_Tables_number   1
_chemical_formula_structural   LiTi(PO3)4
_chemical_formula_sum   'Li4 Ti4 P16 O48'
_cell_volume   935.80540222
_cell_formula_units_Z   4
loop_
 _symmetry_equiv_pos_site_id
 _symmetry_equiv_pos_as_xyz
  1  'x, y, z'
loop_
 _atom_site_type_symbol
 _atom_site_label
 _atom_site_symmetry_multiplicity
 _atom_site_fract_x
 _atom_site_fract_y
 _atom_site_fract_z
 _atom_site_occupancy
  Li  Li0  1  0.061473  0.583086  0.926755  1
  Li  Li1  1  0.438526  0.083076  0.573246  1
  Li  Li2  1  0.561474  0.916924  0.426754  1
  Li  Li3  1  0.938527  0.416914  0.073245  1
  Ti  Ti4  1  0.040696  0.658390  0.352360  1
  Ti  Ti5  1  0.540740  0.841740  0.852333  1
  Ti  Ti6  1  0.459260  0.158260  0.147667  1
  Ti  Ti7  1  0.959304  0.341610  0.647640  1
  P  P8  1  0.063276  0.276607  0.430972  1
  P  P9  1  0.138363  0.047938  0.783540  1
  P  P10  1  0.185291  0.231955  0.954864  1
  P  P11  1  0.203989  0.031836  0.309471  1
  P  P12  1  0.314721  0.732004  0.545157  1
  P  P13  1  0.361695  0.547951  0.716460  1
  P  P14  1  0.296040  0.531771  0.190508  1
  P  P15  1  0.563276  0.223378  0.930974  1
  P  P16  1  0.436724  0.776622  0.069026  1
  P  P17  1  0.703960  0.468229  0.809492  1
  P  P18  1  0.638305  0.452049  0.283540  1
  P  P19  1  0.685279  0.267996  0.454843  1
  P  P20  1  0.796011  0.968164  0.690529  1
  P  P21  1  0.814709  0.768045  0.045136  1
  P  P22  1  0.861637  0.952062  0.216460  1
  P  P23  1  0.936724  0.723393  0.569028  1
  O  O24  1  0.071473  0.372822  0.965529  1
  O  O25  1  0.079895  0.124593  0.877460  1
  O  O26  1  0.030717  0.068046  0.237946  1
  O  O27  1  0.102033  0.287055  0.534815  1
  O  O28  1  0.136011  0.164819  0.706568  1
  O  O29  1  0.140830  0.784913  0.594147  1
  O  O30  1  0.100733  0.411098  0.371321  1
  O  O31  1  0.196304  0.454647  0.696770  1
  O  O32  1  0.165588  0.123639  0.402496  1
  O  O33  1  0.137143  0.606510  0.227429  1
  O  O34  1  0.303653  0.954662  0.803241  1
  O  O35  1  0.218386  0.863831  0.337229  1
  O  O36  1  0.258432  0.638584  0.460144  1
  O  O37  1  0.359196  0.284908  0.905857  1
  O  O38  1  0.364012  0.664818  0.793431  1
  O  O39  1  0.397977  0.787076  0.965203  1
  O  O40  1  0.241550  0.138601  0.039804  1
  O  O41  1  0.281645  0.363866  0.162782  1
  O  O42  1  0.420113  0.624594  0.622562  1
  O  O43  1  0.362798  0.106483  0.272596  1
  O  O44  1  0.428539  0.872835  0.534480  1
  O  O45  1  0.334432  0.623658  0.097488  1
  O  O46  1  0.530686  0.431971  0.737947  1
  O  O47  1  0.399266  0.911108  0.128659  1
  O  O48  1  0.600734  0.088892  0.871341  1
  O  O49  1  0.469314  0.568029  0.262053  1
  O  O50  1  0.665568  0.376342  0.902512  1
  O  O51  1  0.571461  0.127165  0.465520  1
  O  O52  1  0.637202  0.893517  0.727404  1
  O  O53  1  0.579887  0.375406  0.377438  1
  O  O54  1  0.718355  0.636134  0.837218  1
  O  O55  1  0.758450  0.861399  0.960196  1
  O  O56  1  0.602023  0.212924  0.034797  1
  O  O57  1  0.635988  0.335182  0.206569  1
  O  O58  1  0.640804  0.715092  0.094143  1
  O  O59  1  0.741568  0.361416  0.539856  1
  O  O60  1  0.781614  0.136169  0.662771  1
  O  O61  1  0.696347  0.045338  0.196759  1
  O  O62  1  0.862857  0.393490  0.772571  1
  O  O63  1  0.834412  0.876361  0.597504  1
  O  O64  1  0.803696  0.545353  0.303230  1
  O  O65  1  0.899267  0.588902  0.628679  1
  O  O66  1  0.859170  0.215087  0.405853  1
  O  O67  1  0.863989  0.835181  0.293432  1
  O  O68  1  0.897967  0.712945  0.465185  1
  O  O69  1  0.969283  0.931954  0.762054  1
  O  O70  1  0.920105  0.875407  0.122540  1
  O  O71  1  0.928527  0.627178  0.034471  1
