# generated using pymatgen
data_Na3CrAsCO7
_symmetry_space_group_name_H-M   'P 1'
_cell_length_a   9.33427788
_cell_length_b   6.84938652
_cell_length_c   5.36406494
_cell_angle_alpha   90.00000000
_cell_angle_beta   87.53565475
_cell_angle_gamma   90.00000000
_symmetry_Int_Tables_number   1
_chemical_formula_structural   Na3CrAsCO7
_chemical_formula_sum   'Na6 Cr2 As2 C2 O14'
_cell_volume   342.62937471
_cell_formula_units_Z   2
loop_
 _symmetry_equiv_pos_site_id
 _symmetry_equiv_pos_as_xyz
  1  'x, y, z'
loop_
 _atom_site_type_symbol
 _atom_site_label
 _atom_site_symmetry_multiplicity
 _atom_site_fract_x
 _atom_site_fract_y
 _atom_site_fract_z
 _atom_site_occupancy
  Na  Na0  1  0.081415  0.250000  0.771878  1
  Na  Na1  1  0.256905  0.003673  0.246330  1
  Na  Na2  1  0.256905  0.496327  0.246330  1
  Na  Na3  1  0.743095  0.503673  0.753670  1
  Na  Na4  1  0.743095  0.996327  0.753670  1
  Na  Na5  1  0.918585  0.750000  0.228122  1
  Cr  Cr6  1  0.345076  0.750000  0.771930  1
  Cr  Cr7  1  0.654924  0.250000  0.228070  1
  As  As8  1  0.419647  0.250000  0.690611  1
  As  As9  1  0.580353  0.750000  0.309389  1
  C  C10  1  0.052887  0.750000  0.716470  1
  C  C11  1  0.947113  0.250000  0.283530  1
  O  O12  1  0.085999  0.250000  0.259535  1
  O  O13  1  0.127768  0.750000  0.918555  1
  O  O14  1  0.118353  0.750000  0.499034  1
  O  O15  1  0.311413  0.053801  0.774434  1
  O  O16  1  0.311413  0.446199  0.774434  1
  O  O17  1  0.442090  0.250000  0.367377  1
  O  O18  1  0.416399  0.750000  0.180410  1
  O  O19  1  0.583601  0.250000  0.819590  1
  O  O20  1  0.557910  0.750000  0.632623  1
  O  O21  1  0.688587  0.553801  0.225566  1
  O  O22  1  0.688587  0.946199  0.225566  1
  O  O23  1  0.881647  0.250000  0.500966  1
  O  O24  1  0.872232  0.250000  0.081445  1
  O  O25  1  0.914001  0.750000  0.740465  1
