# generated using pymatgen
data_Bi3O5
_symmetry_space_group_name_H-M   'P 1'
_cell_length_a   8.31916634
_cell_length_b   6.75714414
_cell_length_c   5.74032362
_cell_angle_alpha   115.42031852
_cell_angle_beta   89.91947734
_cell_angle_gamma   108.89601353
_symmetry_Int_Tables_number   1
_chemical_formula_structural   Bi3O5
_chemical_formula_sum   'Bi6 O10'
_cell_volume   272.13857174
_cell_formula_units_Z   2
loop_
 _symmetry_equiv_pos_site_id
 _symmetry_equiv_pos_as_xyz
  1  'x, y, z'
loop_
 _atom_site_type_symbol
 _atom_site_label
 _atom_site_symmetry_multiplicity
 _atom_site_fract_x
 _atom_site_fract_y
 _atom_site_fract_z
 _atom_site_occupancy
  Bi  Bi0  1  0.160538  0.627013  0.323594  1
  Bi  Bi1  1  0.658177  0.628258  0.309229  1
  Bi  Bi2  1  0.999659  0.998783  0.000153  1
  Bi  Bi3  1  0.500790  0.001126  0.002989  1
  Bi  Bi4  1  0.841396  0.372571  0.680265  1
  Bi  Bi5  1  0.341080  0.371817  0.693687  1
  O  O6  1  0.884363  0.675594  0.084653  1
  O  O7  1  0.452599  0.685355  0.079929  1
  O  O8  1  0.949904  0.683338  0.603784  1
  O  O9  1  0.389611  0.673134  0.586671  1
  O  O10  1  0.051502  0.314967  0.397425  1
  O  O11  1  0.248617  0.993911  0.097888  1
  O  O12  1  0.611578  0.325161  0.414646  1
  O  O13  1  0.751562  0.005628  0.896759  1
  O  O14  1  0.547505  0.313565  0.922988  1
  O  O15  1  0.112765  0.325608  0.914610  1
