# generated using pymatgen
data_Li2CrCo3O8
_symmetry_space_group_name_H-M   'P 1'
_cell_length_a   5.69933002
_cell_length_b   5.68304589
_cell_length_c   9.31741105
_cell_angle_alpha   90.37386855
_cell_angle_beta   89.81359625
_cell_angle_gamma   119.90551813
_symmetry_Int_Tables_number   1
_chemical_formula_structural   Li2CrCo3O8
_chemical_formula_sum   'Li4 Cr2 Co6 O16'
_cell_volume   261.59792738
_cell_formula_units_Z   2
loop_
 _symmetry_equiv_pos_site_id
 _symmetry_equiv_pos_as_xyz
  1  'x, y, z'
loop_
 _atom_site_type_symbol
 _atom_site_label
 _atom_site_symmetry_multiplicity
 _atom_site_fract_x
 _atom_site_fract_y
 _atom_site_fract_z
 _atom_site_occupancy
  Li  Li0  1  0.331536  0.663984  0.891858  1
  Li  Li1  1  0.000536  0.999870  0.998421  1
  Li  Li2  1  0.999463  0.999333  0.498421  1
  Li  Li3  1  0.668464  0.332448  0.391858  1
  Cr  Cr4  1  0.335459  0.672095  0.485437  1
  Cr  Cr5  1  0.664541  0.336636  0.985436  1
  Co  Co6  1  0.170195  0.830094  0.214852  1
  Co  Co7  1  0.169496  0.336099  0.212198  1
  Co  Co8  1  0.664110  0.830674  0.212115  1
  Co  Co9  1  0.335890  0.166564  0.712115  1
  Co  Co10  1  0.829805  0.659900  0.714852  1
  Co  Co11  1  0.830504  0.166603  0.712198  1
  O  O12  1  0.167713  0.844289  0.606379  1
  O  O13  1  0.038978  0.515242  0.333952  1
  O  O14  1  0.334327  0.665738  0.108009  1
  O  O15  1  0.000115  0.000407  0.310442  1
  O  O16  1  0.999885  0.000290  0.810442  1
  O  O17  1  0.162423  0.324504  0.608177  1
  O  O18  1  0.485361  0.962088  0.333169  1
  O  O19  1  0.480826  0.519723  0.332376  1
  O  O20  1  0.323721  0.167742  0.106537  1
  O  O21  1  0.676279  0.844020  0.606537  1
  O  O22  1  0.514639  0.476727  0.833169  1
  O  O23  1  0.519174  0.038897  0.832376  1
  O  O24  1  0.665673  0.331411  0.608009  1
  O  O25  1  0.832287  0.676577  0.106379  1
  O  O26  1  0.961022  0.476264  0.833952  1
  O  O27  1  0.837577  0.162081  0.108177  1
