# generated using pymatgen
data_KNaZrSi3H4O11
_symmetry_space_group_name_H-M   'P 1'
_cell_length_a   11.91553403
_cell_length_b   13.14011046
_cell_length_c   6.82688512
_cell_angle_alpha   90.00000000
_cell_angle_beta   90.00000000
_cell_angle_gamma   90.00000000
_symmetry_Int_Tables_number   1
_chemical_formula_structural   KNaZrSi3H4O11
_chemical_formula_sum   'K4 Na4 Zr4 Si12 H16 O44'
_cell_volume   1068.89518851
_cell_formula_units_Z   4
loop_
 _symmetry_equiv_pos_site_id
 _symmetry_equiv_pos_as_xyz
  1  'x, y, z'
loop_
 _atom_site_type_symbol
 _atom_site_label
 _atom_site_symmetry_multiplicity
 _atom_site_fract_x
 _atom_site_fract_y
 _atom_site_fract_z
 _atom_site_occupancy
  K  K0  1  0.251420  0.349050  0.913298  1
  K  K1  1  0.251420  0.849050  0.586702  1
  K  K2  1  0.751420  0.150950  0.413298  1
  K  K3  1  0.751420  0.650950  0.086702  1
  Na  Na4  1  0.496888  0.110021  0.828897  1
  Na  Na5  1  0.496888  0.610021  0.671103  1
  Na  Na6  1  0.996888  0.389979  0.328897  1
  Na  Na7  1  0.996888  0.889979  0.171103  1
  Zr  Zr8  1  0.248937  0.052304  0.147828  1
  Zr  Zr9  1  0.248937  0.552304  0.352172  1
  Zr  Zr10  1  0.748937  0.447696  0.647828  1
  Zr  Zr11  1  0.748937  0.947696  0.852172  1
  Si  Si12  1  0.212917  0.109464  0.646257  1
  Si  Si13  1  0.212917  0.609464  0.853743  1
  Si  Si14  1  0.281129  0.786491  0.112126  1
  Si  Si15  1  0.281129  0.286491  0.387874  1
  Si  Si16  1  0.497413  0.415084  0.390339  1
  Si  Si17  1  0.497413  0.915084  0.109661  1
  Si  Si18  1  0.712917  0.390536  0.146257  1
  Si  Si19  1  0.712917  0.890536  0.353743  1
  Si  Si20  1  0.781129  0.213509  0.887874  1
  Si  Si21  1  0.781129  0.713509  0.612126  1
  Si  Si22  1  0.997413  0.084916  0.890339  1
  Si  Si23  1  0.997413  0.584916  0.609661  1
  H  H24  1  0.005040  0.168359  0.262162  1
  H  H25  1  0.005040  0.668359  0.237838  1
  H  H26  1  0.011074  0.180371  0.487627  1
  H  H27  1  0.011074  0.680371  0.012373  1
  H  H28  1  0.485991  0.186787  0.434723  1
  H  H29  1  0.485991  0.686787  0.065277  1
  H  H30  1  0.495286  0.071200  0.394471  1
  H  H31  1  0.495286  0.571200  0.105529  1
  H  H32  1  0.505040  0.331641  0.762162  1
  H  H33  1  0.505040  0.831641  0.737838  1
  H  H34  1  0.511074  0.319629  0.987627  1
  H  H35  1  0.511074  0.819629  0.512373  1
  H  H36  1  0.985991  0.313213  0.934723  1
  H  H37  1  0.985991  0.813213  0.565277  1
  H  H38  1  0.995286  0.928800  0.605529  1
  H  H39  1  0.995286  0.428800  0.894471  1
  O  O40  1  0.023177  0.375243  0.983071  1
  O  O41  1  0.023177  0.875243  0.516929  1
  O  O42  1  0.074333  0.070900  0.085399  1
  O  O43  1  0.074333  0.570900  0.414601  1
  O  O44  1  0.075628  0.109781  0.695410  1
  O  O45  1  0.075628  0.609781  0.804590  1
  O  O46  1  0.213503  0.392736  0.364077  1
  O  O47  1  0.213503  0.892736  0.135923  1
  O  O48  1  0.233766  0.040452  0.453481  1
  O  O49  1  0.233766  0.540452  0.046519  1
  O  O50  1  0.242260  0.229765  0.593433  1
  O  O51  1  0.242260  0.729765  0.906567  1
  O  O52  1  0.270005  0.208441  0.204515  1
  O  O53  1  0.270005  0.708441  0.295485  1
  O  O54  1  0.280398  0.073558  0.840423  1
  O  O55  1  0.280398  0.573559  0.659577  1
  O  O56  1  0.417342  0.312940  0.418140  1
  O  O57  1  0.417342  0.812940  0.081860  1
  O  O58  1  0.422148  0.015510  0.154186  1
  O  O59  1  0.422148  0.515510  0.345814  1
  O  O60  1  0.476348  0.289131  0.870630  1
  O  O61  1  0.476348  0.789131  0.629370  1
  O  O62  1  0.523177  0.124757  0.483071  1
  O  O63  1  0.523177  0.624757  0.016929  1
  O  O64  1  0.574333  0.429100  0.585399  1
  O  O65  1  0.574333  0.929100  0.914601  1
  O  O66  1  0.575628  0.390219  0.195410  1
  O  O67  1  0.575628  0.890219  0.304590  1
  O  O68  1  0.713503  0.107264  0.864077  1
  O  O69  1  0.713503  0.607264  0.635923  1
  O  O70  1  0.733766  0.959548  0.546519  1
  O  O71  1  0.733766  0.459548  0.953481  1
  O  O72  1  0.742260  0.270235  0.093433  1
  O  O73  1  0.742260  0.770235  0.406567  1
  O  O74  1  0.770005  0.291559  0.704515  1
  O  O75  1  0.770005  0.791559  0.795485  1
  O  O76  1  0.780398  0.426441  0.340423  1
  O  O77  1  0.780398  0.926441  0.159577  1
  O  O78  1  0.917342  0.187060  0.918140  1
  O  O79  1  0.917342  0.687060  0.581860  1
  O  O80  1  0.922148  0.984490  0.845814  1
  O  O81  1  0.922148  0.484490  0.654186  1
  O  O82  1  0.976348  0.210869  0.370630  1
  O  O83  1  0.976348  0.710869  0.129370  1
