# generated using pymatgen
data_LiMn8F33
_symmetry_space_group_name_H-M   'P 1'
_cell_length_a   8.61907671
_cell_length_b   8.61920197
_cell_length_c   18.40142625
_cell_angle_alpha   89.99967760
_cell_angle_beta   90.00016141
_cell_angle_gamma   120.00048372
_symmetry_Int_Tables_number   1
_chemical_formula_structural   LiMn8F33
_chemical_formula_sum   'Li2 Mn16 F66'
_cell_volume   1183.88032620
_cell_formula_units_Z   2
loop_
 _symmetry_equiv_pos_site_id
 _symmetry_equiv_pos_as_xyz
  1  'x, y, z'
loop_
 _atom_site_type_symbol
 _atom_site_label
 _atom_site_symmetry_multiplicity
 _atom_site_fract_x
 _atom_site_fract_y
 _atom_site_fract_z
 _atom_site_occupancy
  Li  Li0  1  0.333329  0.666671  0.066345  1
  Li  Li1  1  0.666671  0.333342  0.566345  1
  Mn  Mn2  1  0.007172  0.669478  0.251311  1
  Mn  Mn3  1  0.007389  0.339026  0.875723  1
  Mn  Mn4  1  0.331640  0.992614  0.875720  1
  Mn  Mn5  1  1.000000  0.000001  0.996081  1
  Mn  Mn6  1  0.000000  0.000001  0.496081  1
  Mn  Mn7  1  0.333329  0.666661  0.630283  1
  Mn  Mn8  1  0.330519  0.337690  0.251310  1
  Mn  Mn9  1  0.337696  0.330523  0.751310  1
  Mn  Mn10  1  0.662304  0.992827  0.251310  1
  Mn  Mn11  1  0.660975  0.668363  0.875723  1
  Mn  Mn12  1  0.668360  0.660975  0.375720  1
  Mn  Mn13  1  0.339025  0.007388  0.375723  1
  Mn  Mn14  1  0.666671  0.333332  0.130283  1
  Mn  Mn15  1  0.992828  0.662306  0.751311  1
  Mn  Mn16  1  0.669481  0.007172  0.751310  1
  Mn  Mn17  1  0.992611  0.331637  0.375723  1
  F  F18  1  0.068027  0.869078  0.044380  1
  F  F19  1  0.074821  0.858048  0.197141  1
  F  F20  1  0.126508  0.922664  0.427753  1
  F  F21  1  0.126952  0.872969  0.811264  1
  F  F22  1  0.205087  0.791451  0.314675  1
  F  F23  1  0.083665  0.540494  0.814647  1
  F  F24  1  0.123935  0.590409  0.198204  1
  F  F25  1  0.204075  0.742307  0.698310  1
  F  F26  1  0.250883  0.798197  0.929593  1
  F  F27  1  0.114121  0.521208  0.429563  1
  F  F28  1  0.134404  0.535605  0.581943  1
  F  F29  1  0.407084  0.885880  0.429565  1
  F  F30  1  0.077336  0.203849  0.427756  1
  F  F31  1  0.401208  0.865594  0.581945  1
  F  F32  1  0.201805  0.452688  0.929598  1
  F  F33  1  0.127035  0.253985  0.811267  1
  F  F34  1  0.456829  0.916335  0.814646  1
  F  F35  1  0.208548  0.413637  0.314673  1
  F  F36  1  0.466470  0.876065  0.198203  1
  F  F37  1  0.130926  0.198954  0.044378  1
  F  F38  1  0.141948  0.216767  0.197139  1
  F  F39  1  0.257689  0.461761  0.698310  1
  F  F40  1  0.538238  0.795927  0.698310  1
  F  F41  1  0.198958  0.130923  0.544377  1
  F  F42  1  0.216771  0.141955  0.697140  1
  F  F43  1  0.409587  0.533524  0.198203  1
  F  F44  1  0.203847  0.077336  0.927752  1
  F  F45  1  0.464393  0.598795  0.581945  1
  F  F46  1  0.547309  0.749112  0.929598  1
  F  F47  1  0.478789  0.592912  0.429563  1
  F  F48  1  0.459505  0.543171  0.814647  1
  F  F49  1  0.586358  0.794914  0.314675  1
  F  F50  1  0.253984  0.127033  0.311267  1
  F  F51  1  0.413642  0.208555  0.814675  1
  F  F52  1  0.746016  0.873049  0.811267  1
  F  F53  1  0.543171  0.459505  0.314646  1
  F  F54  1  0.783229  0.925184  0.197140  1
  F  F55  1  0.533530  0.409595  0.698203  1
  F  F56  1  0.801042  0.931966  0.044377  1
  F  F57  1  0.461762  0.257688  0.198310  1
  F  F58  1  0.452691  0.201803  0.429598  1
  F  F59  1  0.592916  0.478796  0.929565  1
  F  F60  1  0.598792  0.464386  0.081945  1
  F  F61  1  0.796153  0.873488  0.427752  1
  F  F62  1  0.521211  0.114123  0.929563  1
  F  F63  1  0.873492  0.796157  0.927753  1
  F  F64  1  0.535607  0.134403  0.081945  1
  F  F65  1  0.749117  0.547314  0.429593  1
  F  F66  1  0.873048  0.746016  0.311264  1
  F  F67  1  0.540495  0.083666  0.314647  1
  F  F68  1  0.794913  0.586363  0.814675  1
  F  F69  1  0.590413  0.123936  0.698203  1
  F  F70  1  0.931973  0.801051  0.544380  1
  F  F71  1  0.925179  0.783227  0.697141  1
  F  F72  1  0.795925  0.538232  0.198310  1
  F  F73  1  0.742311  0.204073  0.198310  1
  F  F74  1  0.876065  0.466473  0.698204  1
  F  F75  1  0.865596  0.401202  0.081943  1
  F  F76  1  0.798195  0.250882  0.429598  1
  F  F77  1  0.885879  0.407086  0.929563  1
  F  F78  1  0.916335  0.456829  0.314647  1
  F  F79  1  0.791452  0.205088  0.814673  1
  F  F80  1  0.872965  0.126951  0.311267  1
  F  F81  1  0.858052  0.074819  0.697139  1
  F  F82  1  0.869074  0.068028  0.544378  1
  F  F83  1  0.922664  0.126513  0.927756  1
