# generated using pymatgen
data_LiMn2(BO3)2
_symmetry_space_group_name_H-M   'P 1'
_cell_length_a   5.25285540
_cell_length_b   13.93360176
_cell_length_c   11.59501499
_cell_angle_alpha   66.23360468
_cell_angle_beta   77.71884208
_cell_angle_gamma   90.88920055
_symmetry_Int_Tables_number   1
_chemical_formula_structural   LiMn2(BO3)2
_chemical_formula_sum   'Li6 Mn12 B12 O36'
_cell_volume   754.03066959
_cell_formula_units_Z   6
loop_
 _symmetry_equiv_pos_site_id
 _symmetry_equiv_pos_as_xyz
  1  'x, y, z'
loop_
 _atom_site_type_symbol
 _atom_site_label
 _atom_site_symmetry_multiplicity
 _atom_site_fract_x
 _atom_site_fract_y
 _atom_site_fract_z
 _atom_site_occupancy
  Li  Li0  1  0.226846  0.623347  0.230039  1
  Li  Li1  1  0.256372  0.896144  0.765642  1
  Li  Li2  1  0.429508  0.706518  0.436600  1
  Li  Li3  1  0.411650  0.430816  0.894074  1
  Li  Li4  1  0.590259  0.284085  0.542481  1
  Li  Li5  1  0.754675  0.108259  0.229142  1
  Mn  Mn6  1  0.009777  0.826201  0.299806  1
  Mn  Mn7  1  0.072278  0.437267  0.184625  1
  Mn  Mn8  1  0.337845  0.845180  0.023564  1
  Mn  Mn9  1  0.295160  0.245121  0.128316  1
  Mn  Mn10  1  0.344302  0.475782  0.638555  1
  Mn  Mn11  1  0.396709  0.094933  0.520293  1
  Mn  Mn12  1  0.595705  0.891865  0.480016  1
  Mn  Mn13  1  0.667914  0.517180  0.354825  1
  Mn  Mn14  1  0.736083  0.760404  0.856410  1
  Mn  Mn15  1  0.675895  0.141605  0.977232  1
  Mn  Mn16  1  0.953951  0.571588  0.791321  1
  Mn  Mn17  1  0.995059  0.167358  0.697761  1
  B  B18  1  0.103355  0.399100  0.479416  1
  B  B19  1  0.157424  0.024429  0.354433  1
  B  B20  1  0.182939  0.664809  0.965024  1
  B  B21  1  0.559840  0.923447  0.202069  1
  B  B22  1  0.233804  0.251014  0.871603  1
  B  B23  1  0.512142  0.323915  0.299003  1
  B  B24  1  0.484744  0.659553  0.696312  1
  B  B25  1  0.760965  0.737404  0.135343  1
  B  B26  1  0.435775  0.072567  0.788423  1
  B  B27  1  0.840062  0.348277  0.018190  1
  B  B28  1  0.829061  0.984210  0.642331  1
  B  B29  1  0.895271  0.599640  0.525419  1
  O  O30  1  0.006211  0.758598  0.155152  1
  O  O31  1  0.084070  0.364215  0.043975  1
  O  O32  1  0.012390  0.927794  0.400359  1
  O  O33  1  0.061162  0.475631  0.365026  1
  O  O34  1  0.087183  0.114083  0.269407  1
  O  O35  1  0.068739  0.679955  0.432918  1
  O  O36  1  0.213558  0.591556  0.077512  1
  O  O37  1  0.356329  0.896357  0.154485  1
  O  O38  1  0.045396  0.199229  0.843048  1
  O  O39  1  0.319757  0.319836  0.234314  1
  O  O40  1  0.347740  0.415092  0.511935  1
  O  O41  1  0.391800  0.030274  0.398717  1
  O  O42  1  0.300939  0.977795  0.863661  1
  O  O43  1  0.430324  0.738828  0.595540  1
  O  O44  1  0.341566  0.555186  0.750802  1
  O  O45  1  0.583322  0.658118  0.230002  1
  O  O46  1  0.704373  0.800891  0.016805  1
  O  O47  1  0.314679  0.769520  0.910865  1
  O  O48  1  0.376917  0.140993  0.666519  1
  O  O49  1  0.602991  0.847875  0.317747  1
  O  O50  1  0.352172  0.349831  0.793320  1
  O  O51  1  0.296661  0.195909  0.991652  1
  O  O52  1  0.700219  0.246118  0.084543  1
  O  O53  1  0.540718  0.239154  0.406035  1
  O  O54  1  0.666570  0.417707  0.257410  1
  O  O55  1  0.695291  0.020284  0.143504  1
  O  O56  1  0.586475  0.970893  0.611806  1
  O  O57  1  0.648398  0.577682  0.505313  1
  O  O58  1  0.674828  0.665778  0.759567  1
  O  O59  1  0.643205  0.114632  0.814985  1
  O  O60  1  0.746408  0.429604  0.932414  1
  O  O61  1  0.936052  0.311489  0.559353  1
  O  O62  1  0.933553  0.899643  0.714585  1
  O  O63  1  0.956925  0.532402  0.642797  1
  O  O64  1  0.962140  0.086902  0.592043  1
  O  O65  1  0.018681  0.651839  0.891043  1
