# generated using pymatgen
data_NbFe3(PO4)6
_symmetry_space_group_name_H-M   'P 1'
_cell_length_a   8.97433279
_cell_length_b   8.97433266
_cell_length_c   8.97433245
_cell_angle_alpha   58.55273789
_cell_angle_beta   58.55273600
_cell_angle_gamma   58.55273810
_symmetry_Int_Tables_number   1
_chemical_formula_structural   NbFe3(PO4)6
_chemical_formula_sum   'Nb1 Fe3 P6 O24'
_cell_volume   494.16746259
_cell_formula_units_Z   1
loop_
 _symmetry_equiv_pos_site_id
 _symmetry_equiv_pos_as_xyz
  1  'x, y, z'
loop_
 _atom_site_type_symbol
 _atom_site_label
 _atom_site_symmetry_multiplicity
 _atom_site_fract_x
 _atom_site_fract_y
 _atom_site_fract_z
 _atom_site_occupancy
  Nb  Nb0  1  0.859602  0.859602  0.859602  1
  Fe  Fe1  1  0.142762  0.142762  0.142762  1
  Fe  Fe2  1  0.357986  0.357986  0.357986  1
  Fe  Fe3  1  0.643222  0.643222  0.643222  1
  P  P4  1  0.035506  0.749923  0.462545  1
  P  P5  1  0.462545  0.035506  0.749923  1
  P  P6  1  0.749923  0.462545  0.035506  1
  P  P7  1  0.257751  0.528198  0.965949  1
  P  P8  1  0.528198  0.965949  0.257751  1
  P  P9  1  0.965949  0.257751  0.528198  1
  O  O10  1  0.136390  0.275985  0.508453  1
  O  O11  1  0.275985  0.508453  0.136390  1
  O  O12  1  0.064679  0.919408  0.286112  1
  O  O13  1  0.508453  0.136390  0.275985  1
  O  O14  1  0.209909  0.577347  0.444542  1
  O  O15  1  0.997608  0.784335  0.634360  1
  O  O16  1  0.286112  0.064679  0.919408  1
  O  O17  1  0.444542  0.209909  0.577347  1
  O  O18  1  0.577347  0.444542  0.209909  1
  O  O19  1  0.229325  0.359714  0.993786  1
  O  O20  1  0.083224  0.705602  0.932381  1
  O  O21  1  0.359714  0.993786  0.229325  1
  O  O22  1  0.634360  0.997608  0.784335  1
  O  O23  1  0.919408  0.286112  0.064679  1
  O  O24  1  0.784335  0.634360  0.997608  1
  O  O25  1  0.427751  0.554946  0.791312  1
  O  O26  1  0.554946  0.791312  0.427751  1
  O  O27  1  0.705602  0.932381  0.083224  1
  O  O28  1  0.993786  0.229325  0.359714  1
  O  O29  1  0.791312  0.427751  0.554946  1
  O  O30  1  0.489233  0.864871  0.725282  1
  O  O31  1  0.932381  0.083224  0.705602  1
  O  O32  1  0.725282  0.489233  0.864871  1
  O  O33  1  0.864871  0.725282  0.489233  1
