# generated using pymatgen
data_Ba3SrTa2O9
_symmetry_space_group_name_H-M   'P 1'
_cell_length_a   6.02189220
_cell_length_b   6.02189220
_cell_length_c   7.67679453
_cell_angle_alpha   90.00000000
_cell_angle_beta   90.00000000
_cell_angle_gamma   120.00000002
_symmetry_Int_Tables_number   1
_chemical_formula_structural   Ba3SrTa2O9
_chemical_formula_sum   'Ba3 Sr1 Ta2 O9'
_cell_volume   241.08850382
_cell_formula_units_Z   1
loop_
 _symmetry_equiv_pos_site_id
 _symmetry_equiv_pos_as_xyz
  1  'x, y, z'
loop_
 _atom_site_type_symbol
 _atom_site_label
 _atom_site_symmetry_multiplicity
 _atom_site_fract_x
 _atom_site_fract_y
 _atom_site_fract_z
 _atom_site_occupancy
  O  O0  1  0.500000  0.500000  0.000000  1
  O  O1  1  0.000000  0.500000  0.000000  1
  O  O2  1  0.500000  0.000000  0.000000  1
  O  O3  1  0.822131  0.177869  0.700671  1
  O  O4  1  0.822131  0.644262  0.700671  1
  O  O5  1  0.355738  0.177869  0.700671  1
  O  O6  1  0.177869  0.822131  0.299329  1
  O  O7  1  0.177869  0.355738  0.299329  1
  O  O8  1  0.644262  0.822131  0.299329  1
  Sr  Sr9  1  0.000000  0.000000  0.500000  1
  Ba  Ba10  1  0.333333  0.666667  0.695032  1
  Ba  Ba11  1  0.000000  0.000000  0.000000  1
  Ba  Ba12  1  0.666667  0.333333  0.304968  1
  Ta  Ta13  1  0.333333  0.666667  0.165553  1
  Ta  Ta14  1  0.666667  0.333333  0.834447  1
