# generated using pymatgen
data_H4CS(NO)2
_symmetry_space_group_name_H-M   'P 1'
_cell_length_a   10.15072433
_cell_length_b   10.88116700
_cell_length_c   4.03713341
_cell_angle_alpha   90.00000000
_cell_angle_beta   90.00000000
_cell_angle_gamma   90.00000000
_symmetry_Int_Tables_number   1
_chemical_formula_structural   H4CS(NO)2
_chemical_formula_sum   'H16 C4 S4 N8 O8'
_cell_volume   445.90835567
_cell_formula_units_Z   4
loop_
 _symmetry_equiv_pos_site_id
 _symmetry_equiv_pos_as_xyz
  1  'x, y, z'
loop_
 _atom_site_type_symbol
 _atom_site_label
 _atom_site_symmetry_multiplicity
 _atom_site_fract_x
 _atom_site_fract_y
 _atom_site_fract_z
 _atom_site_occupancy
  H  H0  1  0.129352  0.752790  0.245483  1
  H  H1  1  0.370648  0.252790  0.254517  1
  H  H2  1  0.629352  0.247210  0.754517  1
  H  H3  1  0.870648  0.747210  0.745483  1
  H  H4  1  0.870648  0.247210  0.754517  1
  H  H5  1  0.629352  0.747210  0.745483  1
  H  H6  1  0.370648  0.752790  0.245483  1
  H  H7  1  0.129352  0.252790  0.254517  1
  H  H8  1  0.048456  0.619689  0.393493  1
  H  H9  1  0.451544  0.119689  0.106507  1
  H  H10  1  0.548456  0.380311  0.606507  1
  H  H11  1  0.951544  0.880311  0.893493  1
  H  H12  1  0.951544  0.380311  0.606507  1
  H  H13  1  0.548456  0.880311  0.893493  1
  H  H14  1  0.451544  0.619689  0.393493  1
  H  H15  1  0.048456  0.119689  0.106507  1
  C  C16  1  0.250000  0.614350  0.406529  1
  C  C17  1  0.250000  0.114350  0.093471  1
  C  C18  1  0.750000  0.385650  0.593471  1
  C  C19  1  0.750000  0.885650  0.906529  1
  S  S20  1  0.250000  0.960100  0.872191  1
  S  S21  1  0.250000  0.460100  0.627809  1
  S  S22  1  0.750000  0.039900  0.127809  1
  S  S23  1  0.750000  0.539900  0.372191  1
  N  N24  1  0.135361  0.666327  0.350528  1
  N  N25  1  0.364639  0.166327  0.149472  1
  N  N26  1  0.635361  0.333673  0.649472  1
  N  N27  1  0.864639  0.833673  0.850528  1
  N  N28  1  0.864639  0.333673  0.649472  1
  N  N29  1  0.635361  0.833673  0.850528  1
  N  N30  1  0.364639  0.666327  0.350528  1
  N  N31  1  0.135361  0.166327  0.149472  1
  O  O32  1  0.127689  0.901437  0.016486  1
  O  O33  1  0.372311  0.401437  0.483514  1
  O  O34  1  0.627689  0.098563  0.983514  1
  O  O35  1  0.872311  0.598563  0.516486  1
  O  O36  1  0.872311  0.098563  0.983514  1
  O  O37  1  0.627689  0.598563  0.516486  1
  O  O38  1  0.372311  0.901437  0.016486  1
  O  O39  1  0.127689  0.401437  0.483514  1
