# generated using pymatgen
data_Mn6O7F5
_symmetry_space_group_name_H-M   'P 1'
_cell_length_a   4.67097086
_cell_length_b   7.72329981
_cell_length_c   5.61875786
_cell_angle_alpha   94.22777154
_cell_angle_beta   91.85101954
_cell_angle_gamma   88.94257827
_symmetry_Int_Tables_number   1
_chemical_formula_structural   Mn6O7F5
_chemical_formula_sum   'Mn6 O7 F5'
_cell_volume   202.01510033
_cell_formula_units_Z   1
loop_
 _symmetry_equiv_pos_site_id
 _symmetry_equiv_pos_as_xyz
  1  'x, y, z'
loop_
 _atom_site_type_symbol
 _atom_site_label
 _atom_site_symmetry_multiplicity
 _atom_site_fract_x
 _atom_site_fract_y
 _atom_site_fract_z
 _atom_site_occupancy
  Mn  Mn0  1  0.500485  0.999577  0.499364  1
  Mn  Mn1  1  0.537039  0.657855  0.157439  1
  Mn  Mn2  1  0.478352  0.348131  0.829729  1
  Mn  Mn3  1  0.008035  0.686285  0.671899  1
  Mn  Mn4  1  0.985059  0.319324  0.339288  1
  Mn  Mn5  1  0.986382  0.990517  0.003572  1
  O  O6  1  0.806726  0.770395  0.954546  1
  O  O7  1  0.806490  0.090974  0.291750  1
  O  O8  1  0.695326  0.765292  0.461128  1
  O  O9  1  0.693647  0.428089  0.127782  1
  O  O10  1  0.301323  0.573683  0.877156  1
  O  O11  1  0.306625  0.235485  0.534625  1
  O  O12  1  0.183416  0.904346  0.707338  1
  F  F13  1  0.816583  0.454104  0.642804  1
  F  F14  1  0.696951  0.123567  0.805133  1
  F  F15  1  0.309816  0.879052  0.191502  1
  F  F16  1  0.189042  0.562247  0.374695  1
  F  F17  1  0.198703  0.211077  0.030253  1
