# generated using pymatgen
data_Na2NdPCO7
_symmetry_space_group_name_H-M   'P 1'
_cell_length_a   9.45251109
_cell_length_b   7.15236726
_cell_length_c   5.22405292
_cell_angle_alpha   90.00000000
_cell_angle_beta   91.15286192
_cell_angle_gamma   90.00000000
_symmetry_Int_Tables_number   1
_chemical_formula_structural   Na2NdPCO7
_chemical_formula_sum   'Na4 Nd2 P2 C2 O14'
_cell_volume   353.11539186
_cell_formula_units_Z   2
loop_
 _symmetry_equiv_pos_site_id
 _symmetry_equiv_pos_as_xyz
  1  'x, y, z'
loop_
 _atom_site_type_symbol
 _atom_site_label
 _atom_site_symmetry_multiplicity
 _atom_site_fract_x
 _atom_site_fract_y
 _atom_site_fract_z
 _atom_site_occupancy
  Na  Na0  1  0.206964  0.493507  0.228797  1
  Na  Na1  1  0.206964  0.006493  0.228797  1
  Na  Na2  1  0.793036  0.506493  0.771203  1
  Na  Na3  1  0.793036  0.993507  0.771203  1
  Nd  Nd4  1  0.377476  0.750000  0.759377  1
  Nd  Nd5  1  0.622524  0.250000  0.240623  1
  P  P6  1  0.411923  0.250000  0.710290  1
  P  P7  1  0.588077  0.750000  0.289710  1
  C  C8  1  0.074735  0.750000  0.731782  1
  C  C9  1  0.925265  0.250000  0.268218  1
  O  O10  1  0.057910  0.250000  0.297058  1
  O  O11  1  0.140312  0.750000  0.955945  1
  O  O12  1  0.159827  0.750000  0.531969  1
  O  O13  1  0.349859  0.072566  0.833008  1
  O  O14  1  0.349859  0.427434  0.833008  1
  O  O15  1  0.421840  0.750000  0.245834  1
  O  O16  1  0.387559  0.250000  0.413844  1
  O  O17  1  0.612441  0.750000  0.586156  1
  O  O18  1  0.578160  0.250000  0.754166  1
  O  O19  1  0.650141  0.572566  0.166992  1
  O  O20  1  0.650141  0.927434  0.166992  1
  O  O21  1  0.840173  0.250000  0.468031  1
  O  O22  1  0.859688  0.250000  0.044055  1
  O  O23  1  0.942090  0.750000  0.702942  1
