# generated using pymatgen
data_LuP5O14
_symmetry_space_group_name_H-M   'P 1'
_cell_length_a   8.76049923
_cell_length_b   12.80245075
_cell_length_c   8.93554242
_cell_angle_alpha   90.00000000
_cell_angle_beta   90.00000000
_cell_angle_gamma   90.00000000
_symmetry_Int_Tables_number   1
_chemical_formula_structural   LuP5O14
_chemical_formula_sum   'Lu4 P20 O56'
_cell_volume   1002.17344412
_cell_formula_units_Z   4
loop_
 _symmetry_equiv_pos_site_id
 _symmetry_equiv_pos_as_xyz
  1  'x, y, z'
loop_
 _atom_site_type_symbol
 _atom_site_label
 _atom_site_symmetry_multiplicity
 _atom_site_fract_x
 _atom_site_fract_y
 _atom_site_fract_z
 _atom_site_occupancy
  Lu  Lu0  1  0.021726  0.250000  0.060952  1
  Lu  Lu1  1  0.478274  0.750000  0.560952  1
  Lu  Lu2  1  0.521726  0.250000  0.439048  1
  Lu  Lu3  1  0.978274  0.750000  0.939048  1
  P  P4  1  0.005136  0.583410  0.297495  1
  P  P5  1  0.005136  0.916590  0.297495  1
  P  P6  1  0.069123  0.750000  0.513503  1
  P  P7  1  0.254393  0.068469  0.275380  1
  P  P8  1  0.254393  0.431531  0.275380  1
  P  P9  1  0.245607  0.568469  0.775380  1
  P  P10  1  0.245607  0.931531  0.775380  1
  P  P11  1  0.430877  0.250000  0.013503  1
  P  P12  1  0.494864  0.416590  0.797496  1
  P  P13  1  0.494864  0.083410  0.797496  1
  P  P14  1  0.505136  0.916590  0.202505  1
  P  P15  1  0.505136  0.583410  0.202505  1
  P  P16  1  0.569123  0.750000  0.986497  1
  P  P17  1  0.754393  0.068469  0.224620  1
  P  P18  1  0.754393  0.431531  0.224620  1
  P  P19  1  0.745607  0.568469  0.724620  1
  P  P20  1  0.745607  0.931531  0.724620  1
  P  P21  1  0.930877  0.250000  0.486497  1
  P  P22  1  0.994864  0.083410  0.702504  1
  P  P23  1  0.994864  0.416590  0.702504  1
  O  O24  1  0.998089  0.137489  0.848108  1
  O  O25  1  0.998089  0.362511  0.848108  1
  O  O26  1  0.031769  0.750000  0.674997  1
  O  O27  1  0.027701  0.153754  0.561344  1
  O  O28  1  0.027701  0.346246  0.561344  1
  O  O29  1  0.117557  0.504988  0.678964  1
  O  O30  1  0.117557  0.995012  0.678964  1
  O  O31  1  0.153172  0.119030  0.162679  1
  O  O32  1  0.153172  0.380970  0.162679  1
  O  O33  1  0.161405  0.530203  0.345687  1
  O  O34  1  0.161405  0.969797  0.345687  1
  O  O35  1  0.171868  0.627354  0.899172  1
  O  O36  1  0.171868  0.872646  0.899172  1
  O  O37  1  0.228404  0.750000  0.453768  1
  O  O38  1  0.271596  0.250000  0.953768  1
  O  O39  1  0.328132  0.127354  0.399172  1
  O  O40  1  0.328132  0.372646  0.399172  1
  O  O41  1  0.338595  0.030203  0.845687  1
  O  O42  1  0.338595  0.469797  0.845687  1
  O  O43  1  0.346828  0.619030  0.662679  1
  O  O44  1  0.346828  0.880970  0.662679  1
  O  O45  1  0.382443  0.004988  0.178964  1
  O  O46  1  0.382443  0.495012  0.178964  1
  O  O47  1  0.472299  0.653754  0.061344  1
  O  O48  1  0.472299  0.846246  0.061344  1
  O  O49  1  0.468231  0.250000  0.174997  1
  O  O50  1  0.501911  0.637489  0.348108  1
  O  O51  1  0.501911  0.862511  0.348108  1
  O  O52  1  0.498089  0.137489  0.651892  1
  O  O53  1  0.498089  0.362511  0.651892  1
  O  O54  1  0.531769  0.750000  0.825003  1
  O  O55  1  0.527701  0.153754  0.938656  1
  O  O56  1  0.527701  0.346246  0.938656  1
  O  O57  1  0.617557  0.504988  0.821036  1
  O  O58  1  0.617557  0.995012  0.821036  1
  O  O59  1  0.653172  0.119030  0.337321  1
  O  O60  1  0.653172  0.380970  0.337321  1
  O  O61  1  0.661405  0.530203  0.154313  1
  O  O62  1  0.661405  0.969797  0.154313  1
  O  O63  1  0.671868  0.627354  0.600828  1
  O  O64  1  0.671868  0.872646  0.600828  1
  O  O65  1  0.728404  0.750000  0.046232  1
  O  O66  1  0.771596  0.250000  0.546232  1
  O  O67  1  0.828132  0.127354  0.100828  1
  O  O68  1  0.828132  0.372646  0.100828  1
  O  O69  1  0.838595  0.030203  0.654313  1
  O  O70  1  0.838595  0.469797  0.654313  1
  O  O71  1  0.846828  0.880970  0.837321  1
  O  O72  1  0.846828  0.619030  0.837321  1
  O  O73  1  0.882443  0.004988  0.321036  1
  O  O74  1  0.882443  0.495012  0.321036  1
  O  O75  1  0.972299  0.653754  0.438656  1
  O  O76  1  0.972299  0.846246  0.438656  1
  O  O77  1  0.968231  0.250000  0.325003  1
  O  O78  1  0.001911  0.637489  0.151892  1
  O  O79  1  0.001911  0.862511  0.151892  1
