# generated using pymatgen
data_Fe5(O4F)2
_symmetry_space_group_name_H-M   'P 1'
_cell_length_a   4.66634289
_cell_length_b   12.94803579
_cell_length_c   5.56693505
_cell_angle_alpha   102.94495522
_cell_angle_beta   91.73178353
_cell_angle_gamma   88.88678676
_symmetry_Int_Tables_number   1
_chemical_formula_structural   Fe5(O4F)2
_chemical_formula_sum   'Fe10 O16 F4'
_cell_volume   327.62849307
_cell_formula_units_Z   2
loop_
 _symmetry_equiv_pos_site_id
 _symmetry_equiv_pos_as_xyz
  1  'x, y, z'
loop_
 _atom_site_type_symbol
 _atom_site_label
 _atom_site_symmetry_multiplicity
 _atom_site_fract_x
 _atom_site_fract_y
 _atom_site_fract_z
 _atom_site_occupancy
  Fe  Fe0  1  0.495114  0.999546  0.488828  1
  Fe  Fe1  1  0.496779  0.399584  0.302050  1
  Fe  Fe2  1  0.463370  0.201822  0.910391  1
  Fe  Fe3  1  0.517442  0.605424  0.689646  1
  Fe  Fe4  1  0.526051  0.801219  0.090872  1
  Fe  Fe5  1  0.994539  0.399733  0.796389  1
  Fe  Fe6  1  0.000793  0.804370  0.609952  1
  Fe  Fe7  1  0.002302  0.197057  0.386738  1
  Fe  Fe8  1  0.978468  0.595310  0.214600  1
  Fe  Fe9  1  0.018041  0.996271  0.007590  1
  O  O10  1  0.816201  0.868354  0.921377  1
  O  O11  1  0.818227  0.667053  0.522381  1
  O  O12  1  0.812442  0.059639  0.307426  1
  O  O13  1  0.804016  0.459166  0.104924  1
  O  O14  1  0.695087  0.462023  0.618270  1
  O  O15  1  0.697631  0.662091  0.016053  1
  O  O16  1  0.699354  0.859544  0.412862  1
  O  O17  1  0.684033  0.261134  0.219487  1
  O  O18  1  0.295649  0.342837  0.986494  1
  O  O19  1  0.317166  0.741228  0.783870  1
  O  O20  1  0.299665  0.138354  0.583875  1
  O  O21  1  0.317337  0.930796  0.180076  1
  O  O22  1  0.304700  0.538667  0.388053  1
  O  O23  1  0.193167  0.131818  0.075431  1
  O  O24  1  0.190169  0.942026  0.687668  1
  O  O25  1  0.176934  0.335442  0.489704  1
  F  F26  1  0.791397  0.256345  0.721553  1
  F  F27  1  0.694475  0.063326  0.815994  1
  F  F28  1  0.196369  0.542983  0.886949  1
  F  F29  1  0.203082  0.736837  0.280498  1
