# generated using pymatgen
data_BaP2(HO4)2
_symmetry_space_group_name_H-M   'P 1'
_cell_length_a   10.65679332
_cell_length_b   7.74532948
_cell_length_c   8.77389563
_cell_angle_alpha   90.00000000
_cell_angle_beta   90.00000000
_cell_angle_gamma   90.00000000
_symmetry_Int_Tables_number   1
_chemical_formula_structural   BaP2(HO4)2
_chemical_formula_sum   'Ba4 P8 H8 O32'
_cell_volume   724.20063958
_cell_formula_units_Z   4
loop_
 _symmetry_equiv_pos_site_id
 _symmetry_equiv_pos_as_xyz
  1  'x, y, z'
loop_
 _atom_site_type_symbol
 _atom_site_label
 _atom_site_symmetry_multiplicity
 _atom_site_fract_x
 _atom_site_fract_y
 _atom_site_fract_z
 _atom_site_occupancy
  Ba  Ba0  1  0.250000  0.250000  0.599251  1
  Ba  Ba1  1  0.750000  0.750000  0.900749  1
  Ba  Ba2  1  0.750000  0.750000  0.400749  1
  Ba  Ba3  1  0.250000  0.250000  0.099251  1
  P  P4  1  0.428022  0.932426  0.789694  1
  P  P5  1  0.071978  0.567574  0.789694  1
  P  P6  1  0.928022  0.067574  0.710306  1
  P  P7  1  0.571978  0.432426  0.710306  1
  P  P8  1  0.571978  0.067574  0.210306  1
  P  P9  1  0.928022  0.432426  0.210306  1
  P  P10  1  0.071978  0.932426  0.289694  1
  P  P11  1  0.428022  0.567574  0.289694  1
  H  H12  1  0.389313  0.675348  0.054517  1
  H  H13  1  0.110687  0.824652  0.054517  1
  H  H14  1  0.889313  0.324652  0.445483  1
  H  H15  1  0.610687  0.175348  0.445483  1
  H  H16  1  0.610687  0.324652  0.945483  1
  H  H17  1  0.889313  0.175348  0.945483  1
  H  H18  1  0.110687  0.675348  0.554517  1
  H  H19  1  0.389313  0.824652  0.554517  1
  O  O20  1  0.432840  0.768459  0.888847  1
  O  O21  1  0.067160  0.731541  0.888847  1
  O  O22  1  0.932840  0.231541  0.611153  1
  O  O23  1  0.567160  0.268459  0.611153  1
  O  O24  1  0.567160  0.231541  0.111153  1
  O  O25  1  0.932840  0.268459  0.111153  1
  O  O26  1  0.067160  0.768459  0.388847  1
  O  O27  1  0.432840  0.731541  0.388847  1
  O  O28  1  0.360463  0.085831  0.858375  1
  O  O29  1  0.139537  0.414169  0.858375  1
  O  O30  1  0.860463  0.914169  0.641625  1
  O  O31  1  0.639537  0.585831  0.641625  1
  O  O32  1  0.639537  0.914169  0.141625  1
  O  O33  1  0.860463  0.585831  0.141625  1
  O  O34  1  0.139537  0.085831  0.358375  1
  O  O35  1  0.360463  0.414169  0.358375  1
  O  O36  1  0.353973  0.904584  0.633048  1
  O  O37  1  0.146027  0.595416  0.633048  1
  O  O38  1  0.853973  0.095416  0.866952  1
  O  O39  1  0.646027  0.404584  0.866952  1
  O  O40  1  0.646027  0.095416  0.366952  1
  O  O41  1  0.853973  0.404584  0.366952  1
  O  O42  1  0.146027  0.904584  0.133048  1
  O  O43  1  0.353973  0.595416  0.133048  1
  O  O44  1  0.569944  0.956778  0.757336  1
  O  O45  1  0.930056  0.543222  0.757336  1
  O  O46  1  0.069944  0.043222  0.742664  1
  O  O47  1  0.430056  0.456778  0.742664  1
  O  O48  1  0.430056  0.043222  0.242664  1
  O  O49  1  0.069944  0.456778  0.242664  1
  O  O50  1  0.930056  0.956778  0.257336  1
  O  O51  1  0.569944  0.543222  0.257336  1
