# generated using pymatgen
data_Li8NbFe7(PO4)12
_symmetry_space_group_name_H-M   'P 1'
_cell_length_a   8.69150969
_cell_length_b   8.81186586
_cell_length_c   12.23817037
_cell_angle_alpha   90.13395041
_cell_angle_beta   90.10039145
_cell_angle_gamma   90.10449236
_symmetry_Int_Tables_number   1
_chemical_formula_structural   Li8NbFe7(PO4)12
_chemical_formula_sum   'Li8 Nb1 Fe7 P12 O48'
_cell_volume   937.29653551
_cell_formula_units_Z   1
loop_
 _symmetry_equiv_pos_site_id
 _symmetry_equiv_pos_as_xyz
  1  'x, y, z'
loop_
 _atom_site_type_symbol
 _atom_site_label
 _atom_site_symmetry_multiplicity
 _atom_site_fract_x
 _atom_site_fract_y
 _atom_site_fract_z
 _atom_site_occupancy
  Li  Li0  1  0.217222  0.722852  0.181615  1
  Li  Li1  1  0.218085  0.778002  0.818776  1
  Li  Li2  1  0.282696  0.222467  0.317883  1
  Li  Li3  1  0.282186  0.277063  0.682716  1
  Li  Li4  1  0.716532  0.724951  0.316401  1
  Li  Li5  1  0.717371  0.784742  0.682471  1
  Li  Li6  1  0.783992  0.221930  0.181405  1
  Li  Li7  1  0.785325  0.275148  0.824504  1
  Nb  Nb8  1  0.753078  0.461539  0.613123  1
  Fe  Fe9  1  0.248411  0.960222  0.612882  1
  Fe  Fe10  1  0.248637  0.541741  0.386442  1
  Fe  Fe11  1  0.251044  0.041025  0.112840  1
  Fe  Fe12  1  0.251542  0.458727  0.887854  1
  Fe  Fe13  1  0.748871  0.541356  0.112394  1
  Fe  Fe14  1  0.748129  0.960054  0.889099  1
  Fe  Fe15  1  0.750811  0.038175  0.386632  1
  P  P16  1  0.044308  0.245755  0.496645  1
  P  P17  1  0.461291  0.749763  0.000347  1
  P  P18  1  0.539165  0.250309  0.000734  1
  P  P19  1  0.963338  0.753490  0.497577  1
  P  P20  1  0.105192  0.392684  0.146945  1
  P  P21  1  0.105754  0.106779  0.853148  1
  P  P22  1  0.389905  0.606256  0.646721  1
  P  P23  1  0.394073  0.893230  0.353474  1
  P  P24  1  0.602912  0.102862  0.646082  1
  P  P25  1  0.603035  0.391899  0.349232  1
  P  P26  1  0.897132  0.609625  0.854726  1
  P  P27  1  0.894914  0.892590  0.147051  1
  O  O28  1  0.055993  0.640718  0.430303  1
  O  O29  1  0.054966  0.857647  0.572042  1
  O  O30  1  0.073236  0.895825  0.155882  1
  O  O31  1  0.073371  0.604922  0.843149  1
  O  O32  1  0.145592  0.164318  0.581158  1
  O  O33  1  0.147726  0.338376  0.420004  1
  O  O34  1  0.154685  0.434197  0.030545  1
  O  O35  1  0.155572  0.066269  0.969518  1
  O  O36  1  0.161936  0.232573  0.179401  1
  O  O37  1  0.161581  0.267718  0.820681  1
  O  O38  1  0.173757  0.514308  0.225353  1
  O  O39  1  0.174051  0.986086  0.774418  1
  O  O40  1  0.325929  0.013709  0.274285  1
  O  O41  1  0.325773  0.485293  0.725432  1
  O  O42  1  0.340177  0.767494  0.680425  1
  O  O43  1  0.337049  0.732648  0.320188  1
  O  O44  1  0.346571  0.566921  0.529237  1
  O  O45  1  0.344019  0.934733  0.469712  1
  O  O46  1  0.352592  0.837440  0.079261  1
  O  O47  1  0.352911  0.661912  0.921079  1
  O  O48  1  0.426894  0.107284  0.657135  1
  O  O49  1  0.426815  0.394241  0.345122  1
  O  O50  1  0.443244  0.142741  0.071061  1
  O  O51  1  0.443904  0.357429  0.929295  1
  O  O52  1  0.556709  0.642995  0.071578  1
  O  O53  1  0.556770  0.856946  0.929207  1
  O  O54  1  0.572666  0.600760  0.655449  1
  O  O55  1  0.572275  0.895892  0.343939  1
  O  O56  1  0.646906  0.338389  0.080314  1
  O  O57  1  0.647086  0.162863  0.921126  1
  O  O58  1  0.655118  0.067896  0.530105  1
  O  O59  1  0.656884  0.429899  0.471264  1
  O  O60  1  0.663595  0.233098  0.320420  1
  O  O61  1  0.663606  0.268472  0.677889  1
  O  O62  1  0.675525  0.515444  0.277261  1
  O  O63  1  0.675125  0.988637  0.726287  1
  O  O64  1  0.826156  0.013311  0.225788  1
  O  O65  1  0.827809  0.486394  0.772274  1
  O  O66  1  0.838244  0.732035  0.179217  1
  O  O67  1  0.836173  0.766421  0.819199  1
  O  O68  1  0.842988  0.563909  0.968150  1
  O  O69  1  0.844965  0.933149  0.030658  1
  O  O70  1  0.852338  0.659569  0.577992  1
  O  O71  1  0.849759  0.836173  0.421475  1
  O  O72  1  0.927078  0.104124  0.844554  1
  O  O73  1  0.926773  0.395705  0.155599  1
  O  O74  1  0.942809  0.140900  0.429350  1
  O  O75  1  0.939347  0.356986  0.566505  1
