# generated using pymatgen
data_LiFePO5
_symmetry_space_group_name_H-M   'P 1'
_cell_length_a   6.63344674
_cell_length_b   8.26725602
_cell_length_c   6.89751932
_cell_angle_alpha   90.00000000
_cell_angle_beta   114.11714352
_cell_angle_gamma   90.00000000
_symmetry_Int_Tables_number   1
_chemical_formula_structural   LiFePO5
_chemical_formula_sum   'Li4 Fe4 P4 O20'
_cell_volume   345.24492257
_cell_formula_units_Z   4
loop_
 _symmetry_equiv_pos_site_id
 _symmetry_equiv_pos_as_xyz
  1  'x, y, z'
loop_
 _atom_site_type_symbol
 _atom_site_label
 _atom_site_symmetry_multiplicity
 _atom_site_fract_x
 _atom_site_fract_y
 _atom_site_fract_z
 _atom_site_occupancy
  Li  Li0  1  0.250693  0.082454  0.778325  1
  Li  Li1  1  0.250693  0.417546  0.278325  1
  Li  Li2  1  0.749307  0.582454  0.721675  1
  Li  Li3  1  0.749307  0.917546  0.221675  1
  Fe  Fe4  1  0.247248  0.752319  0.499962  1
  Fe  Fe5  1  0.247248  0.747681  0.999962  1
  Fe  Fe6  1  0.752752  0.252319  0.000038  1
  Fe  Fe7  1  0.752752  0.247681  0.500038  1
  P  P8  1  0.249640  0.423827  0.749028  1
  P  P9  1  0.249640  0.076173  0.249028  1
  P  P10  1  0.750360  0.923827  0.750972  1
  P  P11  1  0.750360  0.576173  0.250972  1
  O  O12  1  0.141111  0.532546  0.864311  1
  O  O13  1  0.077290  0.307526  0.592944  1
  O  O14  1  0.249875  0.835568  0.751240  1
  O  O15  1  0.141111  0.967454  0.364311  1
  O  O16  1  0.428505  0.313500  0.910817  1
  O  O17  1  0.077290  0.192474  0.092944  1
  O  O18  1  0.350895  0.531039  0.624797  1
  O  O19  1  0.249875  0.664432  0.251240  1
  O  O20  1  0.649105  0.031039  0.875203  1
  O  O21  1  0.428505  0.186500  0.410817  1
  O  O22  1  0.571496  0.813500  0.589183  1
  O  O23  1  0.350895  0.968961  0.124797  1
  O  O24  1  0.750125  0.335568  0.748760  1
  O  O25  1  0.649105  0.468961  0.375203  1
  O  O26  1  0.922710  0.807526  0.907056  1
  O  O27  1  0.571496  0.686500  0.089183  1
  O  O28  1  0.858889  0.032546  0.635689  1
  O  O29  1  0.750125  0.164432  0.248760  1
  O  O30  1  0.922710  0.692474  0.407056  1
  O  O31  1  0.858889  0.467454  0.135689  1
