# generated using pymatgen
data_LiCuPO4
_symmetry_space_group_name_H-M   'P 1'
_cell_length_a   5.06635311
_cell_length_b   5.06635311
_cell_length_c   6.10740286
_cell_angle_alpha   90.00000000
_cell_angle_beta   90.00000000
_cell_angle_gamma   67.37558194
_symmetry_Int_Tables_number   1
_chemical_formula_structural   LiCuPO4
_chemical_formula_sum   'Li2 Cu2 P2 O8'
_cell_volume   144.70081999
_cell_formula_units_Z   2
loop_
 _symmetry_equiv_pos_site_id
 _symmetry_equiv_pos_as_xyz
  1  'x, y, z'
loop_
 _atom_site_type_symbol
 _atom_site_label
 _atom_site_symmetry_multiplicity
 _atom_site_fract_x
 _atom_site_fract_y
 _atom_site_fract_z
 _atom_site_occupancy
  Li  Li0  1  0.500000  0.500000  0.000000  1
  Li  Li1  1  0.500000  0.500000  0.500000  1
  Cu  Cu2  1  0.188822  0.188822  0.250000  1
  Cu  Cu3  1  0.811178  0.811178  0.750000  1
  P  P4  1  0.135743  0.135743  0.750000  1
  P  P5  1  0.864257  0.864257  0.250000  1
  O  O6  1  0.197317  0.750893  0.250000  1
  O  O7  1  0.249107  0.802683  0.750000  1
  O  O8  1  0.247411  0.247411  0.548157  1
  O  O9  1  0.247411  0.247411  0.951843  1
  O  O10  1  0.752589  0.752589  0.048157  1
  O  O11  1  0.752589  0.752589  0.451843  1
  O  O12  1  0.750893  0.197317  0.250000  1
  O  O13  1  0.802683  0.249107  0.750000  1
