# generated using pymatgen
data_Mn3Ga4P6(H2O5)6
_symmetry_space_group_name_H-M   'P 1'
_cell_length_a   9.04683396
_cell_length_b   10.19927663
_cell_length_c   13.71228705
_cell_angle_alpha   90.00000000
_cell_angle_beta   108.00045542
_cell_angle_gamma   90.00000000
_symmetry_Int_Tables_number   1
_chemical_formula_structural   Mn3Ga4P6(H2O5)6
_chemical_formula_sum   'Mn6 Ga8 P12 H24 O60'
_cell_volume   1203.31987738
_cell_formula_units_Z   2
loop_
 _symmetry_equiv_pos_site_id
 _symmetry_equiv_pos_as_xyz
  1  'x, y, z'
loop_
 _atom_site_type_symbol
 _atom_site_label
 _atom_site_symmetry_multiplicity
 _atom_site_fract_x
 _atom_site_fract_y
 _atom_site_fract_z
 _atom_site_occupancy
  Mn  Mn0  1  0.221926  0.780849  0.492893  1
  Mn  Mn1  1  0.000000  0.500000  0.000000  1
  Mn  Mn2  1  0.721926  0.719151  0.992893  1
  Mn  Mn3  1  0.500000  0.000000  0.500000  1
  Mn  Mn4  1  0.278074  0.280849  0.007107  1
  Mn  Mn5  1  0.778074  0.219151  0.507107  1
  Ga  Ga6  1  0.069212  0.580981  0.667800  1
  Ga  Ga7  1  0.068130  0.063421  0.170631  1
  Ga  Ga8  1  0.430788  0.080981  0.832200  1
  Ga  Ga9  1  0.568130  0.436579  0.670631  1
  Ga  Ga10  1  0.431870  0.563421  0.329369  1
  Ga  Ga11  1  0.569212  0.919019  0.167800  1
  Ga  Ga12  1  0.931870  0.936579  0.829369  1
  Ga  Ga13  1  0.930788  0.419019  0.332200  1
  P  P14  1  0.250923  0.996327  0.999282  1
  P  P15  1  0.173950  0.880867  0.708687  1
  P  P16  1  0.326050  0.380867  0.791313  1
  P  P17  1  0.249077  0.496327  0.500718  1
  P  P18  1  0.183040  0.358451  0.219660  1
  P  P19  1  0.316960  0.858451  0.280340  1
  P  P20  1  0.683040  0.141549  0.719660  1
  P  P21  1  0.816960  0.641549  0.780340  1
  P  P22  1  0.750923  0.503673  0.499282  1
  P  P23  1  0.673950  0.619133  0.208687  1
  P  P24  1  0.826050  0.119133  0.291313  1
  P  P25  1  0.749077  0.003673  0.000718  1
  H  H26  1  0.030691  0.379599  0.830409  1
  H  H27  1  0.173212  0.726543  0.973399  1
  H  H28  1  0.024652  0.122857  0.658800  1
  H  H29  1  0.075621  0.270312  0.645291  1
  H  H30  1  0.284995  0.607121  0.975550  1
  H  H31  1  0.215005  0.107121  0.524450  1
  H  H32  1  0.054396  0.737692  0.134696  1
  H  H33  1  0.424379  0.770312  0.854709  1
  H  H34  1  0.475348  0.622857  0.841200  1
  H  H35  1  0.326788  0.226543  0.526601  1
  H  H36  1  0.469309  0.879599  0.669591  1
  H  H37  1  0.554396  0.762308  0.634696  1
  H  H38  1  0.445604  0.237692  0.365304  1
  H  H39  1  0.530691  0.120401  0.330409  1
  H  H40  1  0.673212  0.773457  0.473399  1
  H  H41  1  0.524652  0.377143  0.158800  1
  H  H42  1  0.575621  0.229688  0.145291  1
  H  H43  1  0.945604  0.262308  0.865304  1
  H  H44  1  0.784995  0.892879  0.475550  1
  H  H45  1  0.715005  0.392879  0.024449  1
  H  H46  1  0.924379  0.729688  0.354709  1
  H  H47  1  0.975348  0.877143  0.341200  1
  H  H48  1  0.826788  0.273457  0.026601  1
  H  H49  1  0.969309  0.620401  0.169591  1
  O  O50  1  0.024885  0.331529  0.891672  1
  O  O51  1  0.116279  0.903061  0.941012  1
  O  O52  1  0.049900  0.969532  0.732472  1
  O  O53  1  0.010800  0.196254  0.609284  1
  O  O54  1  0.187496  0.631749  0.987318  1
  O  O55  1  0.154025  0.735195  0.734545  1
  O  O56  1  0.160107  0.415483  0.714521  1
  O  O57  1  0.296416  0.096585  0.926843  1
  O  O58  1  0.169876  0.903311  0.597984  1
  O  O59  1  0.111178  0.406092  0.448060  1
  O  O60  1  0.330124  0.403311  0.902016  1
  O  O61  1  0.203584  0.596585  0.573157  1
  O  O62  1  0.056343  0.445343  0.239797  1
  O  O63  1  0.339893  0.915483  0.785479  1
  O  O64  1  0.345975  0.235195  0.765455  1
  O  O65  1  0.165291  0.211761  0.240910  1
  O  O66  1  0.312504  0.131749  0.512682  1
  O  O67  1  0.153233  0.893049  0.203500  1
  O  O68  1  0.489200  0.696254  0.890716  1
  O  O69  1  0.450100  0.469532  0.767528  1
  O  O70  1  0.301385  0.589238  0.427610  1
  O  O71  1  0.383721  0.403061  0.558988  1
  O  O72  1  0.177395  0.384211  0.106817  1
  O  O73  1  0.322605  0.884211  0.393183  1
  O  O74  1  0.611178  0.093908  0.948060  1
  O  O75  1  0.198615  0.089238  0.072390  1
  O  O76  1  0.475115  0.831529  0.608328  1
  O  O77  1  0.556343  0.054657  0.739797  1
  O  O78  1  0.346767  0.393049  0.296500  1
  O  O79  1  0.334709  0.711761  0.259090  1
  O  O80  1  0.665291  0.288239  0.740910  1
  O  O81  1  0.653233  0.606951  0.703500  1
  O  O82  1  0.443657  0.945344  0.260203  1
  O  O83  1  0.524885  0.168471  0.391672  1
  O  O84  1  0.801385  0.910762  0.927610  1
  O  O85  1  0.388822  0.906092  0.051940  1
  O  O86  1  0.677395  0.115789  0.606817  1
  O  O87  1  0.822605  0.615789  0.893183  1
  O  O88  1  0.616279  0.596939  0.441012  1
  O  O89  1  0.698615  0.410762  0.572390  1
  O  O90  1  0.549900  0.530468  0.232472  1
  O  O91  1  0.510800  0.303746  0.109284  1
  O  O92  1  0.846767  0.106951  0.796500  1
  O  O93  1  0.687496  0.868251  0.487318  1
  O  O94  1  0.834709  0.788239  0.759090  1
  O  O95  1  0.654025  0.764805  0.234545  1
  O  O96  1  0.660107  0.084517  0.214521  1
  O  O97  1  0.943657  0.554656  0.760203  1
  O  O98  1  0.796416  0.403415  0.426843  1
  O  O99  1  0.669876  0.596689  0.097984  1
  O  O100  1  0.888822  0.593908  0.551940  1
  O  O101  1  0.830124  0.096689  0.402016  1
  O  O102  1  0.703584  0.903415  0.073157  1
  O  O103  1  0.839893  0.584517  0.285479  1
  O  O104  1  0.845975  0.264805  0.265455  1
  O  O105  1  0.812504  0.368251  0.012682  1
  O  O106  1  0.989200  0.803746  0.390716  1
  O  O107  1  0.950100  0.030468  0.267528  1
  O  O108  1  0.883721  0.096939  0.058988  1
  O  O109  1  0.975115  0.668471  0.108328  1
