# generated using pymatgen
data_Na5(WO3)13
_symmetry_space_group_name_H-M   'P 1'
_cell_length_a   9.55014277
_cell_length_b   9.54910434
_cell_length_c   8.71946730
_cell_angle_alpha   90.00210451
_cell_angle_beta   79.48397397
_cell_angle_gamma   99.58242909
_symmetry_Int_Tables_number   1
_chemical_formula_structural   Na5(WO3)13
_chemical_formula_sum   'Na5 W13 O39'
_cell_volume   770.53235168
_cell_formula_units_Z   1
loop_
 _symmetry_equiv_pos_site_id
 _symmetry_equiv_pos_as_xyz
  1  'x, y, z'
loop_
 _atom_site_type_symbol
 _atom_site_label
 _atom_site_symmetry_multiplicity
 _atom_site_fract_x
 _atom_site_fract_y
 _atom_site_fract_z
 _atom_site_occupancy
  Na  Na0  1  0.384736  0.231141  0.923370  1
  Na  Na1  1  0.846034  0.307321  0.230476  1
  Na  Na2  1  0.154079  0.692023  0.769829  1
  Na  Na3  1  0.615385  0.769231  0.076923  1
  Na  Na4  1  0.076690  0.846439  0.384017  1
  W  W5  1  0.694264  0.116589  0.958731  1
  W  W6  1  0.844857  0.809009  0.729635  1
  W  W7  1  0.076885  0.344903  0.882878  1
  W  W8  1  0.615385  0.269231  0.576923  1
  W  W9  1  0.463853  0.576213  0.805606  1
  W  W10  1  0.232024  0.040835  0.652243  1
  W  W11  1  0.766916  0.962249  0.348240  1
  W  W12  1  0.922289  0.653499  0.115562  1
  W  W13  1  0.998745  0.497626  0.501603  1
  W  W14  1  0.536505  0.421872  0.195116  1
  W  W15  1  0.385912  0.729453  0.424211  1
  W  W16  1  0.153885  0.193558  0.270968  1
  W  W17  1  0.308480  0.884962  0.038284  1
  O  O18  1  0.884652  0.231671  0.925829  1
  O  O19  1  0.884465  0.730780  0.923200  1
  O  O20  1  0.651311  0.192660  0.770819  1
  O  O21  1  0.156207  0.192648  0.770493  1
  O  O22  1  0.653752  0.693337  0.771866  1
  O  O23  1  0.384758  0.730861  0.923061  1
  O  O24  1  0.767722  0.959643  0.848263  1
  O  O25  1  0.693759  0.117190  0.459288  1
  O  O26  1  0.961429  0.076909  0.307950  1
  O  O27  1  0.808288  0.383850  0.535646  1
  O  O28  1  0.926735  0.656235  0.614737  1
  O  O29  1  0.537010  0.421271  0.694558  1
  O  O30  1  0.269341  0.461552  0.845896  1
  O  O31  1  0.422481  0.154612  0.618200  1
  O  O32  1  0.961332  0.576854  0.307498  1
  O  O33  1  0.730722  0.038612  0.153638  1
  O  O34  1  0.810132  0.884415  0.536786  1
  O  O35  1  0.579458  0.345801  0.383027  1
  O  O36  1  0.269437  0.961607  0.846348  1
  O  O37  1  0.420637  0.654046  0.617060  1
  O  O38  1  0.039437  0.425441  0.693310  1
  O  O39  1  0.191332  0.113020  0.460536  1
  O  O40  1  0.304034  0.882226  0.539109  1
  O  O41  1  0.577017  0.845124  0.381981  1
  O  O42  1  0.463047  0.578818  0.305583  1
  O  O43  1  0.230903  0.038306  0.153820  1
  O  O44  1  0.615385  0.269231  0.076923  1
  O  O45  1  0.730758  0.538522  0.153947  1
  O  O46  1  0.846011  0.807600  0.230786  1
  O  O47  1  0.074562  0.345814  0.383353  1
  O  O48  1  0.500012  -0.000061  0.999899  1
  O  O49  1  0.346117  0.306791  0.228017  1
  O  O50  1  0.190671  0.618157  0.464103  1
  O  O51  1  0.040098  0.920304  0.689743  1
  O  O52  1  0.500047  0.499850  0.000208  1
  O  O53  1  0.115385  0.269231  0.076923  1
  O  O54  1  0.346304  0.807681  0.230646  1
  O  O55  1  0.999866  0.500155  0.000026  1
  O  O56  1  0.115385  0.769231  0.076923  1
