# generated using pymatgen
data_Li3Cr(Si2O5)3
_symmetry_space_group_name_H-M   'P 1'
_cell_length_a   10.09270115
_cell_length_b   10.09264880
_cell_length_c   14.24726770
_cell_angle_alpha   90.00009966
_cell_angle_beta   90.00021249
_cell_angle_gamma   59.99982705
_symmetry_Int_Tables_number   1
_chemical_formula_structural   Li3Cr(Si2O5)3
_chemical_formula_sum   'Li12 Cr4 Si24 O60'
_cell_volume   1256.82275225
_cell_formula_units_Z   4
loop_
 _symmetry_equiv_pos_site_id
 _symmetry_equiv_pos_as_xyz
  1  'x, y, z'
loop_
 _atom_site_type_symbol
 _atom_site_label
 _atom_site_symmetry_multiplicity
 _atom_site_fract_x
 _atom_site_fract_y
 _atom_site_fract_z
 _atom_site_occupancy
  Li  Li0  1  0.999992  0.500003  0.250001  1
  Li  Li1  1  0.999997  0.500001  0.750000  1
  Li  Li2  1  0.333306  0.333393  0.000000  1
  Li  Li3  1  0.666607  0.666695  0.999999  1
  Li  Li4  1  0.999994  0.000003  0.250000  1
  Li  Li5  1  0.999995  0.000001  0.750001  1
  Li  Li6  1  0.333302  0.333299  0.500000  1
  Li  Li7  1  0.500004  0.499997  0.249999  1
  Li  Li8  1  0.500001  0.499993  0.750001  1
  Li  Li9  1  0.666706  0.666694  0.499999  1
  Li  Li10  1  0.499998  0.000008  0.250000  1
  Li  Li11  1  0.500003  -0.000000  0.750000  1
  Cr  Cr12  1  0.333321  0.333356  0.250004  1
  Cr  Cr13  1  0.666630  0.666698  0.250004  1
  Cr  Cr14  1  0.666673  0.666643  0.749984  1
  Cr  Cr15  1  0.333331  0.333373  0.750000  1
  Si  Si16  1  0.122494  0.641520  0.612168  1
  Si  Si17  1  0.122490  0.641528  0.387829  1
  Si  Si18  1  0.358474  0.877510  0.112168  1
  Si  Si19  1  0.358480  0.877503  0.887830  1
  Si  Si20  1  0.235975  0.641532  0.112170  1
  Si  Si21  1  0.235979  0.641525  0.887832  1
  Si  Si22  1  0.358475  0.764013  0.612170  1
  Si  Si23  1  0.358473  0.764018  0.387831  1
  Si  Si24  1  0.122490  0.235990  0.112171  1
  Si  Si25  1  0.122493  0.235985  0.887831  1
  Si  Si26  1  0.764016  0.877507  0.387829  1
  Si  Si27  1  0.764019  0.877502  0.612170  1
  Si  Si28  1  0.235981  0.122493  0.612172  1
  Si  Si29  1  0.235980  0.122496  0.387829  1
  Si  Si30  1  0.877501  0.764020  0.112170  1
  Si  Si31  1  0.877505  0.764018  0.887829  1
  Si  Si32  1  0.641522  0.235984  0.387832  1
  Si  Si33  1  0.641524  0.235979  0.612170  1
  Si  Si34  1  0.764016  0.358480  0.112171  1
  Si  Si35  1  0.764018  0.358478  0.887831  1
  Si  Si36  1  0.641522  0.122498  0.112171  1
  Si  Si37  1  0.641522  0.122494  0.887831  1
  Si  Si38  1  0.877503  0.358476  0.387828  1
  Si  Si39  1  0.877504  0.358472  0.612168  1
  O  O40  1  0.052584  0.724769  0.135249  1
  O  O41  1  0.052588  0.724768  0.864753  1
  O  O42  1  0.275235  0.947411  0.364754  1
  O  O43  1  0.275233  0.947407  0.635244  1
  O  O44  1  0.222645  0.724761  0.635246  1
  O  O45  1  0.222639  0.724773  0.364755  1
  O  O46  1  0.275227  0.777363  0.135242  1
  O  O47  1  0.275232  0.777352  0.864758  1
  O  O48  1  0.147607  0.590891  0.499999  1
  O  O49  1  0.409123  0.852373  0.000001  1
  O  O50  1  0.261494  0.590887  -0.000000  1
  O  O51  1  0.409105  0.738501  0.500000  1
  O  O52  1  0.164327  0.491025  0.329468  1
  O  O53  1  0.164332  0.491017  0.670528  1
  O  O54  1  0.508974  0.835679  0.170531  1
  O  O55  1  0.508981  0.835664  0.829466  1
  O  O56  1  0.164329  0.344655  0.170532  1
  O  O57  1  0.164330  0.344648  0.829467  1
  O  O58  1  0.655343  0.835674  0.329474  1
  O  O59  1  0.655345  0.835668  0.670524  1
  O  O60  1  0.052586  0.222645  0.364750  1
  O  O61  1  0.052585  0.222643  0.635246  1
  O  O62  1  0.777352  0.947414  0.135251  1
  O  O63  1  0.777355  0.947412  0.864751  1
  O  O64  1  0.344645  0.491027  0.170529  1
  O  O65  1  0.344650  0.491020  0.829475  1
  O  O66  1  0.508970  0.655355  0.329464  1
  O  O67  1  0.508972  0.655345  0.670532  1
  O  O68  1  0.147602  0.261509  0.000000  1
  O  O69  1  0.738506  0.852376  0.499999  1
  O  O70  1  0.261493  0.147621  0.500001  1
  O  O71  1  0.852391  0.738503  0.000001  1
  O  O72  1  0.491025  0.344643  0.670531  1
  O  O73  1  0.491023  0.344650  0.329470  1
  O  O74  1  0.655346  0.508987  0.170527  1
  O  O75  1  0.655346  0.508985  0.829472  1
  O  O76  1  0.222646  0.052593  0.135243  1
  O  O77  1  0.222644  0.052587  0.864759  1
  O  O78  1  0.947407  0.777356  0.364752  1
  O  O79  1  0.947412  0.777347  0.635247  1
  O  O80  1  0.344643  0.164333  0.670533  1
  O  O81  1  0.344644  0.164339  0.329471  1
  O  O82  1  0.835663  0.655358  0.170534  1
  O  O83  1  0.835668  0.655355  0.829465  1
  O  O84  1  0.491021  0.164339  0.170536  1
  O  O85  1  0.491021  0.164331  0.829468  1
  O  O86  1  0.835658  0.508984  0.329471  1
  O  O87  1  0.835667  0.508976  0.670528  1
  O  O88  1  0.590896  0.261494  0.500001  1
  O  O89  1  0.738501  0.409105  0.000001  1
  O  O90  1  0.590895  0.147611  0.000002  1
  O  O91  1  0.852391  0.409104  0.500000  1
  O  O92  1  0.724770  0.222644  0.135249  1
  O  O93  1  0.724766  0.222647  0.864754  1
  O  O94  1  0.777357  0.275228  0.364752  1
  O  O95  1  0.777352  0.275233  0.635247  1
  O  O96  1  0.724760  0.052589  0.364755  1
  O  O97  1  0.724769  0.052584  0.635245  1
  O  O98  1  0.947410  0.275236  0.135250  1
  O  O99  1  0.947411  0.275232  0.864752  1
