# generated using pymatgen
data_Li2FeP2O7
_symmetry_space_group_name_H-M   'P 1'
_cell_length_a   5.34140163
_cell_length_b   6.56328328
_cell_length_c   8.91541003
_cell_angle_alpha   109.75830390
_cell_angle_beta   94.77210712
_cell_angle_gamma   107.76486803
_symmetry_Int_Tables_number   1
_chemical_formula_structural   Li2FeP2O7
_chemical_formula_sum   'Li4 Fe2 P4 O14'
_cell_volume   274.00103090
_cell_formula_units_Z   2
loop_
 _symmetry_equiv_pos_site_id
 _symmetry_equiv_pos_as_xyz
  1  'x, y, z'
loop_
 _atom_site_type_symbol
 _atom_site_label
 _atom_site_symmetry_multiplicity
 _atom_site_fract_x
 _atom_site_fract_y
 _atom_site_fract_z
 _atom_site_occupancy
  Li  Li0  1  0.106868  0.758231  0.001947  1
  Li  Li1  1  0.328447  0.212886  0.750549  1
  Li  Li2  1  0.671553  0.787114  0.249451  1
  Li  Li3  1  0.893132  0.241769  0.998053  1
  Fe  Fe4  1  0.108345  0.604440  0.364574  1
  Fe  Fe5  1  0.891655  0.395560  0.635426  1
  P  P6  1  0.237358  0.149363  0.391297  1
  P  P7  1  0.581976  0.701151  0.883722  1
  P  P8  1  0.418024  0.298849  0.116278  1
  P  P9  1  0.762642  0.850637  0.608703  1
  O  O10  1  0.062664  0.891670  0.333434  1
  O  O11  1  0.063420  0.303536  0.417198  1
  O  O12  1  0.278270  0.566904  0.842499  1
  O  O13  1  0.255537  0.462793  0.153568  1
  O  O14  1  0.306510  0.115738  0.944836  1
  O  O15  1  0.537173  0.770558  0.462583  1
  O  O16  1  0.633866  0.846259  0.765809  1
  O  O17  1  0.366134  0.153741  0.234191  1
  O  O18  1  0.462827  0.229442  0.537417  1
  O  O19  1  0.693490  0.884262  0.055164  1
  O  O20  1  0.744463  0.537207  0.846432  1
  O  O21  1  0.721730  0.433096  0.157501  1
  O  O22  1  0.936580  0.696464  0.582802  1
  O  O23  1  0.937336  0.108330  0.666566  1
