# generated using pymatgen
data_KRe4O8F13
_symmetry_space_group_name_H-M   'P 1'
_cell_length_a   5.41475126
_cell_length_b   14.33185175
_cell_length_c   5.49963967
_cell_angle_alpha   80.63388475
_cell_angle_beta   89.71460562
_cell_angle_gamma   79.26581100
_symmetry_Int_Tables_number   1
_chemical_formula_structural   KRe4O8F13
_chemical_formula_sum   'K1 Re4 O8 F13'
_cell_volume   413.59131640
_cell_formula_units_Z   1
loop_
 _symmetry_equiv_pos_site_id
 _symmetry_equiv_pos_as_xyz
  1  'x, y, z'
loop_
 _atom_site_type_symbol
 _atom_site_label
 _atom_site_symmetry_multiplicity
 _atom_site_fract_x
 _atom_site_fract_y
 _atom_site_fract_z
 _atom_site_occupancy
  K  K0  1  0.498030  0.999511  0.503571  1
  Re  Re1  1  0.129479  0.847194  0.083592  1
  Re  Re2  1  0.663272  0.597513  0.618512  1
  Re  Re3  1  0.261745  0.401214  0.385662  1
  Re  Re4  1  0.975319  0.151683  0.915391  1
  O  O5  1  0.305548  0.839069  0.823912  1
  O  O6  1  0.090840  0.731472  0.175949  1
  O  O7  1  0.813876  0.684537  0.690859  1
  O  O8  1  0.362164  0.640338  0.691980  1
  O  O9  1  0.002559  0.357655  0.314765  1
  O  O10  1  0.497418  0.315384  0.308065  1
  O  O11  1  0.824014  0.267560  0.821748  1
  O  O12  1  0.142193  0.159659  0.174595  1
  F  F13  1  0.818288  0.895225  0.911270  1
  F  F14  1  0.948541  0.903265  0.352071  1
  F  F15  1  0.411821  0.844351  0.290662  1
  F  F16  1  0.633174  0.638796  0.276507  1
  F  F17  1  0.749931  0.504906  0.899909  1
  F  F18  1  0.012400  0.520543  0.505382  1
  F  F19  1  0.534512  0.477580  0.500667  1
  F  F20  1  0.256083  0.494745  0.105644  1
  F  F21  1  0.271416  0.358972  0.727707  1
  F  F22  1  0.255413  0.155270  0.706257  1
  F  F23  1  0.853397  0.094259  0.649524  1
  F  F24  1  0.708560  0.105127  0.089634  1
  F  F25  1  0.166123  0.999702  0.999840  1
