# generated using pymatgen
data_Fe6O7F6
_symmetry_space_group_name_H-M   'P 1'
_cell_length_a   3.82710407
_cell_length_b   7.87059775
_cell_length_c   9.48645694
_cell_angle_alpha   80.29163160
_cell_angle_beta   89.99701274
_cell_angle_gamma   75.89797050
_symmetry_Int_Tables_number   1
_chemical_formula_structural   Fe6O7F6
_chemical_formula_sum   'Fe6 O7 F6'
_cell_volume   272.91509298
_cell_formula_units_Z   1
loop_
 _symmetry_equiv_pos_site_id
 _symmetry_equiv_pos_as_xyz
  1  'x, y, z'
loop_
 _atom_site_type_symbol
 _atom_site_label
 _atom_site_symmetry_multiplicity
 _atom_site_fract_x
 _atom_site_fract_y
 _atom_site_fract_z
 _atom_site_occupancy
  Fe  Fe0  1  0.111977  0.775907  0.095706  1
  Fe  Fe1  1  0.173135  0.653395  0.432421  1
  Fe  Fe2  1  0.238105  0.523442  0.767262  1
  Fe  Fe3  1  0.761895  0.476558  0.232738  1
  Fe  Fe4  1  0.826865  0.346605  0.567579  1
  Fe  Fe5  1  0.888023  0.224093  0.904294  1
  O  O6  1  0.000000  0.000000  0.000000  1
  O  O7  1  0.359058  0.282088  0.885550  1
  O  O8  1  0.232113  0.535907  0.236287  1
  O  O9  1  0.293680  0.412789  0.576933  1
  O  O10  1  0.706320  0.587211  0.423067  1
  O  O11  1  0.767887  0.464093  0.763713  1
  O  O12  1  0.640942  0.717912  0.114450  1
  F  F13  1  0.167035  0.665451  0.914613  1
  F  F14  1  0.067592  0.864171  0.290799  1
  F  F15  1  0.128200  0.743061  0.614266  1
  F  F16  1  0.871800  0.256939  0.385734  1
  F  F17  1  0.932408  0.135829  0.709201  1
  F  F18  1  0.832965  0.334549  0.085387  1
