# generated using pymatgen
data_Li4V3CrO8
_symmetry_space_group_name_H-M   'P 1'
_cell_length_a   5.16193304
_cell_length_b   5.97065314
_cell_length_c   5.22475855
_cell_angle_alpha   90.43369692
_cell_angle_beta   81.17880057
_cell_angle_gamma   73.49953271
_symmetry_Int_Tables_number   1
_chemical_formula_structural   Li4V3CrO8
_chemical_formula_sum   'Li4 V3 Cr1 O8'
_cell_volume   152.34759617
_cell_formula_units_Z   1
loop_
 _symmetry_equiv_pos_site_id
 _symmetry_equiv_pos_as_xyz
  1  'x, y, z'
loop_
 _atom_site_type_symbol
 _atom_site_label
 _atom_site_symmetry_multiplicity
 _atom_site_fract_x
 _atom_site_fract_y
 _atom_site_fract_z
 _atom_site_occupancy
  Li  Li0  1  0.002498  0.997749  0.006178  1
  Li  Li1  1  -0.001195  0.248707  0.495826  1
  Li  Li2  1  0.001121  0.501488  0.004233  1
  Li  Li3  1  0.997569  0.751996  0.493676  1
  V  V4  1  0.500925  0.124237  0.750324  1
  V  V5  1  0.499948  0.375040  0.250228  1
  V  V6  1  0.499010  0.625702  0.749603  1
  Cr  Cr7  1  0.499991  0.875075  0.249923  1
  O  O8  1  0.271462  0.180707  0.128197  1
  O  O9  1  0.730294  0.062769  0.376710  1
  O  O10  1  0.275368  0.430047  0.620694  1
  O  O11  1  0.724488  0.319839  0.879236  1
  O  O12  1  0.269534  0.687473  0.123383  1
  O  O13  1  0.728795  0.569345  0.371721  1
  O  O14  1  0.277867  0.930088  0.618842  1
  O  O15  1  0.722327  0.819741  0.881227  1
