# generated using pymatgen
data_Li2Fe(CO3)2
_symmetry_space_group_name_H-M   'P 1'
_cell_length_a   7.60409739
_cell_length_b   8.35544185
_cell_length_c   9.70986290
_cell_angle_alpha   90.00048116
_cell_angle_beta   89.98114608
_cell_angle_gamma   109.79417927
_symmetry_Int_Tables_number   1
_chemical_formula_structural   Li2Fe(CO3)2
_chemical_formula_sum   'Li8 Fe4 C8 O24'
_cell_volume   580.47114652
_cell_formula_units_Z   4
loop_
 _symmetry_equiv_pos_site_id
 _symmetry_equiv_pos_as_xyz
  1  'x, y, z'
loop_
 _atom_site_type_symbol
 _atom_site_label
 _atom_site_symmetry_multiplicity
 _atom_site_fract_x
 _atom_site_fract_y
 _atom_site_fract_z
 _atom_site_occupancy
  Li  Li0  1  0.976569  0.351129  0.896364  1
  Li  Li1  1  0.853589  0.799880  0.777883  1
  Li  Li2  1  0.523753  0.149007  0.396302  1
  Li  Li3  1  0.646411  0.699970  0.277618  1
  Li  Li4  1  0.353553  0.300243  0.722736  1
  Li  Li5  1  0.476567  0.850505  0.603573  1
  Li  Li6  1  0.146361  0.199645  0.222772  1
  Li  Li7  1  0.023554  0.649536  0.103547  1
  Fe  Fe8  1  0.956570  0.434771  0.369741  1
  Fe  Fe9  1  0.543903  0.065658  0.869648  1
  Fe  Fe10  1  0.456346  0.934935  0.129878  1
  Fe  Fe11  1  0.043273  0.565112  0.629972  1
  C  C12  1  0.752209  0.220071  0.615020  1
  C  C13  1  0.747272  0.279404  0.115135  1
  C  C14  1  0.737503  0.661068  0.499332  1
  C  C15  1  0.762194  0.839205  0.999524  1
  C  C16  1  0.237706  0.161001  0.000911  1
  C  C17  1  0.262457  0.338730  0.500903  1
  C  C18  1  0.252627  0.721093  0.884586  1
  C  C19  1  0.247924  0.779332  0.384568  1
  O  O20  1  0.877801  0.413051  0.161500  1
  O  O21  1  0.853764  0.333287  0.699615  1
  O  O22  1  0.775246  0.237721  0.482544  1
  O  O23  1  0.725130  0.262113  0.982775  1
  O  O24  1  0.645563  0.166930  0.199651  1
  O  O25  1  0.622417  0.086820  0.661208  1
  O  O26  1  0.826045  0.666008  0.616211  1
  O  O27  1  0.879346  0.760381  0.984582  1
  O  O28  1  0.769654  0.578073  0.393554  1
  O  O29  1  0.730304  0.921997  0.893740  1
  O  O30  1  0.620585  0.739573  0.484475  1
  O  O31  1  0.673967  0.834272  0.116341  1
  O  O32  1  0.326162  0.165925  0.884183  1
  O  O33  1  0.379552  0.260410  0.515738  1
  O  O34  1  0.269399  0.078152  0.106758  1
  O  O35  1  0.229853  0.421359  0.606815  1
  O  O36  1  0.120515  0.239807  0.015685  1
  O  O37  1  0.174139  0.334099  0.383995  1
  O  O38  1  0.378137  0.912321  0.338430  1
  O  O39  1  0.354320  0.833627  0.800124  1
  O  O40  1  0.274834  0.738149  0.016972  1
  O  O41  1  0.225282  0.761407  0.517060  1
  O  O42  1  0.145553  0.666665  0.299978  1
  O  O43  1  0.122038  0.587514  0.838139  1
