# generated using pymatgen
data_TiGa2O5
_symmetry_space_group_name_H-M   'P 1'
_cell_length_a   3.66101793
_cell_length_b   10.08881249
_cell_length_c   5.29399417
_cell_angle_alpha   90.00000000
_cell_angle_beta   69.77114036
_cell_angle_gamma   90.00000000
_symmetry_Int_Tables_number   1
_chemical_formula_structural   TiGa2O5
_chemical_formula_sum   'Ti2 Ga4 O10'
_cell_volume   183.47456438
_cell_formula_units_Z   2
loop_
 _symmetry_equiv_pos_site_id
 _symmetry_equiv_pos_as_xyz
  1  'x, y, z'
loop_
 _atom_site_type_symbol
 _atom_site_label
 _atom_site_symmetry_multiplicity
 _atom_site_fract_x
 _atom_site_fract_y
 _atom_site_fract_z
 _atom_site_occupancy
  Ti  Ti0  1  0.179219  0.250000  0.641562  1
  Ti  Ti1  1  0.820781  0.750000  0.358438  1
  Ga  Ga2  1  0.136769  0.559081  0.726462  1
  Ga  Ga3  1  0.136769  0.940919  0.726462  1
  Ga  Ga4  1  0.863231  0.059081  0.273538  1
  Ga  Ga5  1  0.863231  0.440919  0.273538  1
  O  O6  1  0.047031  0.119258  0.905937  1
  O  O7  1  0.047031  0.380742  0.905937  1
  O  O8  1  0.692406  0.924573  0.615188  1
  O  O9  1  0.692406  0.575427  0.615188  1
  O  O10  1  0.248699  0.750000  0.502602  1
  O  O11  1  0.751301  0.250000  0.497398  1
  O  O12  1  0.307594  0.075427  0.384812  1
  O  O13  1  0.307594  0.424573  0.384812  1
  O  O14  1  0.952969  0.619258  0.094063  1
  O  O15  1  0.952969  0.880742  0.094063  1
