# generated using pymatgen
data_Li4Ti3Fe3(WO8)2
_symmetry_space_group_name_H-M   'P 1'
_cell_length_a   6.05897637
_cell_length_b   5.98049033
_cell_length_c   9.83431626
_cell_angle_alpha   89.99539219
_cell_angle_beta   91.65965601
_cell_angle_gamma   119.32893037
_symmetry_Int_Tables_number   1
_chemical_formula_structural   Li4Ti3Fe3(WO8)2
_chemical_formula_sum   'Li4 Ti3 Fe3 W2 O16'
_cell_volume   310.50525016
_cell_formula_units_Z   1
loop_
 _symmetry_equiv_pos_site_id
 _symmetry_equiv_pos_as_xyz
  1  'x, y, z'
loop_
 _atom_site_type_symbol
 _atom_site_label
 _atom_site_symmetry_multiplicity
 _atom_site_fract_x
 _atom_site_fract_y
 _atom_site_fract_z
 _atom_site_occupancy
  Li  Li0  1  0.319326  0.663083  0.901956  1
  Li  Li1  1  0.996441  0.996527  0.983854  1
  Li  Li2  1  0.012039  0.008408  0.493926  1
  Li  Li3  1  0.660572  0.327448  0.409587  1
  Ti  Ti4  1  0.177590  0.840693  0.213117  1
  Ti  Ti5  1  0.188151  0.344606  0.217505  1
  Ti  Ti6  1  0.344177  0.169461  0.721428  1
  Fe  Fe7  1  0.659773  0.825286  0.209808  1
  Fe  Fe8  1  0.840293  0.658940  0.708800  1
  Fe  Fe9  1  0.835928  0.177070  0.709963  1
  W  W10  1  0.342788  0.672438  0.490277  1
  W  W11  1  0.679601  0.337609  0.983559  1
  O  O12  1  0.183589  0.842241  0.592002  1
  O  O13  1  0.047397  0.523589  0.340532  1
  O  O14  1  0.297925  0.649157  0.107999  1
  O  O15  1  0.019576  0.013003  0.304293  1
  O  O16  1  0.021479  0.008293  0.799685  1
  O  O17  1  0.185778  0.346836  0.595162  1
  O  O18  1  0.462388  0.959446  0.338325  1
  O  O19  1  0.462169  0.497548  0.341693  1
  O  O20  1  0.329998  0.167156  0.105784  1
  O  O21  1  0.662579  0.829624  0.572694  1
  O  O22  1  0.498853  0.461218  0.860218  1
  O  O23  1  0.498332  0.032110  0.850222  1
  O  O24  1  0.631098  0.318247  0.607698  1
  O  O25  1  0.849059  0.674428  0.096912  1
  O  O26  1  0.958041  0.477024  0.856740  1
  O  O27  1  0.835060  0.178815  0.094100  1
