# generated using pymatgen
data_Li5Ti2Cu5O12
_symmetry_space_group_name_H-M   'P 1'
_cell_length_a   5.06865420
_cell_length_b   5.06865413
_cell_length_c   9.71972101
_cell_angle_alpha   89.51186309
_cell_angle_beta   90.48813313
_cell_angle_gamma   66.43552810
_symmetry_Int_Tables_number   1
_chemical_formula_structural   Li5Ti2Cu5O12
_chemical_formula_sum   'Li5 Ti2 Cu5 O12'
_cell_volume   228.86088198
_cell_formula_units_Z   1
loop_
 _symmetry_equiv_pos_site_id
 _symmetry_equiv_pos_as_xyz
  1  'x, y, z'
loop_
 _atom_site_type_symbol
 _atom_site_label
 _atom_site_symmetry_multiplicity
 _atom_site_fract_x
 _atom_site_fract_y
 _atom_site_fract_z
 _atom_site_occupancy
  Li  Li0  1  0.158965  0.677910  0.503415  1
  Li  Li1  1  0.319441  0.851226  0.991942  1
  Li  Li2  1  0.677910  0.158965  0.996585  1
  Li  Li3  1  0.851226  0.319441  0.508058  1
  Li  Li4  1  0.912677  0.912677  0.750000  1
  Ti  Ti5  1  0.244588  0.244588  0.750000  1
  Ti  Ti6  1  0.745611  0.745611  0.250000  1
  Cu  Cu7  1  0.078437  0.078437  0.250000  1
  Cu  Cu8  1  0.998871  0.512085  0.997902  1
  Cu  Cu9  1  0.512085  0.998871  0.502098  1
  Cu  Cu10  1  0.416692  0.416692  0.250000  1
  Cu  Cu11  1  0.584920  0.584920  0.750000  1
  O  O12  1  0.989047  0.204911  0.884409  1
  O  O13  1  0.204911  0.989047  0.615591  1
  O  O14  1  0.079082  0.417398  0.347973  1
  O  O15  1  0.417398  0.079082  0.152027  1
  O  O16  1  0.308758  0.527632  0.871251  1
  O  O17  1  0.527632  0.308758  0.628749  1
  O  O18  1  0.477782  0.691575  0.376757  1
  O  O19  1  0.691575  0.477782  0.123243  1
  O  O20  1  0.572617  0.914381  0.848738  1
  O  O21  1  0.914381  0.572617  0.651262  1
  O  O22  1  0.809433  0.005960  0.381084  1
  O  O23  1  0.005960  0.809433  0.118916  1
