# generated using pymatgen
data_Li2MnV(P2O7)2
_symmetry_space_group_name_H-M   'P 1'
_cell_length_a   9.64168424
_cell_length_b   9.60957625
_cell_length_c   7.05461251
_cell_angle_alpha   99.36187488
_cell_angle_beta   99.45790713
_cell_angle_gamma   119.46249120
_symmetry_Int_Tables_number   1
_chemical_formula_structural   Li2MnV(P2O7)2
_chemical_formula_sum   'Li4 Mn2 V2 P8 O28'
_cell_volume   538.32949677
_cell_formula_units_Z   2
loop_
 _symmetry_equiv_pos_site_id
 _symmetry_equiv_pos_as_xyz
  1  'x, y, z'
loop_
 _atom_site_type_symbol
 _atom_site_label
 _atom_site_symmetry_multiplicity
 _atom_site_fract_x
 _atom_site_fract_y
 _atom_site_fract_z
 _atom_site_occupancy
  Li  Li0  1  0.158387  0.019007  0.675919  1
  Li  Li1  1  0.729801  0.090386  0.323982  1
  Li  Li2  1  0.233445  0.593617  0.326465  1
  Li  Li3  1  0.655745  0.517535  0.672721  1
  Mn  Mn4  1  0.394299  0.392983  0.269137  1
  Mn  Mn5  1  0.358016  0.857149  0.730532  1
  V  V6  1  0.857234  0.356305  0.727383  1
  V  V7  1  0.893003  0.892217  0.272315  1
  P  P8  1  0.110836  0.291492  0.521954  1
  P  P9  1  0.750299  0.033685  0.912481  1
  P  P10  1  0.250332  0.539031  0.911748  1
  P  P11  1  0.460558  0.139092  0.482555  1
  P  P12  1  0.609034  0.788265  0.517581  1
  P  P13  1  0.714089  0.497475  0.086013  1
  P  P14  1  0.214213  0.000794  0.089669  1
  P  P15  1  0.960206  0.639981  0.477950  1
  O  O16  1  0.074430  0.113232  0.484848  1
  O  O17  1  0.361122  0.032482  0.609356  1
  O  O18  1  0.582500  0.015208  0.915021  1
  O  O19  1  0.081981  0.518462  0.909742  1
  O  O20  1  0.222378  0.378388  0.753219  1
  O  O21  1  0.373718  0.029271  0.249875  1
  O  O22  1  0.234955  0.171105  0.091293  1
  O  O23  1  0.212589  0.390513  0.392887  1
  O  O24  1  0.454478  0.295851  0.504319  1
  O  O25  1  0.137954  0.675502  0.517981  1
  O  O26  1  0.637255  0.173385  0.517183  1
  O  O27  1  0.861726  0.187310  0.851328  1
  O  O28  1  0.363874  0.693165  0.850050  1
  O  O29  1  0.212858  0.915631  0.887776  1
  O  O30  1  0.721642  0.415749  0.887094  1
  O  O31  1  0.334445  0.537871  0.112424  1
  O  O32  1  0.835568  0.029859  0.111989  1
  O  O33  1  0.062551  0.889928  0.153652  1
  O  O34  1  0.559308  0.383142  0.143801  1
  O  O35  1  0.575667  0.610229  0.478922  1
  O  O36  1  0.452384  0.793229  0.496896  1
  O  O37  1  0.952070  0.294997  0.507995  1
  O  O38  1  0.859289  0.535453  0.603988  1
  O  O39  1  0.719167  0.873583  0.749857  1
  O  O40  1  0.875031  0.528049  0.247164  1
  O  O41  1  0.733355  0.665881  0.085032  1
  O  O42  1  0.717769  0.891354  0.395673  1
  O  O43  1  0.954862  0.797738  0.492231  1
