# generated using pymatgen
data_Li2SbP3O10
_symmetry_space_group_name_H-M   'P 1'
_cell_length_a   12.91996756
_cell_length_b   7.86768269
_cell_length_c   10.05672021
_cell_angle_alpha   90.00000000
_cell_angle_beta   102.66495473
_cell_angle_gamma   90.00000000
_symmetry_Int_Tables_number   1
_chemical_formula_structural   Li2SbP3O10
_chemical_formula_sum   'Li8 Sb4 P12 O40'
_cell_volume   997.39470548
_cell_formula_units_Z   4
loop_
 _symmetry_equiv_pos_site_id
 _symmetry_equiv_pos_as_xyz
  1  'x, y, z'
loop_
 _atom_site_type_symbol
 _atom_site_label
 _atom_site_symmetry_multiplicity
 _atom_site_fract_x
 _atom_site_fract_y
 _atom_site_fract_z
 _atom_site_occupancy
  Li  Li0  1  0.143845  0.522490  0.429733  1
  Li  Li1  1  0.143845  0.977510  0.929733  1
  Li  Li2  1  0.428700  0.092142  0.890916  1
  Li  Li3  1  0.428700  0.407858  0.390916  1
  Li  Li4  1  0.571300  0.592142  0.609084  1
  Li  Li5  1  0.571300  0.907858  0.109084  1
  Li  Li6  1  0.856155  0.022490  0.070267  1
  Li  Li7  1  0.856155  0.477510  0.570267  1
  Sb  Sb8  1  0.179744  0.910839  0.619547  1
  Sb  Sb9  1  0.179744  0.589161  0.119547  1
  Sb  Sb10  1  0.820256  0.410839  0.880453  1
  Sb  Sb11  1  0.820256  0.089161  0.380453  1
  P  P12  1  0.078904  0.570917  0.770207  1
  P  P13  1  0.078904  0.929083  0.270207  1
  P  P14  1  0.282829  0.409050  0.880337  1
  P  P15  1  0.282829  0.090950  0.380337  1
  P  P16  1  0.340318  0.774742  0.945147  1
  P  P17  1  0.340318  0.725258  0.445147  1
  P  P18  1  0.659682  0.274742  0.554853  1
  P  P19  1  0.659682  0.225258  0.054853  1
  P  P20  1  0.717171  0.909050  0.619663  1
  P  P21  1  0.717171  0.590950  0.119663  1
  P  P22  1  0.921096  0.070917  0.729793  1
  P  P23  1  0.921096  0.429083  0.229793  1
  O  O24  1  0.099173  0.664255  0.909024  1
  O  O25  1  0.032733  0.004014  0.775306  1
  O  O26  1  0.111598  0.671754  0.653407  1
  O  O27  1  0.099173  0.835745  0.409024  1
  O  O28  1  0.032733  0.495986  0.275306  1
  O  O29  1  0.111598  0.828246  0.153407  1
  O  O30  1  0.161095  0.410446  0.790989  1
  O  O31  1  0.161095  0.089554  0.290989  1
  O  O32  1  0.266123  0.904478  0.855718  1
  O  O33  1  0.275682  0.109480  0.528720  1
  O  O34  1  0.302228  0.757703  0.580304  1
  O  O35  1  0.266123  0.595522  0.355718  1
  O  O36  1  0.275682  0.390520  0.028720  1
  O  O37  1  0.328647  0.597500  0.860004  1
  O  O38  1  0.302228  0.742297  0.080304  1
  O  O39  1  0.342467  0.280750  0.819074  1
  O  O40  1  0.328647  0.902500  0.360004  1
  O  O41  1  0.342467  0.219250  0.319074  1
  O  O42  1  0.453165  0.836524  0.969254  1
  O  O43  1  0.453165  0.663476  0.469254  1
  O  O44  1  0.546835  0.336524  0.530746  1
  O  O45  1  0.546835  0.163476  0.030746  1
  O  O46  1  0.657533  0.780750  0.680926  1
  O  O47  1  0.671353  0.097500  0.639996  1
  O  O48  1  0.657533  0.719250  0.180926  1
  O  O49  1  0.697772  0.257703  0.919696  1
  O  O50  1  0.671353  0.402500  0.139996  1
  O  O51  1  0.724318  0.609480  0.971280  1
  O  O52  1  0.733877  0.404478  0.644282  1
  O  O53  1  0.697772  0.242297  0.419696  1
  O  O54  1  0.724318  0.890520  0.471280  1
  O  O55  1  0.733877  0.095522  0.144282  1
  O  O56  1  0.838905  0.910446  0.709011  1
  O  O57  1  0.838905  0.589554  0.209011  1
  O  O58  1  0.888402  0.171754  0.846593  1
  O  O59  1  0.967267  0.504014  0.724694  1
  O  O60  1  0.900827  0.164255  0.590976  1
  O  O61  1  0.888402  0.328246  0.346593  1
  O  O62  1  0.967267  0.995986  0.224694  1
  O  O63  1  0.900827  0.335745  0.090976  1
