# generated using pymatgen
data_LiV6O7F5
_symmetry_space_group_name_H-M   'P 1'
_cell_length_a   4.89723654
_cell_length_b   5.67184942
_cell_length_c   7.83643237
_cell_angle_alpha   84.69169944
_cell_angle_beta   91.72629591
_cell_angle_gamma   92.88495414
_symmetry_Int_Tables_number   1
_chemical_formula_structural   LiV6O7F5
_chemical_formula_sum   'Li1 V6 O7 F5'
_cell_volume   216.38858908
_cell_formula_units_Z   1
loop_
 _symmetry_equiv_pos_site_id
 _symmetry_equiv_pos_as_xyz
  1  'x, y, z'
loop_
 _atom_site_type_symbol
 _atom_site_label
 _atom_site_symmetry_multiplicity
 _atom_site_fract_x
 _atom_site_fract_y
 _atom_site_fract_z
 _atom_site_occupancy
  Li  Li0  1  0.498587  0.104683  0.895752  1
  V  V1  1  0.996569  0.994959  0.021167  1
  V  V2  1  0.440767  0.538761  0.004155  1
  V  V3  1  0.558880  0.790820  0.659357  1
  V  V4  1  0.524574  0.154270  0.329824  1
  V  V5  1  0.994787  0.338643  0.660302  1
  V  V6  1  0.988612  0.683914  0.328016  1
  O  O7  1  0.179318  0.704321  0.110615  1
  O  O8  1  0.309023  0.528964  0.760465  1
  O  O9  1  0.318565  0.200532  0.096376  1
  O  O10  1  0.686524  0.811360  0.908506  1
  O  O11  1  0.687766  0.119731  0.572650  1
  O  O12  1  0.805938  0.970600  0.244062  1
  O  O13  1  0.823549  0.615528  0.556362  1
  F  F14  1  0.180464  0.033737  0.775490  1
  F  F15  1  0.196300  0.364245  0.423112  1
  F  F16  1  0.315148  0.855986  0.434470  1
  F  F17  1  0.687309  0.476206  0.227886  1
  F  F18  1  0.808627  0.303874  0.903478  1
