# generated using pymatgen
data_MnPH2(CO)4
_symmetry_space_group_name_H-M   'P 1'
_cell_length_a   9.12172887
_cell_length_b   9.83644300
_cell_length_c   12.74166319
_cell_angle_alpha   90.00000000
_cell_angle_beta   109.07278140
_cell_angle_gamma   90.00000000
_symmetry_Int_Tables_number   1
_chemical_formula_structural   MnPH2(CO)4
_chemical_formula_sum   'Mn6 P6 H12 C24 O24'
_cell_volume   1080.49080848
_cell_formula_units_Z   6
loop_
 _symmetry_equiv_pos_site_id
 _symmetry_equiv_pos_as_xyz
  1  'x, y, z'
loop_
 _atom_site_type_symbol
 _atom_site_label
 _atom_site_symmetry_multiplicity
 _atom_site_fract_x
 _atom_site_fract_y
 _atom_site_fract_z
 _atom_site_occupancy
  Mn  Mn0  1  0.622618  0.781342  0.369665  1
  Mn  Mn1  1  0.377382  0.218658  0.630335  1
  Mn  Mn2  1  0.877382  0.781342  0.130335  1
  Mn  Mn3  1  0.122618  0.218658  0.869665  1
  Mn  Mn4  1  0.750000  0.399475  0.250000  1
  Mn  Mn5  1  0.250000  0.600525  0.750000  1
  P  P6  1  0.750000  0.879843  0.250000  1
  P  P7  1  0.250000  0.120157  0.750000  1
  P  P8  1  0.772590  0.577139  0.383557  1
  P  P9  1  0.227410  0.422861  0.616443  1
  P  P10  1  0.727410  0.577139  0.116443  1
  P  P11  1  0.272590  0.422861  0.883557  1
  H  H12  1  0.643921  0.977691  0.185462  1
  H  H13  1  0.356079  0.022309  0.814538  1
  H  H14  1  0.856079  0.977691  0.314538  1
  H  H15  1  0.143921  0.022309  0.685462  1
  H  H16  1  0.772200  0.515323  0.484240  1
  H  H17  1  0.227800  0.484677  0.515760  1
  H  H18  1  0.727800  0.515323  0.015760  1
  H  H19  1  0.272200  0.484677  0.984240  1
  H  H20  1  0.931671  0.615548  0.424055  1
  H  H21  1  0.068329  0.384452  0.575945  1
  H  H22  1  0.568329  0.615548  0.075945  1
  H  H23  1  0.431671  0.384452  0.924055  1
  C  C24  1  0.784318  0.848112  0.488671  1
  C  C25  1  0.215682  0.151888  0.511329  1
  C  C26  1  0.715682  0.848112  0.011329  1
  C  C27  1  0.284318  0.151888  0.988671  1
  C  C28  1  0.517037  0.940328  0.362322  1
  C  C29  1  0.482963  0.059672  0.637678  1
  C  C30  1  0.982963  0.940328  0.137678  1
  C  C31  1  0.017037  0.059672  0.862322  1
  C  C32  1  0.535682  0.701063  0.464426  1
  C  C33  1  0.464318  0.298937  0.535574  1
  C  C34  1  0.964318  0.701063  0.035574  1
  C  C35  1  0.035682  0.298937  0.964426  1
  C  C36  1  0.462308  0.725279  0.245461  1
  C  C37  1  0.537692  0.274721  0.754539  1
  C  C38  1  0.037692  0.725279  0.254539  1
  C  C39  1  0.962308  0.274721  0.745461  1
  C  C40  1  0.537260  0.400496  0.223563  1
  C  C41  1  0.462740  0.599504  0.776437  1
  C  C42  1  0.962740  0.400496  0.276437  1
  C  C43  1  0.037260  0.599504  0.723563  1
  C  C44  1  0.726333  0.273948  0.140322  1
  C  C45  1  0.273667  0.726052  0.859678  1
  C  C46  1  0.773667  0.273948  0.359678  1
  C  C47  1  0.226333  0.726052  0.640322  1
  O  O48  1  0.881569  0.892720  0.563770  1
  O  O49  1  0.118431  0.107280  0.436230  1
  O  O50  1  0.618431  0.892720  0.936230  1
  O  O51  1  0.381569  0.107280  0.063770  1
  O  O52  1  0.446990  0.040107  0.357204  1
  O  O53  1  0.553010  0.959893  0.642796  1
  O  O54  1  0.053010  0.040107  0.142796  1
  O  O55  1  0.946990  0.959893  0.857204  1
  O  O56  1  0.483260  0.650687  0.526376  1
  O  O57  1  0.516740  0.349313  0.473624  1
  O  O58  1  0.016740  0.650687  0.973624  1
  O  O59  1  0.983260  0.349313  0.026376  1
  O  O60  1  0.355104  0.699702  0.169146  1
  O  O61  1  0.644896  0.300298  0.830854  1
  O  O62  1  0.144896  0.699702  0.330854  1
  O  O63  1  0.855104  0.300298  0.669146  1
  O  O64  1  0.404933  0.394801  0.207146  1
  O  O65  1  0.595067  0.605199  0.792854  1
  O  O66  1  0.095067  0.394801  0.292854  1
  O  O67  1  0.904933  0.605199  0.707146  1
  O  O68  1  0.710550  0.193756  0.070677  1
  O  O69  1  0.289450  0.806244  0.929323  1
  O  O70  1  0.789450  0.193756  0.429323  1
  O  O71  1  0.210550  0.806244  0.570677  1
