# generated using pymatgen
data_SbBrO
_symmetry_space_group_name_H-M   'P 1'
_cell_length_a   9.75269233
_cell_length_b   11.63302403
_cell_length_c   8.45548248
_cell_angle_alpha   90.00000000
_cell_angle_beta   102.38268756
_cell_angle_gamma   90.00000000
_symmetry_Int_Tables_number   1
_chemical_formula_structural   SbBrO
_chemical_formula_sum   'Sb12 Br12 O12'
_cell_volume   936.98628766
_cell_formula_units_Z   12
loop_
 _symmetry_equiv_pos_site_id
 _symmetry_equiv_pos_as_xyz
  1  'x, y, z'
loop_
 _atom_site_type_symbol
 _atom_site_label
 _atom_site_symmetry_multiplicity
 _atom_site_fract_x
 _atom_site_fract_y
 _atom_site_fract_z
 _atom_site_occupancy
  Sb  Sb0  1  0.065290  0.531370  0.707704  1
  Sb  Sb1  1  0.109241  0.247963  0.107859  1
  Sb  Sb2  1  0.241462  0.173583  0.524064  1
  Sb  Sb3  1  0.258538  0.673583  0.475936  1
  Sb  Sb4  1  0.390759  0.747963  0.892141  1
  Sb  Sb5  1  0.434710  0.031370  0.292296  1
  Sb  Sb6  1  0.565290  0.968630  0.707704  1
  Sb  Sb7  1  0.609241  0.252037  0.107859  1
  Sb  Sb8  1  0.741462  0.326417  0.524064  1
  Sb  Sb9  1  0.758538  0.826417  0.475936  1
  Sb  Sb10  1  0.890759  0.752037  0.892141  1
  Sb  Sb11  1  0.934710  0.468630  0.292296  1
  Br  Br12  1  0.087906  0.901286  0.875004  1
  Br  Br13  1  0.124008  0.865524  0.402473  1
  Br  Br14  1  0.147074  0.612430  0.103395  1
  Br  Br15  1  0.352926  0.112430  0.896605  1
  Br  Br16  1  0.375992  0.365524  0.597527  1
  Br  Br17  1  0.412094  0.401286  0.124996  1
  Br  Br18  1  0.587906  0.598714  0.875004  1
  Br  Br19  1  0.624008  0.634476  0.402473  1
  Br  Br20  1  0.647074  0.887570  0.103395  1
  Br  Br21  1  0.852926  0.387570  0.896605  1
  Br  Br22  1  0.875992  0.134476  0.597527  1
  Br  Br23  1  0.912094  0.098714  0.124996  1
  O  O24  1  0.086209  0.572199  0.471337  1
  O  O25  1  0.070002  0.339970  0.294625  1
  O  O26  1  0.249133  0.661643  0.715669  1
  O  O27  1  0.250867  0.161643  0.284331  1
  O  O28  1  0.429998  0.839970  0.705375  1
  O  O29  1  0.413791  0.072199  0.528663  1
  O  O30  1  0.586209  0.927801  0.471337  1
  O  O31  1  0.570002  0.160030  0.294625  1
  O  O32  1  0.749133  0.838357  0.715669  1
  O  O33  1  0.750867  0.338357  0.284331  1
  O  O34  1  0.929998  0.660030  0.705375  1
  O  O35  1  0.913791  0.427801  0.528663  1
