# generated using pymatgen
data_KB6P(H2O7)2
_symmetry_space_group_name_H-M   'P 1'
_cell_length_a   12.27398109
_cell_length_b   12.27398009
_cell_length_c   7.68284237
_cell_angle_alpha   90.00000000
_cell_angle_beta   90.00000000
_cell_angle_gamma   90.00000000
_symmetry_Int_Tables_number   1
_chemical_formula_structural   KB6P(H2O7)2
_chemical_formula_sum   'K4 B24 P4 H16 O56'
_cell_volume   1157.42480909
_cell_formula_units_Z   4
loop_
 _symmetry_equiv_pos_site_id
 _symmetry_equiv_pos_as_xyz
  1  'x, y, z'
loop_
 _atom_site_type_symbol
 _atom_site_label
 _atom_site_symmetry_multiplicity
 _atom_site_fract_x
 _atom_site_fract_y
 _atom_site_fract_z
 _atom_site_occupancy
  K  K0  1  0.250000  0.250000  0.888217  1
  K  K1  1  0.250000  0.250000  0.388217  1
  K  K2  1  0.750000  0.750000  0.111783  1
  K  K3  1  0.750000  0.750000  0.611783  1
  B  B4  1  0.053857  0.071322  0.185071  1
  B  B5  1  0.053857  0.428678  0.685071  1
  B  B6  1  0.071322  0.446143  0.185071  1
  B  B7  1  0.071322  0.053857  0.685071  1
  B  B8  1  0.134017  0.634014  0.250000  1
  B  B9  1  0.134017  0.865986  0.750000  1
  B  B10  1  0.365983  0.634014  0.750000  1
  B  B11  1  0.365983  0.865986  0.250000  1
  B  B12  1  0.428678  0.053857  0.185071  1
  B  B13  1  0.428678  0.446143  0.685071  1
  B  B14  1  0.446143  0.071322  0.685071  1
  B  B15  1  0.446143  0.428678  0.185071  1
  B  B16  1  0.553857  0.571322  0.814929  1
  B  B17  1  0.553857  0.928678  0.314929  1
  B  B18  1  0.571322  0.553857  0.314929  1
  B  B19  1  0.571322  0.946143  0.814929  1
  B  B20  1  0.634014  0.134017  0.750000  1
  B  B21  1  0.634017  0.365986  0.250000  1
  B  B22  1  0.865986  0.134017  0.250000  1
  B  B23  1  0.865986  0.365983  0.750000  1
  B  B24  1  0.928678  0.946143  0.314929  1
  B  B25  1  0.928678  0.553857  0.814929  1
  B  B26  1  0.946143  0.928678  0.814929  1
  B  B27  1  0.946143  0.571322  0.314929  1
  P  P28  1  0.250000  0.750000  0.000000  1
  P  P29  1  0.250000  0.750000  0.500000  1
  P  P30  1  0.750000  0.250000  0.000000  1
  P  P31  1  0.750000  0.250000  0.500000  1
  H  H32  1  0.034203  0.290482  0.134550  1
  H  H33  1  0.034203  0.209518  0.634550  1
  H  H34  1  0.209518  0.034203  0.134550  1
  H  H35  1  0.209518  0.465797  0.634550  1
  H  H36  1  0.290482  0.465797  0.134550  1
  H  H37  1  0.290482  0.034203  0.634550  1
  H  H38  1  0.465797  0.209518  0.134550  1
  H  H39  1  0.465797  0.290482  0.634550  1
  H  H40  1  0.534203  0.709518  0.365450  1
  H  H41  1  0.534203  0.790482  0.865450  1
  H  H42  1  0.709518  0.965797  0.365450  1
  H  H43  1  0.709518  0.534203  0.865450  1
  H  H44  1  0.790482  0.534203  0.365450  1
  H  H45  1  0.790482  0.965797  0.865450  1
  H  H46  1  0.965797  0.709518  0.865450  1
  H  H47  1  0.965797  0.790482  0.365450  1
  O  O48  1  0.023478  0.651423  0.317234  1
  O  O49  1  0.023478  0.848577  0.817234  1
  O  O50  1  0.031801  0.531799  0.750000  1
  O  O51  1  0.031801  0.968201  0.250000  1
  O  O52  1  0.094586  0.343388  0.123332  1
  O  O53  1  0.094586  0.156612  0.623332  1
  O  O54  1  0.150337  0.716963  0.110606  1
  O  O55  1  0.150337  0.783037  0.610606  1
  O  O56  1  0.151423  0.523478  0.182766  1
  O  O57  1  0.151423  0.976522  0.682766  1
  O  O58  1  0.156612  0.094586  0.123332  1
  O  O59  1  0.156612  0.405414  0.623332  1
  O  O60  1  0.216963  0.650337  0.389394  1
  O  O61  1  0.216963  0.849663  0.889394  1
  O  O62  1  0.283037  0.849663  0.389394  1
  O  O63  1  0.283037  0.650337  0.889394  1
  O  O64  1  0.343388  0.094586  0.623332  1
  O  O65  1  0.343388  0.405414  0.123332  1
  O  O66  1  0.348577  0.523478  0.682766  1
  O  O67  1  0.348577  0.976522  0.182766  1
  O  O68  1  0.349663  0.716963  0.610606  1
  O  O69  1  0.349663  0.783037  0.110606  1
  O  O70  1  0.405414  0.156612  0.123332  1
  O  O71  1  0.405414  0.343388  0.623332  1
  O  O72  1  0.468199  0.968201  0.750000  1
  O  O73  1  0.468201  0.531801  0.250000  1
  O  O74  1  0.476522  0.651423  0.817234  1
  O  O75  1  0.476522  0.848577  0.317234  1
  O  O76  1  0.523478  0.151423  0.682766  1
  O  O77  1  0.523478  0.348577  0.182766  1
  O  O78  1  0.531799  0.031801  0.250000  1
  O  O79  1  0.531799  0.468199  0.750000  1
  O  O80  1  0.594586  0.656612  0.376668  1
  O  O81  1  0.594586  0.843388  0.876668  1
  O  O82  1  0.650337  0.216963  0.889394  1
  O  O83  1  0.650337  0.283037  0.389394  1
  O  O84  1  0.651423  0.023478  0.817234  1
  O  O85  1  0.651423  0.476522  0.317234  1
  O  O86  1  0.656612  0.594586  0.876668  1
  O  O87  1  0.656612  0.905414  0.376668  1
  O  O88  1  0.716963  0.150337  0.610606  1
  O  O89  1  0.716963  0.349663  0.110606  1
  O  O90  1  0.783037  0.150337  0.110606  1
  O  O91  1  0.783037  0.349663  0.610606  1
  O  O92  1  0.843388  0.594586  0.376668  1
  O  O93  1  0.843388  0.905414  0.876668  1
  O  O94  1  0.848577  0.023478  0.317234  1
  O  O95  1  0.848577  0.476522  0.817234  1
  O  O96  1  0.849663  0.216963  0.389394  1
  O  O97  1  0.849663  0.283037  0.889394  1
  O  O98  1  0.905414  0.656612  0.876668  1
  O  O99  1  0.905414  0.843388  0.376668  1
  O  O100  1  0.968201  0.031801  0.750000  1
  O  O101  1  0.968201  0.468199  0.250000  1
  O  O102  1  0.976522  0.151423  0.182766  1
  O  O103  1  0.976522  0.348577  0.682766  1
