# generated using pymatgen
data_Ba2SrI6
_symmetry_space_group_name_H-M   'P 1'
_cell_length_a   7.99448512
_cell_length_b   7.99448512
_cell_length_c   15.61652102
_cell_angle_alpha   90.00000000
_cell_angle_beta   90.00000000
_cell_angle_gamma   90.00000000
_symmetry_Int_Tables_number   1
_chemical_formula_structural   Ba2SrI6
_chemical_formula_sum   'Ba4 Sr2 I12'
_cell_volume   998.07984841
_cell_formula_units_Z   2
loop_
 _symmetry_equiv_pos_site_id
 _symmetry_equiv_pos_as_xyz
  1  'x, y, z'
loop_
 _atom_site_type_symbol
 _atom_site_label
 _atom_site_symmetry_multiplicity
 _atom_site_fract_x
 _atom_site_fract_y
 _atom_site_fract_z
 _atom_site_occupancy
  Ba  Ba0  1  0.000000  0.000000  0.001371  1
  Ba  Ba1  1  0.000000  0.000000  0.333219  1
  Ba  Ba2  1  0.500000  0.500000  0.501370  1
  Ba  Ba3  1  0.500000  0.500000  0.833219  1
  Sr  Sr4  1  0.000000  0.000000  0.667946  1
  Sr  Sr5  1  0.500000  0.500000  0.167946  1
  I  I6  1  0.205441  0.794559  0.167289  1
  I  I7  1  0.192369  0.807631  0.827629  1
  I  I8  1  0.191658  0.808342  0.507536  1
  I  I9  1  0.308342  0.308342  0.007536  1
  I  I10  1  0.307631  0.307631  0.327629  1
  I  I11  1  0.294559  0.294559  0.667289  1
  I  I12  1  0.705441  0.705441  0.667289  1
  I  I13  1  0.692369  0.692369  0.327629  1
  I  I14  1  0.691658  0.691658  0.007536  1
  I  I15  1  0.808342  0.191658  0.507536  1
  I  I16  1  0.807631  0.192369  0.827629  1
  I  I17  1  0.794559  0.205441  0.167289  1
