# generated using pymatgen
data_Li4Ti2Cr3Fe3O16
_symmetry_space_group_name_H-M   'P 1'
_cell_length_a   5.87707937
_cell_length_b   5.88277490
_cell_length_c   9.44894493
_cell_angle_alpha   89.98676765
_cell_angle_beta   90.03579575
_cell_angle_gamma   120.02521381
_symmetry_Int_Tables_number   1
_chemical_formula_structural   Li4Ti2Cr3Fe3O16
_chemical_formula_sum   'Li4 Ti2 Cr3 Fe3 O16'
_cell_volume   282.84418305
_cell_formula_units_Z   1
loop_
 _symmetry_equiv_pos_site_id
 _symmetry_equiv_pos_as_xyz
  1  'x, y, z'
loop_
 _atom_site_type_symbol
 _atom_site_label
 _atom_site_symmetry_multiplicity
 _atom_site_fract_x
 _atom_site_fract_y
 _atom_site_fract_z
 _atom_site_occupancy
  Li  Li0  1  0.341171  0.670325  0.895655  1
  Li  Li1  1  0.993118  0.996954  0.994524  1
  Li  Li2  1  0.997484  0.998932  0.494185  1
  Li  Li3  1  0.669113  0.334535  0.396722  1
  Ti  Ti4  1  0.323273  0.661636  0.485078  1
  Ti  Ti5  1  0.666156  0.333243  -0.000580  1
  Cr  Cr6  1  0.170972  0.830727  0.213723  1
  Cr  Cr7  1  0.170990  0.340246  0.213765  1
  Cr  Cr8  1  0.340081  0.169967  0.713716  1
  Fe  Fe9  1  0.659177  0.829526  0.217162  1
  Fe  Fe10  1  0.830136  0.660383  0.714563  1
  Fe  Fe11  1  0.830091  0.169671  0.714635  1
  O  O12  1  0.157186  0.828397  0.598408  1
  O  O13  1  0.039119  0.519518  0.343314  1
  O  O14  1  0.338634  0.669344  0.103921  1
  O  O15  1  0.998377  0.999107  0.308284  1
  O  O16  1  0.992838  0.996295  0.806594  1
  O  O17  1  0.157281  0.328949  0.598461  1
  O  O18  1  0.476520  0.961033  0.349503  1
  O  O19  1  0.476652  0.515638  0.349561  1
  O  O20  1  0.334723  0.167467  0.091841  1
  O  O21  1  0.673080  0.836590  0.601463  1
  O  O22  1  0.528567  0.485676  0.837095  1
  O  O23  1  0.528618  0.042646  0.837127  1
  O  O24  1  0.675983  0.337980  0.609825  1
  O  O25  1  0.835307  0.661958  0.092142  1
  O  O26  1  0.960066  0.479950  0.834911  1
  O  O27  1  0.835292  0.173604  0.092244  1
