# generated using pymatgen
data_Li3Mn4(BO3)4
_symmetry_space_group_name_H-M   'P 1'
_cell_length_a   5.28159118
_cell_length_b   9.12437646
_cell_length_c   10.37391907
_cell_angle_alpha   91.41568709
_cell_angle_beta   91.58626051
_cell_angle_gamma   89.61390063
_symmetry_Int_Tables_number   1
_chemical_formula_structural   Li3Mn4(BO3)4
_chemical_formula_sum   'Li6 Mn8 B8 O24'
_cell_volume   499.57858876
_cell_formula_units_Z   2
loop_
 _symmetry_equiv_pos_site_id
 _symmetry_equiv_pos_as_xyz
  1  'x, y, z'
loop_
 _atom_site_type_symbol
 _atom_site_label
 _atom_site_symmetry_multiplicity
 _atom_site_fract_x
 _atom_site_fract_y
 _atom_site_fract_z
 _atom_site_occupancy
  Li  Li0  1  0.948684  0.914604  0.327670  1
  Li  Li1  1  0.896455  0.930145  0.838857  1
  Li  Li2  1  0.581583  0.577711  0.603121  1
  Li  Li3  1  0.438747  0.413207  0.342926  1
  Li  Li4  1  0.403494  0.423234  0.829721  1
  Li  Li5  1  0.081425  0.086648  0.098667  1
  Mn  Mn6  1  0.940518  0.250169  0.374387  1
  Mn  Mn7  1  0.925595  0.597313  0.867025  1
  Mn  Mn8  1  0.584741  0.900609  0.114087  1
  Mn  Mn9  1  0.594204  0.227699  0.619838  1
  Mn  Mn10  1  0.428020  0.745873  0.367161  1
  Mn  Mn11  1  0.399812  0.084736  0.869002  1
  Mn  Mn12  1  0.075437  0.422166  0.123924  1
  Mn  Mn13  1  0.072630  0.772998  0.612640  1
  B  B14  1  0.918592  0.583715  0.381849  1
  B  B15  1  0.906732  0.252332  0.869777  1
  B  B16  1  0.581868  0.238571  0.132759  1
  B  B17  1  0.567046  0.921727  0.628850  1
  B  B18  1  0.435141  0.073390  0.372324  1
  B  B19  1  0.420673  0.749400  0.865050  1
  B  B20  1  0.099060  0.751107  0.113991  1
  B  B21  1  0.072880  0.426876  0.630239  1
  O  O22  1  0.972586  0.882241  0.129086  1
  O  O23  1  0.922777  0.315577  0.577502  1
  O  O24  1  0.978715  0.628384  0.053779  1
  O  O25  1  0.943847  0.555870  0.674708  1
  O  O26  1  0.842734  0.236233  0.164457  1
  O  O27  1  0.820047  0.932967  0.652045  1
  O  O28  1  0.664501  0.566980  0.404048  1
  O  O29  1  0.657475  0.259795  0.815041  1
  O  O30  1  0.584646  0.955809  0.331067  1
  O  O31  1  0.555346  0.873854  0.904886  1
  O  O32  1  0.560261  0.199047  0.427870  1
  O  O33  1  0.538446  0.616268  0.852010  1
  O  O34  1  0.439593  0.358436  0.161786  1
  O  O35  1  0.454740  0.792761  0.581468  1
  O  O36  1  0.467991  0.114479  0.073968  1
  O  O37  1  0.412159  0.045013  0.657543  1
  O  O38  1  0.342905  0.733328  0.162052  1
  O  O39  1  0.331216  0.415987  0.636566  1
  O  O40  1  0.179301  0.073083  0.358292  1
  O  O41  1  0.160029  0.767634  0.836160  1
  O  O42  1  0.066559  0.467869  0.336043  1
  O  O43  1  0.037996  0.381771  0.900238  1
  O  O44  1  0.035099  0.719750  0.408416  1
  O  O45  1  0.014709  0.119653  0.896455  1
