# generated using pymatgen
data_LiCrSiO4
_symmetry_space_group_name_H-M   'P 1'
_cell_length_a   5.69597275
_cell_length_b   5.69597275
_cell_length_c   8.04460867
_cell_angle_alpha   90.00000000
_cell_angle_beta   90.00000000
_cell_angle_gamma   90.00000000
_symmetry_Int_Tables_number   1
_chemical_formula_structural   LiCrSiO4
_chemical_formula_sum   'Li4 Cr4 Si4 O16'
_cell_volume   261.00013295
_cell_formula_units_Z   4
loop_
 _symmetry_equiv_pos_site_id
 _symmetry_equiv_pos_as_xyz
  1  'x, y, z'
loop_
 _atom_site_type_symbol
 _atom_site_label
 _atom_site_symmetry_multiplicity
 _atom_site_fract_x
 _atom_site_fract_y
 _atom_site_fract_z
 _atom_site_occupancy
  Li  Li0  1  0.000000  0.220530  0.000000  1
  Li  Li1  1  0.000000  0.779470  0.500000  1
  Li  Li2  1  0.220530  0.000000  0.250000  1
  Li  Li3  1  0.779470  0.000000  0.750000  1
  Cr  Cr4  1  0.234531  0.500000  0.250000  1
  Cr  Cr5  1  0.500000  0.234531  0.000000  1
  Cr  Cr6  1  0.500000  0.765469  0.500000  1
  Cr  Cr7  1  0.765469  0.500000  0.750000  1
  Si  Si8  1  0.255433  0.255433  0.625000  1
  Si  Si9  1  0.255433  0.744567  0.875000  1
  Si  Si10  1  0.744567  0.255433  0.375000  1
  Si  Si11  1  0.744567  0.744567  0.125000  1
  O  O12  1  0.984139  0.260102  0.261388  1
  O  O13  1  0.984139  0.739898  0.238612  1
  O  O14  1  0.260102  0.984139  0.988612  1
  O  O15  1  0.260102  0.015861  0.511388  1
  O  O16  1  0.259825  0.495653  0.500685  1
  O  O17  1  0.259825  0.504347  0.999315  1
  O  O18  1  0.504347  0.259825  0.250685  1
  O  O19  1  0.504347  0.740175  0.249315  1
  O  O20  1  0.495653  0.259825  0.749315  1
  O  O21  1  0.495653  0.740175  0.750685  1
  O  O22  1  0.740175  0.495653  0.499315  1
  O  O23  1  0.740175  0.504347  0.000685  1
  O  O24  1  0.739898  0.015861  0.488612  1
  O  O25  1  0.739898  0.984139  0.011388  1
  O  O26  1  0.015861  0.260102  0.738612  1
  O  O27  1  0.015861  0.739898  0.761388  1
