# generated using pymatgen
data_Li2V3SbO8
_symmetry_space_group_name_H-M   'P 1'
_cell_length_a   6.00326436
_cell_length_b   6.00336058
_cell_length_c   9.79570023
_cell_angle_alpha   90.00167922
_cell_angle_beta   89.99917955
_cell_angle_gamma   120.00068189
_symmetry_Int_Tables_number   1
_chemical_formula_structural   Li2V3SbO8
_chemical_formula_sum   'Li4 V6 Sb2 O16'
_cell_volume   305.73491011
_cell_formula_units_Z   2
loop_
 _symmetry_equiv_pos_site_id
 _symmetry_equiv_pos_as_xyz
  1  'x, y, z'
loop_
 _atom_site_type_symbol
 _atom_site_label
 _atom_site_symmetry_multiplicity
 _atom_site_fract_x
 _atom_site_fract_y
 _atom_site_fract_z
 _atom_site_occupancy
  Li  Li0  1  0.333341  0.666677  0.901749  1
  Li  Li1  1  0.999996  0.000024  0.990746  1
  Li  Li2  1  0.000004  0.000028  0.490747  1
  Li  Li3  1  0.666659  0.333335  0.401749  1
  V  V4  1  0.170679  0.829342  0.214196  1
  V  V5  1  0.170682  0.341357  0.214188  1
  V  V6  1  0.658670  0.829344  0.214191  1
  V  V7  1  0.341328  0.170672  0.714190  1
  V  V8  1  0.829322  0.658665  0.714194  1
  V  V9  1  0.829319  0.170676  0.714186  1
  Sb  Sb10  1  0.333334  0.666669  0.487269  1
  Sb  Sb11  1  0.666666  0.333335  0.987269  1
  O  O12  1  0.166334  0.833643  0.593069  1
  O  O13  1  0.036667  0.518332  0.345813  1
  O  O14  1  0.333343  0.666678  0.108330  1
  O  O15  1  0.000018  0.000031  0.306591  1
  O  O16  1  0.999982  0.000013  0.806592  1
  O  O17  1  0.166365  0.332728  0.593073  1
  O  O18  1  0.481665  0.963346  0.345821  1
  O  O19  1  0.481695  0.518366  0.345808  1
  O  O20  1  0.332713  0.166363  0.093076  1
  O  O21  1  0.667287  0.833649  0.593076  1
  O  O22  1  0.518335  0.481680  0.845821  1
  O  O23  1  0.518305  0.036670  0.845808  1
  O  O24  1  0.666657  0.333336  0.608330  1
  O  O25  1  0.833666  0.667309  0.093069  1
  O  O26  1  0.963333  0.481665  0.845814  1
  O  O27  1  0.833635  0.166363  0.093073  1
