# generated using pymatgen
data_Li6V3Sb3O16
_symmetry_space_group_name_H-M   'P 1'
_cell_length_a   6.12256388
_cell_length_b   6.05881777
_cell_length_c   10.07365408
_cell_angle_alpha   90.00896646
_cell_angle_beta   90.32703031
_cell_angle_gamma   119.68519900
_symmetry_Int_Tables_number   1
_chemical_formula_structural   Li6V3Sb3O16
_chemical_formula_sum   'Li6 V3 Sb3 O16'
_cell_volume   324.63711388
_cell_formula_units_Z   1
loop_
 _symmetry_equiv_pos_site_id
 _symmetry_equiv_pos_as_xyz
  1  'x, y, z'
loop_
 _atom_site_type_symbol
 _atom_site_label
 _atom_site_symmetry_multiplicity
 _atom_site_fract_x
 _atom_site_fract_y
 _atom_site_fract_z
 _atom_site_occupancy
  Li  Li0  1  0.328187  0.664191  0.506699  1
  Li  Li1  1  0.336931  0.668618  0.879444  1
  Li  Li2  1  0.976475  0.988382  0.997476  1
  Li  Li3  1  0.990150  0.995067  0.502958  1
  Li  Li4  1  0.674885  0.337418  0.002730  1
  Li  Li5  1  0.659111  0.329654  0.388404  1
  V  V6  1  0.838969  0.662161  0.718209  1
  V  V7  1  0.665192  0.832657  0.216793  1
  V  V8  1  0.831011  0.162462  0.713212  1
  Sb  Sb9  1  0.169140  0.832907  0.215279  1
  Sb  Sb10  1  0.169147  0.336345  0.215288  1
  Sb  Sb11  1  0.340174  0.171003  0.715492  1
  O  O12  1  0.151493  0.846356  0.609284  1
  O  O13  1  0.027194  0.513634  0.328401  1
  O  O14  1  0.324539  0.662333  0.101352  1
  O  O15  1  0.009496  0.004786  0.322638  1
  O  O16  1  0.004785  0.002401  0.818261  1
  O  O17  1  0.151583  0.306549  0.609531  1
  O  O18  1  0.481724  0.973204  0.321783  1
  O  O19  1  0.481712  0.508642  0.321808  1
  O  O20  1  0.303439  0.151793  0.102120  1
  O  O21  1  0.703545  0.854860  0.618603  1
  O  O22  1  0.521231  0.491332  0.821947  1
  O  O23  1  0.521498  0.031749  0.822361  1
  O  O24  1  0.667324  0.333891  0.605283  1
  O  O25  1  0.852420  0.693260  0.110373  1
  O  O26  1  0.966186  0.485374  0.811738  1
  O  O27  1  0.852460  0.159269  0.110374  1
