# generated using pymatgen
data_Li5FeS4
_symmetry_space_group_name_H-M   'P 1'
_cell_length_a   11.26626953
_cell_length_b   6.40299434
_cell_length_c   19.41057441
_cell_angle_alpha   90.00000000
_cell_angle_beta   90.00000000
_cell_angle_gamma   90.00000000
_symmetry_Int_Tables_number   1
_chemical_formula_structural   Li5FeS4
_chemical_formula_sum   'Li40 Fe8 S32'
_cell_volume   1400.23729996
_cell_formula_units_Z   8
loop_
 _symmetry_equiv_pos_site_id
 _symmetry_equiv_pos_as_xyz
  1  'x, y, z'
loop_
 _atom_site_type_symbol
 _atom_site_label
 _atom_site_symmetry_multiplicity
 _atom_site_fract_x
 _atom_site_fract_y
 _atom_site_fract_z
 _atom_site_occupancy
  Li  Li0  1  0.046745  0.041106  0.434694  1
  Li  Li1  1  0.046745  0.458894  0.934694  1
  Li  Li2  1  0.086419  0.615674  0.753540  1
  Li  Li3  1  0.086419  0.884326  0.253540  1
  Li  Li4  1  0.157568  0.589477  0.505552  1
  Li  Li5  1  0.157568  0.910523  0.005552  1
  Li  Li6  1  0.156628  0.391548  0.339550  1
  Li  Li7  1  0.156628  0.108452  0.839550  1
  Li  Li8  1  0.211989  0.532637  0.140334  1
  Li  Li9  1  0.211989  0.967363  0.640334  1
  Li  Li10  1  0.288011  0.032637  0.140334  1
  Li  Li11  1  0.288011  0.467363  0.640334  1
  Li  Li12  1  0.343372  0.891548  0.339550  1
  Li  Li13  1  0.343372  0.608452  0.839550  1
  Li  Li14  1  0.342432  0.089477  0.505552  1
  Li  Li15  1  0.342432  0.410523  0.005552  1
  Li  Li16  1  0.413581  0.384326  0.253540  1
  Li  Li17  1  0.413581  0.115674  0.753540  1
  Li  Li18  1  0.453255  0.958894  0.934694  1
  Li  Li19  1  0.453255  0.541106  0.434694  1
  Li  Li20  1  0.546745  0.041106  0.065306  1
  Li  Li21  1  0.546745  0.458894  0.565306  1
  Li  Li22  1  0.586419  0.884326  0.246460  1
  Li  Li23  1  0.586419  0.615674  0.746460  1
  Li  Li24  1  0.657568  0.589477  0.994448  1
  Li  Li25  1  0.657568  0.910523  0.494448  1
  Li  Li26  1  0.656628  0.391548  0.160450  1
  Li  Li27  1  0.656628  0.108452  0.660450  1
  Li  Li28  1  0.711989  0.532637  0.359666  1
  Li  Li29  1  0.711989  0.967363  0.859666  1
  Li  Li30  1  0.788011  0.032637  0.359666  1
  Li  Li31  1  0.788011  0.467363  0.859666  1
  Li  Li32  1  0.843372  0.608452  0.660450  1
  Li  Li33  1  0.843372  0.891548  0.160450  1
  Li  Li34  1  0.842432  0.089477  0.994448  1
  Li  Li35  1  0.842432  0.410523  0.494448  1
  Li  Li36  1  0.913581  0.384326  0.246460  1
  Li  Li37  1  0.913581  0.115674  0.746460  1
  Li  Li38  1  0.953255  0.958894  0.565306  1
  Li  Li39  1  0.953255  0.541106  0.065306  1
  Fe  Fe40  1  0.042832  0.162829  0.126303  1
  Fe  Fe41  1  0.042832  0.337171  0.626303  1
  Fe  Fe42  1  0.457168  0.662829  0.126303  1
  Fe  Fe43  1  0.457168  0.837171  0.626303  1
  Fe  Fe44  1  0.542832  0.337171  0.873697  1
  Fe  Fe45  1  0.542832  0.162829  0.373697  1
  Fe  Fe46  1  0.957168  0.662829  0.373697  1
  Fe  Fe47  1  0.957168  0.837171  0.873697  1
  S  S48  1  0.059502  0.811823  0.123903  1
  S  S49  1  0.059502  0.688177  0.623903  1
  S  S50  1  0.137857  0.194266  0.534560  1
  S  S51  1  0.137857  0.305734  0.034560  1
  S  S52  1  0.138442  0.263838  0.222723  1
  S  S53  1  0.138442  0.236162  0.722723  1
  S  S54  1  0.150517  0.757349  0.377793  1
  S  S55  1  0.150517  0.742651  0.877793  1
  S  S56  1  0.349483  0.242651  0.877793  1
  S  S57  1  0.349483  0.257349  0.377793  1
  S  S58  1  0.361558  0.763838  0.222723  1
  S  S59  1  0.361558  0.736162  0.722723  1
  S  S60  1  0.362143  0.805734  0.034560  1
  S  S61  1  0.362143  0.694266  0.534560  1
  S  S62  1  0.440498  0.311823  0.123903  1
  S  S63  1  0.440498  0.188177  0.623903  1
  S  S64  1  0.559502  0.688177  0.876097  1
  S  S65  1  0.559502  0.811823  0.376097  1
  S  S66  1  0.637857  0.194266  0.965440  1
  S  S67  1  0.637857  0.305734  0.465440  1
  S  S68  1  0.638442  0.263838  0.277277  1
  S  S69  1  0.638442  0.236162  0.777277  1
  S  S70  1  0.650517  0.757349  0.122207  1
  S  S71  1  0.650517  0.742651  0.622207  1
  S  S72  1  0.849483  0.242651  0.622207  1
  S  S73  1  0.849483  0.257349  0.122207  1
  S  S74  1  0.861558  0.763838  0.277277  1
  S  S75  1  0.861558  0.736162  0.777277  1
  S  S76  1  0.862143  0.805734  0.465440  1
  S  S77  1  0.862143  0.694266  0.965440  1
  S  S78  1  0.940498  0.311823  0.376097  1
  S  S79  1  0.940498  0.188177  0.876097  1
