# generated using pymatgen
data_KH(IO3)2
_symmetry_space_group_name_H-M   'P 1'
_cell_length_a   7.15361435
_cell_length_b   8.32355610
_cell_length_c   22.22918041
_cell_angle_alpha   90.00000000
_cell_angle_beta   98.10233072
_cell_angle_gamma   90.00000000
_symmetry_Int_Tables_number   1
_chemical_formula_structural   KH(IO3)2
_chemical_formula_sum   'K8 H8 I16 O48'
_cell_volume   1310.39112557
_cell_formula_units_Z   8
loop_
 _symmetry_equiv_pos_site_id
 _symmetry_equiv_pos_as_xyz
  1  'x, y, z'
loop_
 _atom_site_type_symbol
 _atom_site_label
 _atom_site_symmetry_multiplicity
 _atom_site_fract_x
 _atom_site_fract_y
 _atom_site_fract_z
 _atom_site_occupancy
  K  K0  1  0.249140  0.624592  0.003639  1
  K  K1  1  0.750860  0.124592  0.496361  1
  K  K2  1  0.750860  0.375408  0.996361  1
  K  K3  1  0.249140  0.875408  0.503639  1
  K  K4  1  0.144869  0.887692  0.171293  1
  K  K5  1  0.855131  0.387692  0.328707  1
  K  K6  1  0.855131  0.112308  0.828707  1
  K  K7  1  0.144869  0.612308  0.671293  1
  H  H8  1  0.539747  0.176894  0.251289  1
  H  H9  1  0.460253  0.676894  0.248712  1
  H  H10  1  0.460253  0.823106  0.748711  1
  H  H11  1  0.539747  0.323106  0.751289  1
  H  H12  1  0.775574  0.655308  0.247625  1
  H  H13  1  0.224426  0.155308  0.252375  1
  H  H14  1  0.224426  0.344692  0.752375  1
  H  H15  1  0.775574  0.844692  0.747625  1
  I  I16  1  0.167606  0.395811  0.156459  1
  I  I17  1  0.832394  0.895811  0.343541  1
  I  I18  1  0.832394  0.604189  0.843541  1
  I  I19  1  0.167606  0.104189  0.656459  1
  I  I20  1  0.229613  0.112413  0.999155  1
  I  I21  1  0.770387  0.612413  0.500845  1
  I  I22  1  0.770387  0.887587  0.000845  1
  I  I23  1  0.229613  0.387587  0.499155  1
  I  I24  1  0.667412  0.132119  0.155959  1
  I  I25  1  0.332588  0.632119  0.344041  1
  I  I26  1  0.332588  0.867881  0.844041  1
  I  I27  1  0.667412  0.367881  0.655959  1
  I  I28  1  0.652542  0.638983  0.135704  1
  I  I29  1  0.347458  0.138983  0.364296  1
  I  I30  1  0.347458  0.361017  0.864296  1
  I  I31  1  0.652542  0.861017  0.635704  1
  O  O32  1  0.055776  0.228316  0.192560  1
  O  O33  1  0.944224  0.728316  0.307440  1
  O  O34  1  0.944224  0.771684  0.807440  1
  O  O35  1  0.055776  0.271684  0.692560  1
  O  O36  1  0.013724  0.564110  0.168415  1
  O  O37  1  0.986276  0.064110  0.331585  1
  O  O38  1  0.986276  0.435890  0.831585  1
  O  O39  1  0.013724  0.935890  0.668415  1
  O  O40  1  0.097205  0.357815  0.075497  1
  O  O41  1  0.902795  0.857815  0.424503  1
  O  O42  1  0.902795  0.642185  0.924503  1
  O  O43  1  0.097205  0.142185  0.575497  1
  O  O44  1  0.994141  0.141032  0.956728  1
  O  O45  1  0.005859  0.641032  0.543272  1
  O  O46  1  0.005859  0.858968  0.043272  1
  O  O47  1  0.994141  0.358968  0.456728  1
  O  O48  1  0.319269  0.952472  0.953526  1
  O  O49  1  0.680731  0.452472  0.546474  1
  O  O50  1  0.680731  0.047528  0.046474  1
  O  O51  1  0.319269  0.547528  0.453526  1
  O  O52  1  0.349760  0.291319  0.973246  1
  O  O53  1  0.650240  0.791319  0.526754  1
  O  O54  1  0.650240  0.708681  0.026754  1
  O  O55  1  0.349760  0.208681  0.473246  1
  O  O56  1  0.414759  0.108336  0.135797  1
  O  O57  1  0.585241  0.608336  0.364202  1
  O  O58  1  0.585241  0.891664  0.864202  1
  O  O59  1  0.414759  0.391664  0.635798  1
  O  O60  1  0.650052  0.226696  0.234853  1
  O  O61  1  0.349948  0.726696  0.265147  1
  O  O62  1  0.349948  0.773304  0.765147  1
  O  O63  1  0.650052  0.273304  0.734853  1
  O  O64  1  0.742923  0.933210  0.183981  1
  O  O65  1  0.257077  0.433210  0.316019  1
  O  O66  1  0.257077  0.066790  0.816019  1
  O  O67  1  0.742923  0.566790  0.683981  1
  O  O68  1  0.403509  0.687720  0.126460  1
  O  O69  1  0.596491  0.187720  0.373540  1
  O  O70  1  0.596491  0.312280  0.873540  1
  O  O71  1  0.403509  0.812280  0.626460  1
  O  O72  1  0.660504  0.601573  0.224530  1
  O  O73  1  0.339496  0.101573  0.275470  1
  O  O74  1  0.339496  0.398427  0.775470  1
  O  O75  1  0.660504  0.898427  0.724530  1
  O  O76  1  0.625050  0.432038  0.110183  1
  O  O77  1  0.374950  0.932038  0.389817  1
  O  O78  1  0.374950  0.567962  0.889817  1
  O  O79  1  0.625050  0.067962  0.610183  1
