# generated using pymatgen
data_Li11Ti4Mn12O32
_symmetry_space_group_name_H-M   'P 1'
_cell_length_a   8.39371562
_cell_length_b   8.37397729
_cell_length_c   8.74587238
_cell_angle_alpha   89.96316749
_cell_angle_beta   89.95408023
_cell_angle_gamma   90.53357337
_symmetry_Int_Tables_number   1
_chemical_formula_structural   Li11Ti4Mn12O32
_chemical_formula_sum   'Li11 Ti4 Mn12 O32'
_cell_volume   614.70975057
_cell_formula_units_Z   1
loop_
 _symmetry_equiv_pos_site_id
 _symmetry_equiv_pos_as_xyz
  1  'x, y, z'
loop_
 _atom_site_type_symbol
 _atom_site_label
 _atom_site_symmetry_multiplicity
 _atom_site_fract_x
 _atom_site_fract_y
 _atom_site_fract_z
 _atom_site_occupancy
  Li  Li0  1  0.999925  0.996985  0.999537  1
  Li  Li1  1  0.873203  0.376796  0.374208  1
  Li  Li2  1  0.878008  0.627037  0.625506  1
  Li  Li3  1  0.623661  0.372986  0.124701  1
  Li  Li4  1  0.623904  0.625359  0.875143  1
  Li  Li5  1  0.627180  0.127114  0.376522  1
  Li  Li6  1  0.628503  0.881662  0.626255  1
  Li  Li7  1  0.366849  0.621439  0.123709  1
  Li  Li8  1  0.373140  0.877223  0.375340  1
  Li  Li9  1  0.253597  0.249292  0.750888  1
  Li  Li10  1  0.122549  0.623199  0.373046  1
  Ti  Ti11  1  0.878169  0.371856  0.874479  1
  Ti  Ti12  1  0.617190  0.873542  0.123671  1
  Ti  Ti13  1  0.375692  0.631270  0.626500  1
  Ti  Ti14  1  0.119190  0.130949  0.374216  1
  Mn  Mn15  1  0.878155  0.629095  0.119735  1
  Mn  Mn16  1  0.876131  0.873440  0.370802  1
  Mn  Mn17  1  0.876152  0.124316  0.626348  1
  Mn  Mn18  1  0.627528  0.622104  0.374750  1
  Mn  Mn19  1  0.621576  0.372266  0.629874  1
  Mn  Mn20  1  0.625793  0.126390  0.879888  1
  Mn  Mn21  1  0.376644  0.373595  0.379517  1
  Mn  Mn22  1  0.371032  0.124842  0.127927  1
  Mn  Mn23  1  0.369482  0.880885  0.874578  1
  Mn  Mn24  1  0.125081  0.374030  0.123936  1
  Mn  Mn25  1  0.124097  0.624527  0.871037  1
  Mn  Mn26  1  0.126495  0.879175  0.621910  1
  O  O27  1  0.873320  0.396347  0.105189  1
  O  O28  1  0.894038  0.608194  0.866535  1
  O  O29  1  0.868386  0.877046  0.588062  1
  O  O30  1  0.889907  0.120725  0.384058  1
  O  O31  1  0.866584  0.861722  0.146616  1
  O  O32  1  0.859153  0.630624  0.375765  1
  O  O33  1  0.854402  0.378261  0.645613  1
  O  O34  1  0.862709  0.137924  0.863982  1
  O  O35  1  0.640607  0.641082  0.111983  1
  O  O36  1  0.633310  0.859134  0.358311  1
  O  O37  1  0.648685  0.136115  0.620880  1
  O  O38  1  0.642955  0.357275  0.884415  1
  O  O39  1  0.608498  0.609183  0.638317  1
  O  O40  1  0.624454  0.391483  0.373869  1
  O  O41  1  0.602188  0.108559  0.134934  1
  O  O42  1  0.607334  0.889920  0.890941  1
  O  O43  1  0.390453  0.614489  0.391742  1
  O  O44  1  0.388980  0.382841  0.604622  1
  O  O45  1  0.386290  0.111405  0.897453  1
  O  O46  1  0.397631  0.861720  0.133148  1
  O  O47  1  0.359069  0.132749  0.360779  1
  O  O48  1  0.371173  0.381641  0.161055  1
  O  O49  1  0.359747  0.642491  0.859180  1
  O  O50  1  0.388523  0.851667  0.616505  1
  O  O51  1  0.122383  0.359390  0.362103  1
  O  O52  1  0.139072  0.139595  0.140627  1
  O  O53  1  0.139027  0.864709  0.851704  1
  O  O54  1  0.141655  0.646867  0.615419  1
  O  O55  1  0.112741  0.386743  0.888939  1
  O  O56  1  0.114342  0.602230  0.129067  1
  O  O57  1  0.119145  0.890089  0.390325  1
  O  O58  1  0.109349  0.111542  0.609004  1
