# generated using pymatgen
data_NaCr6O11
_symmetry_space_group_name_H-M   'P 1'
_cell_length_a   5.82480599
_cell_length_b   5.82348875
_cell_length_c   12.99973225
_cell_angle_alpha   89.93269127
_cell_angle_beta   90.03364240
_cell_angle_gamma   119.99251728
_symmetry_Int_Tables_number   1
_chemical_formula_structural   NaCr6O11
_chemical_formula_sum   'Na2 Cr12 O22'
_cell_volume   381.91101705
_cell_formula_units_Z   2
loop_
 _symmetry_equiv_pos_site_id
 _symmetry_equiv_pos_as_xyz
  1  'x, y, z'
loop_
 _atom_site_type_symbol
 _atom_site_label
 _atom_site_symmetry_multiplicity
 _atom_site_fract_x
 _atom_site_fract_y
 _atom_site_fract_z
 _atom_site_occupancy
  Na  Na0  1  0.331872  0.665942  0.253843  1
  Na  Na1  1  0.668128  0.334070  0.753843  1
  Cr  Cr2  1  0.000110  0.500036  0.000430  1
  Cr  Cr3  1  0.333733  0.666886  0.750309  1
  Cr  Cr4  1  0.999697  0.000143  0.145816  1
  Cr  Cr5  1  0.999719  0.999673  0.354943  1
  Cr  Cr6  1  0.000303  0.000446  0.645816  1
  Cr  Cr7  1  0.000281  -0.000046  0.854943  1
  Cr  Cr8  1  0.499983  -0.000064  0.000436  1
  Cr  Cr9  1  0.500025  0.500007  0.000428  1
  Cr  Cr10  1  0.500017  0.499953  0.500436  1
  Cr  Cr11  1  0.666267  0.333153  0.250309  1
  Cr  Cr12  1  0.499975  -0.000019  0.500428  1
  Cr  Cr13  1  0.999890  0.499927  0.500430  1
  O  O14  1  0.153827  0.847403  0.750302  1
  O  O15  1  0.173486  0.824674  0.422377  1
  O  O16  1  0.174708  0.825302  0.078539  1
  O  O17  1  0.333327  0.666781  0.913101  1
  O  O18  1  0.333285  0.666518  0.587716  1
  O  O19  1  0.153852  0.306437  0.750360  1
  O  O20  1  0.175127  0.350346  0.421744  1
  O  O21  1  0.173086  0.347997  0.077941  1
  O  O22  1  0.305842  0.152926  0.250335  1
  O  O23  1  0.652258  0.827048  0.077702  1
  O  O24  1  0.651340  0.824782  0.422591  1
  O  O25  1  0.348660  0.173442  0.922591  1
  O  O26  1  0.347742  0.174791  0.577702  1
  O  O27  1  0.694158  0.847085  0.750335  1
  O  O28  1  0.846173  0.693575  0.250302  1
  O  O29  1  0.666715  0.333234  0.087716  1
  O  O30  1  0.825292  0.650594  0.578539  1
  O  O31  1  0.666673  0.333454  0.413101  1
  O  O32  1  0.826514  0.651188  0.922377  1
  O  O33  1  0.826914  0.174911  0.577941  1
  O  O34  1  0.824873  0.175220  0.921744  1
  O  O35  1  0.846148  0.152586  0.250360  1
