# generated using pymatgen
data_Mn5Sb(PO4)6
_symmetry_space_group_name_H-M   'P 1'
_cell_length_a   8.70714934
_cell_length_b   8.67769000
_cell_length_c   8.67769010
_cell_angle_alpha   59.99999635
_cell_angle_beta   60.11185743
_cell_angle_gamma   60.11185906
_symmetry_Int_Tables_number   1
_chemical_formula_structural   Mn5Sb(PO4)6
_chemical_formula_sum   'Mn5 Sb1 P6 O24'
_cell_volume   464.40989380
_cell_formula_units_Z   1
loop_
 _symmetry_equiv_pos_site_id
 _symmetry_equiv_pos_as_xyz
  1  'x, y, z'
loop_
 _atom_site_type_symbol
 _atom_site_label
 _atom_site_symmetry_multiplicity
 _atom_site_fract_x
 _atom_site_fract_y
 _atom_site_fract_z
 _atom_site_occupancy
  Mn  Mn0  1  0.017075  0.994308  0.994308  1
  Mn  Mn1  1  0.063580  0.645473  0.645473  1
  Mn  Mn2  1  0.498032  0.500656  0.500656  1
  Mn  Mn3  1  0.437786  0.854072  0.854072  1
  Mn  Mn4  1  0.932081  0.355973  0.355973  1
  Sb  Sb5  1  0.567622  0.144126  0.144126  1
  P  P6  1  0.246379  0.252432  0.545748  1
  P  P7  1  0.246379  0.955441  0.252432  1
  P  P8  1  0.246379  0.545748  0.955441  1
  P  P9  1  0.747630  0.460818  0.044834  1
  P  P10  1  0.747630  0.044834  0.746718  1
  P  P11  1  0.747630  0.746718  0.460818  1
  O  O12  1  0.071616  0.114022  0.308032  1
  O  O13  1  0.071616  0.506331  0.114022  1
  O  O14  1  0.071616  0.308032  0.506331  1
  O  O15  1  0.238148  0.084162  0.734236  1
  O  O16  1  0.432873  0.191825  0.384755  1
  O  O17  1  0.269510  0.411720  0.556480  1
  O  O18  1  0.238148  0.943453  0.084162  1
  O  O19  1  0.269510  0.762291  0.411720  1
  O  O20  1  0.567117  0.614287  0.012720  1
  O  O21  1  0.269510  0.556480  0.762291  1
  O  O22  1  0.759622  0.260694  0.061860  1
  O  O23  1  0.567117  0.012720  0.805875  1
  O  O24  1  0.432873  0.990547  0.191825  1
  O  O25  1  0.238148  0.734236  0.943453  1
  O  O26  1  0.732343  0.436365  0.241283  1
  O  O27  1  0.432873  0.384755  0.990547  1
  O  O28  1  0.732343  0.241283  0.590008  1
  O  O29  1  0.759622  0.061860  0.917823  1
  O  O30  1  0.732343  0.590008  0.436365  1
  O  O31  1  0.567117  0.805875  0.614287  1
  O  O32  1  0.759622  0.917823  0.260694  1
  O  O33  1  0.929370  0.697202  0.484229  1
  O  O34  1  0.929370  0.484229  0.889199  1
  O  O35  1  0.929370  0.889199  0.697202  1
