# generated using pymatgen
data_K3ErSi3(HO5)2
_symmetry_space_group_name_H-M   'P 1'
_cell_length_a   13.20350878
_cell_length_b   13.71896728
_cell_length_c   5.93446789
_cell_angle_alpha   90.00000000
_cell_angle_beta   90.00000000
_cell_angle_gamma   90.00000000
_symmetry_Int_Tables_number   1
_chemical_formula_structural   K3ErSi3(HO5)2
_chemical_formula_sum   'K12 Er4 Si12 H8 O40'
_cell_volume   1074.96064117
_cell_formula_units_Z   4
loop_
 _symmetry_equiv_pos_site_id
 _symmetry_equiv_pos_as_xyz
  1  'x, y, z'
loop_
 _atom_site_type_symbol
 _atom_site_label
 _atom_site_symmetry_multiplicity
 _atom_site_fract_x
 _atom_site_fract_y
 _atom_site_fract_z
 _atom_site_occupancy
  K  K0  1  0.123811  0.750000  0.416050  1
  K  K1  1  0.135940  0.513989  0.097923  1
  K  K2  1  0.135940  0.986011  0.097923  1
  K  K3  1  0.364060  0.486011  0.597923  1
  K  K4  1  0.364060  0.013989  0.597923  1
  K  K5  1  0.376189  0.250000  0.916050  1
  K  K6  1  0.623811  0.750000  0.083950  1
  K  K7  1  0.635940  0.986011  0.402077  1
  K  K8  1  0.635940  0.513989  0.402077  1
  K  K9  1  0.864060  0.013989  0.902077  1
  K  K10  1  0.864060  0.486011  0.902077  1
  K  K11  1  0.876189  0.250000  0.583950  1
  Er  Er12  1  0.045238  0.250000  0.091935  1
  Er  Er13  1  0.454762  0.750000  0.591935  1
  Er  Er14  1  0.545238  0.250000  0.408065  1
  Er  Er15  1  0.954762  0.750000  0.908065  1
  Si  Si16  1  0.103101  0.105223  0.591231  1
  Si  Si17  1  0.103101  0.394777  0.591231  1
  Si  Si18  1  0.242232  0.750000  0.914882  1
  Si  Si19  1  0.257768  0.250000  0.414882  1
  Si  Si20  1  0.396899  0.605223  0.091231  1
  Si  Si21  1  0.396899  0.894777  0.091231  1
  Si  Si22  1  0.603101  0.105223  0.908769  1
  Si  Si23  1  0.603101  0.394777  0.908769  1
  Si  Si24  1  0.742232  0.750000  0.585118  1
  Si  Si25  1  0.757768  0.250000  0.085118  1
  Si  Si26  1  0.896899  0.894777  0.408769  1
  Si  Si27  1  0.896899  0.605223  0.408769  1
  H  H28  1  0.077655  0.559134  0.616077  1
  H  H29  1  0.077655  0.940866  0.616077  1
  H  H30  1  0.422345  0.059134  0.116077  1
  H  H31  1  0.422345  0.440866  0.116077  1
  H  H32  1  0.577655  0.940866  0.883923  1
  H  H33  1  0.577655  0.559134  0.883923  1
  H  H34  1  0.922345  0.059134  0.383923  1
  H  H35  1  0.922345  0.440866  0.383923  1
  O  O36  1  0.033654  0.129709  0.370544  1
  O  O37  1  0.033654  0.370291  0.370544  1
  O  O38  1  0.049173  0.132640  0.828151  1
  O  O39  1  0.049173  0.367360  0.828151  1
  O  O40  1  0.120448  0.750000  0.923032  1
  O  O41  1  0.136911  0.513924  0.593707  1
  O  O42  1  0.136911  0.986076  0.593707  1
  O  O43  1  0.208655  0.250000  0.166927  1
  O  O44  1  0.218229  0.154066  0.566645  1
  O  O45  1  0.218229  0.345934  0.566645  1
  O  O46  1  0.281771  0.654066  0.066645  1
  O  O47  1  0.281771  0.845934  0.066645  1
  O  O48  1  0.291345  0.750000  0.666927  1
  O  O49  1  0.363089  0.486076  0.093707  1
  O  O50  1  0.363089  0.013924  0.093707  1
  O  O51  1  0.379552  0.250000  0.423032  1
  O  O52  1  0.450827  0.632640  0.328151  1
  O  O53  1  0.450827  0.867360  0.328151  1
  O  O54  1  0.466346  0.629709  0.870544  1
  O  O55  1  0.466346  0.870291  0.870544  1
  O  O56  1  0.533654  0.129709  0.129456  1
  O  O57  1  0.533654  0.370291  0.129456  1
  O  O58  1  0.549173  0.132640  0.671849  1
  O  O59  1  0.549173  0.367360  0.671849  1
  O  O60  1  0.620448  0.750000  0.576968  1
  O  O61  1  0.636911  0.986076  0.906293  1
  O  O62  1  0.636911  0.513924  0.906293  1
  O  O63  1  0.708655  0.250000  0.333073  1
  O  O64  1  0.718229  0.154066  0.933355  1
  O  O65  1  0.718229  0.345934  0.933355  1
  O  O66  1  0.781771  0.654066  0.433355  1
  O  O67  1  0.781771  0.845934  0.433355  1
  O  O68  1  0.791345  0.750000  0.833073  1
  O  O69  1  0.863089  0.013924  0.406293  1
  O  O70  1  0.863089  0.486076  0.406293  1
  O  O71  1  0.879552  0.250000  0.076968  1
  O  O72  1  0.950827  0.632640  0.171849  1
  O  O73  1  0.950827  0.867360  0.171849  1
  O  O74  1  0.966346  0.629709  0.629456  1
  O  O75  1  0.966346  0.870291  0.629456  1
