# generated using pymatgen
data_LiMn7(OF3)3
_symmetry_space_group_name_H-M   'P 1'
_cell_length_a   6.37121811
_cell_length_b   6.45250589
_cell_length_c   6.41921688
_cell_angle_alpha   90.16744838
_cell_angle_beta   89.93765365
_cell_angle_gamma   90.39060460
_symmetry_Int_Tables_number   1
_chemical_formula_structural   LiMn7(OF3)3
_chemical_formula_sum   'Li1 Mn7 O3 F9'
_cell_volume   263.88866525
_cell_formula_units_Z   1
loop_
 _symmetry_equiv_pos_site_id
 _symmetry_equiv_pos_as_xyz
  1  'x, y, z'
loop_
 _atom_site_type_symbol
 _atom_site_label
 _atom_site_symmetry_multiplicity
 _atom_site_fract_x
 _atom_site_fract_y
 _atom_site_fract_z
 _atom_site_occupancy
  Li  Li0  1  0.509309  0.489543  0.493323  1
  Mn  Mn1  1  0.062437  0.752964  0.564257  1
  Mn  Mn2  1  0.432392  0.939487  0.261083  1
  Mn  Mn3  1  0.241880  0.456696  0.928183  1
  Mn  Mn4  1  0.988419  0.972883  0.027203  1
  Mn  Mn5  1  0.745828  0.586556  0.038346  1
  Mn  Mn6  1  0.567108  0.051701  0.767400  1
  Mn  Mn7  1  0.957551  0.243443  0.427651  1
  O  O8  1  0.114628  0.968194  0.330196  1
  O  O9  1  0.029895  0.684897  0.878560  1
  O  O10  1  0.661166  0.903014  0.042070  1
  F  F11  1  0.440893  0.798658  0.581371  1
  F  F12  1  0.202540  0.424391  0.568496  1
  F  F13  1  0.424970  0.558787  0.192498  1
  F  F14  1  0.569833  0.410985  0.809688  1
  F  F15  1  0.289088  0.127391  0.937580  1
  F  F16  1  0.818883  0.562008  0.409293  1
  F  F17  1  0.595354  0.182101  0.442720  1
  F  F18  1  0.946935  0.316703  0.097094  1
  F  F19  1  0.900888  0.069598  0.702988  1
