# generated using pymatgen
data_Sb(PO3)4
_symmetry_space_group_name_H-M   'P 1'
_cell_length_a   9.69471803
_cell_length_b   13.53346296
_cell_length_c   7.28038881
_cell_angle_alpha   90.00000000
_cell_angle_beta   87.82397650
_cell_angle_gamma   90.00000000
_symmetry_Int_Tables_number   1
_chemical_formula_structural   Sb(PO3)4
_chemical_formula_sum   'Sb4 P16 O48'
_cell_volume   954.52082662
_cell_formula_units_Z   4
loop_
 _symmetry_equiv_pos_site_id
 _symmetry_equiv_pos_as_xyz
  1  'x, y, z'
loop_
 _atom_site_type_symbol
 _atom_site_label
 _atom_site_symmetry_multiplicity
 _atom_site_fract_x
 _atom_site_fract_y
 _atom_site_fract_z
 _atom_site_occupancy
  Sb  Sb0  1  0.075877  0.787338  0.470869  1
  Sb  Sb1  1  0.424123  0.287338  0.029131  1
  Sb  Sb2  1  0.575877  0.712662  0.970869  1
  Sb  Sb3  1  0.924123  0.212662  0.529131  1
  P  P4  1  0.198323  0.588786  0.311569  1
  P  P5  1  0.197212  0.374689  0.378572  1
  P  P6  1  0.218372  0.911823  0.714783  1
  P  P7  1  0.238802  0.123099  0.597763  1
  P  P8  1  0.261198  0.623099  0.902237  1
  P  P9  1  0.302788  0.874689  0.121428  1
  P  P10  1  0.301677  0.088786  0.188431  1
  P  P11  1  0.281628  0.411823  0.785217  1
  P  P12  1  0.718372  0.588177  0.214783  1
  P  P13  1  0.698323  0.911214  0.811569  1
  P  P14  1  0.697212  0.125311  0.878572  1
  P  P15  1  0.738802  0.376901  0.097763  1
  P  P16  1  0.761198  0.876901  0.402237  1
  P  P17  1  0.781628  0.088177  0.285217  1
  P  P18  1  0.802788  0.625311  0.621428  1
  P  P19  1  0.801677  0.411214  0.688431  1
  O  O20  1  0.070794  0.658202  0.300006  1
  O  O21  1  0.062031  0.904337  0.686383  1
  O  O22  1  0.089698  0.294927  0.363866  1
  O  O23  1  0.086456  0.149069  0.647800  1
  O  O24  1  0.128130  0.478846  0.332205  1
  O  O25  1  0.169661  0.861264  0.235105  1
  O  O26  1  0.154193  0.696329  0.866439  1
  O  O27  1  0.201841  0.111607  0.048429  1
  O  O28  1  0.238188  0.384993  0.585804  1
  O  O29  1  0.207973  0.346844  0.927819  1
  O  O30  1  0.234314  0.081097  0.391748  1
  O  O31  1  0.229598  0.522812  0.792767  1
  O  O32  1  0.265686  0.581097  0.108252  1
  O  O33  1  0.270402  0.022812  0.707233  1
  O  O34  1  0.298159  0.611607  0.451571  1
  O  O35  1  0.292027  0.846844  0.572181  1
  O  O36  1  0.261812  0.884993  0.914196  1
  O  O37  1  0.330339  0.361264  0.264895  1
  O  O38  1  0.371870  0.978846  0.167795  1
  O  O39  1  0.345807  0.196329  0.633561  1
  O  O40  1  0.410302  0.794927  0.136134  1
  O  O41  1  0.429206  0.158202  0.199994  1
  O  O42  1  0.413544  0.649069  0.852200  1
  O  O43  1  0.437969  0.404337  0.813617  1
  O  O44  1  0.562031  0.595663  0.186383  1
  O  O45  1  0.586456  0.350931  0.147800  1
  O  O46  1  0.570794  0.841798  0.800006  1
  O  O47  1  0.589698  0.205073  0.863866  1
  O  O48  1  0.654193  0.803671  0.366439  1
  O  O49  1  0.628130  0.021154  0.832205  1
  O  O50  1  0.669661  0.638736  0.735105  1
  O  O51  1  0.738188  0.115007  0.085805  1
  O  O52  1  0.707973  0.153156  0.427819  1
  O  O53  1  0.701841  0.388393  0.548429  1
  O  O54  1  0.729598  0.977188  0.292767  1
  O  O55  1  0.734314  0.418903  0.891748  1
  O  O56  1  0.770402  0.477188  0.207233  1
  O  O57  1  0.765686  0.918903  0.608252  1
  O  O58  1  0.792027  0.653156  0.072181  1
  O  O59  1  0.761812  0.615007  0.414195  1
  O  O60  1  0.798159  0.888393  0.951571  1
  O  O61  1  0.845807  0.303671  0.133561  1
  O  O62  1  0.830339  0.138736  0.764895  1
  O  O63  1  0.871870  0.521154  0.667795  1
  O  O64  1  0.913544  0.850931  0.352200  1
  O  O65  1  0.910302  0.705073  0.636134  1
  O  O66  1  0.937969  0.095663  0.313617  1
  O  O67  1  0.929206  0.341798  0.699994  1
