# generated using pymatgen
data_LiFe2(BO3)2
_symmetry_space_group_name_H-M   'P 1'
_cell_length_a   5.24803281
_cell_length_b   9.11442729
_cell_length_c   11.33347558
_cell_angle_alpha   67.34378400
_cell_angle_beta   76.74666646
_cell_angle_gamma   89.57607159
_symmetry_Int_Tables_number   1
_chemical_formula_structural   LiFe2(BO3)2
_chemical_formula_sum   'Li4 Fe8 B8 O24'
_cell_volume   484.97472960
_cell_formula_units_Z   4
loop_
 _symmetry_equiv_pos_site_id
 _symmetry_equiv_pos_as_xyz
  1  'x, y, z'
loop_
 _atom_site_type_symbol
 _atom_site_label
 _atom_site_symmetry_multiplicity
 _atom_site_fract_x
 _atom_site_fract_y
 _atom_site_fract_z
 _atom_site_occupancy
  Li  Li0  1  0.969861  0.964721  0.410759  1
  Li  Li1  1  0.517433  0.492406  0.660655  1
  Li  Li2  1  0.473705  0.472214  0.395380  1
  Li  Li3  1  0.239294  0.252189  0.154902  1
  Fe  Fe4  1  0.964972  0.645844  0.381110  1
  Fe  Fe5  1  0.732465  0.065067  0.879195  1
  Fe  Fe6  1  0.510414  0.851360  0.634838  1
  Fe  Fe7  1  0.768706  0.440749  0.124504  1
  Fe  Fe8  1  0.236149  0.568419  0.878832  1
  Fe  Fe9  1  0.470988  0.152727  0.381705  1
  Fe  Fe10  1  0.031640  0.334581  0.632702  1
  Fe  Fe11  1  0.262047  0.926783  0.130932  1
  B  B12  1  0.982698  0.317613  0.369178  1
  B  B13  1  0.734686  0.392818  0.878798  1
  B  B14  1  0.531506  0.186705  0.627250  1
  B  B15  1  0.761874  0.107583  0.127737  1
  B  B16  1  0.475236  0.812913  0.379890  1
  B  B17  1  0.230579  0.899903  0.878602  1
  B  B18  1  0.015257  0.683821  0.623522  1
  B  B19  1  0.268112  0.596365  0.135238  1
  O  O20  1  0.976502  0.915669  0.877822  1
  O  O21  1  0.879293  0.276612  0.847636  1
  O  O22  1  0.848782  0.480184  0.935039  1
  O  O23  1  0.877471  0.817063  0.611555  1
  O  O24  1  0.919745  0.564726  0.593486  1
  O  O25  1  0.740517  0.155529  0.685873  1
  O  O26  1  0.743818  0.348357  0.331434  1
  O  O27  1  0.495125  0.419728  0.853236  1
  O  O28  1  0.376260  0.800146  0.826447  1
  O  O29  1  0.577919  0.921189  0.421608  1
  O  O30  1  0.588552  0.676825  0.386652  1
  O  O31  1  0.358260  0.981716  0.934743  1
  O  O32  1  0.629804  0.014150  0.084418  1
  O  O33  1  0.419499  0.328717  0.603009  1
  O  O34  1  0.444468  0.075342  0.584891  1
  O  O35  1  0.620130  0.220948  0.164260  1
  O  O36  1  0.517851  0.579388  0.147704  1
  O  O37  1  0.259117  0.673665  0.657229  1
  O  O38  1  0.242984  0.847538  0.332718  1
  O  O39  1  0.088983  0.417640  0.414467  1
  O  O40  1  0.107260  0.188037  0.356943  1
  O  O41  1  0.147477  0.491304  0.096211  1
  O  O42  1  0.127144  0.712892  0.166131  1
  O  O43  1  0.016623  0.086555  0.139244  1
