# generated using pymatgen
data_LiMnF3
_symmetry_space_group_name_H-M   'P 1'
_cell_length_a   6.41699155
_cell_length_b   6.41688061
_cell_length_c   3.24247148
_cell_angle_alpha   89.93023236
_cell_angle_beta   89.91523055
_cell_angle_gamma   72.46124351
_symmetry_Int_Tables_number   1
_chemical_formula_structural   LiMnF3
_chemical_formula_sum   'Li2 Mn2 F6'
_cell_volume   127.30859968
_cell_formula_units_Z   2
loop_
 _symmetry_equiv_pos_site_id
 _symmetry_equiv_pos_as_xyz
  1  'x, y, z'
loop_
 _atom_site_type_symbol
 _atom_site_label
 _atom_site_symmetry_multiplicity
 _atom_site_fract_x
 _atom_site_fract_y
 _atom_site_fract_z
 _atom_site_occupancy
  Li  Li0  1  0.499826  0.500519  0.500170  1
  Li  Li1  1  0.993137  0.991532  0.500602  1
  Mn  Mn2  1  0.000697  0.497751  0.001080  1
  Mn  Mn3  1  0.496944  0.000721  0.001075  1
  F  F4  1  0.192239  0.551929  0.500939  1
  F  F5  1  0.450499  0.806858  0.501641  1
  F  F6  1  0.861117  0.862486  0.007007  1
  F  F7  1  0.137357  0.138638  0.009067  1
  F  F8  1  0.805452  0.453803  0.501705  1
  F  F9  1  0.548359  0.193831  0.501016  1
