# generated using pymatgen
data_In2WO6
_symmetry_space_group_name_H-M   'P 1'
_cell_length_a   9.07141881
_cell_length_b   20.89367076
_cell_length_c   4.90405946
_cell_angle_alpha   90.00035768
_cell_angle_beta   89.99974563
_cell_angle_gamma   90.00034605
_symmetry_Int_Tables_number   1
_chemical_formula_structural   In2WO6
_chemical_formula_sum   'In16 W8 O48'
_cell_volume   929.49207661
_cell_formula_units_Z   8
loop_
 _symmetry_equiv_pos_site_id
 _symmetry_equiv_pos_as_xyz
  1  'x, y, z'
loop_
 _atom_site_type_symbol
 _atom_site_label
 _atom_site_symmetry_multiplicity
 _atom_site_fract_x
 _atom_site_fract_y
 _atom_site_fract_z
 _atom_site_occupancy
  In  In0  1  0.131328  0.438401  0.483829  1
  In  In1  1  0.139291  0.671246  0.484749  1
  In  In2  1  0.205829  0.933277  0.513745  1
  In  In3  1  0.193363  0.199806  0.500303  1
  In  In4  1  0.306651  0.800188  0.000309  1
  In  In5  1  0.294164  0.066714  0.013767  1
  In  In6  1  0.360714  0.328757  0.984749  1
  In  In7  1  0.368662  0.561607  0.983833  1
  In  In8  1  0.631329  0.061604  0.516172  1
  In  In9  1  0.639282  0.828753  0.515247  1
  In  In10  1  0.705826  0.566720  0.486248  1
  In  In11  1  0.693368  0.300192  0.499701  1
  In  In12  1  0.806656  0.699809  0.999689  1
  In  In13  1  0.794175  0.433271  0.986243  1
  In  In14  1  0.860709  0.171246  0.015252  1
  In  In15  1  0.868667  0.938397  0.016165  1
  W  W16  1  0.004159  0.560530  0.978253  1
  W  W17  1  0.008897  0.311314  0.985836  1
  W  W18  1  0.491069  0.688686  0.485845  1
  W  W19  1  0.495845  0.439486  0.478250  1
  W  W20  1  0.504145  0.939474  0.021745  1
  W  W21  1  0.508928  0.188682  0.014155  1
  W  W22  1  0.991108  0.811307  0.514177  1
  W  W23  1  0.995843  0.060519  0.521760  1
  O  O24  1  0.019284  0.234896  0.216808  1
  O  O25  1  0.021801  0.138485  0.736029  1
  O  O26  1  0.016984  0.887581  0.742660  1
  O  O27  1  0.019963  0.985066  0.290973  1
  O  O28  1  0.144935  0.107021  0.297318  1
  O  O29  1  0.147572  0.018460  0.746067  1
  O  O30  1  0.150700  0.847134  0.287091  1
  O  O31  1  0.133516  0.763929  0.732657  1
  O  O32  1  0.158161  0.355360  0.206723  1
  O  O33  1  0.164352  0.594241  0.196966  1
  O  O34  1  0.158269  0.525424  0.753235  1
  O  O35  1  0.174717  0.282096  0.763209  1
  O  O36  1  0.325296  0.717900  0.263215  1
  O  O37  1  0.341736  0.474569  0.253250  1
  O  O38  1  0.335641  0.405753  0.696979  1
  O  O39  1  0.341843  0.644645  0.706722  1
  O  O40  1  0.366460  0.236077  0.232682  1
  O  O41  1  0.349298  0.152864  0.787072  1
  O  O42  1  0.352426  0.981545  0.246076  1
  O  O43  1  0.355059  0.892986  0.797337  1
  O  O44  1  0.480035  0.014938  0.790973  1
  O  O45  1  0.483014  0.112426  0.242663  1
  O  O46  1  0.478204  0.861520  0.236018  1
  O  O47  1  0.480719  0.765107  0.716796  1
  O  O48  1  0.519289  0.265107  0.783198  1
  O  O49  1  0.521799  0.361513  0.263979  1
  O  O50  1  0.516987  0.612423  0.257328  1
  O  O51  1  0.519962  0.514932  0.709012  1
  O  O52  1  0.644935  0.392983  0.702672  1
  O  O53  1  0.647570  0.481539  0.253941  1
  O  O54  1  0.650710  0.652867  0.712915  1
  O  O55  1  0.633534  0.736077  0.267315  1
  O  O56  1  0.658161  0.144647  0.793263  1
  O  O57  1  0.664359  0.905756  0.803015  1
  O  O58  1  0.658268  0.974575  0.246765  1
  O  O59  1  0.674710  0.217900  0.236789  1
  O  O60  1  0.825286  0.782100  0.736799  1
  O  O61  1  0.841731  0.025429  0.746753  1
  O  O62  1  0.835647  0.094243  0.303019  1
  O  O63  1  0.841837  0.855357  0.293259  1
  O  O64  1  0.866478  0.263925  0.767334  1
  O  O65  1  0.849299  0.347132  0.212909  1
  O  O66  1  0.852421  0.518453  0.753922  1
  O  O67  1  0.855061  0.607017  0.202682  1
  O  O68  1  0.980029  0.485062  0.209043  1
  O  O69  1  0.983020  0.387574  0.757345  1
  O  O70  1  0.978203  0.638483  0.763987  1
  O  O71  1  0.980712  0.734896  0.283213  1
