# generated using pymatgen
data_LiFeSiO4
_symmetry_space_group_name_H-M   'P 1'
_cell_length_a   10.57414899
_cell_length_b   12.96302694
_cell_length_c   5.22291430
_cell_angle_alpha   90.00000000
_cell_angle_beta   90.00000000
_cell_angle_gamma   90.00000000
_symmetry_Int_Tables_number   1
_chemical_formula_structural   LiFeSiO4
_chemical_formula_sum   'Li8 Fe8 Si8 O32'
_cell_volume   715.92041811
_cell_formula_units_Z   8
loop_
 _symmetry_equiv_pos_site_id
 _symmetry_equiv_pos_as_xyz
  1  'x, y, z'
loop_
 _atom_site_type_symbol
 _atom_site_label
 _atom_site_symmetry_multiplicity
 _atom_site_fract_x
 _atom_site_fract_y
 _atom_site_fract_z
 _atom_site_occupancy
  Li  Li0  1  0.049591  0.755646  0.076972  1
  Li  Li1  1  0.209308  0.000310  0.570745  1
  Li  Li2  1  0.290692  0.500310  0.570745  1
  Li  Li3  1  0.450409  0.255646  0.076972  1
  Li  Li4  1  0.549591  0.755646  0.923028  1
  Li  Li5  1  0.709308  0.000310  0.429255  1
  Li  Li6  1  0.790692  0.500310  0.429255  1
  Li  Li7  1  0.950409  0.255646  0.923028  1
  Fe  Fe8  1  0.042517  0.373895  0.415939  1
  Fe  Fe9  1  0.212430  0.127200  0.057383  1
  Fe  Fe10  1  0.287570  0.627200  0.057383  1
  Fe  Fe11  1  0.457483  0.873895  0.415939  1
  Fe  Fe12  1  0.542517  0.373895  0.584061  1
  Fe  Fe13  1  0.712430  0.127200  0.942617  1
  Fe  Fe14  1  0.787570  0.627200  0.942617  1
  Fe  Fe15  1  0.957483  0.873895  0.584061  1
  Si  Si16  1  0.035270  0.504177  0.903466  1
  Si  Si17  1  0.206406  0.749331  0.560657  1
  Si  Si18  1  0.293594  0.249331  0.560657  1
  Si  Si19  1  0.464730  0.004177  0.903466  1
  Si  Si20  1  0.535270  0.504177  0.096534  1
  Si  Si21  1  0.706406  0.749331  0.439343  1
  Si  Si22  1  0.793594  0.249331  0.439343  1
  Si  Si23  1  0.964730  0.004177  0.096534  1
  O  O24  1  0.998818  0.898311  0.932008  1
  O  O25  1  0.983548  0.487382  0.608739  1
  O  O26  1  0.059789  0.764530  0.462304  1
  O  O27  1  0.037972  0.107110  0.980210  1
  O  O28  1  0.215908  0.355491  0.484186  1
  O  O29  1  0.190417  0.519323  0.912242  1
  O  O30  1  0.287845  0.236833  0.874861  1
  O  O31  1  0.236455  0.146061  0.415828  1
  O  O32  1  0.263545  0.646061  0.415828  1
  O  O33  1  0.212155  0.736833  0.874861  1
  O  O34  1  0.309583  0.019323  0.912242  1
  O  O35  1  0.284092  0.855491  0.484186  1
  O  O36  1  0.462028  0.607110  0.980210  1
  O  O37  1  0.440211  0.264530  0.462304  1
  O  O38  1  0.516452  0.987382  0.608739  1
  O  O39  1  0.501182  0.398311  0.932008  1
  O  O40  1  0.498818  0.898311  0.067992  1
  O  O41  1  0.483548  0.487382  0.391261  1
  O  O42  1  0.559789  0.764530  0.537696  1
  O  O43  1  0.537972  0.107110  0.019790  1
  O  O44  1  0.715908  0.355491  0.515814  1
  O  O45  1  0.690417  0.519323  0.087758  1
  O  O46  1  0.787845  0.236833  0.125139  1
  O  O47  1  0.736455  0.146061  0.584172  1
  O  O48  1  0.763545  0.646061  0.584172  1
  O  O49  1  0.712155  0.736833  0.125139  1
  O  O50  1  0.809583  0.019323  0.087758  1
  O  O51  1  0.784092  0.855491  0.515814  1
  O  O52  1  0.962028  0.607110  0.019790  1
  O  O53  1  0.940211  0.264530  0.537696  1
  O  O54  1  0.016452  0.987382  0.391261  1
  O  O55  1  0.001182  0.398311  0.067992  1
