# generated using pymatgen
data_Sb2(SO4)3
_symmetry_space_group_name_H-M   'P 1'
_cell_length_a   9.23031391
_cell_length_b   12.77332140
_cell_length_c   9.21486637
_cell_angle_alpha   90.00000000
_cell_angle_beta   90.00000000
_cell_angle_gamma   90.01983907
_symmetry_Int_Tables_number   1
_chemical_formula_structural   Sb2(SO4)3
_chemical_formula_sum   'Sb8 S12 O48'
_cell_volume   1086.44895499
_cell_formula_units_Z   4
loop_
 _symmetry_equiv_pos_site_id
 _symmetry_equiv_pos_as_xyz
  1  'x, y, z'
loop_
 _atom_site_type_symbol
 _atom_site_label
 _atom_site_symmetry_multiplicity
 _atom_site_fract_x
 _atom_site_fract_y
 _atom_site_fract_z
 _atom_site_occupancy
  Sb  Sb0  1  0.249096  0.618609  0.536458  1
  Sb  Sb1  1  0.250904  0.881391  0.036458  1
  Sb  Sb2  1  0.251689  0.116436  0.464371  1
  Sb  Sb3  1  0.248311  0.383564  0.964371  1
  Sb  Sb4  1  0.751689  0.616436  0.035629  1
  Sb  Sb5  1  0.748311  0.883564  0.535629  1
  Sb  Sb6  1  0.749097  0.118609  0.963542  1
  Sb  Sb7  1  0.750903  0.381391  0.463542  1
  S  S8  1  0.037836  0.493723  0.245534  1
  S  S9  1  0.100145  0.846152  0.382819  1
  S  S10  1  0.101637  0.153786  0.106728  1
  S  S11  1  0.399855  0.653848  0.882819  1
  S  S12  1  0.398363  0.346214  0.606728  1
  S  S13  1  0.462164  0.006277  0.745534  1
  S  S14  1  0.537836  0.993723  0.254466  1
  S  S15  1  0.601637  0.653786  0.393272  1
  S  S16  1  0.600145  0.346152  0.117181  1
  S  S17  1  0.898363  0.846214  0.893272  1
  S  S18  1  0.899855  0.153848  0.617181  1
  S  S19  1  0.962164  0.506277  0.754466  1
  O  O20  1  0.035462  0.441074  0.866545  1
  O  O21  1  0.059715  0.850319  0.883075  1
  O  O22  1  0.061726  0.588617  0.698594  1
  O  O23  1  0.057329  0.174290  0.595730  1
  O  O24  1  0.087030  0.563349  0.364584  1
  O  O25  1  0.138601  0.810766  0.233130  1
  O  O26  1  0.132720  0.958897  0.401488  1
  O  O27  1  0.143036  0.230535  0.989207  1
  O  O28  1  0.161094  0.189997  0.247373  1
  O  O29  1  0.167271  0.440900  0.179994  1
  O  O30  1  0.160072  0.050067  0.065098  1
  O  O31  1  0.185913  0.785307  0.492561  1
  O  O32  1  0.314087  0.714693  0.992561  1
  O  O33  1  0.339928  0.449933  0.565098  1
  O  O34  1  0.332729  0.059100  0.679994  1
  O  O35  1  0.338906  0.310003  0.747373  1
  O  O36  1  0.367280  0.541103  0.901488  1
  O  O37  1  0.356964  0.269465  0.489207  1
  O  O38  1  0.361399  0.689234  0.733130  1
  O  O39  1  0.412970  0.936651  0.864584  1
  O  O40  1  0.438274  0.911383  0.198594  1
  O  O41  1  0.440285  0.649681  0.383075  1
  O  O42  1  0.442671  0.325710  0.095730  1
  O  O43  1  0.464538  0.058926  0.366545  1
  O  O44  1  0.535462  0.941074  0.633455  1
  O  O45  1  0.557329  0.674290  0.904270  1
  O  O46  1  0.559715  0.350319  0.616925  1
  O  O47  1  0.561726  0.088617  0.801406  1
  O  O48  1  0.587030  0.063349  0.135416  1
  O  O49  1  0.638601  0.310766  0.266870  1
  O  O50  1  0.643036  0.730535  0.510793  1
  O  O51  1  0.632720  0.458897  0.098512  1
  O  O52  1  0.661094  0.689997  0.252627  1
  O  O53  1  0.667271  0.940900  0.320006  1
  O  O54  1  0.660072  0.550067  0.434902  1
  O  O55  1  0.685913  0.285307  0.007439  1
  O  O56  1  0.814087  0.214693  0.507439  1
  O  O57  1  0.839928  0.949933  0.934902  1
  O  O58  1  0.832729  0.559100  0.820006  1
  O  O59  1  0.838906  0.810003  0.752627  1
  O  O60  1  0.856964  0.769465  0.010793  1
  O  O61  1  0.867280  0.041103  0.598512  1
  O  O62  1  0.861399  0.189234  0.766870  1
  O  O63  1  0.912970  0.436651  0.635416  1
  O  O64  1  0.942671  0.825710  0.404270  1
  O  O65  1  0.938274  0.411383  0.301406  1
  O  O66  1  0.940285  0.149681  0.116925  1
  O  O67  1  0.964538  0.558926  0.133455  1
