# generated using pymatgen
data_MgH20C4Br2(N4O3)2
_symmetry_space_group_name_H-M   'P 1'
_cell_length_a   10.79176646
_cell_length_b   11.84871552
_cell_length_c   9.89966356
_cell_angle_alpha   90.00000000
_cell_angle_beta   110.31908887
_cell_angle_gamma   90.00000000
_symmetry_Int_Tables_number   1
_chemical_formula_structural   MgH20C4Br2(N4O3)2
_chemical_formula_sum   'Mg2 H40 C8 Br4 N16 O12'
_cell_volume   1187.08579463
_cell_formula_units_Z   2
loop_
 _symmetry_equiv_pos_site_id
 _symmetry_equiv_pos_as_xyz
  1  'x, y, z'
loop_
 _atom_site_type_symbol
 _atom_site_label
 _atom_site_symmetry_multiplicity
 _atom_site_fract_x
 _atom_site_fract_y
 _atom_site_fract_z
 _atom_site_occupancy
  Mg  Mg0  1  0.500000  0.500000  0.500000  1
  Mg  Mg1  1  0.500000  0.000000  0.000000  1
  H  H2  1  0.065674  0.290240  0.890057  1
  H  H3  1  0.934326  0.790240  0.609943  1
  H  H4  1  0.934326  0.709760  0.109943  1
  H  H5  1  0.065674  0.209760  0.390057  1
  H  H6  1  0.576719  0.214730  0.072384  1
  H  H7  1  0.423281  0.714730  0.427616  1
  H  H8  1  0.423281  0.785270  0.927616  1
  H  H9  1  0.576719  0.285270  0.572384  1
  H  H10  1  0.924063  0.316499  0.083018  1
  H  H11  1  0.075937  0.816499  0.416982  1
  H  H12  1  0.075937  0.683501  0.916982  1
  H  H13  1  0.924063  0.183501  0.583018  1
  H  H14  1  0.077104  0.432897  0.440385  1
  H  H15  1  0.922896  0.932897  0.059615  1
  H  H16  1  0.922896  0.567103  0.559615  1
  H  H17  1  0.077104  0.067103  0.940385  1
  H  H18  1  0.000463  0.585634  0.134526  1
  H  H19  1  -0.000463  0.085634  0.365474  1
  H  H20  1  -0.000463  0.414366  0.865474  1
  H  H21  1  0.000463  0.914366  0.634526  1
  H  H22  1  0.979754  0.606627  0.432571  1
  H  H23  1  0.020246  0.106627  0.067429  1
  H  H24  1  0.020246  0.393373  0.567429  1
  H  H25  1  0.979754  0.893373  0.932571  1
  H  H26  1  0.452810  0.126947  0.558520  1
  H  H27  1  0.547190  0.626947  0.941480  1
  H  H28  1  0.547190  0.873053  0.441480  1
  H  H29  1  0.452810  0.373053  0.058520  1
  H  H30  1  0.503956  0.403129  0.119567  1
  H  H31  1  0.496044  0.903129  0.380433  1
  H  H32  1  0.496044  0.596871  0.880433  1
  H  H33  1  0.503956  0.096871  0.619567  1
  H  H34  1  0.733760  0.240763  0.521417  1
  H  H35  1  0.266240  0.740763  0.978583  1
  H  H36  1  0.266240  0.759237  0.478583  1
  H  H37  1  0.733760  0.259237  0.021417  1
  H  H38  1  0.640549  0.353473  0.714911  1
  H  H39  1  0.359451  0.853473  0.785089  1
  H  H40  1  0.359451  0.646527  0.285089  1
  H  H41  1  0.640549  0.146527  0.214911  1
  C  C42  1  0.290915  0.388400  0.268492  1
  C  C43  1  0.709085  0.888400  0.231508  1
  C  C44  1  0.709085  0.611600  0.731508  1
  C  C45  1  0.290915  0.111600  0.768492  1
  C  C46  1  0.709431  0.526924  0.322789  1
  C  C47  1  0.290569  0.026924  0.177211  1
  C  C48  1  0.290569  0.473076  0.677211  1
  C  C49  1  0.709431  0.973076  0.822789  1
  Br  Br50  1  0.160507  0.787593  0.562573  1
  Br  Br51  1  0.839493  0.287593  0.937427  1
  Br  Br52  1  0.839493  0.212407  0.437427  1
  Br  Br53  1  0.160507  0.712407  0.062573  1
  N  N54  1  0.193747  0.409713  0.144943  1
  N  N55  1  0.806253  0.909713  0.355057  1
  N  N56  1  0.806253  0.590287  0.855057  1
  N  N57  1  0.193747  0.090287  0.644943  1
  N  N58  1  0.177898  0.352029  0.279258  1
  N  N59  1  0.822102  0.852029  0.220742  1
  N  N60  1  0.822102  0.647971  0.720742  1
  N  N61  1  0.177898  0.147971  0.779258  1
  N  N62  1  0.946022  0.538796  0.473248  1
  N  N63  1  0.053978  0.038796  0.026752  1
  N  N64  1  0.053978  0.461204  0.526752  1
  N  N65  1  0.946022  0.961204  0.973248  1
  N  N66  1  0.021329  0.831431  0.664652  1
  N  N67  1  0.978671  0.331431  0.835348  1
  N  N68  1  0.978671  0.168569  0.335348  1
  N  N69  1  0.021329  0.668569  0.164652  1
  O  O70  1  0.413187  0.399808  0.335270  1
  O  O71  1  0.586813  0.899808  0.164730  1
  O  O72  1  0.586813  0.600192  0.664730  1
  O  O73  1  0.413187  0.100192  0.835270  1
  O  O74  1  0.665042  0.516730  0.414115  1
  O  O75  1  0.334958  0.016730  0.085885  1
  O  O76  1  0.334958  0.483270  0.585885  1
  O  O77  1  0.665042  0.983270  0.914115  1
  O  O78  1  0.569867  0.355796  0.621204  1
  O  O79  1  0.430133  0.855796  0.878796  1
  O  O80  1  0.430133  0.644204  0.378796  1
  O  O81  1  0.569867  0.144204  0.121204  1
