# generated using pymatgen
data_K2CoP4(HO2)8
_symmetry_space_group_name_H-M   'P 1'
_cell_length_a   9.83883836
_cell_length_b   11.12290762
_cell_length_c   13.45935415
_cell_angle_alpha   90.00000000
_cell_angle_beta   90.00000000
_cell_angle_gamma   90.00000000
_symmetry_Int_Tables_number   1
_chemical_formula_structural   K2CoP4(HO2)8
_chemical_formula_sum   'K8 Co4 P16 H32 O64'
_cell_volume   1472.94447808
_cell_formula_units_Z   4
loop_
 _symmetry_equiv_pos_site_id
 _symmetry_equiv_pos_as_xyz
  1  'x, y, z'
loop_
 _atom_site_type_symbol
 _atom_site_label
 _atom_site_symmetry_multiplicity
 _atom_site_fract_x
 _atom_site_fract_y
 _atom_site_fract_z
 _atom_site_occupancy
  K  K0  1  0.052620  0.250000  0.603489  1
  K  K1  1  0.247820  0.250000  0.124341  1
  K  K2  1  0.252180  0.750000  0.624341  1
  K  K3  1  0.447380  0.750000  0.103489  1
  K  K4  1  0.552620  0.250000  0.896511  1
  K  K5  1  0.747820  0.250000  0.375659  1
  K  K6  1  0.752180  0.750000  0.875659  1
  K  K7  1  0.947380  0.750000  0.396511  1
  Co  Co8  1  0.165485  0.250000  0.860290  1
  Co  Co9  1  0.334515  0.750000  0.360290  1
  Co  Co10  1  0.665485  0.250000  0.639710  1
  Co  Co11  1  0.834515  0.750000  0.139710  1
  P  P12  1  0.060448  0.517742  0.775743  1
  P  P13  1  0.060448  0.982258  0.775743  1
  P  P14  1  0.248595  0.015717  0.442753  1
  P  P15  1  0.248595  0.484283  0.442753  1
  P  P16  1  0.251404  0.515717  0.942753  1
  P  P17  1  0.251404  0.984283  0.942753  1
  P  P18  1  0.439552  0.482258  0.275743  1
  P  P19  1  0.439552  0.017742  0.275743  1
  P  P20  1  0.560448  0.517742  0.724257  1
  P  P21  1  0.560448  0.982258  0.724257  1
  P  P22  1  0.748595  0.015717  0.057247  1
  P  P23  1  0.748595  0.484283  0.057247  1
  P  P24  1  0.751405  0.515717  0.557247  1
  P  P25  1  0.751405  0.984283  0.557247  1
  P  P26  1  0.939552  0.017742  0.224257  1
  P  P27  1  0.939552  0.482258  0.224257  1
  H  H28  1  0.039147  0.678233  0.020862  1
  H  H29  1  0.039147  0.821767  0.020862  1
  H  H30  1  0.040759  0.080792  0.401167  1
  H  H31  1  0.040759  0.419208  0.401167  1
  H  H32  1  0.100005  0.023071  0.109194  1
  H  H33  1  0.100005  0.476929  0.109194  1
  H  H34  1  0.135595  0.681055  0.223477  1
  H  H35  1  0.135595  0.818945  0.223477  1
  H  H36  1  0.364405  0.181055  0.723477  1
  H  H37  1  0.364405  0.318945  0.723477  1
  H  H38  1  0.399995  0.523071  0.609194  1
  H  H39  1  0.399995  0.976929  0.609194  1
  H  H40  1  0.459241  0.580792  0.901167  1
  H  H41  1  0.459241  0.919208  0.901167  1
  H  H42  1  0.460853  0.178233  0.520862  1
  H  H43  1  0.460853  0.321767  0.520862  1
  H  H44  1  0.539147  0.821767  0.479138  1
  H  H45  1  0.539147  0.678233  0.479138  1
  H  H46  1  0.540759  0.080792  0.098833  1
  H  H47  1  0.540759  0.419208  0.098833  1
  H  H48  1  0.600005  0.023071  0.390806  1
  H  H49  1  0.600005  0.476929  0.390806  1
  H  H50  1  0.635595  0.818945  0.276523  1
  H  H51  1  0.635595  0.681055  0.276523  1
  H  H52  1  0.864405  0.181055  0.776523  1
  H  H53  1  0.864405  0.318945  0.776523  1
  H  H54  1  0.899995  0.523071  0.890806  1
  H  H55  1  0.899995  0.976929  0.890806  1
  H  H56  1  0.959241  0.919208  0.598833  1
  H  H57  1  0.959241  0.580792  0.598833  1
  H  H58  1  0.960853  0.178233  0.979138  1
  H  H59  1  0.960853  0.321767  0.979138  1
  O  O60  1  0.021011  0.250000  0.974745  1
  O  O61  1  0.051612  0.118951  0.781671  1
  O  O62  1  0.051612  0.381049  0.781671  1
  O  O63  1  0.065255  0.073923  0.168413  1
  O  O64  1  0.065255  0.426077  0.168413  1
  O  O65  1  0.073749  0.572504  0.673603  1
  O  O66  1  0.073749  0.927496  0.673603  1
  O  O67  1  0.115880  0.093008  0.454316  1
  O  O68  1  0.115880  0.406992  0.454316  1
  O  O69  1  0.151797  0.552758  0.022977  1
  O  O70  1  0.151797  0.947242  0.022977  1
  O  O71  1  0.194182  0.562679  0.835706  1
  O  O72  1  0.194182  0.937321  0.835706  1
  O  O73  1  0.197405  0.750000  0.233073  1
  O  O74  1  0.217532  0.618022  0.433906  1
  O  O75  1  0.217532  0.881978  0.433906  1
  O  O76  1  0.282468  0.118022  0.933906  1
  O  O77  1  0.282468  0.381978  0.933906  1
  O  O78  1  0.302595  0.250000  0.733073  1
  O  O79  1  0.305818  0.062679  0.335706  1
  O  O80  1  0.305818  0.437321  0.335706  1
  O  O81  1  0.348203  0.052758  0.522977  1
  O  O82  1  0.348203  0.447242  0.522977  1
  O  O83  1  0.384120  0.593008  0.954316  1
  O  O84  1  0.384120  0.906992  0.954316  1
  O  O85  1  0.426251  0.427496  0.173603  1
  O  O86  1  0.426251  0.072504  0.173603  1
  O  O87  1  0.434745  0.573923  0.668413  1
  O  O88  1  0.434745  0.926077  0.668413  1
  O  O89  1  0.448388  0.618951  0.281671  1
  O  O90  1  0.448388  0.881049  0.281671  1
  O  O91  1  0.478989  0.750000  0.474745  1
  O  O92  1  0.521011  0.250000  0.525255  1
  O  O93  1  0.551612  0.118951  0.718329  1
  O  O94  1  0.551612  0.381049  0.718329  1
  O  O95  1  0.565255  0.073923  0.331587  1
  O  O96  1  0.565255  0.426077  0.331587  1
  O  O97  1  0.573749  0.572504  0.826397  1
  O  O98  1  0.573749  0.927496  0.826397  1
  O  O99  1  0.615880  0.093008  0.045684  1
  O  O100  1  0.615880  0.406992  0.045684  1
  O  O101  1  0.651797  0.552758  0.477023  1
  O  O102  1  0.651797  0.947242  0.477023  1
  O  O103  1  0.694182  0.562679  0.664294  1
  O  O104  1  0.694182  0.937321  0.664294  1
  O  O105  1  0.697405  0.750000  0.266927  1
  O  O106  1  0.717532  0.618022  0.066094  1
  O  O107  1  0.717532  0.881978  0.066094  1
  O  O108  1  0.782468  0.118022  0.566094  1
  O  O109  1  0.782468  0.381978  0.566094  1
  O  O110  1  0.802595  0.250000  0.766927  1
  O  O111  1  0.805818  0.062679  0.164294  1
  O  O112  1  0.805818  0.437321  0.164294  1
  O  O113  1  0.848203  0.052758  0.977023  1
  O  O114  1  0.848203  0.447242  0.977023  1
  O  O115  1  0.884120  0.593008  0.545684  1
  O  O116  1  0.884120  0.906992  0.545684  1
  O  O117  1  0.926251  0.072504  0.326397  1
  O  O118  1  0.926251  0.427496  0.326397  1
  O  O119  1  0.934745  0.573923  0.831587  1
  O  O120  1  0.934745  0.926077  0.831587  1
  O  O121  1  0.948388  0.618951  0.218329  1
  O  O122  1  0.948388  0.881049  0.218329  1
  O  O123  1  0.978989  0.750000  0.025255  1
