# generated using pymatgen
data_Li6Fe2B4SO16
_symmetry_space_group_name_H-M   'P 1'
_cell_length_a   9.49151292
_cell_length_b   9.49151348
_cell_length_c   9.49151291
_cell_angle_alpha   90.00000049
_cell_angle_beta   59.99999997
_cell_angle_gamma   60.00000193
_symmetry_Int_Tables_number   1
_chemical_formula_structural   Li6Fe2B4SO16
_chemical_formula_sum   'Li12 Fe4 B8 S2 O32'
_cell_volume   604.63233306
_cell_formula_units_Z   2
loop_
 _symmetry_equiv_pos_site_id
 _symmetry_equiv_pos_as_xyz
  1  'x, y, z'
loop_
 _atom_site_type_symbol
 _atom_site_label
 _atom_site_symmetry_multiplicity
 _atom_site_fract_x
 _atom_site_fract_y
 _atom_site_fract_z
 _atom_site_occupancy
  Li  Li0  1  0.750000  0.655550  0.905550  1
  Li  Li1  1  0.688900  0.905550  0.655550  1
  Li  Li2  1  0.750000  0.094450  0.905550  1
  Li  Li3  1  0.750000  0.655550  0.344450  1
  Li  Li4  1  0.811100  0.344450  0.094450  1
  Li  Li5  1  0.250000  0.905550  0.655550  1
  Li  Li6  1  0.750000  0.094450  0.344450  1
  Li  Li7  1  0.188900  0.655550  0.905550  1
  Li  Li8  1  0.250000  0.344450  0.655550  1
  Li  Li9  1  0.250000  0.905550  0.094450  1
  Li  Li10  1  0.311100  0.094450  0.344450  1
  Li  Li11  1  0.250000  0.344450  0.094450  1
  Fe  Fe12  1  0.500000  0.500000  0.500000  1
  Fe  Fe13  1  0.500000  0.500000  0.000000  1
  Fe  Fe14  1  0.000000  0.500000  0.500000  1
  Fe  Fe15  1  0.000000  0.000000  0.500000  1
  B  B16  1  0.936677  0.281661  0.718339  1
  B  B17  1  0.563323  0.655017  0.718339  1
  B  B18  1  0.936677  0.281661  0.344983  1
  B  B19  1  0.563323  0.281661  0.718339  1
  B  B20  1  0.436677  0.718339  0.281661  1
  B  B21  1  0.063323  0.718339  0.655017  1
  B  B22  1  0.436677  0.344983  0.281661  1
  B  B23  1  0.063323  0.718339  0.281661  1
  S  S24  1  0.750000  0.875000  0.125000  1
  S  S25  1  0.250000  0.125000  0.875000  1
  O  O26  1  0.924625  0.870178  0.656729  1
  O  O27  1  0.924625  0.705199  0.418646  1
  O  O28  1  0.786551  0.418646  0.870178  1
  O  O29  1  0.713449  0.656729  0.705199  1
  O  O30  1  0.951532  0.129822  0.705199  1
  O  O31  1  0.878663  0.939331  0.060668  1
  O  O32  1  0.951532  0.418646  0.343271  1
  O  O33  1  0.621337  0.939331  0.317995  1
  O  O34  1  0.878663  0.682005  0.060668  1
  O  O35  1  0.424625  0.656729  0.870178  1
  O  O36  1  0.548468  0.656729  0.581354  1
  O  O37  1  0.621337  0.939331  0.060668  1
  O  O38  1  0.548468  0.294801  0.870178  1
  O  O39  1  0.786551  0.294801  0.343271  1
  O  O40  1  0.713449  0.129822  0.581354  1
  O  O41  1  0.575375  0.581354  0.294801  1
  O  O42  1  0.424625  0.418646  0.705199  1
  O  O43  1  0.286551  0.870178  0.418646  1
  O  O44  1  0.213449  0.705199  0.656729  1
  O  O45  1  0.451532  0.705199  0.129822  1
  O  O46  1  0.378663  0.060668  0.939331  1
  O  O47  1  0.451532  0.343271  0.418646  1
  O  O48  1  0.575375  0.343271  0.129822  1
  O  O49  1  0.121337  0.317995  0.939331  1
  O  O50  1  0.378663  0.060668  0.682005  1
  O  O51  1  0.048468  0.581354  0.656729  1
  O  O52  1  0.121337  0.060668  0.939331  1
  O  O53  1  0.048468  0.870178  0.294801  1
  O  O54  1  0.286551  0.343271  0.294801  1
  O  O55  1  0.213449  0.581354  0.129822  1
  O  O56  1  0.075375  0.294801  0.581354  1
  O  O57  1  0.075375  0.129822  0.343271  1
