# generated using pymatgen
data_LiFeF3
_symmetry_space_group_name_H-M   'P 1'
_cell_length_a   8.71973808
_cell_length_b   4.99072648
_cell_length_c   10.58953546
_cell_angle_alpha   90.05921057
_cell_angle_beta   90.05253654
_cell_angle_gamma   90.06125578
_symmetry_Int_Tables_number   1
_chemical_formula_structural   LiFeF3
_chemical_formula_sum   'Li8 Fe8 F24'
_cell_volume   460.83287612
_cell_formula_units_Z   8
loop_
 _symmetry_equiv_pos_site_id
 _symmetry_equiv_pos_as_xyz
  1  'x, y, z'
loop_
 _atom_site_type_symbol
 _atom_site_label
 _atom_site_symmetry_multiplicity
 _atom_site_fract_x
 _atom_site_fract_y
 _atom_site_fract_z
 _atom_site_occupancy
  Li  Li0  1  0.214752  0.496464  0.100105  1
  Li  Li1  1  0.214484  0.003968  0.600293  1
  Li  Li2  1  0.285372  0.003652  0.100129  1
  Li  Li3  1  0.285476  0.496207  0.600121  1
  Li  Li4  1  0.714474  0.503898  0.399785  1
  Li  Li5  1  0.714731  0.996303  0.899663  1
  Li  Li6  1  0.785405  0.995919  0.399817  1
  Li  Li7  1  0.785320  0.503533  0.899816  1
  Fe  Fe8  1  0.086181  0.493206  0.362870  1
  Fe  Fe9  1  0.086109  0.007099  0.862868  1
  Fe  Fe10  1  0.413848  0.492869  0.862920  1
  Fe  Fe11  1  0.413671  0.007251  0.362965  1
  Fe  Fe12  1  0.586213  0.507086  0.137108  1
  Fe  Fe13  1  0.586229  0.992954  0.637077  1
  Fe  Fe14  1  0.913711  0.507106  0.637064  1
  Fe  Fe15  1  0.913947  0.993129  0.137185  1
  F  F16  1  0.083952  0.726424  0.196358  1
  F  F17  1  0.084218  0.773932  0.696827  1
  F  F18  1  0.095277  0.303786  0.544241  1
  F  F19  1  0.095786  0.196124  0.044038  1
  F  F20  1  0.250241  0.249726  0.276394  1
  F  F21  1  0.250139  0.250040  0.776053  1
  F  F22  1  0.249881  0.749830  0.453316  1
  F  F23  1  0.250048  0.749975  0.953063  1
  F  F24  1  0.404584  0.196163  0.544401  1
  F  F25  1  0.404403  0.303803  0.044128  1
  F  F26  1  0.415951  0.726315  0.696699  1
  F  F27  1  0.415979  0.773601  0.196393  1
  F  F28  1  0.584196  0.273774  0.303165  1
  F  F29  1  0.584161  0.226376  0.803528  1
  F  F30  1  0.595131  0.803797  0.455589  1
  F  F31  1  0.595619  0.696131  0.955833  1
  F  F32  1  0.750073  0.249899  0.047059  1
  F  F33  1  0.749934  0.249938  0.546766  1
  F  F34  1  0.749746  0.749893  0.224144  1
  F  F35  1  0.750070  0.750020  0.723724  1
  F  F36  1  0.904446  0.803820  0.955918  1
  F  F37  1  0.904554  0.696125  0.455768  1
  F  F38  1  0.915983  0.273591  0.803547  1
  F  F39  1  0.915704  0.226276  0.303265  1
