# generated using pymatgen
data_Ca2CuB2(HO)12
_symmetry_space_group_name_H-M   'P 1'
_cell_length_a   5.79951346
_cell_length_b   8.16201602
_cell_length_c   5.76370262
_cell_angle_alpha   109.55099594
_cell_angle_beta   90.18323454
_cell_angle_gamma   82.84237369
_symmetry_Int_Tables_number   1
_chemical_formula_structural   Ca2CuB2(HO)12
_chemical_formula_sum   'Ca2 Cu1 B2 H12 O12'
_cell_volume   254.87892384
_cell_formula_units_Z   1
loop_
 _symmetry_equiv_pos_site_id
 _symmetry_equiv_pos_as_xyz
  1  'x, y, z'
loop_
 _atom_site_type_symbol
 _atom_site_label
 _atom_site_symmetry_multiplicity
 _atom_site_fract_x
 _atom_site_fract_y
 _atom_site_fract_z
 _atom_site_occupancy
  Ca  Ca0  1  0.505424  0.235807  0.222392  1
  Ca  Ca1  1  0.494576  0.764193  0.777608  1
  Cu  Cu2  1  0.000000  0.000000  0.000000  1
  B  B3  1  0.286628  0.408898  0.754288  1
  B  B4  1  0.713372  0.591102  0.245712  1
  H  H5  1  0.001815  0.387580  0.528784  1
  H  H6  1  0.052120  0.628835  0.958826  1
  H  H7  1  0.068826  0.905044  0.565357  1
  H  H8  1  0.227928  0.177119  0.798987  1
  H  H9  1  0.292532  0.957390  0.293270  1
  H  H10  1  0.363828  0.619097  0.193736  1
  H  H11  1  0.636172  0.380903  0.806264  1
  H  H12  1  0.707468  0.042610  0.706730  1
  H  H13  1  0.772072  0.822881  0.201013  1
  H  H14  1  0.931174  0.094956  0.434643  1
  H  H15  1  0.947880  0.371165  0.041174  1
  H  H16  1  0.998185  0.612420  0.471216  1
  O  O17  1  0.168932  0.352738  0.517713  1
  O  O18  1  0.244336  0.299260  0.907756  1
  O  O19  1  0.219405  0.596345  0.906002  1
  O  O20  1  0.176618  0.958062  0.690647  1
  O  O21  1  0.304457  0.983426  0.140485  1
  O  O22  1  0.466787  0.610179  0.327657  1
  O  O23  1  0.533213  0.389821  0.672343  1
  O  O24  1  0.695543  0.016574  0.859515  1
  O  O25  1  0.823382  0.041938  0.309353  1
  O  O26  1  0.780595  0.403655  0.093998  1
  O  O27  1  0.755664  0.700740  0.092244  1
  O  O28  1  0.831068  0.647262  0.482287  1
