# generated using pymatgen
data_LiCuPO4
_symmetry_space_group_name_H-M   'P 1'
_cell_length_a   7.58994743
_cell_length_b   15.41801461
_cell_length_c   5.47127709
_cell_angle_alpha   90.00000000
_cell_angle_beta   90.00000000
_cell_angle_gamma   90.00000000
_symmetry_Int_Tables_number   1
_chemical_formula_structural   LiCuPO4
_chemical_formula_sum   'Li8 Cu8 P8 O32'
_cell_volume   640.25935192
_cell_formula_units_Z   8
loop_
 _symmetry_equiv_pos_site_id
 _symmetry_equiv_pos_as_xyz
  1  'x, y, z'
loop_
 _atom_site_type_symbol
 _atom_site_label
 _atom_site_symmetry_multiplicity
 _atom_site_fract_x
 _atom_site_fract_y
 _atom_site_fract_z
 _atom_site_occupancy
  Li  Li0  1  0.194045  0.487489  0.363325  1
  Li  Li1  1  0.194045  0.012511  0.863325  1
  Li  Li2  1  0.305955  0.987489  0.363325  1
  Li  Li3  1  0.305955  0.512511  0.863325  1
  Li  Li4  1  0.694045  0.487489  0.136675  1
  Li  Li5  1  0.694045  0.012511  0.636675  1
  Li  Li6  1  0.805955  0.512511  0.636675  1
  Li  Li7  1  0.805955  0.987489  0.136675  1
  Cu  Cu8  1  0.129355  0.189612  0.898562  1
  Cu  Cu9  1  0.129355  0.310388  0.398562  1
  Cu  Cu10  1  0.370645  0.689612  0.898562  1
  Cu  Cu11  1  0.370645  0.810388  0.398562  1
  Cu  Cu12  1  0.629355  0.189612  0.601438  1
  Cu  Cu13  1  0.629355  0.310388  0.101438  1
  Cu  Cu14  1  0.870645  0.689612  0.601438  1
  Cu  Cu15  1  0.870645  0.810388  0.101438  1
  P  P16  1  0.991298  0.620710  0.111017  1
  P  P17  1  0.991298  0.879290  0.611017  1
  P  P18  1  0.508702  0.120710  0.111017  1
  P  P19  1  0.508702  0.379290  0.611017  1
  P  P20  1  0.491298  0.620710  0.388983  1
  P  P21  1  0.491298  0.879290  0.888983  1
  P  P22  1  0.008702  0.120710  0.388983  1
  P  P23  1  0.008702  0.379290  0.888983  1
  O  O24  1  0.038794  0.042786  0.221423  1
  O  O25  1  0.038794  0.457214  0.721423  1
  O  O26  1  0.972199  0.791053  0.764236  1
  O  O27  1  0.972199  0.708947  0.264236  1
  O  O28  1  0.149238  0.120514  0.596246  1
  O  O29  1  0.149238  0.379486  0.096246  1
  O  O30  1  0.180395  0.616254  0.008328  1
  O  O31  1  0.180395  0.883746  0.508328  1
  O  O32  1  0.319605  0.116254  0.008328  1
  O  O33  1  0.319605  0.383746  0.508328  1
  O  O34  1  0.350762  0.620514  0.596246  1
  O  O35  1  0.350762  0.879486  0.096246  1
  O  O36  1  0.527801  0.291053  0.764236  1
  O  O37  1  0.527801  0.208947  0.264236  1
  O  O38  1  0.461206  0.542786  0.221423  1
  O  O39  1  0.461206  0.957214  0.721423  1
  O  O40  1  0.538794  0.457214  0.778577  1
  O  O41  1  0.538794  0.042786  0.278577  1
  O  O42  1  0.472199  0.791053  0.735764  1
  O  O43  1  0.472199  0.708947  0.235764  1
  O  O44  1  0.649238  0.120514  0.903754  1
  O  O45  1  0.649238  0.379486  0.403754  1
  O  O46  1  0.680395  0.616254  0.491672  1
  O  O47  1  0.680395  0.883746  0.991672  1
  O  O48  1  0.819605  0.116254  0.491672  1
  O  O49  1  0.819605  0.383746  0.991672  1
  O  O50  1  0.850762  0.620514  0.903754  1
  O  O51  1  0.850762  0.879486  0.403754  1
  O  O52  1  0.027801  0.291053  0.735764  1
  O  O53  1  0.027801  0.208947  0.235764  1
  O  O54  1  0.961206  0.542786  0.278577  1
  O  O55  1  0.961206  0.957214  0.778577  1
