# generated using pymatgen
data_PH11C(NO2)2
_symmetry_space_group_name_H-M   'P 1'
_cell_length_a   10.36836426
_cell_length_b   8.23006000
_cell_length_c   8.09323487
_cell_angle_alpha   90.00000000
_cell_angle_beta   92.24946520
_cell_angle_gamma   90.00000000
_symmetry_Int_Tables_number   1
_chemical_formula_structural   PH11C(NO2)2
_chemical_formula_sum   'P4 H44 C4 N8 O16'
_cell_volume   690.08183644
_cell_formula_units_Z   4
loop_
 _symmetry_equiv_pos_site_id
 _symmetry_equiv_pos_as_xyz
  1  'x, y, z'
loop_
 _atom_site_type_symbol
 _atom_site_label
 _atom_site_symmetry_multiplicity
 _atom_site_fract_x
 _atom_site_fract_y
 _atom_site_fract_z
 _atom_site_occupancy
  P  P0  1  0.257370  0.427812  0.898945  1
  P  P1  1  0.742630  0.927812  0.601055  1
  P  P2  1  0.742630  0.572188  0.101055  1
  P  P3  1  0.257370  0.072188  0.398945  1
  H  H4  1  0.307802  0.328643  0.157855  1
  H  H5  1  0.692198  0.828643  0.342145  1
  H  H6  1  0.692198  0.671357  0.842145  1
  H  H7  1  0.307802  0.171357  0.657855  1
  H  H8  1  0.026038  0.203893  0.533013  1
  H  H9  1  0.973962  0.703893  0.966987  1
  H  H10  1  0.973962  0.796107  0.466987  1
  H  H11  1  0.026038  0.296107  0.033013  1
  H  H12  1  0.976243  0.813610  0.773310  1
  H  H13  1  0.023757  0.313610  0.726690  1
  H  H14  1  0.023757  0.186390  0.226690  1
  H  H15  1  0.976243  0.686390  0.273310  1
  H  H16  1  0.119055  0.701042  0.852145  1
  H  H17  1  0.880945  0.201042  0.647855  1
  H  H18  1  0.880945  0.298958  0.147855  1
  H  H19  1  0.119055  0.798958  0.352145  1
  H  H20  1  0.508489  0.750221  0.116780  1
  H  H21  1  0.491511  0.250221  0.383220  1
  H  H22  1  0.491511  0.249779  0.883220  1
  H  H23  1  0.508489  0.749779  0.616780  1
  H  H24  1  0.365265  0.779415  0.507243  1
  H  H25  1  0.634735  0.279415  0.992757  1
  H  H26  1  0.634735  0.220585  0.492757  1
  H  H27  1  0.365265  0.720585  0.007243  1
  H  H28  1  0.368363  0.841087  0.179373  1
  H  H29  1  0.631637  0.341087  0.320627  1
  H  H30  1  0.631637  0.158913  0.820627  1
  H  H31  1  0.368363  0.658913  0.679373  1
  H  H32  1  0.135371  0.475222  0.460416  1
  H  H33  1  0.864629  0.975222  0.039584  1
  H  H34  1  0.864629  0.524778  0.539584  1
  H  H35  1  0.135371  0.024778  0.960416  1
  H  H36  1  0.141040  0.520663  0.540829  1
  H  H37  1  0.858960  0.020663  0.959171  1
  H  H38  1  0.858960  0.479337  0.459171  1
  H  H39  1  0.141040  0.979337  0.040829  1
  H  H40  1  0.354792  0.484122  0.454542  1
  H  H41  1  0.645208  0.984122  0.045458  1
  H  H42  1  0.645208  0.515878  0.545458  1
  H  H43  1  0.354792  0.015878  0.954542  1
  H  H44  1  0.531645  0.400077  0.655504  1
  H  H45  1  0.468355  0.900077  0.844496  1
  H  H46  1  0.468355  0.599923  0.344496  1
  H  H47  1  0.531645  0.099923  0.155504  1
  C  C48  1  0.444968  0.946978  0.965946  1
  C  C49  1  0.555032  0.446978  0.534054  1
  C  C50  1  0.555032  0.053022  0.034054  1
  C  C51  1  0.444968  0.553022  0.465946  1
  N  N52  1  0.973494  0.252552  0.132373  1
  N  N53  1  0.026506  0.752552  0.367627  1
  N  N54  1  0.026506  0.747448  0.867627  1
  N  N55  1  0.973494  0.247448  0.632373  1
  N  N56  1  0.420770  0.694352  0.575609  1
  N  N57  1  0.579230  0.194352  0.924391  1
  N  N58  1  0.579230  0.305648  0.424391  1
  N  N59  1  0.420770  0.805648  0.075609  1
  O  O60  1  0.302707  0.068127  0.590672  1
  O  O61  1  0.697293  0.568127  0.909328  1
  O  O62  1  0.697293  0.931873  0.409328  1
  O  O63  1  0.302707  0.431873  0.090672  1
  O  O64  1  0.276447  0.606796  0.845255  1
  O  O65  1  0.723553  0.106796  0.654745  1
  O  O66  1  0.723553  0.393204  0.154745  1
  O  O67  1  0.276447  0.893204  0.345255  1
  O  O68  1  0.112863  0.119724  0.382699  1
  O  O69  1  0.887137  0.619724  0.117301  1
  O  O70  1  0.887137  0.880276  0.617301  1
  O  O71  1  0.112863  0.380276  0.882699  1
  O  O72  1  0.341738  0.308141  0.805257  1
  O  O73  1  0.658262  0.808141  0.694743  1
  O  O74  1  0.658262  0.691859  0.194743  1
  O  O75  1  0.341738  0.191859  0.305257  1
