# generated using pymatgen
data_Li4VFe(WO6)2
_symmetry_space_group_name_H-M   'P 1'
_cell_length_a   5.37366667
_cell_length_b   10.71129277
_cell_length_c   9.40642749
_cell_angle_alpha   28.63200597
_cell_angle_beta   51.74108825
_cell_angle_gamma   57.06758410
_symmetry_Int_Tables_number   1
_chemical_formula_structural   Li4VFe(WO6)2
_chemical_formula_sum   'Li4 V1 Fe1 W2 O12'
_cell_volume   203.71813707
_cell_formula_units_Z   1
loop_
 _symmetry_equiv_pos_site_id
 _symmetry_equiv_pos_as_xyz
  1  'x, y, z'
loop_
 _atom_site_type_symbol
 _atom_site_label
 _atom_site_symmetry_multiplicity
 _atom_site_fract_x
 _atom_site_fract_y
 _atom_site_fract_z
 _atom_site_occupancy
  Li  Li0  1  0.283493  0.000106  0.257210  1
  Li  Li1  1  0.265319  0.497890  0.300388  1
  Li  Li2  1  0.769223  0.995857  0.795667  1
  Li  Li3  1  0.755016  0.504442  0.729720  1
  V  V4  1  0.976792  0.498673  0.992951  1
  Fe  Fe5  1  0.007486  0.000062  0.002495  1
  W  W6  1  0.474815  0.008181  0.494251  1
  W  W7  1  0.516262  0.495457  0.495743  1
  O  O8  1  0.367552  0.310704  0.128169  1
  O  O9  1  0.256154  0.110542  0.637067  1
  O  O10  1  0.145083  0.312162  0.741565  1
  O  O11  1  0.873724  0.199242  0.241230  1
  O  O12  1  0.367100  0.798607  0.144675  1
  O  O13  1  0.756469  0.383206  0.360318  1
  O  O14  1  0.242288  0.612991  0.646027  1
  O  O15  1  0.642593  0.194707  0.859517  1
  O  O16  1  0.129263  0.809311  0.749939  1
  O  O17  1  0.859006  0.697253  0.249630  1
  O  O18  1  0.743231  0.886898  0.370747  1
  O  O19  1  0.640332  0.683708  0.873894  1
