# generated using pymatgen
data_LiFePO4
_symmetry_space_group_name_H-M   'P 1'
_cell_length_a   8.89536061
_cell_length_b   7.81624836
_cell_length_c   15.39903524
_cell_angle_alpha   89.99995694
_cell_angle_beta   90.94836140
_cell_angle_gamma   89.99997560
_symmetry_Int_Tables_number   1
_chemical_formula_structural   LiFePO4
_chemical_formula_sum   'Li12 Fe12 P12 O48'
_cell_volume   1070.52281555
_cell_formula_units_Z   12
loop_
 _symmetry_equiv_pos_site_id
 _symmetry_equiv_pos_as_xyz
  1  'x, y, z'
loop_
 _atom_site_type_symbol
 _atom_site_label
 _atom_site_symmetry_multiplicity
 _atom_site_fract_x
 _atom_site_fract_y
 _atom_site_fract_z
 _atom_site_occupancy
  Li  Li0  1  0.213274  0.005359  0.929133  1
  Li  Li1  1  0.236295  0.988430  0.581414  1
  Li  Li2  1  0.248371  0.155864  0.249719  1
  Li  Li3  1  0.251629  0.655864  0.250281  1
  Li  Li4  1  0.263704  0.488431  0.918586  1
  Li  Li5  1  0.286727  0.505360  0.570868  1
  Li  Li6  1  0.713273  0.494640  0.429132  1
  Li  Li7  1  0.736296  0.511569  0.081414  1
  Li  Li8  1  0.748371  0.344136  0.749719  1
  Li  Li9  1  0.751629  0.844136  0.750281  1
  Li  Li10  1  0.763705  0.011570  0.418586  1
  Li  Li11  1  0.786726  0.994641  0.070867  1
  Fe  Fe12  1  0.043235  0.668792  0.406669  1
  Fe  Fe13  1  0.080439  0.831930  0.768975  1
  Fe  Fe14  1  0.102879  0.667841  0.075454  1
  Fe  Fe15  1  0.397119  0.167842  0.424548  1
  Fe  Fe16  1  0.419561  0.331931  0.731023  1
  Fe  Fe17  1  0.456760  0.168791  0.093335  1
  Fe  Fe18  1  0.543240  0.831209  0.906665  1
  Fe  Fe19  1  0.580439  0.668069  0.268977  1
  Fe  Fe20  1  0.602881  0.832158  0.575452  1
  Fe  Fe21  1  0.897121  0.332159  0.924547  1
  Fe  Fe22  1  0.919561  0.168070  0.231025  1
  Fe  Fe23  1  0.956765  0.331208  0.593331  1
  P  P24  1  0.048375  0.247245  0.406665  1
  P  P25  1  0.081681  0.243425  0.775511  1
  P  P26  1  0.117765  0.250637  0.070575  1
  P  P27  1  0.382234  0.750635  0.429425  1
  P  P28  1  0.418319  0.743425  0.724488  1
  P  P29  1  0.451625  0.747245  0.093334  1
  P  P30  1  0.548375  0.252755  0.906666  1
  P  P31  1  0.581681  0.256575  0.275512  1
  P  P32  1  0.617766  0.249365  0.570575  1
  P  P33  1  0.882235  0.749363  0.929425  1
  P  P34  1  0.918319  0.756575  0.224489  1
  P  P35  1  0.951625  0.752755  0.593335  1
  O  O36  1  0.971007  0.423993  0.394123  1
  O  O37  1  0.058030  0.887091  0.636903  1
  O  O38  1  0.083875  0.384828  0.846846  1
  O  O39  1  0.077812  0.207942  0.504820  1
  O  O40  1  0.040381  0.798287  0.967167  1
  O  O41  1  0.065467  0.740422  0.280471  1
  O  O42  1  0.106996  0.248886  0.171596  1
  O  O43  1  0.086867  0.070174  0.825191  1
  O  O44  1  0.165840  0.429888  0.036795  1
  O  O45  1  0.211146  0.256409  0.709606  1
  O  O46  1  0.240109  0.122367  0.041454  1
  O  O47  1  0.204047  0.238032  0.361372  1
  O  O48  1  0.295952  0.738032  0.138628  1
  O  O49  1  0.259891  0.622366  0.458546  1
  O  O50  1  0.288853  0.756410  0.790394  1
  O  O51  1  0.334160  0.929888  0.463206  1
  O  O52  1  0.413133  0.570174  0.674809  1
  O  O53  1  0.393004  0.748886  0.328405  1
  O  O54  1  0.434532  0.240422  0.219530  1
  O  O55  1  0.459620  0.298287  0.532833  1
  O  O56  1  0.422189  0.707943  0.995179  1
  O  O57  1  0.416125  0.884828  0.653154  1
  O  O58  1  0.441969  0.387092  0.863097  1
  O  O59  1  0.528993  0.923994  0.105877  1
  O  O60  1  0.471007  0.076006  0.894123  1
  O  O61  1  0.558031  0.612908  0.136903  1
  O  O62  1  0.583875  0.115172  0.346846  1
  O  O63  1  0.577811  0.292057  0.004821  1
  O  O64  1  0.540380  0.701713  0.467167  1
  O  O65  1  0.565468  0.759578  0.780470  1
  O  O66  1  0.606996  0.251114  0.671595  1
  O  O67  1  0.586867  0.429826  0.325191  1
  O  O68  1  0.665840  0.070112  0.536794  1
  O  O69  1  0.711147  0.243590  0.209606  1
  O  O70  1  0.740109  0.377634  0.541454  1
  O  O71  1  0.704048  0.261968  0.861372  1
  O  O72  1  0.795953  0.761968  0.638628  1
  O  O73  1  0.788854  0.743591  0.290394  1
  O  O74  1  0.759891  0.877633  0.958546  1
  O  O75  1  0.834160  0.570112  0.963205  1
  O  O76  1  0.913133  0.929826  0.174809  1
  O  O77  1  0.893004  0.751114  0.828404  1
  O  O78  1  0.934533  0.259578  0.719529  1
  O  O79  1  0.959619  0.201713  0.032833  1
  O  O80  1  0.922188  0.792058  0.495180  1
  O  O81  1  0.916125  0.615172  0.153154  1
  O  O82  1  0.941970  0.112909  0.363097  1
  O  O83  1  0.028993  0.576007  0.605877  1
