# generated using pymatgen
data_Li4V5(Fe2O9)2
_symmetry_space_group_name_H-M   'P 1'
_cell_length_a   9.06238638
_cell_length_b   25.79740453
_cell_length_c   2.96343483
_cell_angle_alpha   90.00000000
_cell_angle_beta   90.00000000
_cell_angle_gamma   90.00000000
_symmetry_Int_Tables_number   1
_chemical_formula_structural   Li4V5(Fe2O9)2
_chemical_formula_sum   'Li8 V10 Fe8 O36'
_cell_volume   692.80971579
_cell_formula_units_Z   2
loop_
 _symmetry_equiv_pos_site_id
 _symmetry_equiv_pos_as_xyz
  1  'x, y, z'
loop_
 _atom_site_type_symbol
 _atom_site_label
 _atom_site_symmetry_multiplicity
 _atom_site_fract_x
 _atom_site_fract_y
 _atom_site_fract_z
 _atom_site_occupancy
  Li  Li0  1  0.195020  0.980948  0.000000  1
  Li  Li1  1  0.201325  0.177680  0.000000  1
  Li  Li2  1  0.298675  0.677680  0.000000  1
  Li  Li3  1  0.304980  0.480948  0.000000  1
  Li  Li4  1  0.695020  0.519052  0.000000  1
  Li  Li5  1  0.701325  0.322320  0.000000  1
  Li  Li6  1  0.798675  0.822320  0.000000  1
  Li  Li7  1  0.804980  0.019052  0.000000  1
  V  V8  1  0.000000  0.500000  0.000000  1
  V  V9  1  0.994721  0.102059  0.000000  1
  V  V10  1  0.148225  0.808493  0.500000  1
  V  V11  1  0.351775  0.308493  0.500000  1
  V  V12  1  0.505279  0.602059  0.000000  1
  V  V13  1  0.500000  0.000000  0.000000  1
  V  V14  1  0.494721  0.397941  0.000000  1
  V  V15  1  0.648225  0.691507  0.500000  1
  V  V16  1  0.851775  0.191507  0.500000  1
  V  V17  1  0.005279  0.897941  0.000000  1
  Fe  Fe18  1  0.004040  0.305049  0.000000  1
  Fe  Fe19  1  0.150108  0.586118  0.500000  1
  Fe  Fe20  1  0.349892  0.086118  0.500000  1
  Fe  Fe21  1  0.495960  0.805049  0.000000  1
  Fe  Fe22  1  0.504040  0.194951  0.000000  1
  Fe  Fe23  1  0.650108  0.913882  0.500000  1
  Fe  Fe24  1  0.849892  0.413882  0.500000  1
  Fe  Fe25  1  0.995960  0.694951  0.000000  1
  O  O26  1  0.994792  0.426442  0.000000  1
  O  O27  1  0.005208  0.573558  0.000000  1
  O  O28  1  0.064031  0.941150  0.500000  1
  O  O29  1  0.044127  0.158211  0.500000  1
  O  O30  1  0.122462  0.664990  0.500000  1
  O  O31  1  0.093920  0.761868  0.000000  1
  O  O32  1  0.150138  0.503914  0.500000  1
  O  O33  1  0.148285  0.292742  0.500000  1
  O  O34  1  0.182646  0.858541  0.000000  1
  O  O35  1  0.198559  0.087751  0.000000  1
  O  O36  1  0.301441  0.587751  0.000000  1
  O  O37  1  0.317354  0.358541  0.000000  1
  O  O38  1  0.351715  0.792742  0.500000  1
  O  O39  1  0.349862  0.003914  0.500000  1
  O  O40  1  0.406080  0.261868  0.000000  1
  O  O41  1  0.377538  0.164990  0.500000  1
  O  O42  1  0.455873  0.658211  0.500000  1
  O  O43  1  0.435969  0.441150  0.500000  1
  O  O44  1  0.494792  0.073558  0.000000  1
  O  O45  1  0.505208  0.926442  0.000000  1
  O  O46  1  0.564031  0.558850  0.500000  1
  O  O47  1  0.544127  0.341789  0.500000  1
  O  O48  1  0.622462  0.835010  0.500000  1
  O  O49  1  0.593920  0.738132  0.000000  1
  O  O50  1  0.650138  0.996086  0.500000  1
  O  O51  1  0.648285  0.207258  0.500000  1
  O  O52  1  0.682646  0.641459  0.000000  1
  O  O53  1  0.698559  0.412249  0.000000  1
  O  O54  1  0.801441  0.912249  0.000000  1
  O  O55  1  0.817354  0.141459  0.000000  1
  O  O56  1  0.851715  0.707258  0.500000  1
  O  O57  1  0.849862  0.496086  0.500000  1
  O  O58  1  0.906080  0.238132  0.000000  1
  O  O59  1  0.877538  0.335010  0.500000  1
  O  O60  1  0.955873  0.841789  0.500000  1
  O  O61  1  0.935969  0.058850  0.500000  1
