# generated using pymatgen
data_Li24Mn11CrO36
_symmetry_space_group_name_H-M   'P 1'
_cell_length_a   8.66431379
_cell_length_b   8.64630611
_cell_length_c   10.16702473
_cell_angle_alpha   89.99975177
_cell_angle_beta   73.23238040
_cell_angle_gamma   60.06862649
_symmetry_Int_Tables_number   1
_chemical_formula_structural   Li24Mn11CrO36
_chemical_formula_sum   'Li24 Mn11 Cr1 O36'
_cell_volume   622.42269113
_cell_formula_units_Z   1
loop_
 _symmetry_equiv_pos_site_id
 _symmetry_equiv_pos_as_xyz
  1  'x, y, z'
loop_
 _atom_site_type_symbol
 _atom_site_label
 _atom_site_symmetry_multiplicity
 _atom_site_fract_x
 _atom_site_fract_y
 _atom_site_fract_z
 _atom_site_occupancy
  Li  Li0  1  0.167499  0.003776  0.500557  1
  Li  Li1  1  0.166278  0.166937  0.250434  1
  Li  Li2  1  0.165231  0.004946  0.999633  1
  Li  Li3  1  0.168130  0.327809  0.999906  1
  Li  Li4  1  0.500128  0.000002  0.999828  1
  Li  Li5  1  0.166652  0.166793  0.749960  1
  Li  Li6  1  0.165154  0.330084  0.498926  1
  Li  Li7  1  0.499494  0.000220  0.500153  1
  Li  Li8  1  0.167171  0.666384  0.999842  1
  Li  Li9  1  0.166536  0.666802  0.500172  1
  Li  Li10  1  0.501437  0.336844  0.500368  1
  Li  Li11  1  0.500392  0.499882  0.249559  1
  Li  Li12  1  0.499162  0.337948  0.999439  1
  Li  Li13  1  0.501515  0.661903  0.001078  1
  Li  Li14  1  0.833028  0.333639  0.000093  1
  Li  Li15  1  0.500013  0.500112  0.750031  1
  Li  Li16  1  0.498531  0.662612  0.500089  1
  Li  Li17  1  0.833637  0.333333  0.499912  1
  Li  Li18  1  0.834916  0.669727  0.501025  1
  Li  Li19  1  0.833330  0.834244  0.250008  1
  Li  Li20  1  0.831748  0.671311  0.998973  1
  Li  Li21  1  0.834205  0.995596  0.000383  1
  Li  Li22  1  0.833329  0.833485  0.750007  1
  Li  Li23  1  0.832458  0.996471  0.499613  1
  Mn  Mn24  1  0.167785  0.499251  0.251088  1
  Mn  Mn25  1  0.500078  0.166948  0.250085  1
  Mn  Mn26  1  0.166657  0.499542  0.749997  1
  Mn  Mn27  1  0.500040  0.166899  0.749984  1
  Mn  Mn28  1  0.166587  0.833698  0.249909  1
  Mn  Mn29  1  0.833339  0.166250  0.250000  1
  Mn  Mn30  1  0.166620  0.833612  0.750009  1
  Mn  Mn31  1  0.833337  0.166202  0.750006  1
  Mn  Mn32  1  0.498884  0.833702  0.248915  1
  Mn  Mn33  1  0.499998  0.832873  0.749998  1
  Mn  Mn34  1  0.833333  0.500181  0.750007  1
  Cr  Cr35  1  0.833355  0.503732  0.249997  1
  O  O36  1  0.353875  0.073317  0.364022  1
  O  O37  1  0.003598  0.567898  0.137943  1
  O  O38  1  0.353921  0.072980  0.864049  1
  O  O39  1  0.335926  0.260453  0.137845  1
  O  O40  1  0.002510  0.570428  0.638065  1
  O  O41  1  0.335889  0.260427  0.637964  1
  O  O42  1  0.331803  0.406218  0.362058  1
  O  O43  1  0.020158  0.739951  0.364028  1
  O  O44  1  0.664166  0.095673  0.362116  1
  O  O45  1  0.330799  0.406129  0.862214  1
  O  O46  1  0.312809  0.593856  0.135986  1
  O  O47  1  0.669235  0.236851  0.137915  1
  O  O48  1  0.020580  0.739635  0.864123  1
  O  O49  1  0.664107  0.096222  0.862127  1
  O  O50  1  0.002502  0.926496  0.137894  1
  O  O51  1  0.312749  0.593566  0.635957  1
  O  O52  1  0.669129  0.236953  0.637940  1
  O  O53  1  0.002552  0.926992  0.637885  1
  O  O54  1  0.997443  0.072754  0.362083  1
  O  O55  1  0.330733  0.763052  0.362145  1
  O  O56  1  0.688458  0.405134  0.364211  1
  O  O57  1  0.997547  0.072744  0.862062  1
  O  O58  1  0.334869  0.904687  0.137931  1
  O  O59  1  0.978224  0.260256  0.135789  1
  O  O60  1  0.330769  0.762982  0.862017  1
  O  O61  1  0.687330  0.406196  0.863883  1
  O  O62  1  0.666207  0.596478  0.136576  1
  O  O63  1  0.335855  0.903600  0.637768  1
  O  O64  1  0.979352  0.260189  0.636123  1
  O  O65  1  0.669227  0.593740  0.637805  1
  O  O66  1  0.663073  0.738154  0.362071  1
  O  O67  1  0.000490  0.429333  0.363435  1
  O  O68  1  0.664144  0.739603  0.861953  1
  O  O69  1  0.646487  0.926781  0.135966  1
  O  O70  1  0.997445  0.429625  0.862199  1
  O  O71  1  0.646053  0.926896  0.635868  1
