# generated using pymatgen
data_LiFe3SiPO8
_symmetry_space_group_name_H-M   'P 1'
_cell_length_a   5.56441518
_cell_length_b   8.33709986
_cell_length_c   7.16567717
_cell_angle_alpha   90.00000000
_cell_angle_beta   90.00000000
_cell_angle_gamma   87.73808311
_symmetry_Int_Tables_number   1
_chemical_formula_structural   LiFe3SiPO8
_chemical_formula_sum   'Li2 Fe6 Si2 P2 O16'
_cell_volume   332.16453099
_cell_formula_units_Z   2
loop_
 _symmetry_equiv_pos_site_id
 _symmetry_equiv_pos_as_xyz
  1  'x, y, z'
loop_
 _atom_site_type_symbol
 _atom_site_label
 _atom_site_symmetry_multiplicity
 _atom_site_fract_x
 _atom_site_fract_y
 _atom_site_fract_z
 _atom_site_occupancy
  Li  Li0  1  0.185958  0.995758  0.055219  1
  Li  Li1  1  0.685958  0.495758  0.444781  1
  Fe  Fe2  1  0.963294  0.564523  0.903821  1
  Fe  Fe3  1  0.924454  0.873523  0.687035  1
  Fe  Fe4  1  0.682054  0.807790  0.198806  1
  Fe  Fe5  1  0.463294  0.064523  0.596179  1
  Fe  Fe6  1  0.424454  0.373523  0.812965  1
  Fe  Fe7  1  0.182054  0.307790  0.301194  1
  Si  Si8  1  0.959154  0.266596  0.738005  1
  Si  Si9  1  0.459154  0.766596  0.761995  1
  P  P10  1  0.687619  0.178627  0.196370  1
  P  P11  1  0.187619  0.678627  0.303630  1
  O  O12  1  0.204491  0.260977  0.600456  1
  O  O13  1  0.279900  0.929840  0.798096  1
  O  O14  1  0.301866  0.606908  0.799397  1
  O  O15  1  0.326613  0.795186  0.177871  1
  O  O16  1  0.957511  0.625685  0.192307  1
  O  O17  1  0.090427  0.765596  0.475345  1
  O  O18  1  0.348548  0.524848  0.341028  1
  O  O19  1  0.088111  0.304139  0.942751  1
  O  O20  1  0.704491  0.760977  0.899544  1
  O  O21  1  0.779900  0.429840  0.701904  1
  O  O22  1  0.801866  0.106908  0.700603  1
  O  O23  1  0.826613  0.295186  0.322129  1
  O  O24  1  0.457511  0.125685  0.307693  1
  O  O25  1  0.590427  0.265596  0.024655  1
  O  O26  1  0.848548  0.024848  0.158972  1
  O  O27  1  0.588111  0.804139  0.557249  1
