# generated using pymatgen
data_NaPH3C2N3O4
_symmetry_space_group_name_H-M   'P 1'
_cell_length_a   6.97589319
_cell_length_b   12.47153295
_cell_length_c   7.08762319
_cell_angle_alpha   90.00000000
_cell_angle_beta   104.22327192
_cell_angle_gamma   90.00000000
_symmetry_Int_Tables_number   1
_chemical_formula_structural   NaPH3C2N3O4
_chemical_formula_sum   'Na4 P4 H12 C8 N12 O16'
_cell_volume   597.72158458
_cell_formula_units_Z   4
loop_
 _symmetry_equiv_pos_site_id
 _symmetry_equiv_pos_as_xyz
  1  'x, y, z'
loop_
 _atom_site_type_symbol
 _atom_site_label
 _atom_site_symmetry_multiplicity
 _atom_site_fract_x
 _atom_site_fract_y
 _atom_site_fract_z
 _atom_site_occupancy
  Na  Na0  1  0.249779  0.552932  0.898133  1
  Na  Na1  1  0.250221  0.052932  0.601867  1
  Na  Na2  1  0.749779  0.947068  0.398133  1
  Na  Na3  1  0.750221  0.447068  0.101867  1
  P  P4  1  0.205286  0.578759  0.383924  1
  P  P5  1  0.294714  0.078759  0.116076  1
  P  P6  1  0.705286  0.921241  0.883924  1
  P  P7  1  0.794714  0.421241  0.616076  1
  H  H8  1  0.036084  0.924755  0.856378  1
  H  H9  1  0.934933  0.692134  0.385700  1
  H  H10  1  0.075333  0.379656  0.012019  1
  H  H11  1  0.424667  0.879656  0.487981  1
  H  H12  1  0.463916  0.424755  0.643622  1
  H  H13  1  0.434933  0.807866  0.885700  1
  H  H14  1  0.565067  0.192134  0.114300  1
  H  H15  1  0.536084  0.575245  0.356378  1
  H  H16  1  0.575333  0.120344  0.512019  1
  H  H17  1  0.065067  0.307866  0.614300  1
  H  H18  1  0.924667  0.620344  0.987981  1
  H  H19  1  0.963916  0.075245  0.143622  1
  C  C20  1  0.006583  0.231442  0.098706  1
  C  C21  1  0.165441  0.796223  0.439553  1
  C  C22  1  0.334559  0.296223  0.060447  1
  C  C23  1  0.506583  0.268558  0.598706  1
  C  C24  1  0.493417  0.731442  0.401294  1
  C  C25  1  0.665441  0.703777  0.939553  1
  C  C26  1  0.834559  0.203777  0.560447  1
  C  C27  1  0.993417  0.768558  0.901294  1
  N  N28  1  0.084665  0.696853  0.398021  1
  N  N29  1  0.074699  0.130072  0.139296  1
  N  N30  1  0.135512  0.305719  0.052830  1
  N  N31  1  0.364488  0.805719  0.447170  1
  N  N32  1  0.425301  0.630072  0.360704  1
  N  N33  1  0.584665  0.803147  0.898021  1
  N  N34  1  0.415335  0.196853  0.101979  1
  N  N35  1  0.574699  0.369928  0.639296  1
  N  N36  1  0.635512  0.194281  0.552830  1
  N  N37  1  0.864488  0.694281  0.947170  1
  N  N38  1  0.925301  0.869928  0.860704  1
  N  N39  1  0.915335  0.303147  0.601979  1
  O  O40  1  0.164642  0.739531  0.899583  1
  O  O41  1  0.072013  0.877404  0.468012  1
  O  O42  1  0.257407  0.016756  0.928582  1
  O  O43  1  0.100857  0.525087  0.196115  1
  O  O44  1  0.242593  0.516756  0.571418  1
  O  O45  1  0.335358  0.239531  0.600417  1
  O  O46  1  0.572013  0.622596  0.968012  1
  O  O47  1  0.399143  0.025087  0.303885  1
  O  O48  1  0.600857  0.974913  0.696115  1
  O  O49  1  0.427987  0.377404  0.031988  1
  O  O50  1  0.664642  0.760469  0.399583  1
  O  O51  1  0.757407  0.483244  0.428582  1
  O  O52  1  0.899143  0.474913  0.803885  1
  O  O53  1  0.742593  0.983244  0.071418  1
  O  O54  1  0.927987  0.122596  0.531988  1
  O  O55  1  0.835358  0.260469  0.100417  1
