# generated using pymatgen
data_NaFe5O8
_symmetry_space_group_name_H-M   'P 1'
_cell_length_a   6.07820958
_cell_length_b   6.07820958
_cell_length_c   6.03454827
_cell_angle_alpha   60.23732928
_cell_angle_beta   90.00000000
_cell_angle_gamma   120.47465855
_symmetry_Int_Tables_number   1
_chemical_formula_structural   NaFe5O8
_chemical_formula_sum   'Na1 Fe5 O8'
_cell_volume   157.07206040
_cell_formula_units_Z   1
loop_
 _symmetry_equiv_pos_site_id
 _symmetry_equiv_pos_as_xyz
  1  'x, y, z'
loop_
 _atom_site_type_symbol
 _atom_site_label
 _atom_site_symmetry_multiplicity
 _atom_site_fract_x
 _atom_site_fract_y
 _atom_site_fract_z
 _atom_site_occupancy
  Na  Na0  1  0.625000  0.750000  0.625000  1
  Fe  Fe1  1  0.625000  0.250000  0.125000  1
  Fe  Fe2  1  0.007625  0.984752  0.007625  1
  Fe  Fe3  1  0.625000  0.250000  0.625000  1
  Fe  Fe4  1  0.242375  0.515248  0.242375  1
  Fe  Fe5  1  0.125000  0.750000  0.625000  1
  O  O6  1  0.856818  0.266758  0.366621  1
  O  O7  1  0.378179  0.243643  0.378179  1
  O  O8  1  0.871821  0.256357  0.871821  1
  O  O9  1  0.883379  0.723439  0.393182  1
  O  O10  1  0.883379  0.723439  0.883379  1
  O  O11  1  0.393182  0.233242  0.883379  1
  O  O12  1  0.366621  0.776561  0.366621  1
  O  O13  1  0.366621  0.776561  0.856818  1
