# generated using pymatgen
data_Li32Ti11Cr5O48
_symmetry_space_group_name_H-M   'P 1'
_cell_length_a   5.07931650
_cell_length_b   5.07436705
_cell_length_c   38.68112809
_cell_angle_alpha   88.94991180
_cell_angle_beta   91.14748881
_cell_angle_gamma   60.12249413
_symmetry_Int_Tables_number   1
_chemical_formula_structural   Li32Ti11Cr5O48
_chemical_formula_sum   'Li32 Ti11 Cr5 O48'
_cell_volume   863.83935764
_cell_formula_units_Z   1
loop_
 _symmetry_equiv_pos_site_id
 _symmetry_equiv_pos_as_xyz
  1  'x, y, z'
loop_
 _atom_site_type_symbol
 _atom_site_label
 _atom_site_symmetry_multiplicity
 _atom_site_fract_x
 _atom_site_fract_y
 _atom_site_fract_z
 _atom_site_occupancy
  Li  Li0  1  0.090678  0.086672  0.249779  1
  Li  Li1  1  0.003285  0.503027  0.000116  1
  Li  Li2  1  0.060650  0.441159  0.187469  1
  Li  Li3  1  0.123246  0.372825  0.375019  1
  Li  Li4  1  0.190622  0.311009  0.562498  1
  Li  Li5  1  0.250104  0.246424  0.750195  1
  Li  Li6  1  0.312410  0.187631  0.937474  1
  Li  Li7  1  0.038116  0.781602  0.124961  1
  Li  Li8  1  0.378069  0.125239  0.124968  1
  Li  Li9  1  0.166388  0.659498  0.500193  1
  Li  Li10  1  0.281838  0.542759  0.874623  1
  Li  Li11  1  0.437539  0.062464  0.312450  1
  Li  Li12  1  0.495147  0.997626  0.500078  1
  Li  Li13  1  0.409242  0.415025  0.249840  1
  Li  Li14  1  0.532120  0.290282  0.624731  1
  Li  Li15  1  0.220887  0.959527  0.625052  1
  Li  Li16  1  0.337462  0.837413  0.000123  1
  Li  Li17  1  0.659481  0.160086  0.000170  1
  Li  Li18  1  0.787583  0.035909  0.374990  1
  Li  Li19  1  0.463758  0.715950  0.375104  1
  Li  Li20  1  0.584298  0.595974  0.750065  1
  Li  Li21  1  0.562547  0.937664  0.687523  1
  Li  Li22  1  0.709219  0.468189  0.124980  1
  Li  Li23  1  0.837356  0.341836  0.500001  1
  Li  Li24  1  0.624173  0.872575  0.874851  1
  Li  Li25  1  0.968408  0.209189  0.874974  1
  Li  Li26  1  0.689563  0.814352  0.062513  1
  Li  Li27  1  0.749109  0.747644  0.249836  1
  Li  Li28  1  0.812475  0.687046  0.437531  1
  Li  Li29  1  0.871739  0.624914  0.624911  1
  Li  Li30  1  0.935983  0.565606  0.812515  1
  Li  Li31  1  0.915298  0.907164  0.750343  1
  Ti  Ti32  1  0.017623  0.143432  0.062559  1
  Ti  Ti33  1  0.105161  0.729853  0.312456  1
  Ti  Ti34  1  0.229700  0.604630  0.687536  1
  Ti  Ti35  1  0.479675  0.354874  0.437448  1
  Ti  Ti36  1  0.606925  0.225754  0.812645  1
  Ti  Ti37  1  0.732417  0.099900  0.187598  1
  Ti  Ti38  1  0.644861  0.519634  0.937535  1
  Ti  Ti39  1  0.769896  0.394754  0.312427  1
  Ti  Ti40  1  0.894394  0.269747  0.687542  1
  Ti  Ti41  1  0.851041  0.981911  0.562404  1
  Ti  Ti42  1  0.979574  0.855189  0.937506  1
  Cr  Cr43  1  0.143682  0.018067  0.437589  1
  Cr  Cr44  1  0.356782  0.481199  0.062528  1
  Cr  Cr45  1  0.268308  0.898450  0.812489  1
  Cr  Cr46  1  0.393367  0.773209  0.187252  1
  Cr  Cr47  1  0.523357  0.643405  0.562479  1
  O  O48  1  0.090741  0.053879  0.340747  1
  O  O49  1  0.064637  0.082433  0.159340  1
  O  O50  1  0.071605  0.428053  0.283467  1
  O  O51  1  0.196186  0.303690  0.658574  1
  O  O52  1  0.058408  0.446886  0.090948  1
  O  O53  1  0.178132  0.319149  0.466280  1
  O  O54  1  0.301669  0.189376  0.841116  1
  O  O55  1  0.322140  0.182722  0.034189  1
  O  O56  1  0.441942  0.053111  0.408900  1
  O  O57  1  0.066489  0.786283  0.215984  1
  O  O58  1  0.426231  0.064105  0.216005  1
  O  O59  1  0.202143  0.659150  0.590443  1
  O  O60  1  0.321037  0.534151  0.965764  1
  O  O61  1  0.031725  0.825536  0.033961  1
  O  O62  1  0.159868  0.701034  0.409353  1
  O  O63  1  0.284384  0.576788  0.784621  1
  O  O64  1  0.215628  0.928779  0.715966  1
  O  O65  1  0.183980  0.960794  0.534737  1
  O  O66  1  0.303339  0.841223  0.909103  1
  O  O67  1  0.446454  0.409301  0.340898  1
  O  O68  1  0.571523  0.284744  0.716045  1
  O  O69  1  0.409097  0.451404  0.159624  1
  O  O70  1  0.536368  0.317213  0.533928  1
  O  O71  1  0.659316  0.196393  0.908980  1
  O  O72  1  0.342776  0.793743  0.090617  1
  O  O73  1  0.464488  0.680161  0.465713  1
  O  O74  1  0.586126  0.558859  0.840385  1
  O  O75  1  0.428710  0.715690  0.284106  1
  O  O76  1  0.553471  0.590726  0.659219  1
  O  O77  1  0.701157  0.157290  0.091187  1
  O  O78  1  0.828021  0.034666  0.465706  1
  O  O79  1  0.783845  0.071484  0.283974  1
  O  O80  1  0.710624  0.434001  0.215279  1
  O  O81  1  0.833126  0.313577  0.590547  1
  O  O82  1  0.964987  0.179019  0.965943  1
  O  O83  1  0.668754  0.467551  0.034417  1
  O  O84  1  0.803920  0.339738  0.409303  1
  O  O85  1  0.574633  0.929370  0.783456  1
  O  O86  1  0.938624  0.208230  0.784567  1
  O  O87  1  0.554852  0.949682  0.591608  1
  O  O88  1  0.678274  0.821695  0.966438  1
  O  O89  1  0.699678  0.804762  0.158207  1
  O  O90  1  0.814250  0.676357  0.533911  1
  O  O91  1  0.946280  0.553299  0.908461  1
  O  O92  1  0.803489  0.696918  0.341416  1
  O  O93  1  0.928865  0.571479  0.716583  1
  O  O94  1  0.942678  0.910881  0.841014  1
  O  O95  1  0.909774  0.946338  0.659099  1
