# generated using pymatgen
data_Li4TiCr5O12
_symmetry_space_group_name_H-M   'P 1'
_cell_length_a   8.90131810
_cell_length_b   8.91148352
_cell_length_c   10.26040102
_cell_angle_alpha   89.58728499
_cell_angle_beta   89.82330361
_cell_angle_gamma   60.05650778
_symmetry_Int_Tables_number   1
_chemical_formula_structural   Li4TiCr5O12
_chemical_formula_sum   'Li12 Ti3 Cr15 O36'
_cell_volume   705.23679574
_cell_formula_units_Z   3
loop_
 _symmetry_equiv_pos_site_id
 _symmetry_equiv_pos_as_xyz
  1  'x, y, z'
loop_
 _atom_site_type_symbol
 _atom_site_label
 _atom_site_symmetry_multiplicity
 _atom_site_fract_x
 _atom_site_fract_y
 _atom_site_fract_z
 _atom_site_occupancy
  Li  Li0  1  0.391076  0.896754  0.727207  1
  Li  Li1  1  0.890723  0.893910  0.769991  1
  Li  Li2  1  0.775969  0.772776  0.229989  1
  Li  Li3  1  0.275632  0.769994  0.272773  1
  Li  Li4  1  0.067607  0.539628  0.722478  1
  Li  Li5  1  0.570400  0.537757  0.774503  1
  Li  Li6  1  0.117954  0.452491  0.229391  1
  Li  Li7  1  0.619823  0.449324  0.273697  1
  Li  Li8  1  0.046804  0.217378  0.726298  1
  Li  Li9  1  0.548721  0.214264  0.770606  1
  Li  Li10  1  0.096298  0.128880  0.225535  1
  Li  Li11  1  0.599141  0.126964  0.277525  1
  Ti  Ti12  1  0.671569  0.667943  0.997986  1
  Ti  Ti13  1  0.333331  0.333318  0.999989  1
  Ti  Ti14  1  0.995072  0.998709  0.002040  1
  Cr  Cr15  1  0.831941  0.666211  0.503308  1
  Cr  Cr16  1  0.168174  0.666678  0.501135  1
  Cr  Cr17  1  0.499493  0.668554  0.499811  1
  Cr  Cr18  1  0.332518  0.666166  0.997679  1
  Cr  Cr19  1  0.000984  0.667552  0.999942  1
  Cr  Cr20  1  0.498076  0.335994  0.501605  1
  Cr  Cr21  1  0.833406  0.333323  0.500023  1
  Cr  Cr22  1  0.168410  0.330710  0.498402  1
  Cr  Cr23  1  0.997889  0.335352  0.997104  1
  Cr  Cr24  1  0.668759  0.331300  0.002925  1
  Cr  Cr25  1  0.167297  0.997992  0.500192  1
  Cr  Cr26  1  0.498417  0.000053  0.498809  1
  Cr  Cr27  1  0.834798  0.000431  0.496697  1
  Cr  Cr28  1  0.334131  0.000500  0.002311  1
  Cr  Cr29  1  0.665653  0.999099  0.000053  1
  O  O30  1  0.381247  0.887364  0.399667  1
  O  O31  1  0.719578  0.892998  0.396770  1
  O  O32  1  0.217340  0.892017  0.103903  1
  O  O33  1  0.886598  0.889351  0.103078  1
  O  O34  1  0.563364  0.880476  0.101450  1
  O  O35  1  0.065571  0.888984  0.400670  1
  O  O36  1  0.601022  0.777660  0.599210  1
  O  O37  1  0.103236  0.786203  0.898545  1
  O  O38  1  0.780040  0.777291  0.896923  1
  O  O39  1  0.449309  0.774640  0.896084  1
  O  O40  1  0.285484  0.779275  0.600325  1
  O  O41  1  0.947057  0.773772  0.603277  1
  O  O42  1  0.054775  0.554909  0.401183  1
  O  O43  1  0.394636  0.560879  0.396858  1
  O  O44  1  0.887812  0.559591  0.105246  1
  O  O45  1  0.556012  0.556307  0.099983  1
  O  O46  1  0.224373  0.549298  0.100818  1
  O  O47  1  0.713851  0.558991  0.402378  1
  O  O48  1  0.275329  0.442987  0.597103  1
  O  O49  1  0.771545  0.450011  0.898664  1
  O  O50  1  0.449680  0.438384  0.895521  1
  O  O51  1  0.114625  0.444624  0.897588  1
  O  O52  1  0.606511  0.449299  0.600327  1
  O  O53  1  0.953200  0.437700  0.603832  1
  O  O54  1  0.060102  0.217200  0.399709  1
  O  O55  1  0.713272  0.229048  0.396279  1
  O  O56  1  0.552033  0.222009  0.102430  1
  O  O57  1  0.216985  0.228269  0.104463  1
  O  O58  1  0.895101  0.216641  0.101366  1
  O  O59  1  0.391663  0.223781  0.402887  1
  O  O60  1  0.952834  0.107577  0.597606  1
  O  O61  1  0.442321  0.117316  0.899154  1
  O  O62  1  0.110620  0.110376  0.900039  1
  O  O63  1  0.778808  0.107088  0.894755  1
  O  O64  1  0.272196  0.105666  0.603141  1
  O  O65  1  0.611826  0.111995  0.598764  1
