# generated using pymatgen
data_CsH24Ru(SO10)2
_symmetry_space_group_name_H-M   'P 1'
_cell_length_a   12.47467350
_cell_length_b   12.47467350
_cell_length_c   12.47467350
_cell_angle_alpha   90.00000000
_cell_angle_beta   90.00000000
_cell_angle_gamma   90.00000000
_symmetry_Int_Tables_number   1
_chemical_formula_structural   CsH24Ru(SO10)2
_chemical_formula_sum   'Cs4 H96 Ru4 S8 O80'
_cell_volume   1941.27724056
_cell_formula_units_Z   4
loop_
 _symmetry_equiv_pos_site_id
 _symmetry_equiv_pos_as_xyz
  1  'x, y, z'
loop_
 _atom_site_type_symbol
 _atom_site_label
 _atom_site_symmetry_multiplicity
 _atom_site_fract_x
 _atom_site_fract_y
 _atom_site_fract_z
 _atom_site_occupancy
  Cs  Cs0  1  0.000000  0.000000  0.500000  1
  Cs  Cs1  1  0.000000  0.500000  0.000000  1
  Cs  Cs2  1  0.500000  0.000000  0.000000  1
  Cs  Cs3  1  0.500000  0.500000  0.500000  1
  H  H4  1  0.219195  0.508388  0.229459  1
  H  H5  1  0.780805  0.008388  0.270541  1
  H  H6  1  0.280805  0.491612  0.729459  1
  H  H7  1  0.719195  0.991612  0.770541  1
  H  H8  1  0.229459  0.219195  0.508388  1
  H  H9  1  0.270541  0.780805  0.008388  1
  H  H10  1  0.729459  0.280805  0.491612  1
  H  H11  1  0.770541  0.719195  0.991612  1
  H  H12  1  0.508388  0.229459  0.219195  1
  H  H13  1  0.008388  0.270541  0.780805  1
  H  H14  1  0.491612  0.729459  0.280805  1
  H  H15  1  0.991612  0.770541  0.719195  1
  H  H16  1  0.780805  0.491612  0.770541  1
  H  H17  1  0.219195  0.991612  0.729459  1
  H  H18  1  0.719195  0.508388  0.270541  1
  H  H19  1  0.280805  0.008388  0.229459  1
  H  H20  1  0.770541  0.780805  0.491612  1
  H  H21  1  0.729459  0.219195  0.991612  1
  H  H22  1  0.270541  0.719195  0.508388  1
  H  H23  1  0.229459  0.280805  0.008388  1
  H  H24  1  0.491612  0.770541  0.780805  1
  H  H25  1  0.991612  0.729459  0.219195  1
  H  H26  1  0.508388  0.270541  0.719195  1
  H  H27  1  0.008388  0.229459  0.280805  1
  H  H28  1  0.181792  0.627585  0.220555  1
  H  H29  1  0.818208  0.127585  0.279445  1
  H  H30  1  0.318208  0.372415  0.720555  1
  H  H31  1  0.681792  0.872415  0.779445  1
  H  H32  1  0.220555  0.181792  0.627585  1
  H  H33  1  0.279445  0.818208  0.127585  1
  H  H34  1  0.720555  0.318208  0.372415  1
  H  H35  1  0.779445  0.681792  0.872415  1
  H  H36  1  0.627585  0.220555  0.181792  1
  H  H37  1  0.127585  0.279445  0.818208  1
  H  H38  1  0.372415  0.720555  0.318208  1
  H  H39  1  0.872415  0.779445  0.681792  1
  H  H40  1  0.818208  0.372415  0.779445  1
  H  H41  1  0.181792  0.872415  0.720555  1
  H  H42  1  0.681792  0.627585  0.279445  1
  H  H43  1  0.318208  0.127585  0.220555  1
  H  H44  1  0.779445  0.818208  0.372415  1
  H  H45  1  0.720555  0.181792  0.872415  1
  H  H46  1  0.279445  0.681792  0.627585  1
  H  H47  1  0.220555  0.318208  0.127585  1
  H  H48  1  0.372415  0.779445  0.818208  1
  H  H49  1  0.872415  0.720555  0.181792  1
  H  H50  1  0.627585  0.279445  0.681792  1
  H  H51  1  0.127585  0.220555  0.318208  1
  H  H52  1  0.476505  0.710006  0.937304  1
  H  H53  1  0.523495  0.210006  0.562696  1
  H  H54  1  0.023495  0.289994  0.437304  1
  H  H55  1  0.976505  0.789994  0.062696  1
  H  H56  1  0.937304  0.476505  0.710006  1
  H  H57  1  0.562696  0.523495  0.210006  1
  H  H58  1  0.437304  0.023495  0.289994  1
  H  H59  1  0.062696  0.976505  0.789994  1
  H  H60  1  0.710006  0.937304  0.476505  1
  H  H61  1  0.210006  0.562696  0.523495  1
  H  H62  1  0.289994  0.437304  0.023495  1
  H  H63  1  0.789994  0.062696  0.976505  1
  H  H64  1  0.523495  0.289994  0.062696  1
  H  H65  1  0.476505  0.789994  0.437304  1
  H  H66  1  0.976505  0.710006  0.562696  1
  H  H67  1  0.023495  0.210006  0.937304  1
  H  H68  1  0.062696  0.523495  0.289994  1
  H  H69  1  0.437304  0.476505  0.789994  1
  H  H70  1  0.562696  0.976505  0.710006  1
  H  H71  1  0.937304  0.023495  0.210006  1
  H  H72  1  0.289994  0.062696  0.523495  1
  H  H73  1  0.789994  0.437304  0.476505  1
  H  H74  1  0.710006  0.562696  0.976505  1
  H  H75  1  0.210006  0.937304  0.023495  1
  H  H76  1  0.527751  0.705865  0.062805  1
  H  H77  1  0.472249  0.205865  0.437195  1
  H  H78  1  0.972249  0.294135  0.562805  1
  H  H79  1  0.027751  0.794135  0.937195  1
  H  H80  1  0.062805  0.527751  0.705865  1
  H  H81  1  0.437195  0.472249  0.205865  1
  H  H82  1  0.562805  0.972249  0.294135  1
  H  H83  1  0.937195  0.027751  0.794135  1
  H  H84  1  0.705865  0.062805  0.527751  1
  H  H85  1  0.205865  0.437195  0.472249  1
  H  H86  1  0.294135  0.562805  0.972249  1
  H  H87  1  0.794135  0.937195  0.027751  1
  H  H88  1  0.472249  0.294135  0.937195  1
  H  H89  1  0.527751  0.794135  0.562805  1
  H  H90  1  0.027751  0.705865  0.437195  1
  H  H91  1  0.972249  0.205865  0.062805  1
  H  H92  1  0.937195  0.472249  0.294135  1
  H  H93  1  0.562805  0.527751  0.794135  1
  H  H94  1  0.437195  0.027751  0.705865  1
  H  H95  1  0.062805  0.972249  0.205865  1
  H  H96  1  0.294135  0.937195  0.472249  1
  H  H97  1  0.794135  0.562805  0.527751  1
  H  H98  1  0.705865  0.437195  0.027751  1
  H  H99  1  0.205865  0.062805  0.972249  1
  Ru  Ru100  1  0.500000  0.500000  0.000000  1
  Ru  Ru101  1  0.500000  0.000000  0.500000  1
  Ru  Ru102  1  0.000000  0.500000  0.500000  1
  Ru  Ru103  1  0.000000  0.000000  0.000000  1
  S  S104  1  0.173794  0.826206  0.326206  1
  S  S105  1  0.826206  0.326206  0.173794  1
  S  S106  1  0.326206  0.173794  0.826206  1
  S  S107  1  0.673794  0.673794  0.673794  1
  S  S108  1  0.826206  0.173794  0.673794  1
  S  S109  1  0.173794  0.673794  0.826206  1
  S  S110  1  0.673794  0.826206  0.173794  1
  S  S111  1  0.326206  0.326206  0.326206  1
  O  O112  1  0.243353  0.756647  0.256647  1
  O  O113  1  0.756647  0.256647  0.243353  1
  O  O114  1  0.256647  0.243353  0.756647  1
  O  O115  1  0.743353  0.743353  0.743353  1
  O  O116  1  0.756647  0.243353  0.743353  1
  O  O117  1  0.243353  0.743353  0.756647  1
  O  O118  1  0.743353  0.756647  0.243353  1
  O  O119  1  0.256647  0.256647  0.256647  1
  O  O120  1  0.064111  0.778875  0.333801  1
  O  O121  1  0.935889  0.278875  0.166199  1
  O  O122  1  0.435889  0.221125  0.833801  1
  O  O123  1  0.564111  0.721125  0.666199  1
  O  O124  1  0.333801  0.064111  0.778875  1
  O  O125  1  0.166199  0.935889  0.278875  1
  O  O126  1  0.833801  0.435889  0.221125  1
  O  O127  1  0.666199  0.564111  0.721125  1
  O  O128  1  0.778875  0.333801  0.064111  1
  O  O129  1  0.278875  0.166199  0.935889  1
  O  O130  1  0.221125  0.833801  0.435889  1
  O  O131  1  0.721125  0.666199  0.564111  1
  O  O132  1  0.935889  0.221125  0.666199  1
  O  O133  1  0.064111  0.721125  0.833801  1
  O  O134  1  0.564111  0.778875  0.166199  1
  O  O135  1  0.435889  0.278875  0.333801  1
  O  O136  1  0.666199  0.935889  0.221125  1
  O  O137  1  0.833801  0.064111  0.721125  1
  O  O138  1  0.166199  0.564111  0.778875  1
  O  O139  1  0.333801  0.435889  0.278875  1
  O  O140  1  0.221125  0.666199  0.935889  1
  O  O141  1  0.721125  0.833801  0.064111  1
  O  O142  1  0.778875  0.166199  0.564111  1
  O  O143  1  0.278875  0.333801  0.435889  1
  O  O144  1  0.156598  0.553268  0.209277  1
  O  O145  1  0.843402  0.053268  0.290723  1
  O  O146  1  0.343402  0.446732  0.709277  1
  O  O147  1  0.656598  0.946732  0.790723  1
  O  O148  1  0.209277  0.156598  0.553268  1
  O  O149  1  0.290723  0.843402  0.053268  1
  O  O150  1  0.709277  0.343402  0.446732  1
  O  O151  1  0.790723  0.656598  0.946732  1
  O  O152  1  0.553268  0.209277  0.156598  1
  O  O153  1  0.053268  0.290723  0.843402  1
  O  O154  1  0.446732  0.709277  0.343402  1
  O  O155  1  0.946732  0.790723  0.656598  1
  O  O156  1  0.843402  0.446732  0.790723  1
  O  O157  1  0.156598  0.946732  0.709277  1
  O  O158  1  0.656598  0.553268  0.290723  1
  O  O159  1  0.343402  0.053268  0.209277  1
  O  O160  1  0.790723  0.843402  0.446732  1
  O  O161  1  0.709277  0.156598  0.946732  1
  O  O162  1  0.290723  0.656598  0.553268  1
  O  O163  1  0.209277  0.343402  0.053268  1
  O  O164  1  0.446732  0.790723  0.843402  1
  O  O165  1  0.946732  0.709277  0.156598  1
  O  O166  1  0.553268  0.290723  0.656598  1
  O  O167  1  0.053268  0.209277  0.343402  1
  O  O168  1  0.502127  0.663594  0.999587  1
  O  O169  1  0.497873  0.163594  0.500413  1
  O  O170  1  0.997873  0.336406  0.499587  1
  O  O171  1  0.002127  0.836406  0.000413  1
  O  O172  1  0.999587  0.502127  0.663594  1
  O  O173  1  0.500413  0.497873  0.163594  1
  O  O174  1  0.499587  0.997873  0.336406  1
  O  O175  1  0.000413  0.002127  0.836406  1
  O  O176  1  0.663594  0.999587  0.502127  1
  O  O177  1  0.163594  0.500413  0.497873  1
  O  O178  1  0.336406  0.499587  0.997873  1
  O  O179  1  0.836406  0.000413  0.002127  1
  O  O180  1  0.497873  0.336406  0.000413  1
  O  O181  1  0.502127  0.836406  0.499587  1
  O  O182  1  0.002127  0.663594  0.500413  1
  O  O183  1  0.997873  0.163594  0.999587  1
  O  O184  1  0.000413  0.497873  0.336406  1
  O  O185  1  0.499587  0.502127  0.836406  1
  O  O186  1  0.500413  0.002127  0.663594  1
  O  O187  1  0.999587  0.997873  0.163594  1
  O  O188  1  0.336406  0.000413  0.497873  1
  O  O189  1  0.836406  0.499587  0.502127  1
  O  O190  1  0.663594  0.500413  0.002127  1
  O  O191  1  0.163594  0.999587  0.997873  1
