# generated using pymatgen
data_Na5LiMn2P2(CO7)2
_symmetry_space_group_name_H-M   'P 1'
_cell_length_a   8.98001470
_cell_length_b   6.81305466
_cell_length_c   10.35178570
_cell_angle_alpha   90.14909618
_cell_angle_beta   89.85514388
_cell_angle_gamma   89.70552684
_symmetry_Int_Tables_number   1
_chemical_formula_structural   Na5LiMn2P2(CO7)2
_chemical_formula_sum   'Na10 Li2 Mn4 P4 C4 O28'
_cell_volume   633.32347232
_cell_formula_units_Z   2
loop_
 _symmetry_equiv_pos_site_id
 _symmetry_equiv_pos_as_xyz
  1  'x, y, z'
loop_
 _atom_site_type_symbol
 _atom_site_label
 _atom_site_symmetry_multiplicity
 _atom_site_fract_x
 _atom_site_fract_y
 _atom_site_fract_z
 _atom_site_occupancy
  Na  Na0  1  0.082203  0.247845  0.879490  1
  Na  Na1  1  0.082408  0.250293  0.380646  1
  Na  Na2  1  0.258046  0.000682  0.623929  1
  Na  Na3  1  0.258340  0.499287  0.623725  1
  Na  Na4  1  0.259238  0.002015  0.124321  1
  Na  Na5  1  0.259389  0.498196  0.124010  1
  Na  Na6  1  0.741857  0.502003  0.875039  1
  Na  Na7  1  0.740775  0.501489  0.377438  1
  Na  Na8  1  0.741185  0.998639  0.377493  1
  Na  Na9  1  0.915781  0.751794  0.119709  1
  Li  Li10  1  0.732532  0.991987  0.877873  1
  Li  Li11  1  0.915235  0.752846  0.622605  1
  Mn  Mn12  1  0.362824  0.749579  0.887850  1
  Mn  Mn13  1  0.362522  0.750087  0.389772  1
  Mn  Mn14  1  0.640751  0.248896  0.612692  1
  Mn  Mn15  1  0.639066  0.247788  0.109132  1
  P  P16  1  0.414373  0.245885  0.850312  1
  P  P17  1  0.411733  0.249982  0.351812  1
  P  P18  1  0.595409  0.753032  0.649991  1
  P  P19  1  0.588583  0.749811  0.146651  1
  C  C20  1  0.055215  0.755773  0.864287  1
  C  C21  1  0.056023  0.750063  0.371714  1
  C  C22  1  0.938865  0.248339  0.633211  1
  C  C23  1  0.939058  0.249051  0.131533  1
  O  O24  1  0.082848  0.250578  0.643817  1
  O  O25  1  0.083054  0.250805  0.142049  1
  O  O26  1  0.116499  0.750175  0.978366  1
  O  O27  1  0.109794  0.750628  0.488680  1
  O  O28  1  0.140547  0.749220  0.762436  1
  O  O29  1  0.146207  0.750473  0.272530  1
  O  O30  1  0.319214  0.065599  0.890909  1
  O  O31  1  0.326180  0.432432  0.893487  1
  O  O32  1  0.319485  0.066853  0.392010  1
  O  O33  1  0.318985  0.434187  0.392142  1
  O  O34  1  0.429774  0.248632  0.700100  1
  O  O35  1  0.437522  0.750368  0.588516  1
  O  O36  1  0.430284  0.249444  0.201632  1
  O  O37  1  0.430588  0.749776  0.086331  1
  O  O38  1  0.573655  0.236378  0.908867  1
  O  O39  1  0.576496  0.761959  0.800551  1
  O  O40  1  0.568316  0.250302  0.414082  1
  O  O41  1  0.570848  0.752938  0.296887  1
  O  O42  1  0.688807  0.568226  0.612303  1
  O  O43  1  0.689343  0.932158  0.606323  1
  O  O44  1  0.680254  0.564838  0.106891  1
  O  O45  1  0.680600  0.931177  0.102903  1
  O  O46  1  0.854748  0.245159  0.735807  1
  O  O47  1  0.855294  0.248407  0.234357  1
  O  O48  1  0.877227  0.249717  0.519500  1
  O  O49  1  0.876921  0.247964  0.018122  1
  O  O50  1  0.911522  0.767049  0.851001  1
  O  O51  1  0.913577  0.749202  0.354168  1
