# generated using pymatgen
data_Mn8O13F3
_symmetry_space_group_name_H-M   'P 1'
_cell_length_a   5.97357805
_cell_length_b   9.34988479
_cell_length_c   4.52668417
_cell_angle_alpha   94.12408075
_cell_angle_beta   90.00000000
_cell_angle_gamma   90.00000000
_symmetry_Int_Tables_number   1
_chemical_formula_structural   Mn8O13F3
_chemical_formula_sum   'Mn8 O13 F3'
_cell_volume   252.17091574
_cell_formula_units_Z   1
loop_
 _symmetry_equiv_pos_site_id
 _symmetry_equiv_pos_as_xyz
  1  'x, y, z'
loop_
 _atom_site_type_symbol
 _atom_site_label
 _atom_site_symmetry_multiplicity
 _atom_site_fract_x
 _atom_site_fract_y
 _atom_site_fract_z
 _atom_site_occupancy
  Mn  Mn0  1  0.000000  0.000718  0.996515  1
  Mn  Mn1  1  0.249309  0.264363  0.460801  1
  Mn  Mn2  1  0.500000  0.986674  0.029950  1
  Mn  Mn3  1  0.000000  0.504939  0.989921  1
  Mn  Mn4  1  0.257332  0.739702  0.527161  1
  Mn  Mn5  1  0.750691  0.264363  0.460801  1
  Mn  Mn6  1  0.500000  0.500904  0.996722  1
  Mn  Mn7  1  0.742668  0.739702  0.527161  1
  O  O8  1  0.248968  0.089885  0.216471  1
  O  O9  1  0.251932  0.907664  0.794071  1
  O  O10  1  0.000000  0.340026  0.259178  1
  O  O11  1  0.748068  0.907664  0.794071  1
  O  O12  1  0.248644  0.415649  0.776247  1
  O  O13  1  0.500000  0.343470  0.262995  1
  O  O14  1  0.751032  0.089885  0.216471  1
  O  O15  1  0.249632  0.583385  0.220749  1
  O  O16  1  0.000000  0.661406  0.731597  1
  O  O17  1  0.750368  0.583385  0.220749  1
  O  O18  1  0.500000  0.661162  0.727895  1
  O  O19  1  0.751356  0.415649  0.776247  1
  O  O20  1  0.500000  0.823456  0.324578  1
  F  F21  1  0.000000  0.171930  0.691730  1
  F  F22  1  0.000000  0.828139  0.314864  1
  F  F23  1  0.500000  0.175880  0.683053  1
