# generated using pymatgen
data_Mn2PO5
_symmetry_space_group_name_H-M   'P 1'
_cell_length_a   8.49214907
_cell_length_b   8.44153070
_cell_length_c   6.04392395
_cell_angle_alpha   90.00000000
_cell_angle_beta   90.00000000
_cell_angle_gamma   90.00000000
_symmetry_Int_Tables_number   1
_chemical_formula_structural   Mn2PO5
_chemical_formula_sum   'Mn8 P4 O20'
_cell_volume   433.26918716
_cell_formula_units_Z   4
loop_
 _symmetry_equiv_pos_site_id
 _symmetry_equiv_pos_as_xyz
  1  'x, y, z'
loop_
 _atom_site_type_symbol
 _atom_site_label
 _atom_site_symmetry_multiplicity
 _atom_site_fract_x
 _atom_site_fract_y
 _atom_site_fract_z
 _atom_site_occupancy
  Mn  Mn0  1  0.000000  0.000000  0.240828  1
  Mn  Mn1  1  0.000000  0.000000  0.759172  1
  Mn  Mn2  1  0.130970  0.645978  0.000000  1
  Mn  Mn3  1  0.369030  0.145978  0.500000  1
  Mn  Mn4  1  0.500000  0.500000  0.259172  1
  Mn  Mn5  1  0.500000  0.500000  0.740828  1
  Mn  Mn6  1  0.630970  0.854022  0.500000  1
  Mn  Mn7  1  0.869030  0.354022  0.000000  1
  P  P8  1  0.248118  0.265829  0.000000  1
  P  P9  1  0.251882  0.765829  0.500000  1
  P  P10  1  0.748118  0.234171  0.500000  1
  P  P11  1  0.751882  0.734171  0.000000  1
  O  O12  1  0.088795  0.861866  0.500000  1
  O  O13  1  0.079651  0.876377  0.000000  1
  O  O14  1  0.118529  0.395649  0.000000  1
  O  O15  1  0.236987  0.161816  0.209165  1
  O  O16  1  0.236987  0.161816  0.790835  1
  O  O17  1  0.263013  0.661816  0.290835  1
  O  O18  1  0.263013  0.661816  0.709165  1
  O  O19  1  0.381471  0.895649  0.500000  1
  O  O20  1  0.420349  0.376377  0.500000  1
  O  O21  1  0.411205  0.361866  0.000000  1
  O  O22  1  0.588795  0.638134  0.000000  1
  O  O23  1  0.579651  0.623623  0.500000  1
  O  O24  1  0.618529  0.104351  0.500000  1
  O  O25  1  0.736987  0.338184  0.290835  1
  O  O26  1  0.736987  0.338184  0.709165  1
  O  O27  1  0.763013  0.838184  0.209165  1
  O  O28  1  0.763013  0.838184  0.790835  1
  O  O29  1  0.881471  0.604351  0.000000  1
  O  O30  1  0.920349  0.123623  0.000000  1
  O  O31  1  0.911205  0.138134  0.500000  1
