# generated using pymatgen
data_Na6MgO4
_symmetry_space_group_name_H-M   'P 1'
_cell_length_a   7.49594889
_cell_length_b   7.49598705
_cell_length_c   5.50849084
_cell_angle_alpha   89.99990975
_cell_angle_beta   89.99998803
_cell_angle_gamma   90.00054804
_symmetry_Int_Tables_number   1
_chemical_formula_structural   Na6MgO4
_chemical_formula_sum   'Na12 Mg2 O8'
_cell_volume   309.51954329
_cell_formula_units_Z   2
loop_
 _symmetry_equiv_pos_site_id
 _symmetry_equiv_pos_as_xyz
  1  'x, y, z'
loop_
 _atom_site_type_symbol
 _atom_site_label
 _atom_site_symmetry_multiplicity
 _atom_site_fract_x
 _atom_site_fract_y
 _atom_site_fract_z
 _atom_site_occupancy
  Na  Na0  1  0.037328  0.537341  0.749998  1
  Na  Na1  1  0.037326  0.962685  0.750012  1
  Na  Na2  1  0.250009  0.250008  0.671443  1
  Na  Na3  1  0.250017  0.250006  0.171442  1
  Na  Na4  1  0.462679  0.537325  0.749984  1
  Na  Na5  1  0.462692  0.962696  0.750003  1
  Na  Na6  1  0.537343  0.037334  0.249991  1
  Na  Na7  1  0.537317  0.462676  0.249986  1
  Na  Na8  1  0.750017  0.750003  0.328578  1
  Na  Na9  1  0.750008  0.750012  0.828573  1
  Na  Na10  1  0.962688  0.037321  0.250003  1
  Na  Na11  1  0.962694  0.462699  0.249991  1
  Mg  Mg12  1  0.250004  0.750007  0.249991  1
  Mg  Mg13  1  0.750015  0.250012  0.750004  1
  O  O14  1  0.990966  0.250015  0.934366  1
  O  O15  1  0.250011  0.990965  0.434370  1
  O  O16  1  0.250004  0.509041  0.434361  1
  O  O17  1  0.509038  0.250005  0.934360  1
  O  O18  1  0.490966  0.750007  0.065631  1
  O  O19  1  0.750011  0.009041  0.565641  1
  O  O20  1  0.750005  0.490965  0.565634  1
  O  O21  1  0.009044  0.750013  0.065638  1
