# generated using pymatgen
data_NaTiO2
_symmetry_space_group_name_H-M   'P 1'
_cell_length_a   5.44124896
_cell_length_b   6.10252773
_cell_length_c   12.29145582
_cell_angle_alpha   90.00428319
_cell_angle_beta   90.00000000
_cell_angle_gamma   90.00000000
_symmetry_Int_Tables_number   1
_chemical_formula_structural   NaTiO2
_chemical_formula_sum   'Na8 Ti8 O16'
_cell_volume   408.14236995
_cell_formula_units_Z   8
loop_
 _symmetry_equiv_pos_site_id
 _symmetry_equiv_pos_as_xyz
  1  'x, y, z'
loop_
 _atom_site_type_symbol
 _atom_site_label
 _atom_site_symmetry_multiplicity
 _atom_site_fract_x
 _atom_site_fract_y
 _atom_site_fract_z
 _atom_site_occupancy
  Na  Na0  1  0.087608  0.612888  0.814136  1
  Na  Na1  1  0.087757  0.112536  0.686107  1
  Na  Na2  1  0.412243  0.112536  0.186107  1
  Na  Na3  1  0.412392  0.612888  0.314136  1
  Na  Na4  1  0.587332  0.887341  0.813945  1
  Na  Na5  1  0.587912  0.387226  0.685876  1
  Na  Na6  1  0.912088  0.387226  0.185876  1
  Na  Na7  1  0.912668  0.887341  0.313945  1
  Ti  Ti8  1  0.122147  0.170306  0.941824  1
  Ti  Ti9  1  0.122337  0.670236  0.558177  1
  Ti  Ti10  1  0.377663  0.670236  0.058177  1
  Ti  Ti11  1  0.377853  0.170306  0.441824  1
  Ti  Ti12  1  0.622252  0.829724  0.558200  1
  Ti  Ti13  1  0.622262  0.329750  0.941830  1
  Ti  Ti14  1  0.877738  0.329750  0.441830  1
  Ti  Ti15  1  0.877748  0.829724  0.058200  1
  O  O16  1  0.106357  0.234134  0.332242  1
  O  O17  1  0.106323  0.733870  0.167653  1
  O  O18  1  0.296967  0.859461  0.456115  1
  O  O19  1  0.296895  0.359396  0.043878  1
  O  O20  1  0.203105  0.359396  0.543878  1
  O  O21  1  0.203033  0.859461  0.956115  1
  O  O22  1  0.393677  0.733870  0.667653  1
  O  O23  1  0.393643  0.234134  0.832242  1
  O  O24  1  0.606394  0.765645  0.167748  1
  O  O25  1  0.606284  0.266269  0.332332  1
  O  O26  1  0.796893  0.140561  0.043851  1
  O  O27  1  0.796981  0.640644  0.456069  1
  O  O28  1  0.703019  0.640644  0.956069  1
  O  O29  1  0.703107  0.140561  0.543851  1
  O  O30  1  0.893716  0.266269  0.832332  1
  O  O31  1  0.893606  0.765645  0.667748  1
