# generated using pymatgen
data_Li6Mn5Fe(BO3)6
_symmetry_space_group_name_H-M   'P 1'
_cell_length_a   8.27779093
_cell_length_b   8.28216267
_cell_length_c   6.36525982
_cell_angle_alpha   90.00000000
_cell_angle_beta   90.00000000
_cell_angle_gamma   120.11357901
_symmetry_Int_Tables_number   1
_chemical_formula_structural   Li6Mn5Fe(BO3)6
_chemical_formula_sum   'Li6 Mn5 Fe1 B6 O18'
_cell_volume   377.49116299
_cell_formula_units_Z   1
loop_
 _symmetry_equiv_pos_site_id
 _symmetry_equiv_pos_as_xyz
  1  'x, y, z'
loop_
 _atom_site_type_symbol
 _atom_site_label
 _atom_site_symmetry_multiplicity
 _atom_site_fract_x
 _atom_site_fract_y
 _atom_site_fract_z
 _atom_site_occupancy
  Li  Li0  1  0.283915  0.982234  0.249827  1
  Li  Li1  1  0.283915  0.982234  0.750173  1
  Li  Li2  1  0.017341  0.301210  0.250401  1
  Li  Li3  1  0.017341  0.301210  0.749599  1
  Li  Li4  1  0.698861  0.715359  0.749644  1
  Li  Li5  1  0.698861  0.715359  0.250356  1
  Mn  Mn6  1  0.371545  0.359495  0.000000  1
  Mn  Mn7  1  0.372571  0.360628  0.500000  1
  Mn  Mn8  1  0.640680  0.011914  0.000000  1
  Mn  Mn9  1  0.639671  0.012103  0.500000  1
  Mn  Mn10  1  0.987738  0.628575  0.000000  1
  Fe  Fe11  1  0.993134  0.633508  0.500000  1
  B  B12  1  0.000110  0.000302  0.000000  1
  B  B13  1  0.997595  0.997533  0.500000  1
  B  B14  1  0.332446  0.666580  0.251830  1
  B  B15  1  0.332446  0.666580  0.748170  1
  B  B16  1  0.668077  0.334518  0.251342  1
  B  B17  1  0.668077  0.334518  0.748658  1
  O  O18  1  0.110600  0.915966  0.500000  1
  O  O19  1  0.115688  0.922569  0.000000  1
  O  O20  1  0.138699  0.580543  0.254132  1
  O  O21  1  0.138699  0.580543  0.745868  1
  O  O22  1  0.078097  0.193857  0.000000  1
  O  O23  1  0.079352  0.191104  0.500000  1
  O  O24  1  0.440057  0.860004  0.249879  1
  O  O25  1  0.440057  0.860004  0.750121  1
  O  O26  1  0.418458  0.559303  0.250085  1
  O  O27  1  0.418458  0.559303  0.749915  1
  O  O28  1  0.473970  0.251842  0.250275  1
  O  O29  1  0.473970  0.251842  0.749725  1
  O  O30  1  0.806478  0.884525  0.000000  1
  O  O31  1  0.804154  0.884143  0.500000  1
  O  O32  1  0.780131  0.527927  0.252491  1
  O  O33  1  0.780131  0.527927  0.747509  1
  O  O34  1  0.749336  0.222373  0.749502  1
  O  O35  1  0.749336  0.222373  0.250498  1
