# generated using pymatgen
data_Na3CoPCO7
_symmetry_space_group_name_H-M   'P 1'
_cell_length_a   8.88973761
_cell_length_b   5.26449782
_cell_length_c   6.71907595
_cell_angle_alpha   90.00000000
_cell_angle_beta   90.00000000
_cell_angle_gamma   87.90905409
_symmetry_Int_Tables_number   1
_chemical_formula_structural   Na3CoPCO7
_chemical_formula_sum   'Na6 Co2 P2 C2 O14'
_cell_volume   314.24341166
_cell_formula_units_Z   2
loop_
 _symmetry_equiv_pos_site_id
 _symmetry_equiv_pos_as_xyz
  1  'x, y, z'
loop_
 _atom_site_type_symbol
 _atom_site_label
 _atom_site_symmetry_multiplicity
 _atom_site_fract_x
 _atom_site_fract_y
 _atom_site_fract_z
 _atom_site_occupancy
  Na  Na0  1  0.085470  0.774137  0.250000  1
  Na  Na1  1  0.273853  0.258393  0.008812  1
  Na  Na2  1  0.273853  0.258393  0.491188  1
  Na  Na3  1  0.726147  0.741607  0.991188  1
  Na  Na4  1  0.726147  0.741607  0.508812  1
  Na  Na5  1  0.914530  0.225863  0.750000  1
  Co  Co6  1  0.344696  0.777979  0.750000  1
  Co  Co7  1  0.655304  0.222021  0.250000  1
  P  P8  1  0.416921  0.719910  0.250000  1
  P  P9  1  0.583079  0.280090  0.750000  1
  C  C10  1  0.057428  0.707856  0.750000  1
  C  C11  1  0.942572  0.292144  0.250000  1
  O  O12  1  0.112729  0.933828  0.750000  1
  O  O13  1  0.086183  0.322404  0.250000  1
  O  O14  1  0.152479  0.513077  0.750000  1
  O  O15  1  0.318192  0.793252  0.064921  1
  O  O16  1  0.318192  0.793252  0.435079  1
  O  O17  1  0.432301  0.142953  0.750000  1
  O  O18  1  0.449723  0.425901  0.250000  1
  O  O19  1  0.550277  0.574099  0.750000  1
  O  O20  1  0.567699  0.857047  0.250000  1
  O  O21  1  0.681808  0.206748  0.935079  1
  O  O22  1  0.681808  0.206748  0.564921  1
  O  O23  1  0.847521  0.486923  0.250000  1
  O  O24  1  0.913817  0.677596  0.750000  1
  O  O25  1  0.887271  0.066172  0.250000  1
