# generated using pymatgen
data_LiFe2OF3
_symmetry_space_group_name_H-M   'P 1'
_cell_length_a   5.01973041
_cell_length_b   10.77414429
_cell_length_c   6.16410173
_cell_angle_alpha   90.00931836
_cell_angle_beta   90.00311305
_cell_angle_gamma   89.99534215
_symmetry_Int_Tables_number   1
_chemical_formula_structural   LiFe2OF3
_chemical_formula_sum   'Li4 Fe8 O4 F12'
_cell_volume   333.37495547
_cell_formula_units_Z   4
loop_
 _symmetry_equiv_pos_site_id
 _symmetry_equiv_pos_as_xyz
  1  'x, y, z'
loop_
 _atom_site_type_symbol
 _atom_site_label
 _atom_site_symmetry_multiplicity
 _atom_site_fract_x
 _atom_site_fract_y
 _atom_site_fract_z
 _atom_site_occupancy
  Li  Li0  1  0.053089  0.592294  0.249870  1
  Li  Li1  1  0.446915  0.092401  0.250029  1
  Li  Li2  1  0.553062  0.907797  0.749969  1
  Li  Li3  1  0.946883  0.407552  0.750135  1
  Fe  Fe4  1  0.999976  0.999994  0.000008  1
  Fe  Fe5  1  -0.000007  0.999967  0.499990  1
  Fe  Fe6  1  0.955599  0.711337  0.749962  1
  Fe  Fe7  1  0.544336  0.211404  0.749993  1
  Fe  Fe8  1  0.500000  0.499980  0.500014  1
  Fe  Fe9  1  0.499994  0.499967  -0.000003  1
  Fe  Fe10  1  0.455699  0.788648  0.249992  1
  Fe  Fe11  1  0.044387  0.288600  0.250043  1
  O  O12  1  0.268792  0.440413  0.249963  1
  O  O13  1  0.231335  0.940489  0.249982  1
  O  O14  1  0.768786  0.059600  0.750011  1
  O  O15  1  0.731281  0.559495  0.750044  1
  F  F16  1  0.232252  0.668427  0.010339  1
  F  F17  1  0.232250  0.668438  0.489555  1
  F  F18  1  0.187690  0.881651  0.749961  1
  F  F19  1  0.312297  0.381632  0.749976  1
  F  F20  1  0.267725  0.168421  0.010366  1
  F  F21  1  0.267634  0.168465  0.489692  1
  F  F22  1  0.732373  0.831557  0.510414  1
  F  F23  1  0.732286  0.831610  0.989530  1
  F  F24  1  0.687659  0.618387  0.250015  1
  F  F25  1  0.812316  0.118376  0.250050  1
  F  F26  1  0.767693  0.331547  0.510381  1
  F  F27  1  0.767698  0.331553  0.989718  1
