# generated using pymatgen
data_Sm2Ge5Ru3
_symmetry_space_group_name_H-M   'P 1'
_cell_length_a   5.84960183
_cell_length_b   8.53908833
_cell_length_c   8.53963818
_cell_angle_alpha   108.55379096
_cell_angle_beta   110.03885266
_cell_angle_gamma   69.97156077
_symmetry_Int_Tables_number   1
_chemical_formula_structural   Sm2Ge5Ru3
_chemical_formula_sum   'Sm4 Ge10 Ru6'
_cell_volume   366.62209550
_cell_formula_units_Z   2
loop_
 _symmetry_equiv_pos_site_id
 _symmetry_equiv_pos_as_xyz
  1  'x, y, z'
loop_
 _atom_site_type_symbol
 _atom_site_label
 _atom_site_symmetry_multiplicity
 _atom_site_fract_x
 _atom_site_fract_y
 _atom_site_fract_z
 _atom_site_occupancy
  Sm  Sm0  1  0.861020  0.870308  0.592352  1
  Sm  Sm1  1  0.638971  0.592349  0.870285  1
  Sm  Sm2  1  0.361055  0.407608  0.129679  1
  Sm  Sm3  1  0.138960  0.129781  0.407674  1
  Ge  Ge4  1  0.411804  0.913534  0.737193  1
  Ge  Ge5  1  0.457888  0.792320  0.207807  1
  Ge  Ge6  1  0.088237  0.737255  0.913567  1
  Ge  Ge7  1  0.957827  0.792281  0.207746  1
  Ge  Ge8  1  0.249959  0.500038  0.500055  1
  Ge  Ge9  1  0.750031  0.499997  0.499969  1
  Ge  Ge10  1  0.042197  0.207727  0.792237  1
  Ge  Ge11  1  0.911848  0.262710  0.086423  1
  Ge  Ge12  1  0.542058  0.207692  0.792227  1
  Ge  Ge13  1  0.588194  0.086413  0.262838  1
  Ru  Ru14  1  0.352976  0.738221  0.444415  1
  Ru  Ru15  1  0.146886  0.444537  0.738319  1
  Ru  Ru16  1  0.853207  0.555475  0.261665  1
  Ru  Ru17  1  0.646885  0.261768  0.555597  1
  Ru  Ru18  1  0.250009  0.999963  0.999932  1
  Ru  Ru19  1  0.749991  0.000024  0.000020  1
