# generated using pymatgen
data_LiFe(PO3)4
_symmetry_space_group_name_H-M   'P 1'
_cell_length_a   7.44101738
_cell_length_b   8.85671493
_cell_length_c   14.22491698
_cell_angle_alpha   90.00000000
_cell_angle_beta   95.07656143
_cell_angle_gamma   90.00000000
_symmetry_Int_Tables_number   1
_chemical_formula_structural   LiFe(PO3)4
_chemical_formula_sum   'Li4 Fe4 P16 O48'
_cell_volume   933.78692674
_cell_formula_units_Z   4
loop_
 _symmetry_equiv_pos_site_id
 _symmetry_equiv_pos_as_xyz
  1  'x, y, z'
loop_
 _atom_site_type_symbol
 _atom_site_label
 _atom_site_symmetry_multiplicity
 _atom_site_fract_x
 _atom_site_fract_y
 _atom_site_fract_z
 _atom_site_occupancy
  Li  Li0  1  0.060456  0.573092  0.924322  1
  Li  Li1  1  0.439544  0.073092  0.575678  1
  Li  Li2  1  0.560456  0.926908  0.424322  1
  Li  Li3  1  0.939544  0.426908  0.075678  1
  Fe  Fe4  1  0.032676  0.653021  0.353099  1
  Fe  Fe5  1  0.532676  0.846979  0.853099  1
  Fe  Fe6  1  0.467324  0.153021  0.146901  1
  Fe  Fe7  1  0.967324  0.346979  0.646901  1
  P  P8  1  0.063393  0.277674  0.430158  1
  P  P9  1  0.136840  0.048170  0.783197  1
  P  P10  1  0.183342  0.229700  0.958403  1
  P  P11  1  0.209859  0.039142  0.307698  1
  P  P12  1  0.316658  0.729700  0.541597  1
  P  P13  1  0.363160  0.548170  0.716803  1
  P  P14  1  0.290141  0.539142  0.192302  1
  P  P15  1  0.563393  0.222326  0.930158  1
  P  P16  1  0.436607  0.777674  0.069842  1
  P  P17  1  0.709859  0.460858  0.807698  1
  P  P18  1  0.636840  0.451830  0.283197  1
  P  P19  1  0.683342  0.270300  0.458403  1
  P  P20  1  0.790141  0.960858  0.692302  1
  P  P21  1  0.816658  0.770300  0.041597  1
  P  P22  1  0.863160  0.951830  0.216803  1
  P  P23  1  0.936607  0.722326  0.569842  1
  O  O24  1  0.065761  0.365927  0.968320  1
  O  O25  1  0.080107  0.122407  0.880187  1
  O  O26  1  0.031246  0.066393  0.237254  1
  O  O27  1  0.102251  0.292457  0.536141  1
  O  O28  1  0.135686  0.162422  0.704651  1
  O  O29  1  0.141942  0.784431  0.592076  1
  O  O30  1  0.100415  0.408688  0.369450  1
  O  O31  1  0.197267  0.455335  0.698642  1
  O  O32  1  0.168617  0.128968  0.402989  1
  O  O33  1  0.138788  0.622402  0.233488  1
  O  O34  1  0.302733  0.955335  0.801358  1
  O  O35  1  0.240576  0.878629  0.336868  1
  O  O36  1  0.257309  0.639577  0.454794  1
  O  O37  1  0.358058  0.284431  0.907924  1
  O  O38  1  0.364314  0.662422  0.795349  1
  O  O39  1  0.397749  0.792457  0.963859  1
  O  O40  1  0.242691  0.139577  0.045206  1
  O  O41  1  0.259424  0.378629  0.163132  1
  O  O42  1  0.419893  0.622407  0.619813  1
  O  O43  1  0.361212  0.122402  0.266512  1
  O  O44  1  0.434239  0.865927  0.531680  1
  O  O45  1  0.331383  0.628968  0.097011  1
  O  O46  1  0.531246  0.433607  0.737254  1
  O  O47  1  0.399585  0.908688  0.130550  1
  O  O48  1  0.600415  0.091312  0.869450  1
  O  O49  1  0.468754  0.566393  0.262746  1
  O  O50  1  0.668617  0.371032  0.902989  1
  O  O51  1  0.565761  0.134073  0.468320  1
  O  O52  1  0.638788  0.877598  0.733488  1
  O  O53  1  0.580107  0.377593  0.380187  1
  O  O54  1  0.740576  0.621371  0.836868  1
  O  O55  1  0.757309  0.860423  0.954794  1
  O  O56  1  0.602251  0.207543  0.036141  1
  O  O57  1  0.635686  0.337578  0.204651  1
  O  O58  1  0.641941  0.715569  0.092076  1
  O  O59  1  0.742691  0.360423  0.545206  1
  O  O60  1  0.759424  0.121371  0.663132  1
  O  O61  1  0.697267  0.044665  0.198642  1
  O  O62  1  0.861212  0.377598  0.766512  1
  O  O63  1  0.831383  0.871032  0.597011  1
  O  O64  1  0.802733  0.544665  0.301358  1
  O  O65  1  0.899585  0.591312  0.630550  1
  O  O66  1  0.858059  0.215569  0.407924  1
  O  O67  1  0.864314  0.837578  0.295349  1
  O  O68  1  0.897749  0.707543  0.463859  1
  O  O69  1  0.968754  0.933607  0.762746  1
  O  O70  1  0.919893  0.877593  0.119813  1
  O  O71  1  0.934239  0.634073  0.031680  1
