# generated using pymatgen
data_Cs2Na4Cu2Si12H4O31
_symmetry_space_group_name_H-M   'P 1'
_cell_length_a   13.11318337
_cell_length_b   13.11318337
_cell_length_c   18.32047469
_cell_angle_alpha   67.96169652
_cell_angle_beta   112.03830348
_cell_angle_gamma   147.26362405
_symmetry_Int_Tables_number   1
_chemical_formula_structural   Cs2Na4Cu2Si12H4O31
_chemical_formula_sum   'Cs4 Na8 Cu4 Si24 H8 O62'
_cell_volume   1567.92778239
_cell_formula_units_Z   2
loop_
 _symmetry_equiv_pos_site_id
 _symmetry_equiv_pos_as_xyz
  1  'x, y, z'
loop_
 _atom_site_type_symbol
 _atom_site_label
 _atom_site_symmetry_multiplicity
 _atom_site_fract_x
 _atom_site_fract_y
 _atom_site_fract_z
 _atom_site_occupancy
  Cs  Cs0  1  0.257093  0.212612  0.619008  1
  Cs  Cs1  1  0.212612  0.257093  0.880992  1
  Cs  Cs2  1  0.742907  0.787388  0.380992  1
  Cs  Cs3  1  0.787388  0.742907  0.119008  1
  Na  Na4  1  0.018047  0.519698  0.648280  1
  Na  Na5  1  0.519698  0.018047  0.851720  1
  Na  Na6  1  0.981953  0.480302  0.351720  1
  Na  Na7  1  0.480302  0.981953  0.148280  1
  Na  Na8  1  0.535681  0.981218  0.667223  1
  Na  Na9  1  0.981218  0.535681  0.832777  1
  Na  Na10  1  0.464319  0.018782  0.332777  1
  Na  Na11  1  0.018782  0.464319  0.167223  1
  Cu  Cu12  1  0.751752  0.273558  0.487311  1
  Cu  Cu13  1  0.273558  0.751752  0.012689  1
  Cu  Cu14  1  0.248248  0.726442  0.512689  1
  Cu  Cu15  1  0.726442  0.248248  0.987311  1
  Si  Si16  1  0.622303  0.380021  0.508837  1
  Si  Si17  1  0.380021  0.622303  0.991163  1
  Si  Si18  1  0.377697  0.619979  0.491163  1
  Si  Si19  1  0.619979  0.377697  0.008837  1
  Si  Si20  1  0.220024  0.941873  0.530266  1
  Si  Si21  1  0.941873  0.220024  0.969734  1
  Si  Si22  1  0.779976  0.058127  0.469734  1
  Si  Si23  1  0.058127  0.779976  0.030266  1
  Si  Si24  1  0.897686  0.165803  0.628712  1
  Si  Si25  1  0.165803  0.897686  0.871288  1
  Si  Si26  1  0.102314  0.834197  0.371288  1
  Si  Si27  1  0.834197  0.102314  0.128712  1
  Si  Si28  1  0.810414  0.690854  0.742856  1
  Si  Si29  1  0.690854  0.810414  0.757144  1
  Si  Si30  1  0.189586  0.309146  0.257144  1
  Si  Si31  1  0.309146  0.189586  0.242856  1
  Si  Si32  1  0.551345  0.322646  0.848091  1
  Si  Si33  1  0.322646  0.551345  0.651909  1
  Si  Si34  1  0.448655  0.677354  0.151909  1
  Si  Si35  1  0.677354  0.448655  0.348091  1
  Si  Si36  1  0.879791  0.661823  0.622241  1
  Si  Si37  1  0.661823  0.879791  0.877759  1
  Si  Si38  1  0.120209  0.338177  0.377759  1
  Si  Si39  1  0.338177  0.120209  0.122241  1
  H  H40  1  0.707122  0.330843  0.707083  1
  H  H41  1  0.330843  0.707122  0.792917  1
  H  H42  1  0.292878  0.669157  0.292917  1
  H  H43  1  0.669157  0.292878  0.207083  1
  H  H44  1  0.149178  0.490464  0.822282  1
  H  H45  1  0.490464  0.149178  0.677718  1
  H  H46  1  0.850822  0.509536  0.177718  1
  H  H47  1  0.509536  0.850822  0.322282  1
  O  O48  1  0.843819  0.734432  0.652779  1
  O  O49  1  0.734432  0.843819  0.847221  1
  O  O50  1  0.156181  0.265568  0.347221  1
  O  O51  1  0.265568  0.156181  0.152779  1
  O  O52  1  0.885808  0.099554  0.561782  1
  O  O53  1  0.099554  0.885808  0.938218  1
  O  O54  1  0.114192  0.900446  0.438218  1
  O  O55  1  0.900446  0.114192  0.061782  1
  O  O56  1  0.407919  0.172236  0.536404  1
  O  O57  1  0.172236  0.407919  0.963596  1
  O  O58  1  0.592081  0.827764  0.463596  1
  O  O59  1  0.827764  0.592081  0.036404  1
  O  O60  1  0.813300  0.813300  0.750000  1
  O  O61  1  0.186700  0.186700  0.250000  1
  O  O62  1  0.402899  0.570649  0.588667  1
  O  O63  1  0.570649  0.402899  0.911333  1
  O  O64  1  0.597101  0.429351  0.411333  1
  O  O65  1  0.429351  0.597101  0.088667  1
  O  O66  1  0.079180  0.862714  0.581532  1
  O  O67  1  0.862714  0.079180  0.918468  1
  O  O68  1  0.920820  0.137286  0.418468  1
  O  O69  1  0.137286  0.920820  0.081532  1
  O  O70  1  0.322727  0.116770  0.824914  1
  O  O71  1  0.116770  0.322727  0.675086  1
  O  O72  1  0.677273  0.883230  0.175086  1
  O  O73  1  0.883230  0.677273  0.324914  1
  O  O74  1  0.608388  0.462535  0.763502  1
  O  O75  1  0.462535  0.608388  0.736498  1
  O  O76  1  0.391612  0.537465  0.236498  1
  O  O77  1  0.537465  0.391612  0.263502  1
  O  O78  1  0.702230  0.534527  0.549717  1
  O  O79  1  0.534527  0.702230  0.950283  1
  O  O80  1  0.297770  0.465473  0.450283  1
  O  O81  1  0.465473  0.297770  0.049717  1
  O  O82  1  0.759965  0.983791  0.695944  1
  O  O83  1  0.983791  0.759965  0.804056  1
  O  O84  1  0.240035  0.016209  0.304056  1
  O  O85  1  0.016209  0.240035  0.195944  1
  O  O86  1  0.269976  0.853549  0.564269  1
  O  O87  1  0.853549  0.269976  0.935731  1
  O  O88  1  0.730024  0.146451  0.435731  1
  O  O89  1  0.146451  0.730024  0.064269  1
  O  O90  1  0.677054  0.315231  0.878172  1
  O  O91  1  0.315231  0.677054  0.621828  1
  O  O92  1  0.322946  0.684769  0.121828  1
  O  O93  1  0.684769  0.322946  0.378172  1
  O  O94  1  0.829661  0.236159  0.596187  1
  O  O95  1  0.236159  0.829661  0.903813  1
  O  O96  1  0.170339  0.763841  0.403813  1
  O  O97  1  0.763841  0.170339  0.096187  1
  O  O98  1  0.767722  0.398150  0.533417  1
  O  O99  1  0.398150  0.767722  0.966583  1
  O  O100  1  0.232278  0.601850  0.466583  1
  O  O101  1  0.601850  0.232278  0.033417  1
  O  O102  1  0.890192  0.551219  0.690838  1
  O  O103  1  0.551219  0.890192  0.809162  1
  O  O104  1  0.109808  0.448781  0.309162  1
  O  O105  1  0.448781  0.109808  0.190838  1
  O  O106  1  0.183865  0.589365  0.784234  1
  O  O107  1  0.589365  0.183865  0.715766  1
  O  O108  1  0.816135  0.410635  0.215766  1
  O  O109  1  0.410635  0.816135  0.284234  1
