# generated using pymatgen
data_TiMnV4O12
_symmetry_space_group_name_H-M   'P 1'
_cell_length_a   6.95544420
_cell_length_b   6.95544428
_cell_length_c   5.80792972
_cell_angle_alpha   74.89572119
_cell_angle_beta   105.10428380
_cell_angle_gamma   95.73389768
_symmetry_Int_Tables_number   1
_chemical_formula_structural   TiMnV4O12
_chemical_formula_sum   'Ti1 Mn1 V4 O12'
_cell_volume   261.74434066
_cell_formula_units_Z   1
loop_
 _symmetry_equiv_pos_site_id
 _symmetry_equiv_pos_as_xyz
  1  'x, y, z'
loop_
 _atom_site_type_symbol
 _atom_site_label
 _atom_site_symmetry_multiplicity
 _atom_site_fract_x
 _atom_site_fract_y
 _atom_site_fract_z
 _atom_site_occupancy
  Ti  Ti0  1  0.903894  0.903894  0.250000  1
  Mn  Mn1  1  0.091959  0.091959  0.750000  1
  V  V2  1  0.206549  0.616204  0.747490  1
  V  V3  1  0.390205  0.806652  0.254665  1
  V  V4  1  0.616204  0.206549  0.752510  1
  V  V5  1  0.806652  0.390205  0.245335  1
  O  O6  1  0.035731  0.812427  0.609164  1
  O  O7  1  0.081181  0.392537  0.765216  1
  O  O8  1  0.177870  0.957374  0.148163  1
  O  O9  1  0.371303  0.639933  0.556321  1
  O  O10  1  0.392537  0.081181  0.734784  1
  O  O11  1  0.335021  0.637646  0.044231  1
  O  O12  1  0.639933  0.371303  0.943679  1
  O  O13  1  0.643135  0.900379  0.284931  1
  O  O14  1  0.637646  0.335021  0.455769  1
  O  O15  1  0.812427  0.035731  0.890836  1
  O  O16  1  0.900379  0.643135  0.215069  1
  O  O17  1  0.957374  0.177870  0.351837  1
