# generated using pymatgen
data_Al8SiO14
_symmetry_space_group_name_H-M   'P 1'
_cell_length_a   23.31123086
_cell_length_b   7.72251537
_cell_length_c   5.94973511
_cell_angle_alpha   90.00000000
_cell_angle_beta   90.00000000
_cell_angle_gamma   90.00000000
_symmetry_Int_Tables_number   1
_chemical_formula_structural   Al8SiO14
_chemical_formula_sum   'Al32 Si4 O56'
_cell_volume   1071.07927888
_cell_formula_units_Z   4
loop_
 _symmetry_equiv_pos_site_id
 _symmetry_equiv_pos_as_xyz
  1  'x, y, z'
loop_
 _atom_site_type_symbol
 _atom_site_label
 _atom_site_symmetry_multiplicity
 _atom_site_fract_x
 _atom_site_fract_y
 _atom_site_fract_z
 _atom_site_occupancy
  Al  Al0  1  0.000000  0.500000  0.000000  1
  Al  Al1  1  0.000000  0.500000  0.500000  1
  Al  Al2  1  0.090435  0.275120  0.250000  1
  Al  Al3  1  0.088495  0.273559  0.750000  1
  Al  Al4  1  0.114145  0.654082  0.250000  1
  Al  Al5  1  0.171197  0.997686  0.501578  1
  Al  Al6  1  0.171197  0.997686  0.998422  1
  Al  Al7  1  0.215823  0.330607  0.250000  1
  Al  Al8  1  0.216964  0.326129  0.750000  1
  Al  Al9  1  0.283036  0.826129  0.250000  1
  Al  Al10  1  0.284177  0.830607  0.750000  1
  Al  Al11  1  0.328803  0.497686  0.001578  1
  Al  Al12  1  0.328803  0.497686  0.498422  1
  Al  Al13  1  0.385855  0.154082  0.750000  1
  Al  Al14  1  0.411505  0.773559  0.250000  1
  Al  Al15  1  0.409565  0.775120  0.750000  1
  Al  Al16  1  0.500000  0.000000  0.500000  1
  Al  Al17  1  0.500000  0.000000  0.000000  1
  Al  Al18  1  0.590435  0.224880  0.250000  1
  Al  Al19  1  0.588495  0.226441  0.750000  1
  Al  Al20  1  0.614145  0.845918  0.250000  1
  Al  Al21  1  0.671197  0.502314  0.998422  1
  Al  Al22  1  0.671197  0.502314  0.501578  1
  Al  Al23  1  0.715823  0.169393  0.250000  1
  Al  Al24  1  0.716964  0.173871  0.750000  1
  Al  Al25  1  0.783036  0.673871  0.250000  1
  Al  Al26  1  0.784177  0.669393  0.750000  1
  Al  Al27  1  0.828803  0.002314  0.498422  1
  Al  Al28  1  0.828803  0.002314  0.001578  1
  Al  Al29  1  0.885855  0.345918  0.750000  1
  Al  Al30  1  0.911505  0.726441  0.250000  1
  Al  Al31  1  0.909565  0.724880  0.750000  1
  Si  Si32  1  0.115223  0.650507  0.750000  1
  Si  Si33  1  0.384777  0.150507  0.250000  1
  Si  Si34  1  0.615223  0.849493  0.750000  1
  Si  Si35  1  0.884777  0.349493  0.250000  1
  O  O36  1  0.051050  0.308524  0.000825  1
  O  O37  1  0.051050  0.308524  0.499175  1
  O  O38  1  0.041344  0.592535  0.250000  1
  O  O39  1  0.046628  0.599506  0.750000  1
  O  O40  1  0.123776  0.071132  0.250000  1
  O  O41  1  0.124858  0.077693  0.750000  1
  O  O42  1  0.131054  0.756513  0.515942  1
  O  O43  1  0.131054  0.756513  0.984058  1
  O  O44  1  0.147813  0.445085  0.250000  1
  O  O45  1  0.147632  0.454179  0.750000  1
  O  O46  1  0.210595  0.211358  0.001082  1
  O  O47  1  0.210595  0.211358  0.498918  1
  O  O48  1  0.214785  0.916366  0.250000  1
  O  O49  1  0.217026  0.926067  0.750000  1
  O  O50  1  0.282974  0.426067  0.250000  1
  O  O51  1  0.285215  0.416366  0.750000  1
  O  O52  1  0.289405  0.711358  0.998918  1
  O  O53  1  0.289405  0.711358  0.501082  1
  O  O54  1  0.352368  0.954179  0.250000  1
  O  O55  1  0.352187  0.945085  0.750000  1
  O  O56  1  0.368946  0.256513  0.015942  1
  O  O57  1  0.368946  0.256513  0.484058  1
  O  O58  1  0.375142  0.577693  0.250000  1
  O  O59  1  0.376224  0.571132  0.750000  1
  O  O60  1  0.458656  0.092535  0.750000  1
  O  O61  1  0.453372  0.099506  0.250000  1
  O  O62  1  0.448950  0.808524  0.999175  1
  O  O63  1  0.448950  0.808524  0.500825  1
  O  O64  1  0.551050  0.191476  0.000825  1
  O  O65  1  0.551050  0.191476  0.499175  1
  O  O66  1  0.541344  0.907465  0.250000  1
  O  O67  1  0.546628  0.900494  0.750000  1
  O  O68  1  0.623776  0.428868  0.250000  1
  O  O69  1  0.624858  0.422307  0.750000  1
  O  O70  1  0.631054  0.743487  0.984058  1
  O  O71  1  0.631054  0.743487  0.515942  1
  O  O72  1  0.647813  0.054915  0.250000  1
  O  O73  1  0.647632  0.045821  0.750000  1
  O  O74  1  0.710595  0.288642  0.001082  1
  O  O75  1  0.710595  0.288642  0.498918  1
  O  O76  1  0.714785  0.583634  0.250000  1
  O  O77  1  0.717026  0.573933  0.750000  1
  O  O78  1  0.785215  0.083634  0.750000  1
  O  O79  1  0.782974  0.073933  0.250000  1
  O  O80  1  0.789405  0.788642  0.998918  1
  O  O81  1  0.789405  0.788642  0.501082  1
  O  O82  1  0.852368  0.545821  0.250000  1
  O  O83  1  0.852187  0.554915  0.750000  1
  O  O84  1  0.868946  0.243487  0.015942  1
  O  O85  1  0.868946  0.243487  0.484058  1
  O  O86  1  0.875142  0.922307  0.250000  1
  O  O87  1  0.876224  0.928868  0.750000  1
  O  O88  1  0.953372  0.400494  0.250000  1
  O  O89  1  0.958656  0.407465  0.750000  1
  O  O90  1  0.948950  0.691476  0.999175  1
  O  O91  1  0.948950  0.691476  0.500825  1
