# generated using pymatgen
data_Li3Fe2(SiO4)2
_symmetry_space_group_name_H-M   'P 1'
_cell_length_a   6.32692712
_cell_length_b   10.96495116
_cell_length_c   5.06805205
_cell_angle_alpha   89.95372316
_cell_angle_beta   90.00000000
_cell_angle_gamma   90.00000000
_symmetry_Int_Tables_number   1
_chemical_formula_structural   Li3Fe2(SiO4)2
_chemical_formula_sum   'Li6 Fe4 Si4 O16'
_cell_volume   351.59319269
_cell_formula_units_Z   2
loop_
 _symmetry_equiv_pos_site_id
 _symmetry_equiv_pos_as_xyz
  1  'x, y, z'
loop_
 _atom_site_type_symbol
 _atom_site_label
 _atom_site_symmetry_multiplicity
 _atom_site_fract_x
 _atom_site_fract_y
 _atom_site_fract_z
 _atom_site_occupancy
  Li  Li0  1  0.014364  0.825950  0.762111  1
  Li  Li1  1  0.485636  0.325950  0.762111  1
  Li  Li2  1  0.493025  0.673765  0.259746  1
  Li  Li3  1  0.745579  0.906701  0.256498  1
  Li  Li4  1  0.754421  0.406701  0.256498  1
  Li  Li5  1  0.006975  0.173765  0.259746  1
  Fe  Fe6  1  0.244240  0.421957  0.259731  1
  Fe  Fe7  1  0.255760  0.921957  0.259731  1
  Fe  Fe8  1  0.737450  0.085971  0.762466  1
  Fe  Fe9  1  0.762550  0.585971  0.762466  1
  Si  Si10  1  0.005920  0.669073  0.262955  1
  Si  Si11  1  0.494080  0.169073  0.262955  1
  Si  Si12  1  0.506382  0.831176  0.765728  1
  Si  Si13  1  0.993618  0.331176  0.765728  1
  O  O14  1  -0.003111  0.810379  0.153744  1
  O  O15  1  0.978684  0.669040  0.587830  1
  O  O16  1  0.211152  0.386265  0.643774  1
  O  O17  1  0.224391  0.598588  0.185904  1
  O  O18  1  0.275609  0.098588  0.185904  1
  O  O19  1  0.288848  0.886265  0.643774  1
  O  O20  1  0.521316  0.169040  0.587830  1
  O  O21  1  0.503111  0.310379  0.153744  1
  O  O22  1  0.540367  0.690452  0.653428  1
  O  O23  1  0.505948  0.831674  0.088299  1
  O  O24  1  0.709048  0.093927  0.143321  1
  O  O25  1  0.717934  0.915413  0.663385  1
  O  O26  1  0.782066  0.415413  0.663385  1
  O  O27  1  0.790952  0.593927  0.143321  1
  O  O28  1  0.994052  0.331674  0.088299  1
  O  O29  1  0.959633  0.190452  0.653428  1
