# generated using pymatgen
data_Mn12O7F17
_symmetry_space_group_name_H-M   'P 1'
_cell_length_a   5.25262146
_cell_length_b   5.55749510
_cell_length_c   15.08342995
_cell_angle_alpha   96.78128228
_cell_angle_beta   89.65586124
_cell_angle_gamma   90.15717645
_symmetry_Int_Tables_number   1
_chemical_formula_structural   Mn12O7F17
_chemical_formula_sum   'Mn12 O7 F17'
_cell_volume   437.21757960
_cell_formula_units_Z   1
loop_
 _symmetry_equiv_pos_site_id
 _symmetry_equiv_pos_as_xyz
  1  'x, y, z'
loop_
 _atom_site_type_symbol
 _atom_site_label
 _atom_site_symmetry_multiplicity
 _atom_site_fract_x
 _atom_site_fract_y
 _atom_site_fract_z
 _atom_site_occupancy
  Mn  Mn0  1  0.106362  0.045255  0.994530  1
  Mn  Mn1  1  0.982798  0.386542  0.175151  1
  Mn  Mn2  1  0.999435  0.885959  0.331991  1
  Mn  Mn3  1  0.974945  0.426021  0.507868  1
  Mn  Mn4  1  0.026110  0.899742  0.669947  1
  Mn  Mn5  1  0.043475  0.503444  0.832388  1
  Mn  Mn6  1  0.495561  0.034347  0.164084  1
  Mn  Mn7  1  0.430363  0.497239  0.003772  1
  Mn  Mn8  1  0.476549  0.584981  0.661929  1
  Mn  Mn9  1  0.494203  0.085976  0.508070  1
  Mn  Mn10  1  0.480414  0.548274  0.324117  1
  Mn  Mn11  1  0.524794  0.063089  0.831031  1
  O  O12  1  0.237400  0.279077  0.920365  1
  O  O13  1  0.298924  0.819942  0.745602  1
  O  O14  1  0.276486  0.274172  0.086159  1
  O  O15  1  0.168314  0.600629  0.259379  1
  O  O16  1  0.174060  0.648941  0.589826  1
  O  O17  1  0.658445  0.381181  0.571768  1
  O  O18  1  0.664575  0.343978  0.236967  1
  F  F19  1  0.158736  0.103343  0.243474  1
  F  F20  1  0.140788  0.789525  0.072492  1
  F  F21  1  0.161900  0.143458  0.578742  1
  F  F22  1  0.328212  0.837035  0.412990  1
  F  F23  1  0.393210  0.774298  0.923697  1
  F  F24  1  0.353023  0.332824  0.749629  1
  F  F25  1  0.286347  0.347327  0.426421  1
  F  F26  1  0.720768  0.371234  0.912156  1
  F  F27  1  0.624995  0.695747  0.089896  1
  F  F28  1  0.791536  0.613548  0.405310  1
  F  F29  1  0.787995  0.635747  0.739055  1
  F  F30  1  0.822806  0.124020  0.428473  1
  F  F31  1  0.793222  0.183288  0.076913  1
  F  F32  1  0.867033  0.139789  0.757259  1
  F  F33  1  0.697472  0.882738  0.598869  1
  F  F34  1  0.903145  0.861647  0.904209  1
  F  F35  1  0.655600  0.855645  0.265477  1
