# generated using pymatgen
data_Li4Ti3Mn4Cr2O18
_symmetry_space_group_name_H-M   'P 1'
_cell_length_a   9.10050039
_cell_length_b   25.28868503
_cell_length_c   2.93587057
_cell_angle_alpha   90.00001058
_cell_angle_beta   89.99997161
_cell_angle_gamma   90.00184054
_symmetry_Int_Tables_number   1
_chemical_formula_structural   Li4Ti3Mn4Cr2O18
_chemical_formula_sum   'Li8 Ti6 Mn8 Cr4 O36'
_cell_volume   675.66033675
_cell_formula_units_Z   2
loop_
 _symmetry_equiv_pos_site_id
 _symmetry_equiv_pos_as_xyz
  1  'x, y, z'
loop_
 _atom_site_type_symbol
 _atom_site_label
 _atom_site_symmetry_multiplicity
 _atom_site_fract_x
 _atom_site_fract_y
 _atom_site_fract_z
 _atom_site_occupancy
  Li  Li0  1  0.183071  0.995222  0.999998  1
  Li  Li1  1  0.199485  0.208664  0.999997  1
  Li  Li2  1  0.300476  0.708682  0.999998  1
  Li  Li3  1  0.316895  0.495199  0.999996  1
  Li  Li4  1  0.682415  0.497156  0.999997  1
  Li  Li5  1  0.693920  0.304303  0.999996  1
  Li  Li6  1  0.806083  0.804309  0.999998  1
  Li  Li7  1  0.817562  0.997158  0.999994  1
  Ti  Ti8  1  0.004622  0.104865  0.999996  1
  Ti  Ti9  1  0.495415  0.604833  0.999993  1
  Ti  Ti10  1  0.497130  0.393517  0.999993  1
  Ti  Ti11  1  0.646680  0.695321  0.499995  1
  Ti  Ti12  1  0.853317  0.195332  0.499994  1
  Ti  Ti13  1  0.002858  0.893550  0.999999  1
  Mn  Mn14  1  0.023868  0.313123  0.999999  1
  Mn  Mn15  1  0.141472  0.586641  0.500002  1
  Mn  Mn16  1  0.358572  0.086670  0.499999  1
  Mn  Mn17  1  0.476169  0.813148  0.999997  1
  Mn  Mn18  1  0.512193  0.189305  0.999996  1
  Mn  Mn19  1  0.640375  0.912916  0.499997  1
  Mn  Mn20  1  0.859632  0.412888  0.499996  1
  Mn  Mn21  1  0.987814  0.689300  0.999997  1
  Cr  Cr22  1  0.000042  0.499691  0.000009  1
  Cr  Cr23  1  0.146984  0.805495  0.500016  1
  Cr  Cr24  1  0.353013  0.305472  0.499985  1
  Cr  Cr25  1  0.499906  0.999720  -0.000008  1
  O  O26  1  0.998677  0.420718  0.999998  1
  O  O27  1  0.003146  0.578882  0.000003  1
  O  O28  1  0.036357  0.941905  0.500001  1
  O  O29  1  0.051861  0.161463  0.500000  1
  O  O30  1  0.111330  0.661732  0.500000  1
  O  O31  1  0.113859  0.755701  0.000031  1
  O  O32  1  0.151261  0.508533  0.500004  1
  O  O33  1  0.140183  0.284351  0.499998  1
  O  O34  1  0.182709  0.859156  0.000025  1
  O  O35  1  0.218959  0.087198  0.999998  1
  O  O36  1  0.281052  0.587158  0.000002  1
  O  O37  1  0.317297  0.359101  0.000001  1
  O  O38  1  0.359829  0.784382  0.500004  1
  O  O39  1  0.348709  0.008561  0.500006  1
  O  O40  1  0.386117  0.255676  -0.000000  1
  O  O41  1  0.388677  0.161753  0.499996  1
  O  O42  1  0.448171  0.661429  0.500004  1
  O  O43  1  0.463573  0.441855  0.499996  1
  O  O44  1  0.496858  0.078908  0.000000  1
  O  O45  1  0.501332  0.920735  0.999999  1
  O  O46  1  0.535452  0.558952  0.499999  1
  O  O47  1  0.557164  0.339544  0.499999  1
  O  O48  1  0.605986  0.838105  0.499997  1
  O  O49  1  0.614439  0.742886  0.999999  1
  O  O50  1  0.651323  0.990523  0.500004  1
  O  O51  1  0.641939  0.210229  0.499998  1
  O  O52  1  0.678726  0.642186  0.000004  1
  O  O53  1  0.721559  0.411701  0.999998  1
  O  O54  1  0.778451  0.911752  0.999997  1
  O  O55  1  0.821291  0.142199  1.000000  1
  O  O56  1  0.858078  0.710218  0.499998  1
  O  O57  1  0.848641  0.490494  0.500006  1
  O  O58  1  0.885563  0.242891  0.999997  1
  O  O59  1  0.894053  0.338078  0.499998  1
  O  O60  1  0.942832  0.839580  0.500007  1
  O  O61  1  0.964576  0.058991  0.500000  1
