# generated using pymatgen
data_Li8MnFe7(BO3)8
_symmetry_space_group_name_H-M   'P 1'
_cell_length_a   11.11687848
_cell_length_b   5.23980932
_cell_length_c   9.01622687
_cell_angle_alpha   90.81095448
_cell_angle_beta   72.18829382
_cell_angle_gamma   89.24000173
_symmetry_Int_Tables_number   1
_chemical_formula_structural   Li8MnFe7(BO3)8
_chemical_formula_sum   'Li8 Mn1 Fe7 B8 O24'
_cell_volume   499.88829088
_cell_formula_units_Z   1
loop_
 _symmetry_equiv_pos_site_id
 _symmetry_equiv_pos_as_xyz
  1  'x, y, z'
loop_
 _atom_site_type_symbol
 _atom_site_label
 _atom_site_symmetry_multiplicity
 _atom_site_fract_x
 _atom_site_fract_y
 _atom_site_fract_z
 _atom_site_occupancy
  Li  Li0  1  0.163596  0.151643  0.618595  1
  Li  Li1  1  0.338043  0.846731  0.882336  1
  Li  Li2  1  0.160649  0.653752  0.117270  1
  Li  Li3  1  0.340347  0.347266  0.383452  1
  Li  Li4  1  0.661054  0.653462  0.617977  1
  Li  Li5  1  0.838016  0.346509  0.881947  1
  Li  Li6  1  0.661130  0.153935  0.118017  1
  Li  Li7  1  0.837184  0.846754  0.383378  1
  Mn  Mn8  1  0.116575  0.170412  0.301967  1
  Fe  Fe9  1  0.116777  0.663957  0.799489  1
  Fe  Fe10  1  0.382314  0.337275  0.699866  1
  Fe  Fe11  1  0.617329  0.163237  0.798639  1
  Fe  Fe12  1  0.381058  0.831047  0.197094  1
  Fe  Fe13  1  0.616123  0.672171  0.298663  1
  Fe  Fe14  1  0.882479  0.836777  0.699872  1
  Fe  Fe15  1  0.878526  0.337734  0.200310  1
  B  B16  1  0.128712  0.172163  0.962786  1
  B  B17  1  0.131284  0.669008  0.464797  1
  B  B18  1  0.372037  0.829631  0.535948  1
  B  B19  1  0.629855  0.669269  0.963023  1
  B  B20  1  0.371864  0.326903  0.036354  1
  B  B21  1  0.629573  0.169788  0.463488  1
  B  B22  1  0.868719  0.329697  0.536709  1
  B  B23  1  0.870495  0.830138  0.035754  1
  O  O24  1  0.147631  0.911579  0.967505  1
  O  O25  1  0.158212  0.295862  0.820291  1
  O  O26  1  0.088543  0.818366  0.602676  1
  O  O27  1  0.149073  0.408873  0.472958  1
  O  O28  1  0.411497  0.181655  0.897183  1
  O  O29  1  0.344407  0.706240  0.678785  1
  O  O30  1  0.159897  0.787507  0.320877  1
  O  O31  1  0.086005  0.319412  0.100672  1
  O  O32  1  0.353798  0.089751  0.532112  1
  O  O33  1  0.647371  0.408834  0.966976  1
  O  O34  1  0.412365  0.682860  0.397526  1
  O  O35  1  0.345172  0.203736  0.179130  1
  O  O36  1  0.656683  0.794893  0.821427  1
  O  O37  1  0.588612  0.316271  0.602759  1
  O  O38  1  0.353346  0.587286  0.032536  1
  O  O39  1  0.646879  0.908736  0.469244  1
  O  O40  1  0.911030  0.682682  0.897198  1
  O  O41  1  0.842659  0.204908  0.678563  1
  O  O42  1  0.658065  0.294783  0.321547  1
  O  O43  1  0.589070  0.814652  0.102357  1
  O  O44  1  0.851907  0.590282  0.532864  1
  O  O45  1  0.908575  0.183360  0.397678  1
  O  O46  1  0.843383  0.707708  0.178581  1
  O  O47  1  0.852081  0.090507  0.030824  1
