# generated using pymatgen
data_Fe4OF7
_symmetry_space_group_name_H-M   'P 1'
_cell_length_a   6.38544451
_cell_length_b   6.89984165
_cell_length_c   7.52310483
_cell_angle_alpha   90.00000000
_cell_angle_beta   115.11199379
_cell_angle_gamma   90.00000000
_symmetry_Int_Tables_number   1
_chemical_formula_structural   Fe4OF7
_chemical_formula_sum   'Fe8 O2 F14'
_cell_volume   300.12780065
_cell_formula_units_Z   2
loop_
 _symmetry_equiv_pos_site_id
 _symmetry_equiv_pos_as_xyz
  1  'x, y, z'
loop_
 _atom_site_type_symbol
 _atom_site_label
 _atom_site_symmetry_multiplicity
 _atom_site_fract_x
 _atom_site_fract_y
 _atom_site_fract_z
 _atom_site_occupancy
  Fe  Fe0  1  0.525040  0.000000  0.010338  1
  Fe  Fe1  1  0.985298  0.000000  0.010338  1
  Fe  Fe2  1  0.747416  0.500000  0.994832  1
  Fe  Fe3  1  0.245300  0.500000  0.990601  1
  Fe  Fe4  1  0.496547  0.000000  0.493095  1
  Fe  Fe5  1  0.995137  0.000000  0.490273  1
  Fe  Fe6  1  0.734379  0.500000  0.511710  1
  Fe  Fe7  1  0.277332  0.500000  0.511710  1
  O  O8  1  0.848580  0.000000  0.197160  1
  O  O9  1  0.600149  0.500000  0.700298  1
  F  F10  1  0.346927  0.000000  0.193853  1
  F  F11  1  0.495131  0.293283  0.000563  1
  F  F12  1  0.005431  0.293283  0.000563  1
  F  F13  1  0.495131  0.706717  0.000563  1
  F  F14  1  0.746938  0.206440  0.500232  1
  F  F15  1  0.253294  0.206440  0.500232  1
  F  F16  1  0.005431  0.706717  0.000563  1
  F  F17  1  0.645642  0.000000  0.791285  1
  F  F18  1  0.154329  0.000000  0.808659  1
  F  F19  1  0.395311  0.500000  0.290621  1
  F  F20  1  0.905146  0.500000  0.310291  1
  F  F21  1  0.095880  0.500000  0.691758  1
  F  F22  1  0.746938  0.793560  0.500232  1
  F  F23  1  0.253294  0.793560  0.500232  1
