# generated using pymatgen
data_Hf2N2O
_symmetry_space_group_name_H-M   'P 1'
_cell_length_a   8.72992534
_cell_length_b   8.75165067
_cell_length_c   8.71071908
_cell_angle_alpha   109.30713356
_cell_angle_beta   109.55878022
_cell_angle_gamma   109.59061251
_symmetry_Int_Tables_number   1
_chemical_formula_structural   Hf2N2O
_chemical_formula_sum   'Hf16 N16 O8'
_cell_volume   512.03573776
_cell_formula_units_Z   8
loop_
 _symmetry_equiv_pos_site_id
 _symmetry_equiv_pos_as_xyz
  1  'x, y, z'
loop_
 _atom_site_type_symbol
 _atom_site_label
 _atom_site_symmetry_multiplicity
 _atom_site_fract_x
 _atom_site_fract_y
 _atom_site_fract_z
 _atom_site_occupancy
  Hf  Hf0  1  0.976792  0.251244  0.222151  1
  Hf  Hf1  1  0.001967  0.491208  0.992455  1
  Hf  Hf2  1  0.712513  0.468327  0.249561  1
  Hf  Hf3  1  0.785263  0.036583  0.749242  1
  Hf  Hf4  1  0.743331  0.782090  0.041578  1
  Hf  Hf5  1  0.757343  0.293679  0.543360  1
  Hf  Hf6  1  0.489505  0.992144  0.988067  1
  Hf  Hf7  1  0.532592  0.748670  0.283809  1
  Hf  Hf8  1  0.466440  0.252534  0.725227  1
  Hf  Hf9  1  0.503637  0.511073  0.513944  1
  Hf  Hf10  1  0.239608  0.210845  0.952607  1
  Hf  Hf11  1  0.257943  0.717996  0.466565  1
  Hf  Hf12  1  0.213737  0.961430  0.254981  1
  Hf  Hf13  1  0.287276  0.537014  0.751597  1
  Hf  Hf14  1  0.011706  0.999621  0.501838  1
  Hf  Hf15  1  0.029889  0.743141  0.773807  1
  N  N16  1  0.770857  0.723659  0.261869  1
  N  N17  1  0.768039  0.537799  0.528197  1
  N  N18  1  0.725699  0.258997  0.766318  1
  N  N19  1  0.048129  0.276154  0.018362  1
  N  N20  1  0.007846  0.040238  0.265616  1
  N  N21  1  0.493933  0.770329  0.038060  1
  N  N22  1  0.228569  0.457076  0.465821  1
  N  N23  1  0.268475  0.734933  0.224183  1
  N  N24  1  0.511066  0.239974  0.972355  1
  N  N25  1  0.223271  0.273397  0.738890  1
  N  N26  1  0.538717  0.773978  0.547837  1
  N  N27  1  0.552748  0.535825  0.774922  1
  N  N28  1  0.260353  0.777924  0.727946  1
  N  N29  1  0.241805  0.969359  0.511982  1
  N  N30  1  0.032400  0.487796  0.761725  1
  N  N31  1  0.987748  0.954884  0.728562  1
  O  O32  1  0.757535  0.033863  0.483580  1
  O  O33  1  0.745168  0.224347  0.274840  1
  O  O34  1  0.276438  0.009075  0.049864  1
  O  O35  1  0.959566  0.507922  0.237262  1
  O  O36  1  0.958351  0.730561  0.988882  1
  O  O37  1  0.721857  0.993133  0.952004  1
  O  O38  1  0.460258  0.224511  0.443605  1
  O  O39  1  0.451630  0.466669  0.226526  1
