# generated using pymatgen
data_LaAlO3
_symmetry_space_group_name_H-M   'P 1'
_cell_length_a   6.85887315
_cell_length_b   6.85171424
_cell_length_c   9.85453580
_cell_angle_alpha   86.91555657
_cell_angle_beta   109.81046734
_cell_angle_gamma   101.58085221
_symmetry_Int_Tables_number   1
_chemical_formula_structural   LaAlO3
_chemical_formula_sum   'La6 Al6 O18'
_cell_volume   426.78585302
_cell_formula_units_Z   6
loop_
 _symmetry_equiv_pos_site_id
 _symmetry_equiv_pos_as_xyz
  1  'x, y, z'
loop_
 _atom_site_type_symbol
 _atom_site_label
 _atom_site_symmetry_multiplicity
 _atom_site_fract_x
 _atom_site_fract_y
 _atom_site_fract_z
 _atom_site_occupancy
  La  La0  1  0.252002  0.759568  0.995032  1
  La  La1  1  0.120231  0.573009  0.348236  1
  La  La2  1  0.266960  0.075791  0.651127  1
  La  La3  1  0.733040  0.924208  0.348873  1
  La  La4  1  0.879769  0.426991  0.651764  1
  La  La5  1  0.747998  0.240432  0.004968  1
  Al  Al6  1  0.386940  0.613107  0.707420  1
  Al  Al7  1  0.756832  0.727751  0.992096  1
  Al  Al8  1  0.253238  0.042741  0.290759  1
  Al  Al9  1  0.746762  0.957259  0.709241  1
  Al  Al10  1  0.243168  0.272249  0.007904  1
  Al  Al11  1  0.613060  0.386893  0.292580  1
  O  O12  1  0.056494  0.407167  0.894532  1
  O  O13  1  0.200176  0.741712  0.734786  1
  O  O14  1  0.106385  0.924819  0.400234  1
  O  O15  1  0.208075  0.417034  0.590757  1
  O  O16  1  0.344438  0.117865  0.920574  1
  O  O17  1  0.557301  0.544864  0.872804  1
  O  O18  1  0.356106  0.836580  0.255835  1
  O  O19  1  0.532709  0.769082  0.609468  1
  O  O20  1  0.111825  0.136944  0.124005  1
  O  O21  1  0.888175  0.863056  0.875995  1
  O  O22  1  0.467291  0.230918  0.390532  1
  O  O23  1  0.643894  0.163420  0.744165  1
  O  O24  1  0.442699  0.455136  0.127196  1
  O  O25  1  0.655562  0.882135  0.079426  1
  O  O26  1  0.791925  0.582966  0.409243  1
  O  O27  1  0.893615  0.075181  0.599766  1
  O  O28  1  0.799824  0.258288  0.265214  1
  O  O29  1  0.943506  0.592833  0.105468  1
