# generated using pymatgen
data_V3OF11
_symmetry_space_group_name_H-M   'P 1'
_cell_length_a   5.46109104
_cell_length_b   5.25740333
_cell_length_c   14.75177989
_cell_angle_alpha   89.97419734
_cell_angle_beta   100.28260512
_cell_angle_gamma   89.77125696
_symmetry_Int_Tables_number   1
_chemical_formula_structural   V3OF11
_chemical_formula_sum   'V6 O2 F22'
_cell_volume   416.73470417
_cell_formula_units_Z   2
loop_
 _symmetry_equiv_pos_site_id
 _symmetry_equiv_pos_as_xyz
  1  'x, y, z'
loop_
 _atom_site_type_symbol
 _atom_site_label
 _atom_site_symmetry_multiplicity
 _atom_site_fract_x
 _atom_site_fract_y
 _atom_site_fract_z
 _atom_site_occupancy
  V  V0  1  0.999747  0.999590  0.000088  1
  V  V1  1  0.125670  0.475081  0.330167  1
  V  V2  1  0.322234  0.991972  0.667442  1
  V  V3  1  0.499660  0.499698  0.999960  1
  V  V4  1  0.655360  0.991838  0.334147  1
  V  V5  1  0.792490  0.475113  0.663485  1
  O  O6  1  0.541308  0.295223  0.644053  1
  O  O7  1  0.874689  0.294829  0.310730  1
  F  F8  1  0.023227  0.209154  0.642047  1
  F  F9  1  0.188793  0.303302  0.975072  1
  F  F10  1  0.140181  0.706994  0.690631  1
  F  F11  1  0.042028  0.088300  0.117500  1
  F  F12  1  0.227915  0.427873  0.449725  1
  F  F13  1  0.383412  0.088414  0.784236  1
  F  F14  1  0.135786  0.594391  0.218569  1
  F  F15  1  0.295646  0.924817  0.548455  1
  F  F16  1  0.462045  0.587315  0.882657  1
  F  F17  1  0.356440  0.209604  0.308502  1
  F  F18  1  0.688111  0.196036  0.975476  1
  F  F19  1  0.311493  0.803394  0.024705  1
  F  F20  1  0.472993  0.707114  0.357445  1
  F  F21  1  0.637170  0.787013  0.690648  1
  F  F22  1  0.541171  0.412903  0.117617  1
  F  F23  1  0.715865  0.088930  0.450954  1
  F  F24  1  0.894528  0.427527  0.782944  1
  F  F25  1  0.628675  0.922786  0.215367  1
  F  F26  1  0.804118  0.593052  0.551731  1
  F  F27  1  0.957629  0.914254  0.882579  1
  F  F28  1  0.811655  0.696712  0.025434  1
  F  F29  1  0.969963  0.786769  0.357634  1
