# generated using pymatgen
data_NiP4
_symmetry_space_group_name_H-M   'P 1'
_cell_length_a   5.20631564
_cell_length_b   5.90323123
_cell_length_c   11.33127867
_cell_angle_alpha   88.51986293
_cell_angle_beta   93.27894442
_cell_angle_gamma   116.08336204
_symmetry_Int_Tables_number   1
_chemical_formula_structural   NiP4
_chemical_formula_sum   'Ni4 P16'
_cell_volume   312.27624705
_cell_formula_units_Z   4
loop_
 _symmetry_equiv_pos_site_id
 _symmetry_equiv_pos_as_xyz
  1  'x, y, z'
loop_
 _atom_site_type_symbol
 _atom_site_label
 _atom_site_symmetry_multiplicity
 _atom_site_fract_x
 _atom_site_fract_y
 _atom_site_fract_z
 _atom_site_occupancy
  Ni  Ni0  1  0.994845  0.499833  0.001144  1
  Ni  Ni1  1  0.077826  0.155583  0.250188  1
  Ni  Ni2  1  0.498737  0.499853  0.500167  1
  Ni  Ni3  1  0.920226  0.840129  0.749970  1
  P  P4  1  0.066630  0.518865  0.789991  1
  P  P5  1  0.232285  0.857451  0.285857  1
  P  P6  1  0.331807  0.797927  0.477333  1
  P  P7  1  0.043956  0.183360  0.452978  1
  P  P8  1  0.133480  0.182357  0.046610  1
  P  P9  1  0.458170  0.796993  0.023576  1
  P  P10  1  0.451474  0.518474  0.711409  1
  P  P11  1  0.623766  0.856359  0.215170  1
  P  P12  1  0.373847  0.138521  0.784282  1
  P  P13  1  0.546076  0.478425  0.290212  1
  P  P14  1  0.532085  0.201923  0.976089  1
  P  P15  1  0.858539  0.816657  0.952875  1
  P  P16  1  0.952796  0.818026  0.546762  1
  P  P17  1  0.664175  0.202478  0.523800  1
  P  P18  1  0.767701  0.140281  0.714684  1
  P  P19  1  0.930663  0.477438  0.212538  1
