# generated using pymatgen
data_Co5BiO12
_symmetry_space_group_name_H-M   'P 1'
_cell_length_a   5.07559477
_cell_length_b   5.08605959
_cell_length_c   9.44287920
_cell_angle_alpha   90.15462888
_cell_angle_beta   90.30989460
_cell_angle_gamma   60.06804635
_symmetry_Int_Tables_number   1
_chemical_formula_structural   Co5BiO12
_chemical_formula_sum   'Co5 Bi1 O12'
_cell_volume   211.24891055
_cell_formula_units_Z   1
loop_
 _symmetry_equiv_pos_site_id
 _symmetry_equiv_pos_as_xyz
  1  'x, y, z'
loop_
 _atom_site_type_symbol
 _atom_site_label
 _atom_site_symmetry_multiplicity
 _atom_site_fract_x
 _atom_site_fract_y
 _atom_site_fract_z
 _atom_site_occupancy
  Co  Co0  1  0.166542  0.666915  0.500000  1
  Co  Co1  1  0.666772  0.666456  0.000000  1
  Co  Co2  1  0.333228  0.333544  1.000000  1
  Co  Co3  1  0.833458  0.333085  0.500000  1
  Co  Co4  1  0.500000  0.000000  0.500000  1
  Bi  Bi5  1  0.000000  0.000000  0.000000  1
  O  O6  1  0.001110  0.631004  0.106929  1
  O  O7  1  0.367886  0.631004  0.893071  1
  O  O8  1  0.165751  0.332668  0.405654  1
  O  O9  1  0.498418  0.667332  0.405654  1
  O  O10  1  0.501582  0.332668  0.594346  1
  O  O11  1  0.166690  0.000000  0.595196  1
  O  O12  1  0.834249  0.667332  0.594346  1
  O  O13  1  0.632114  0.368996  0.106929  1
  O  O14  1  0.370472  0.000000  0.107329  1
  O  O15  1  0.998890  0.368996  0.893071  1
  O  O16  1  0.629528  1.000000  0.892671  1
  O  O17  1  0.833310  1.000000  0.404804  1
