# generated using pymatgen
data_RbFeP2(HO4)2
_symmetry_space_group_name_H-M   'P 1'
_cell_length_a   18.47426111
_cell_length_b   18.47427730
_cell_length_c   18.47427726
_cell_angle_alpha   25.96889849
_cell_angle_beta   25.96872532
_cell_angle_gamma   25.96872615
_symmetry_Int_Tables_number   1
_chemical_formula_structural   RbFeP2(HO4)2
_chemical_formula_sum   'Rb6 Fe6 P12 H12 O48'
_cell_volume   1064.90643009
_cell_formula_units_Z   6
loop_
 _symmetry_equiv_pos_site_id
 _symmetry_equiv_pos_as_xyz
  1  'x, y, z'
loop_
 _atom_site_type_symbol
 _atom_site_label
 _atom_site_symmetry_multiplicity
 _atom_site_fract_x
 _atom_site_fract_y
 _atom_site_fract_z
 _atom_site_occupancy
  Rb  Rb0  1  0.750203  0.750209  0.750204  1
  Rb  Rb1  1  0.250203  0.250204  0.250209  1
  Rb  Rb2  1  0.832857  0.832853  0.832860  1
  Rb  Rb3  1  0.332857  0.332860  0.332853  1
  Rb  Rb4  1  0.167558  0.167560  0.167564  1
  Rb  Rb5  1  0.667558  0.667564  0.667560  1
  Fe  Fe6  1  0.413808  0.413839  0.413818  1
  Fe  Fe7  1  0.913808  0.913818  0.913839  1
  Fe  Fe8  1  0.585840  0.585836  0.585846  1
  Fe  Fe9  1  0.085840  0.085846  0.085836  1
  Fe  Fe10  1  0.499736  0.499761  0.499752  1
  Fe  Fe11  1  0.999736  0.999752  0.999761  1
  P  P12  1  0.759510  0.200911  0.401355  1
  P  P13  1  0.200906  0.401354  0.759515  1
  P  P14  1  0.401352  0.759516  0.200908  1
  P  P15  1  0.259510  0.901355  0.700911  1
  P  P16  1  0.901352  0.700908  0.259516  1
  P  P17  1  0.700906  0.259515  0.901354  1
  P  P18  1  0.241530  0.798751  0.597675  1
  P  P19  1  0.798751  0.597672  0.241532  1
  P  P20  1  0.597671  0.241531  0.798752  1
  P  P21  1  0.741530  0.097675  0.298751  1
  P  P22  1  0.097671  0.298752  0.741531  1
  P  P23  1  0.298751  0.741532  0.097672  1
  H  H24  1  0.419960  0.014163  0.926379  1
  H  H25  1  0.014169  0.926385  0.419949  1
  H  H26  1  0.926377  0.419950  0.014176  1
  H  H27  1  0.919960  0.426379  0.514163  1
  H  H28  1  0.426377  0.514176  0.919950  1
  H  H29  1  0.514169  0.919949  0.426385  1
  H  H30  1  0.576406  0.990384  0.073397  1
  H  H31  1  0.990384  0.073398  0.576406  1
  H  H32  1  0.073404  0.576404  0.990377  1
  H  H33  1  0.076406  0.573397  0.490384  1
  H  H34  1  0.573404  0.490377  0.076404  1
  H  H35  1  0.490384  0.076406  0.573398  1
  O  O36  1  0.707242  0.318682  0.411135  1
  O  O37  1  0.318672  0.411135  0.707251  1
  O  O38  1  0.411132  0.707250  0.318678  1
  O  O39  1  0.207242  0.911135  0.818682  1
  O  O40  1  0.911132  0.818678  0.207250  1
  O  O41  1  0.818672  0.207251  0.911135  1
  O  O42  1  0.291809  0.681388  0.589285  1
  O  O43  1  0.681384  0.589277  0.291824  1
  O  O44  1  0.589281  0.291818  0.681385  1
  O  O45  1  0.791809  0.089285  0.181388  1
  O  O46  1  0.089281  0.181385  0.791818  1
  O  O47  1  0.181384  0.791824  0.089277  1
  O  O48  1  0.591766  0.208071  0.503978  1
  O  O49  1  0.208057  0.503986  0.591773  1
  O  O50  1  0.503978  0.591775  0.208061  1
  O  O51  1  0.091766  0.003978  0.708071  1
  O  O52  1  0.003978  0.708061  0.091775  1
  O  O53  1  0.708057  0.091773  0.003986  1
  O  O54  1  0.409747  0.791114  0.494882  1
  O  O55  1  0.791122  0.494882  0.409741  1
  O  O56  1  0.494877  0.409739  0.791128  1
  O  O57  1  0.909747  0.994882  0.291114  1
  O  O58  1  0.994877  0.291128  0.909739  1
  O  O59  1  0.291122  0.909741  0.994882  1
  O  O60  1  0.885051  0.985211  0.507438  1
  O  O61  1  0.985205  0.507436  0.885057  1
  O  O62  1  0.507444  0.885047  0.985207  1
  O  O63  1  0.385051  0.007438  0.485211  1
  O  O64  1  0.007444  0.485207  0.385047  1
  O  O65  1  0.485205  0.385057  0.007436  1
  O  O66  1  0.118572  0.015600  0.488909  1
  O  O67  1  0.015600  0.488912  0.118564  1
  O  O68  1  0.488908  0.118570  0.015601  1
  O  O69  1  0.618572  0.988909  0.515600  1
  O  O70  1  0.988908  0.515601  0.618570  1
  O  O71  1  0.515600  0.618564  0.988912  1
  O  O72  1  0.304108  0.254257  0.609990  1
  O  O73  1  0.254254  0.609995  0.304106  1
  O  O74  1  0.609989  0.304110  0.254257  1
  O  O75  1  0.804108  0.109990  0.754257  1
  O  O76  1  0.109989  0.754257  0.804110  1
  O  O77  1  0.754254  0.804106  0.109995  1
  O  O78  1  0.694375  0.747247  0.389657  1
  O  O79  1  0.747251  0.389648  0.694377  1
  O  O80  1  0.389652  0.694379  0.747247  1
  O  O81  1  0.194375  0.889657  0.247247  1
  O  O82  1  0.889652  0.247247  0.194379  1
  O  O83  1  0.247251  0.194377  0.889648  1
