# generated using pymatgen
data_LiFe(SiO3)2
_symmetry_space_group_name_H-M   'P 1'
_cell_length_a   11.20591891
_cell_length_b   11.20591891
_cell_length_c   11.20591891
_cell_angle_alpha   113.65490615
_cell_angle_beta   113.65490615
_cell_angle_gamma   101.39349320
_symmetry_Int_Tables_number   1
_chemical_formula_structural   LiFe(SiO3)2
_chemical_formula_sum   'Li8 Fe8 Si16 O48'
_cell_volume   1067.40616574
_cell_formula_units_Z   8
loop_
 _symmetry_equiv_pos_site_id
 _symmetry_equiv_pos_as_xyz
  1  'x, y, z'
loop_
 _atom_site_type_symbol
 _atom_site_label
 _atom_site_symmetry_multiplicity
 _atom_site_fract_x
 _atom_site_fract_y
 _atom_site_fract_z
 _atom_site_occupancy
  Li  Li0  1  0.747760  0.290750  0.256754  1
  Li  Li1  1  0.008994  0.752240  0.042991  1
  Li  Li2  1  0.790750  0.033996  0.542991  1
  Li  Li3  1  0.533996  0.491006  0.243246  1
  Li  Li4  1  0.466004  0.508994  0.756754  1
  Li  Li5  1  0.209250  0.966004  0.457009  1
  Li  Li6  1  0.991006  0.247759  0.957009  1
  Li  Li7  1  0.252240  0.709250  0.743246  1
  Fe  Fe8  1  0.005651  0.040661  0.277404  1
  Fe  Fe9  1  0.540661  0.763257  0.035010  1
  Fe  Fe10  1  0.771753  0.494349  0.535010  1
  Fe  Fe11  1  0.736743  0.271753  0.777404  1
  Fe  Fe12  1  0.263257  0.728247  0.222596  1
  Fe  Fe13  1  0.459339  0.236743  0.964990  1
  Fe  Fe14  1  0.228247  0.505651  0.464990  1
  Fe  Fe15  1  0.994349  0.959339  0.722596  1
  Si  Si16  1  0.709573  0.478199  0.034137  1
  Si  Si17  1  0.253492  0.156548  0.073934  1
  Si  Si18  1  0.582614  0.179557  0.426066  1
  Si  Si19  1  0.944062  0.675437  0.465863  1
  Si  Si20  1  0.824563  0.790427  0.268626  1
  Si  Si21  1  0.978199  0.444062  0.768626  1
  Si  Si22  1  0.320443  0.246508  0.403057  1
  Si  Si23  1  0.656548  0.082614  0.903057  1
  Si  Si24  1  0.679557  0.753492  0.596943  1
  Si  Si25  1  0.343452  0.917386  0.096943  1
  Si  Si26  1  0.175437  0.209573  0.731374  1
  Si  Si27  1  0.021801  0.555938  0.231374  1
  Si  Si28  1  0.055938  0.324563  0.534137  1
  Si  Si29  1  0.417386  0.820443  0.573934  1
  Si  Si30  1  0.746508  0.843452  0.926066  1
  Si  Si31  1  0.290427  0.521801  0.965863  1
  O  O32  1  0.964706  0.202989  0.348897  1
  O  O33  1  0.848245  0.448736  0.123355  1
  O  O34  1  0.493410  0.021029  0.267140  1
  O  O35  1  0.586043  0.435422  0.071962  1
  O  O36  1  0.393328  0.272665  0.103000  1
  O  O37  1  0.775110  0.651755  0.100491  1
  O  O38  1  0.948736  0.325380  0.600491  1
  O  O39  1  0.669665  0.290328  0.397000  1
  O  O40  1  0.863459  0.514081  0.428038  1
  O  O41  1  0.253889  0.226271  0.232860  1
  O  O42  1  0.906958  0.887378  0.064875  1
  O  O43  1  0.677497  0.157917  0.564875  1
  O  O44  1  0.478971  0.246111  0.472383  1
  O  O45  1  0.726271  0.993410  0.972383  1
  O  O46  1  0.772665  0.169665  0.879337  1
  O  O47  1  0.209672  0.106672  0.379337  1
  O  O48  1  0.825380  0.724890  0.376645  1
  O  O49  1  0.985919  0.913957  0.349379  1
  O  O50  1  0.935422  0.363459  0.849379  1
  O  O51  1  0.702989  0.854093  0.238283  1
  O  O52  1  0.884190  0.535294  0.738283  1
  O  O53  1  0.354093  0.615810  0.151103  1
  O  O54  1  0.657917  0.593042  0.480420  1
  O  O55  1  0.387378  0.822503  0.980420  1
  O  O56  1  0.342083  0.406958  0.519580  1
  O  O57  1  0.612622  0.177497  0.019580  1
  O  O58  1  0.645907  0.384190  0.848897  1
  O  O59  1  0.115810  0.464706  0.261717  1
  O  O60  1  0.297011  0.145907  0.761717  1
  O  O61  1  0.064578  0.636541  0.150621  1
  O  O62  1  0.014081  0.086043  0.650621  1
  O  O63  1  0.174620  0.275110  0.623355  1
  O  O64  1  0.790328  0.893328  0.620663  1
  O  O65  1  0.227335  0.830335  0.120663  1
  O  O66  1  0.521029  0.753889  0.527617  1
  O  O67  1  0.273729  0.006590  0.027617  1
  O  O68  1  0.093042  0.112622  0.935125  1
  O  O69  1  0.322503  0.842083  0.435125  1
  O  O70  1  0.746111  0.773729  0.767140  1
  O  O71  1  0.136541  0.485919  0.571963  1
  O  O72  1  0.330335  0.709672  0.603000  1
  O  O73  1  0.051264  0.674620  0.399509  1
  O  O74  1  0.224890  0.348245  0.899509  1
  O  O75  1  0.606672  0.727335  0.897000  1
  O  O76  1  0.413957  0.564578  0.928037  1
  O  O77  1  0.506590  0.978971  0.732860  1
  O  O78  1  0.151755  0.551264  0.876645  1
  O  O79  1  0.035294  0.797011  0.651103  1
