# generated using pymatgen
data_Li2MnFe(BO3)2
_symmetry_space_group_name_H-M   'P 1'
_cell_length_a   8.26888469
_cell_length_b   8.26978026
_cell_length_c   6.31255743
_cell_angle_alpha   90.00000000
_cell_angle_beta   90.00000000
_cell_angle_gamma   120.06880193
_symmetry_Int_Tables_number   1
_chemical_formula_structural   Li2MnFe(BO3)2
_chemical_formula_sum   'Li6 Mn3 Fe3 B6 O18'
_cell_volume   373.57290364
_cell_formula_units_Z   3
loop_
 _symmetry_equiv_pos_site_id
 _symmetry_equiv_pos_as_xyz
  1  'x, y, z'
loop_
 _atom_site_type_symbol
 _atom_site_label
 _atom_site_symmetry_multiplicity
 _atom_site_fract_x
 _atom_site_fract_y
 _atom_site_fract_z
 _atom_site_occupancy
  Li  Li0  1  0.284702  0.982769  0.250198  1
  Li  Li1  1  0.284702  0.982769  0.749803  1
  Li  Li2  1  0.017039  0.301789  0.250868  1
  Li  Li3  1  0.017039  0.301789  0.749132  1
  Li  Li4  1  0.698328  0.715159  0.750065  1
  Li  Li5  1  0.698328  0.715159  0.249935  1
  Mn  Mn6  1  0.373259  0.360555  0.500000  1
  Mn  Mn7  1  0.640860  0.012651  0.000000  1
  Mn  Mn8  1  0.987585  0.628133  0.000000  1
  Fe  Fe9  1  0.366524  0.359284  0.000000  1
  Fe  Fe10  1  0.640056  0.007310  0.500000  1
  Fe  Fe11  1  0.992484  0.632482  0.500000  1
  B  B12  1  0.002742  0.000083  0.000000  1
  B  B13  1  0.997210  0.999757  0.500000  1
  B  B14  1  0.333269  0.666662  0.251925  1
  B  B15  1  0.333269  0.666662  0.748075  1
  B  B16  1  0.666678  0.333395  0.251458  1
  B  B17  1  0.666678  0.333395  0.748542  1
  O  O18  1  0.106849  0.914867  0.500000  1
  O  O19  1  0.116584  0.921061  0.000000  1
  O  O20  1  0.139600  0.580640  0.254497  1
  O  O21  1  0.139600  0.580640  0.745503  1
  O  O22  1  0.084007  0.195073  0.000000  1
  O  O23  1  0.080173  0.192795  0.500000  1
  O  O24  1  0.441184  0.860390  0.253768  1
  O  O25  1  0.441184  0.860390  0.746232  1
  O  O26  1  0.419150  0.559024  0.246015  1
  O  O27  1  0.419150  0.559024  0.753985  1
  O  O28  1  0.472928  0.252461  0.248011  1
  O  O29  1  0.472928  0.252461  0.751989  1
  O  O30  1  0.809216  0.887567  0.000000  1
  O  O31  1  0.802614  0.888235  0.500000  1
  O  O32  1  0.779554  0.527128  0.252284  1
  O  O33  1  0.779554  0.527128  0.747716  1
  O  O34  1  0.747485  0.220659  0.746804  1
  O  O35  1  0.747485  0.220659  0.253196  1
