# generated using pymatgen
data_LiSb(TeO4)3
_symmetry_space_group_name_H-M   'P 1'
_cell_length_a   5.33546393
_cell_length_b   5.11805342
_cell_length_c   7.40074369
_cell_angle_alpha   89.85289675
_cell_angle_beta   93.40666063
_cell_angle_gamma   90.00675682
_symmetry_Int_Tables_number   1
_chemical_formula_structural   LiSb(TeO4)3
_chemical_formula_sum   'Li1 Sb1 Te3 O12'
_cell_volume   201.73573064
_cell_formula_units_Z   1
loop_
 _symmetry_equiv_pos_site_id
 _symmetry_equiv_pos_as_xyz
  1  'x, y, z'
loop_
 _atom_site_type_symbol
 _atom_site_label
 _atom_site_symmetry_multiplicity
 _atom_site_fract_x
 _atom_site_fract_y
 _atom_site_fract_z
 _atom_site_occupancy
  Li  Li0  1  0.924111  0.502178  0.788876  1
  Sb  Sb1  1  0.003442  0.000483  0.005741  1
  Te  Te2  1  0.005890  0.998124  0.496862  1
  Te  Te3  1  0.498912  0.500792  0.002045  1
  Te  Te4  1  0.500472  0.499369  0.494395  1
  O  O5  1  0.822608  0.669145  0.047481  1
  O  O6  1  0.819141  0.314606  0.563705  1
  O  O7  1  0.690745  0.811367  0.429009  1
  O  O8  1  0.694208  0.202289  0.927689  1
  O  O9  1  0.504626  0.362642  0.249679  1
  O  O10  1  0.520383  0.624527  0.744993  1
  O  O11  1  0.328165  0.815017  0.062162  1
  O  O12  1  0.317740  0.187723  0.567121  1
  O  O13  1  0.187995  0.682057  0.431242  1
  O  O14  1  0.191168  0.319880  0.931393  1
  O  O15  1  0.004191  0.133502  0.256458  1
  O  O16  1  0.007756  0.870899  0.743927  1
