# generated using pymatgen
data_Ba3SiO5
_symmetry_space_group_name_H-M   'P 1'
_cell_length_a   7.41091727
_cell_length_b   7.41091727
_cell_length_c   7.73640546
_cell_angle_alpha   118.61775206
_cell_angle_beta   118.61775205
_cell_angle_gamma   89.99999997
_symmetry_Int_Tables_number   1
_chemical_formula_structural   Ba3SiO5
_chemical_formula_sum   'Ba6 Si2 O10'
_cell_volume   312.57693379
_cell_formula_units_Z   2
loop_
 _symmetry_equiv_pos_site_id
 _symmetry_equiv_pos_as_xyz
  1  'x, y, z'
loop_
 _atom_site_type_symbol
 _atom_site_label
 _atom_site_symmetry_multiplicity
 _atom_site_fract_x
 _atom_site_fract_y
 _atom_site_fract_z
 _atom_site_occupancy
  O  O0  1  0.211029  0.711029  0.675110  1
  O  O1  1  0.535919  0.035919  0.324890  1
  O  O2  1  0.788971  0.288971  0.324890  1
  O  O3  1  0.035919  0.788971  0.324890  1
  O  O4  1  0.288971  0.535919  0.324890  1
  O  O5  1  0.964081  0.211029  0.675110  1
  O  O6  1  0.711029  0.464081  0.675110  1
  O  O7  1  0.464081  0.964081  0.675110  1
  O  O8  1  0.000000  0.000000  0.000000  1
  O  O9  1  0.500000  0.500000  0.000000  1
  Si  Si10  1  0.750000  0.250000  0.500000  1
  Si  Si11  1  0.250000  0.750000  0.500000  1
  Ba  Ba12  1  0.816891  0.316891  0.000000  1
  Ba  Ba13  1  0.683109  0.816891  0.000000  1
  Ba  Ba14  1  0.316891  0.183109  0.000000  1
  Ba  Ba15  1  0.183109  0.683109  0.000000  1
  Ba  Ba16  1  0.750000  0.750000  0.500000  1
  Ba  Ba17  1  0.250000  0.250000  0.500000  1
