# generated using pymatgen
data_Cr2Fe3Ni(PO4)6
_symmetry_space_group_name_H-M   'P 1'
_cell_length_a   8.39784241
_cell_length_b   8.39784207
_cell_length_c   8.39784187
_cell_angle_alpha   61.82177785
_cell_angle_beta   61.82177495
_cell_angle_gamma   61.82177328
_symmetry_Int_Tables_number   1
_chemical_formula_structural   Cr2Fe3Ni(PO4)6
_chemical_formula_sum   'Cr2 Fe3 Ni1 P6 O24'
_cell_volume   435.86885994
_cell_formula_units_Z   1
loop_
 _symmetry_equiv_pos_site_id
 _symmetry_equiv_pos_as_xyz
  1  'x, y, z'
loop_
 _atom_site_type_symbol
 _atom_site_label
 _atom_site_symmetry_multiplicity
 _atom_site_fract_x
 _atom_site_fract_y
 _atom_site_fract_z
 _atom_site_occupancy
  Cr  Cr0  1  0.999029  0.999029  0.999029  1
  Cr  Cr1  1  0.499448  0.499448  0.499448  1
  Fe  Fe2  1  0.145771  0.145771  0.145771  1
  Fe  Fe3  1  0.353070  0.353070  0.353070  1
  Fe  Fe4  1  0.646774  0.646774  0.646774  1
  Ni  Ni5  1  0.856568  0.856568  0.856568  1
  P  P6  1  0.049068  0.750809  0.452103  1
  P  P7  1  0.452103  0.049068  0.750809  1
  P  P8  1  0.750809  0.452103  0.049068  1
  P  P9  1  0.249028  0.549723  0.950175  1
  P  P10  1  0.549723  0.950175  0.249028  1
  P  P11  1  0.950175  0.249028  0.549723  1
  O  O12  1  0.104221  0.326606  0.502554  1
  O  O13  1  0.326606  0.502554  0.104221  1
  O  O14  1  0.063406  0.903171  0.246863  1
  O  O15  1  0.502554  0.104221  0.326606  1
  O  O16  1  0.011865  0.823361  0.603731  1
  O  O17  1  0.253604  0.595344  0.433651  1
  O  O18  1  0.246863  0.063406  0.903171  1
  O  O19  1  0.433651  0.253604  0.595344  1
  O  O20  1  0.173871  0.394770  0.994994  1
  O  O21  1  0.595344  0.433651  0.253604  1
  O  O22  1  0.098075  0.752003  0.937362  1
  O  O23  1  0.394770  0.994994  0.173871  1
  O  O24  1  0.603731  0.011865  0.823361  1
  O  O25  1  0.903171  0.246863  0.063406  1
  O  O26  1  0.404544  0.561823  0.746905  1
  O  O27  1  0.823361  0.603731  0.011865  1
  O  O28  1  0.561823  0.746905  0.404544  1
  O  O29  1  0.752003  0.937362  0.098075  1
  O  O30  1  0.746905  0.404544  0.561823  1
  O  O31  1  0.994994  0.173871  0.394770  1
  O  O32  1  0.495728  0.894608  0.675374  1
  O  O33  1  0.937362  0.098075  0.752003  1
  O  O34  1  0.675374  0.495728  0.894608  1
  O  O35  1  0.894608  0.675374  0.495728  1
