# generated using pymatgen
data_Ca6La14Mg7Ti13O60
_symmetry_space_group_name_H-M   'P 1'
_cell_length_a   5.56732566
_cell_length_b   5.60201888
_cell_length_c   39.41593421
_cell_angle_alpha   90.12871049
_cell_angle_beta   90.02359602
_cell_angle_gamma   89.61422345
_symmetry_Int_Tables_number   1
_chemical_formula_structural   Ca6La14Mg7Ti13O60
_chemical_formula_sum   'Ca6 La14 Mg7 Ti13 O60'
_cell_volume   1229.28347717
_cell_formula_units_Z   1
loop_
 _symmetry_equiv_pos_site_id
 _symmetry_equiv_pos_as_xyz
  1  'x, y, z'
loop_
 _atom_site_type_symbol
 _atom_site_label
 _atom_site_symmetry_multiplicity
 _atom_site_fract_x
 _atom_site_fract_y
 _atom_site_fract_z
 _atom_site_occupancy
  Ca  Ca0  1  0.486290  0.459038  0.351525  1
  Ca  Ca1  1  0.487536  0.460829  0.152139  1
  Ca  Ca2  1  0.991818  0.035655  0.249493  1
  Ca  Ca3  1  0.991765  0.034020  0.449168  1
  Ca  Ca4  1  0.000378  0.030560  0.653876  1
  Ca  Ca5  1  0.000436  0.031223  0.847283  1
  La  La6  1  0.005663  0.973598  0.153496  1
  La  La7  1  0.005867  0.973853  0.352634  1
  La  La8  1  0.003656  0.975048  0.554585  1
  La  La9  1  0.999729  0.975020  0.750645  1
  La  La10  1  0.996810  0.977987  0.944875  1
  La  La11  1  0.491595  0.469794  0.553127  1
  La  La12  1  0.484349  0.455998  0.750592  1
  La  La13  1  0.488889  0.458916  0.946962  1
  La  La14  1  0.508778  0.529246  0.047648  1
  La  La15  1  0.509758  0.536312  0.248092  1
  La  La16  1  0.509812  0.552400  0.652839  1
  La  La17  1  0.508637  0.534773  0.447235  1
  La  La18  1  0.511216  0.553558  0.848261  1
  La  La19  1  0.996303  0.025587  0.046750  1
  Mg  Mg20  1  0.500214  0.999415  0.998690  1
  Mg  Mg21  1  0.500243  0.001738  0.200675  1
  Mg  Mg22  1  0.498493  0.002078  0.602337  1
  Mg  Mg23  1  0.499645  0.001198  0.898138  1
  Mg  Mg24  1  0.500576  0.001303  0.399857  1
  Mg  Mg25  1  0.499700  0.003136  0.699706  1
  Mg  Mg26  1  0.499937  0.002739  0.800784  1
  Ti  Ti27  1  -0.000468  0.502245  0.997445  1
  Ti  Ti28  1  0.003483  0.502104  0.101035  1
  Ti  Ti29  1  0.000821  0.498972  0.200598  1
  Ti  Ti30  1  0.003820  0.504108  0.300801  1
  Ti  Ti31  1  0.000935  0.498859  0.400257  1
  Ti  Ti32  1  0.003012  0.501180  0.500263  1
  Ti  Ti33  1  0.000113  0.497385  0.603575  1
  Ti  Ti34  1  0.995855  0.499042  0.701188  1
  Ti  Ti35  1  0.996664  0.499381  0.800100  1
  Ti  Ti36  1  0.001002  0.498976  0.896160  1
  Ti  Ti37  1  0.503088  0.003328  0.101061  1
  Ti  Ti38  1  0.504153  0.007082  0.299619  1
  Ti  Ti39  1  0.503016  0.002875  0.498847  1
  O  O40  1  0.079853  0.487547  0.052943  1
  O  O41  1  0.082432  0.478935  0.250792  1
  O  O42  1  0.081371  0.478793  0.449915  1
  O  O43  1  0.084101  0.474251  0.648898  1
  O  O44  1  0.087501  0.473821  0.850315  1
  O  O45  1  0.215514  0.228876  0.191266  1
  O  O46  1  0.226443  0.226377  0.109299  1
  O  O47  1  0.225069  0.226599  0.308891  1
  O  O48  1  0.214896  0.228720  0.390682  1
  O  O49  1  0.227562  0.230379  0.508137  1
  O  O50  1  0.221558  0.235704  0.588688  1
  O  O51  1  0.211475  0.229836  0.709089  1
  O  O52  1  0.212460  0.230401  0.790644  1
  O  O53  1  0.218297  0.235132  0.910441  1
  O  O54  1  0.212483  0.230335  0.993735  1
  O  O55  1  0.272676  0.709153  0.190994  1
  O  O56  1  0.272242  0.717306  0.309302  1
  O  O57  1  0.272175  0.708632  0.390514  1
  O  O58  1  0.270288  0.724159  0.109810  1
  O  O59  1  0.265181  0.714294  0.588800  1
  O  O60  1  0.269771  0.721641  0.508000  1
  O  O61  1  0.268130  0.709900  0.910761  1
  O  O62  1  0.270419  0.706543  0.709311  1
  O  O63  1  0.269368  0.707575  0.790584  1
  O  O64  1  0.264445  0.716788  0.994104  1
  O  O65  1  0.422272  0.984806  0.052958  1
  O  O66  1  0.410557  0.975926  0.252613  1
  O  O67  1  0.401785  0.957540  0.650137  1
  O  O68  1  0.410138  0.977385  0.451845  1
  O  O69  1  0.401857  0.958183  0.849946  1
  O  O70  1  0.582206  0.020150  0.347300  1
  O  O71  1  0.581785  0.020835  0.148187  1
  O  O72  1  0.574998  0.011491  0.546927  1
  O  O73  1  0.592153  0.027924  0.750106  1
  O  O74  1  0.588952  0.028098  0.949794  1
  O  O75  1  0.735197  0.282552  0.010933  1
  O  O76  1  0.731296  0.270408  0.091313  1
  O  O77  1  0.732485  0.286576  0.208459  1
  O  O78  1  0.726345  0.273930  0.290269  1
  O  O79  1  0.732292  0.287392  0.605435  1
  O  O80  1  0.732068  0.286279  0.407921  1
  O  O81  1  0.725119  0.274444  0.490254  1
  O  O82  1  0.733132  0.291123  0.892621  1
  O  O83  1  0.731352  0.291091  0.690422  1
  O  O84  1  0.731736  0.291524  0.809221  1
  O  O85  1  0.777661  0.764821  0.010967  1
  O  O86  1  0.774679  0.773530  0.091738  1
  O  O87  1  0.793719  0.775352  0.209186  1
  O  O88  1  0.778787  0.775227  0.290460  1
  O  O89  1  0.793289  0.774911  0.408676  1
  O  O90  1  0.771789  0.772516  0.490023  1
  O  O91  1  0.792755  0.772553  0.606300  1
  O  O92  1  0.792779  0.771050  0.690218  1
  O  O93  1  0.796265  0.773839  0.891939  1
  O  O94  1  0.793537  0.771811  0.809492  1
  O  O95  1  0.910045  0.516074  0.149345  1
  O  O96  1  0.909128  0.515822  0.348354  1
  O  O97  1  0.919738  0.512014  0.546759  1
  O  O98  1  0.911987  0.515750  0.749873  1
  O  O99  1  0.916818  0.514817  0.951739  1
