# generated using pymatgen
data_Na3CoAsCO7
_symmetry_space_group_name_H-M   'P 1'
_cell_length_a   9.19279626
_cell_length_b   6.82159819
_cell_length_c   5.25370943
_cell_angle_alpha   90.00000000
_cell_angle_beta   88.99336469
_cell_angle_gamma   90.00000000
_symmetry_Int_Tables_number   1
_chemical_formula_structural   Na3CoAsCO7
_chemical_formula_sum   'Na6 Co2 As2 C2 O14'
_cell_volume   329.40697289
_cell_formula_units_Z   2
loop_
 _symmetry_equiv_pos_site_id
 _symmetry_equiv_pos_as_xyz
  1  'x, y, z'
loop_
 _atom_site_type_symbol
 _atom_site_label
 _atom_site_symmetry_multiplicity
 _atom_site_fract_x
 _atom_site_fract_y
 _atom_site_fract_z
 _atom_site_occupancy
  Na  Na0  1  0.079945  0.250000  0.761301  1
  Na  Na1  1  0.256608  0.003016  0.249496  1
  Na  Na2  1  0.256608  0.496984  0.249496  1
  Na  Na3  1  0.743392  0.503016  0.750504  1
  Na  Na4  1  0.743392  0.996984  0.750504  1
  Na  Na5  1  0.920055  0.750000  0.238699  1
  Co  Co6  1  0.343209  0.750000  0.788917  1
  Co  Co7  1  0.656791  0.250000  0.211083  1
  As  As8  1  0.417220  0.250000  0.701176  1
  As  As9  1  0.582780  0.750000  0.298824  1
  C  C10  1  0.061024  0.750000  0.730660  1
  C  C11  1  0.938976  0.250000  0.269340  1
  O  O12  1  0.079620  0.250000  0.286064  1
  O  O13  1  0.121884  0.750000  0.953048  1
  O  O14  1  0.144039  0.750000  0.527842  1
  O  O15  1  0.308346  0.051478  0.782237  1
  O  O16  1  0.308346  0.448522  0.782237  1
  O  O17  1  0.442304  0.250000  0.374151  1
  O  O18  1  0.416525  0.750000  0.156311  1
  O  O19  1  0.583475  0.250000  0.843689  1
  O  O20  1  0.557696  0.750000  0.625849  1
  O  O21  1  0.691654  0.551478  0.217763  1
  O  O22  1  0.691654  0.948522  0.217763  1
  O  O23  1  0.855961  0.250000  0.472158  1
  O  O24  1  0.878116  0.250000  0.046952  1
  O  O25  1  0.920380  0.750000  0.713936  1
