# generated using pymatgen
data_K2MoH2S2O9
_symmetry_space_group_name_H-M   'P 1'
_cell_length_a   10.13282641
_cell_length_b   10.13282641
_cell_length_c   10.22661839
_cell_angle_alpha   85.69463010
_cell_angle_beta   94.30536990
_cell_angle_gamma   118.76602696
_symmetry_Int_Tables_number   1
_chemical_formula_structural   K2MoH2S2O9
_chemical_formula_sum   'K8 Mo4 H8 S8 O36'
_cell_volume   916.92141132
_cell_formula_units_Z   4
loop_
 _symmetry_equiv_pos_site_id
 _symmetry_equiv_pos_as_xyz
  1  'x, y, z'
loop_
 _atom_site_type_symbol
 _atom_site_label
 _atom_site_symmetry_multiplicity
 _atom_site_fract_x
 _atom_site_fract_y
 _atom_site_fract_z
 _atom_site_occupancy
  K  K0  1  0.652132  0.652132  0.750000  1
  K  K1  1  0.347868  0.347868  0.250000  1
  K  K2  1  0.783333  0.494099  0.090349  1
  K  K3  1  0.494099  0.783333  0.409651  1
  K  K4  1  0.216667  0.505901  0.909651  1
  K  K5  1  0.505901  0.216667  0.590349  1
  K  K6  1  0.930463  0.930463  0.250000  1
  K  K7  1  0.069537  0.069537  0.750000  1
  Mo  Mo8  1  0.955514  0.458819  0.598759  1
  Mo  Mo9  1  0.458819  0.955514  0.901241  1
  Mo  Mo10  1  0.044486  0.541181  0.401241  1
  Mo  Mo11  1  0.541181  0.044486  0.098759  1
  H  H12  1  0.977928  0.792991  0.933621  1
  H  H13  1  0.792991  0.977928  0.566379  1
  H  H14  1  0.022072  0.207009  0.066379  1
  H  H15  1  0.207009  0.022072  0.433621  1
  H  H16  1  0.995307  0.716340  0.813051  1
  H  H17  1  0.716340  0.995307  0.686949  1
  H  H18  1  0.004693  0.283660  0.186949  1
  H  H19  1  0.283660  0.004693  0.313051  1
  S  S20  1  0.249710  0.420205  0.567111  1
  S  S21  1  0.420205  0.249710  0.932889  1
  S  S22  1  0.750290  0.579795  0.432889  1
  S  S23  1  0.579795  0.750290  0.067111  1
  S  S24  1  0.784573  0.192634  0.395210  1
  S  S25  1  0.192634  0.784573  0.104790  1
  S  S26  1  0.215427  0.807366  0.604790  1
  S  S27  1  0.807366  0.215427  0.895210  1
  O  O28  1  0.110724  0.368963  0.648427  1
  O  O29  1  0.368963  0.110724  0.851573  1
  O  O30  1  0.889276  0.631037  0.351573  1
  O  O31  1  0.631037  0.889276  0.148427  1
  O  O32  1  0.211502  0.464209  0.428288  1
  O  O33  1  0.464209  0.211502  0.071712  1
  O  O34  1  0.788498  0.535791  0.571712  1
  O  O35  1  0.535791  0.788498  0.928288  1
  O  O36  1  0.277951  0.291522  0.559805  1
  O  O37  1  0.291522  0.277951  0.940195  1
  O  O38  1  0.722049  0.708478  0.440195  1
  O  O39  1  0.708478  0.722049  0.059805  1
  O  O40  1  0.377498  0.552029  0.624797  1
  O  O41  1  0.552029  0.377498  0.875203  1
  O  O42  1  0.622502  0.447971  0.375203  1
  O  O43  1  0.447971  0.622502  0.124797  1
  O  O44  1  0.783631  0.244041  0.531032  1
  O  O45  1  0.244041  0.783631  0.968968  1
  O  O46  1  0.216369  0.755959  0.468968  1
  O  O47  1  0.755959  0.216369  0.031032  1
  O  O48  1  0.880816  0.332572  0.309852  1
  O  O49  1  0.332572  0.880816  0.190148  1
  O  O50  1  0.119184  0.667428  0.690148  1
  O  O51  1  0.667428  0.119184  0.809852  1
  O  O52  1  0.850523  0.090105  0.405756  1
  O  O53  1  0.090105  0.850523  0.094244  1
  O  O54  1  0.149477  0.909895  0.594244  1
  O  O55  1  0.909895  0.149477  0.905756  1
  O  O56  1  0.627778  0.118561  0.341227  1
  O  O57  1  0.118561  0.627778  0.158773  1
  O  O58  1  0.372222  0.881439  0.658773  1
  O  O59  1  0.881439  0.372222  0.841227  1
  O  O60  1  0.930246  0.750622  0.848511  1
  O  O61  1  0.750622  0.930246  0.651489  1
  O  O62  1  0.069754  0.249378  0.151489  1
  O  O63  1  0.249378  0.069754  0.348511  1
