# generated using pymatgen
data_K2LuPCO7
_symmetry_space_group_name_H-M   'P 1'
_cell_length_a   9.88935432
_cell_length_b   7.04147731
_cell_length_c   5.78686946
_cell_angle_alpha   90.00000000
_cell_angle_beta   91.61272055
_cell_angle_gamma   90.00000000
_symmetry_Int_Tables_number   1
_chemical_formula_structural   K2LuPCO7
_chemical_formula_sum   'K4 Lu2 P2 C2 O14'
_cell_volume   402.81287684
_cell_formula_units_Z   2
loop_
 _symmetry_equiv_pos_site_id
 _symmetry_equiv_pos_as_xyz
  1  'x, y, z'
loop_
 _atom_site_type_symbol
 _atom_site_label
 _atom_site_symmetry_multiplicity
 _atom_site_fract_x
 _atom_site_fract_y
 _atom_site_fract_z
 _atom_site_occupancy
  K  K0  1  0.227137  0.486876  0.245877  1
  K  K1  1  0.227137  0.013124  0.245877  1
  K  K2  1  0.772863  0.513124  0.754123  1
  K  K3  1  0.772863  0.986876  0.754123  1
  Lu  Lu4  1  0.363470  0.750000  0.777223  1
  Lu  Lu5  1  0.636530  0.250000  0.222777  1
  P  P6  1  0.430741  0.250000  0.712838  1
  P  P7  1  0.569259  0.750000  0.287162  1
  C  C8  1  0.092405  0.750000  0.729501  1
  C  C9  1  0.907595  0.250000  0.270499  1
  O  O10  1  0.033956  0.250000  0.299860  1
  O  O11  1  0.154336  0.750000  0.934743  1
  O  O12  1  0.176698  0.750000  0.554042  1
  O  O13  1  0.349431  0.067319  0.764647  1
  O  O14  1  0.349431  0.432681  0.764647  1
  O  O15  1  0.434993  0.750000  0.136491  1
  O  O16  1  0.467272  0.250000  0.450957  1
  O  O17  1  0.532728  0.750000  0.549043  1
  O  O18  1  0.565007  0.250000  0.863509  1
  O  O19  1  0.650569  0.567319  0.235353  1
  O  O20  1  0.650569  0.932681  0.235353  1
  O  O21  1  0.823302  0.250000  0.445958  1
  O  O22  1  0.845664  0.250000  0.065257  1
  O  O23  1  0.966044  0.750000  0.700140  1
