# generated using pymatgen
data_Li3MnV4O8
_symmetry_space_group_name_H-M   'P 1'
_cell_length_a   10.52560099
_cell_length_b   10.52560083
_cell_length_c   14.84404170
_cell_angle_alpha   19.38916959
_cell_angle_beta   19.38916516
_cell_angle_gamma   33.42392540
_symmetry_Int_Tables_number   1
_chemical_formula_structural   Li3MnV4O8
_chemical_formula_sum   'Li3 Mn1 V4 O8'
_cell_volume   156.90671566
_cell_formula_units_Z   1
loop_
 _symmetry_equiv_pos_site_id
 _symmetry_equiv_pos_as_xyz
  1  'x, y, z'
loop_
 _atom_site_type_symbol
 _atom_site_label
 _atom_site_symmetry_multiplicity
 _atom_site_fract_x
 _atom_site_fract_y
 _atom_site_fract_z
 _atom_site_occupancy
  Li  Li0  1  0.000000  0.500000  0.500000  1
  Li  Li1  1  0.500000  0.000000  0.500000  1
  Li  Li2  1  0.500000  0.500000  0.500000  1
  Mn  Mn3  1  0.500000  0.500000  0.000000  1
  V  V4  1  0.000000  0.000000  0.500000  1
  V  V5  1  0.000000  0.000000  0.000000  1
  V  V6  1  0.000000  0.500000  0.000000  1
  V  V7  1  0.500000  0.000000  0.000000  1
  O  O8  1  0.029807  0.029807  0.219200  1
  O  O9  1  0.975080  0.469432  0.286724  1
  O  O10  1  0.469432  0.975080  0.286724  1
  O  O11  1  0.970193  0.970193  0.780800  1
  O  O12  1  0.520760  0.520760  0.220757  1
  O  O13  1  0.024920  0.530568  0.713276  1
  O  O14  1  0.530568  0.024920  0.713276  1
  O  O15  1  0.479240  0.479240  0.779243  1
