# generated using pymatgen
data_Ho2TeO6
_symmetry_space_group_name_H-M   'P 1'
_cell_length_a   9.15735951
_cell_length_b   9.15711907
_cell_length_c   5.18405809
_cell_angle_alpha   89.99936024
_cell_angle_beta   90.00000000
_cell_angle_gamma   120.00086494
_symmetry_Int_Tables_number   1
_chemical_formula_structural   Ho2TeO6
_chemical_formula_sum   'Ho6 Te3 O18'
_cell_volume   376.46606245
_cell_formula_units_Z   3
loop_
 _symmetry_equiv_pos_site_id
 _symmetry_equiv_pos_as_xyz
  1  'x, y, z'
loop_
 _atom_site_type_symbol
 _atom_site_label
 _atom_site_symmetry_multiplicity
 _atom_site_fract_x
 _atom_site_fract_y
 _atom_site_fract_z
 _atom_site_occupancy
  Ho  Ho0  1  0.000027  0.622565  0.999991  1
  Ho  Ho1  1  0.999999  0.285545  0.500002  1
  Ho  Ho2  1  0.377462  0.377435  0.000009  1
  Ho  Ho3  1  0.285553  1.000000  0.500000  1
  Ho  Ho4  1  0.714454  0.714455  0.499998  1
  Ho  Ho5  1  0.622498  1.000000  0.000000  1
  Te  Te6  1  0.333306  0.666663  0.504976  1
  Te  Te7  1  0.000109  0.000000  0.000000  1
  Te  Te8  1  0.666643  0.333337  0.495024  1
  O  O9  1  0.082065  0.880992  0.790560  1
  O  O10  1  0.222795  0.758926  0.291394  1
  O  O11  1  0.132697  0.543507  0.718550  1
  O  O12  1  0.410818  0.867273  0.718565  1
  O  O13  1  0.119008  0.201108  0.790569  1
  O  O14  1  0.241046  0.463832  0.291404  1
  O  O15  1  0.536142  0.777207  0.291404  1
  O  O16  1  0.201073  0.119008  0.209440  1
  O  O17  1  0.456474  0.589187  0.718573  1
  O  O18  1  0.463869  0.241074  0.708606  1
  O  O19  1  0.798855  0.917924  0.790524  1
  O  O20  1  0.589190  0.456493  0.281450  1
  O  O21  1  0.543545  0.132727  0.281435  1
  O  O22  1  0.917900  0.798892  0.209431  1
  O  O23  1  0.777214  0.536168  0.708597  1
  O  O24  1  0.758935  0.222793  0.708596  1
  O  O25  1  0.867288  0.410813  0.281427  1
  O  O26  1  0.880932  0.082076  0.209476  1
