# generated using pymatgen
data_Rb3FeO3
_symmetry_space_group_name_H-M   'P 1'
_cell_length_a   7.95833198
_cell_length_b   12.20823895
_cell_length_c   14.15046186
_cell_angle_alpha   89.99815093
_cell_angle_beta   153.07098153
_cell_angle_gamma   89.99940878
_symmetry_Int_Tables_number   1
_chemical_formula_structural   Rb3FeO3
_chemical_formula_sum   'Rb12 Fe4 O12'
_cell_volume   622.63694508
_cell_formula_units_Z   4
loop_
 _symmetry_equiv_pos_site_id
 _symmetry_equiv_pos_as_xyz
  1  'x, y, z'
loop_
 _atom_site_type_symbol
 _atom_site_label
 _atom_site_symmetry_multiplicity
 _atom_site_fract_x
 _atom_site_fract_y
 _atom_site_fract_z
 _atom_site_occupancy
  Rb  Rb0  1  0.307910  0.060504  0.789098  1
  Rb  Rb1  1  0.348687  0.344680  0.915754  1
  Rb  Rb2  1  0.337570  0.807098  0.705637  1
  Rb  Rb3  1  0.307935  0.439424  0.289109  1
  Rb  Rb4  1  0.348667  0.155270  0.415747  1
  Rb  Rb5  1  0.337519  0.692826  0.205611  1
  Rb  Rb6  1  0.658781  0.193081  0.293548  1
  Rb  Rb7  1  0.648613  0.656317  0.083401  1
  Rb  Rb8  1  0.690657  0.940445  0.210633  1
  Rb  Rb9  1  0.658815  0.306820  0.793566  1
  Rb  Rb10  1  0.648630  0.843553  0.583409  1
  Rb  Rb11  1  0.690624  0.559446  0.710618  1
  Fe  Fe12  1  0.169495  0.548262  0.661806  1
  Fe  Fe13  1  0.169526  0.951649  0.161824  1
  Fe  Fe14  1  0.828121  0.451324  0.337707  1
  Fe  Fe15  1  0.828117  0.048589  0.837701  1
  O  O16  1  0.007178  0.395849  0.553195  1
  O  O17  1  0.090059  0.116133  0.869367  1
  O  O18  1  0.007139  0.104060  0.053171  1
  O  O19  1  0.090072  0.383808  0.369371  1
  O  O20  1  0.314487  0.436577  0.072426  1
  O  O21  1  0.314452  0.063342  0.572399  1
  O  O22  1  0.683281  0.561901  0.928129  1
  O  O23  1  0.683348  0.938002  0.428174  1
  O  O24  1  0.907690  0.884709  0.130604  1
  O  O25  1  0.989919  0.604083  0.446102  1
  O  O26  1  0.907652  0.615178  0.630592  1
  O  O27  1  0.989972  0.895840  0.946137  1
