# generated using pymatgen
data_Ce2S2O
_symmetry_space_group_name_H-M   'P 1'
_cell_length_a   8.49993359
_cell_length_b   7.21498984
_cell_length_c   7.00455271
_cell_angle_alpha   90.00000000
_cell_angle_beta   97.54687233
_cell_angle_gamma   90.00000000
_symmetry_Int_Tables_number   1
_chemical_formula_structural   Ce2S2O
_chemical_formula_sum   'Ce8 S8 O4'
_cell_volume   425.84672132
_cell_formula_units_Z   4
loop_
 _symmetry_equiv_pos_site_id
 _symmetry_equiv_pos_as_xyz
  1  'x, y, z'
loop_
 _atom_site_type_symbol
 _atom_site_label
 _atom_site_symmetry_multiplicity
 _atom_site_fract_x
 _atom_site_fract_y
 _atom_site_fract_z
 _atom_site_occupancy
  Ce  Ce0  1  0.139273  0.556443  0.752522  1
  Ce  Ce1  1  0.139273  0.943557  0.252522  1
  Ce  Ce2  1  0.414836  0.126806  0.694680  1
  Ce  Ce3  1  0.414836  0.373194  0.194680  1
  Ce  Ce4  1  0.585164  0.626806  0.805320  1
  Ce  Ce5  1  0.585164  0.873194  0.305320  1
  Ce  Ce6  1  0.860727  0.056443  0.747478  1
  Ce  Ce7  1  0.860727  0.443557  0.247478  1
  S  S8  1  0.080904  0.230298  0.526385  1
  S  S9  1  0.080904  0.269702  0.026385  1
  S  S10  1  0.331464  0.842337  0.951261  1
  S  S11  1  0.331464  0.657663  0.451261  1
  S  S12  1  0.668536  0.342337  0.548739  1
  S  S13  1  0.668536  0.157663  0.048739  1
  S  S14  1  0.919096  0.730298  0.973615  1
  S  S15  1  0.919096  0.769702  0.473615  1
  O  O16  1  0.384606  0.411107  0.850612  1
  O  O17  1  0.384606  0.088893  0.350612  1
  O  O18  1  0.615394  0.911107  0.649388  1
  O  O19  1  0.615394  0.588893  0.149388  1
