# generated using pymatgen
data_Li8V3P8O29
_symmetry_space_group_name_H-M   'P 1'
_cell_length_a   9.87207545
_cell_length_b   9.90228322
_cell_length_c   13.83114740
_cell_angle_alpha   89.84796721
_cell_angle_beta   90.03193679
_cell_angle_gamma   60.08361680
_symmetry_Int_Tables_number   1
_chemical_formula_structural   Li8V3P8O29
_chemical_formula_sum   'Li16 V6 P16 O58'
_cell_volume   1171.91310336
_cell_formula_units_Z   2
loop_
 _symmetry_equiv_pos_site_id
 _symmetry_equiv_pos_as_xyz
  1  'x, y, z'
loop_
 _atom_site_type_symbol
 _atom_site_label
 _atom_site_symmetry_multiplicity
 _atom_site_fract_x
 _atom_site_fract_y
 _atom_site_fract_z
 _atom_site_occupancy
  Li  Li0  1  0.766732  0.900294  0.564834  1
  Li  Li1  1  0.901163  0.334641  0.566538  1
  Li  Li2  1  0.670153  0.667541  0.382232  1
  Li  Li3  1  0.674737  0.666055  0.881652  1
  Li  Li4  1  0.766915  0.327485  0.062599  1
  Li  Li5  1  0.323717  0.906380  0.061564  1
  Li  Li6  1  0.326975  0.770300  0.565793  1
  Li  Li7  1  0.666726  0.099813  0.935011  1
  Li  Li8  1  0.235527  0.665519  0.933465  1
  Li  Li9  1  0.340970  0.333862  0.618483  1
  Li  Li10  1  0.335831  0.332820  0.117669  1
  Li  Li11  1  0.094662  0.671585  0.437351  1
  Li  Li12  1  0.229475  0.093641  0.438472  1
  Li  Li13  1  0.097050  0.229642  0.934179  1
  Li  Li14  1  0.979564  0.955649  0.004080  1
  Li  Li15  1  0.934887  0.044885  0.495740  1
  V  V16  1  0.563871  0.432940  0.255045  1
  V  V17  1  0.436910  0.564223  0.748850  1
  V  V18  1  0.566166  0.000026  0.749970  1
  V  V19  1  0.437058  0.999778  0.250179  1
  V  V20  1  0.997063  0.567179  0.244799  1
  V  V21  1  0.001037  0.435979  0.751146  1
  P  P22  1  0.912884  0.776509  0.842940  1
  P  P23  1  0.777767  0.908410  0.343667  1
  P  P24  1  0.909443  0.317970  0.343384  1
  P  P25  1  0.664726  0.661530  0.126246  1
  P  P26  1  0.666941  0.668205  0.623563  1
  P  P27  1  0.771757  0.318057  0.846194  1
  P  P28  1  0.689562  0.223437  0.656770  1
  P  P29  1  0.319405  0.908646  0.844255  1
  P  P30  1  0.685590  0.091574  0.156580  1
  P  P31  1  0.318172  0.771443  0.343703  1
  P  P32  1  0.227378  0.682664  0.156564  1
  P  P33  1  0.325934  0.339203  0.373906  1
  P  P34  1  0.334529  0.332944  0.876340  1
  P  P35  1  0.089293  0.682071  0.653785  1
  P  P36  1  0.227690  0.091958  0.656072  1
  P  P37  1  0.089872  0.228438  0.156102  1
  O  O38  1  0.998660  0.765457  0.562393  1
  O  O39  1  0.923501  0.743923  0.337392  1
  O  O40  1  0.773006  0.010313  0.066488  1
  O  O41  1  0.749529  0.921615  0.845688  1
  O  O42  1  0.896798  0.629691  0.837400  1
  O  O43  1  0.814905  0.655599  0.172690  1
  O  O44  1  0.899230  0.478476  0.332602  1
  O  O45  1  0.995625  0.238969  0.068047  1
  O  O46  1  0.921632  0.327813  0.844955  1
  O  O47  1  0.674384  0.812694  0.661189  1
  O  O48  1  0.631525  0.890709  0.332405  1
  O  O49  1  0.812209  0.516306  0.663522  1
  O  O50  1  0.674578  0.647637  0.018801  1
  O  O51  1  0.669975  0.664951  0.513634  1
  O  O52  1  0.663866  0.514468  0.170476  1
  O  O53  1  0.484748  0.886241  0.833487  1
  O  O54  1  0.517272  0.810957  0.161542  1
  O  O55  1  0.744976  0.339882  0.340644  1
  O  O56  1  0.780652  0.210756  0.757159  1
  O  O57  1  0.793913  0.219072  0.575685  1
  O  O58  1  0.765194  0.233998  0.937373  1
  O  O59  1  0.629882  0.483076  0.833488  1
  O  O60  1  0.514722  0.675278  0.661322  1
  O  O61  1  0.667371  0.256249  0.162579  1
  O  O62  1  0.483834  0.627077  0.329361  1
  O  O63  1  0.331302  0.919204  0.343564  1
  O  O64  1  0.788573  0.000049  0.249842  1
  O  O65  1  0.783224  0.990287  0.433328  1
  O  O66  1  0.233933  0.998936  0.566527  1
  O  O67  1  0.672013  0.077955  0.654430  1
  O  O68  1  0.526381  0.370120  0.662815  1
  O  O69  1  0.329335  0.749155  0.844327  1
  O  O70  1  0.471038  0.344093  0.327668  1
  O  O71  1  0.377853  0.521503  0.167432  1
  O  O72  1  0.226321  0.773129  0.068206  1
  O  O73  1  0.235237  0.759477  0.432020  1
  O  O74  1  0.215157  0.785416  0.250105  1
  O  O75  1  0.249863  0.671296  0.654920  1
  O  O76  1  0.485845  0.187737  0.838521  1
  O  O77  1  0.521939  0.109260  0.167991  1
  O  O78  1  0.327668  0.484039  0.836867  1
  O  O79  1  0.334044  0.333411  0.986284  1
  O  O80  1  0.323153  0.352402  0.481312  1
  O  O81  1  0.178932  0.485255  0.329202  1
  O  O82  1  0.371117  0.113802  0.666318  1
  O  O83  1  0.329447  0.189018  0.338925  1
  O  O84  1  0.085357  0.659944  0.159266  1
  O  O85  1  0.991279  0.790001  0.742902  1
  O  O86  1  0.012960  0.780933  0.924594  1
  O  O87  1  0.112729  0.517131  0.666459  1
  O  O88  1  0.189021  0.324788  0.838460  1
  O  O89  1  0.110875  0.372527  0.170125  1
  O  O90  1  0.250763  0.079932  0.156844  1
  O  O91  1  0.233388  0.001491  0.933486  1
  O  O92  1  0.217078  0.000271  0.749936  1
  O  O93  1  0.078295  0.251018  0.655755  1
  O  O94  1  0.998474  0.226521  0.431632  1
  O  O95  1  0.999939  0.215392  0.249892  1
