# generated using pymatgen
data_Li3V3P8O29
_symmetry_space_group_name_H-M   'P 1'
_cell_length_a   9.73176664
_cell_length_b   9.74869220
_cell_length_c   14.34718045
_cell_angle_alpha   90.58127603
_cell_angle_beta   90.45783083
_cell_angle_gamma   60.11632965
_symmetry_Int_Tables_number   1
_chemical_formula_structural   Li3V3P8O29
_chemical_formula_sum   'Li6 V6 P16 O58'
_cell_volume   1180.09858854
_cell_formula_units_Z   2
loop_
 _symmetry_equiv_pos_site_id
 _symmetry_equiv_pos_as_xyz
  1  'x, y, z'
loop_
 _atom_site_type_symbol
 _atom_site_label
 _atom_site_symmetry_multiplicity
 _atom_site_fract_x
 _atom_site_fract_y
 _atom_site_fract_z
 _atom_site_occupancy
  Li  Li0  1  0.770799  0.908625  0.546805  1
  Li  Li1  1  0.768170  0.330372  0.060480  1
  Li  Li2  1  0.322769  0.769935  0.555317  1
  Li  Li3  1  0.683356  0.085577  0.947240  1
  Li  Li4  1  0.071155  0.946701  0.002417  1
  Li  Li5  1  0.970998  0.055741  0.493140  1
  V  V6  1  0.561181  0.437626  0.254928  1
  V  V7  1  0.434477  0.561521  0.749059  1
  V  V8  1  0.560825  0.997829  0.751474  1
  V  V9  1  0.432127  0.000229  0.245494  1
  V  V10  1  0.999457  0.562407  0.249586  1
  V  V11  1  0.998808  0.438534  0.750332  1
  P  P12  1  0.917138  0.779842  0.845058  1
  P  P13  1  0.777178  0.911985  0.337195  1
  P  P14  1  0.916994  0.306049  0.342024  1
  P  P15  1  0.667376  0.662919  0.132187  1
  P  P16  1  0.665560  0.667447  0.633261  1
  P  P17  1  0.773964  0.314582  0.839596  1
  P  P18  1  0.692879  0.217461  0.659005  1
  P  P19  1  0.305118  0.913570  0.842486  1
  P  P20  1  0.687080  0.090728  0.158973  1
  P  P21  1  0.309897  0.780549  0.342641  1
  P  P22  1  0.220667  0.690316  0.163685  1
  P  P23  1  0.332359  0.331071  0.365766  1
  P  P24  1  0.335485  0.331873  0.865716  1
  P  P25  1  0.080615  0.695741  0.660453  1
  P  P26  1  0.217520  0.087307  0.662065  1
  P  P27  1  0.082113  0.219201  0.159194  1
  O  O28  1  0.990175  0.791809  0.578963  1
  O  O29  1  0.915982  0.739130  0.328989  1
  O  O30  1  0.769653  0.018089  0.069485  1
  O  O31  1  0.739779  0.917104  0.835986  1
  O  O32  1  0.921778  0.618532  0.829953  1
  O  O33  1  0.813703  0.661118  0.181361  1
  O  O34  1  0.924533  0.459557  0.331031  1
  O  O35  1  0.994922  0.202535  0.077704  1
  O  O36  1  0.915003  0.344107  0.832509  1
  O  O37  1  0.667355  0.814858  0.681331  1
  O  O38  1  0.618023  0.915420  0.323698  1
  O  O39  1  0.810535  0.522251  0.680366  1
  O  O40  1  0.674627  0.659270  0.028779  1
  O  O41  1  0.670063  0.681734  0.530546  1
  O  O42  1  0.667989  0.513035  0.171541  1
  O  O43  1  0.461667  0.919033  0.829197  1
  O  O44  1  0.520828  0.813639  0.175361  1
  O  O45  1  0.739675  0.350393  0.329084  1
  O  O46  1  0.791389  0.198946  0.754792  1
  O  O47  1  0.792733  0.195369  0.577064  1
  O  O48  1  0.766518  0.240141  0.928923  1
  O  O49  1  0.618127  0.474327  0.821202  1
  O  O50  1  0.511900  0.670347  0.667798  1
  O  O51  1  0.656168  0.263451  0.165095  1
  O  O52  1  0.469029  0.622007  0.327827  1
  O  O53  1  0.343183  0.918431  0.328477  1
  O  O54  1  0.796715  0.002523  0.248513  1
  O  O55  1  0.791160  0.984824  0.426454  1
  O  O56  1  0.209080  0.998749  0.579443  1
  O  O57  1  0.652888  0.080874  0.665075  1
  O  O58  1  0.538017  0.380099  0.670473  1
  O  O59  1  0.346767  0.738663  0.825043  1
  O  O60  1  0.479838  0.335859  0.320908  1
  O  O61  1  0.382614  0.536597  0.175766  1
  O  O62  1  0.208780  0.785292  0.081583  1
  O  O63  1  0.233168  0.790751  0.433779  1
  O  O64  1  0.195964  0.792905  0.258485  1
  O  O65  1  0.256157  0.658547  0.660440  1
  O  O66  1  0.488066  0.183743  0.823592  1
  O  O67  1  0.530745  0.088267  0.172316  1
  O  O68  1  0.336850  0.478050  0.817901  1
  O  O69  1  0.346482  0.330575  0.968609  1
  O  O70  1  0.339037  0.329056  0.468787  1
  O  O71  1  0.186813  0.476225  0.320576  1
  O  O72  1  0.379611  0.082584  0.675607  1
  O  O73  1  0.336421  0.183037  0.319145  1
  O  O74  1  0.087719  0.646991  0.169107  1
  O  O75  1  0.004270  0.797062  0.754058  1
  O  O76  1  0.990653  0.803170  0.929593  1
  O  O77  1  0.079705  0.537595  0.674172  1
  O  O78  1  0.188339  0.332936  0.821068  1
  O  O79  1  0.076728  0.379771  0.169981  1
  O  O80  1  0.258165  0.084724  0.163374  1
  O  O81  1  0.216567  0.980991  0.929312  1
  O  O82  1  0.196440  0.007158  0.754521  1
  O  O83  1  0.083496  0.262029  0.667833  1
  O  O84  1  0.987297  0.212365  0.427090  1
  O  O85  1  0.004480  0.196761  0.252555  1
