# generated using pymatgen
data_MnP(HO)7
_symmetry_space_group_name_H-M   'P 1'
_cell_length_a   13.52462691
_cell_length_b   10.87815156
_cell_length_c   10.00700614
_cell_angle_alpha   90.00000000
_cell_angle_beta   90.00000000
_cell_angle_gamma   90.00000000
_symmetry_Int_Tables_number   1
_chemical_formula_structural   MnP(HO)7
_chemical_formula_sum   'Mn8 P8 H56 O56'
_cell_volume   1472.26017712
_cell_formula_units_Z   8
loop_
 _symmetry_equiv_pos_site_id
 _symmetry_equiv_pos_as_xyz
  1  'x, y, z'
loop_
 _atom_site_type_symbol
 _atom_site_label
 _atom_site_symmetry_multiplicity
 _atom_site_fract_x
 _atom_site_fract_y
 _atom_site_fract_z
 _atom_site_occupancy
  Mn  Mn0  1  0.808934  0.224042  0.374007  1
  Mn  Mn1  1  0.308934  0.275958  0.625993  1
  Mn  Mn2  1  0.191066  0.724042  0.125993  1
  Mn  Mn3  1  0.691066  0.775958  0.874007  1
  Mn  Mn4  1  0.191066  0.775958  0.625993  1
  Mn  Mn5  1  0.691066  0.724042  0.374007  1
  Mn  Mn6  1  0.808934  0.275958  0.874007  1
  Mn  Mn7  1  0.308934  0.224042  0.125993  1
  P  P8  1  0.418160  0.104920  0.365350  1
  P  P9  1  0.918160  0.395080  0.634650  1
  P  P10  1  0.581840  0.604920  0.134650  1
  P  P11  1  0.081840  0.895080  0.865350  1
  P  P12  1  0.581840  0.895080  0.634650  1
  P  P13  1  0.081840  0.604920  0.365350  1
  P  P14  1  0.418160  0.395080  0.865350  1
  P  P15  1  0.918160  0.104920  0.134650  1
  H  H16  1  0.731389  0.372683  0.693931  1
  H  H17  1  0.231389  0.127317  0.306069  1
  H  H18  1  0.268611  0.872683  0.806069  1
  H  H19  1  0.768611  0.627317  0.193931  1
  H  H20  1  0.268611  0.627317  0.306069  1
  H  H21  1  0.768611  0.872683  0.693931  1
  H  H22  1  0.731389  0.127317  0.193931  1
  H  H23  1  0.231389  0.372683  0.806069  1
  H  H24  1  0.125746  0.195870  0.532775  1
  H  H25  1  0.625746  0.304130  0.467225  1
  H  H26  1  0.874254  0.695870  0.967225  1
  H  H27  1  0.374254  0.804130  0.032775  1
  H  H28  1  0.874254  0.804130  0.467225  1
  H  H29  1  0.374254  0.695870  0.532775  1
  H  H30  1  0.125746  0.304130  0.032775  1
  H  H31  1  0.625746  0.195870  0.967225  1
  H  H32  1  0.805117  0.478475  0.327553  1
  H  H33  1  0.305117  0.021525  0.672447  1
  H  H34  1  0.194883  0.978475  0.172447  1
  H  H35  1  0.694883  0.521525  0.827553  1
  H  H36  1  0.194883  0.521525  0.672447  1
  H  H37  1  0.694883  0.978475  0.327553  1
  H  H38  1  0.805117  0.021525  0.827553  1
  H  H39  1  0.305117  0.478475  0.172447  1
  H  H40  1  0.570612  0.430386  0.252664  1
  H  H41  1  0.070612  0.069614  0.747336  1
  H  H42  1  0.429388  0.930386  0.247336  1
  H  H43  1  0.929388  0.569614  0.752664  1
  H  H44  1  0.429388  0.569614  0.747336  1
  H  H45  1  0.929388  0.930386  0.252664  1
  H  H46  1  0.570612  0.069614  0.752664  1
  H  H47  1  0.070612  0.430386  0.247336  1
  H  H48  1  0.824279  0.099156  0.694278  1
  H  H49  1  0.324279  0.400844  0.305722  1
  H  H50  1  0.175721  0.599156  0.805722  1
  H  H51  1  0.675721  0.900844  0.194278  1
  H  H52  1  0.175721  0.900844  0.305722  1
  H  H53  1  0.675721  0.599156  0.694278  1
  H  H54  1  0.824279  0.400844  0.194278  1
  H  H55  1  0.324279  0.099156  0.805722  1
  H  H56  1  0.839948  0.857263  0.481183  1
  H  H57  1  0.339948  0.642737  0.518817  1
  H  H58  1  0.160052  0.357264  0.018817  1
  H  H59  1  0.660052  0.142736  0.981183  1
  H  H60  1  0.160052  0.142736  0.518817  1
  H  H61  1  0.660052  0.357264  0.481183  1
  H  H62  1  0.839948  0.642737  0.981183  1
  H  H63  1  0.339948  0.857263  0.018817  1
  H  H64  1  0.494828  0.892230  0.447581  1
  H  H65  1  0.994828  0.607770  0.552419  1
  H  H66  1  0.505172  0.392230  0.052419  1
  H  H67  1  0.005172  0.107770  0.947581  1
  H  H68  1  0.505172  0.107770  0.552419  1
  H  H69  1  0.005172  0.392230  0.447581  1
  H  H70  1  0.494828  0.607770  0.947581  1
  H  H71  1  0.994828  0.892230  0.052419  1
  O  O72  1  0.418789  0.197003  0.250207  1
  O  O73  1  0.918789  0.302997  0.749793  1
  O  O74  1  0.581211  0.697003  0.249793  1
  O  O75  1  0.081211  0.802997  0.750207  1
  O  O76  1  0.581211  0.802997  0.749793  1
  O  O77  1  0.081211  0.697003  0.250207  1
  O  O78  1  0.418789  0.302997  0.750207  1
  O  O79  1  0.918789  0.197003  0.249793  1
  O  O80  1  0.500597  0.151235  0.464971  1
  O  O81  1  0.000597  0.348765  0.535029  1
  O  O82  1  0.499403  0.651235  0.035029  1
  O  O83  1  0.999403  0.848765  0.964971  1
  O  O84  1  0.499403  0.848765  0.535029  1
  O  O85  1  0.999403  0.651235  0.464971  1
  O  O86  1  0.500597  0.348765  0.964971  1
  O  O87  1  0.000597  0.151235  0.035029  1
  O  O88  1  0.705693  0.154407  0.282550  1
  O  O89  1  0.205693  0.345593  0.717450  1
  O  O90  1  0.294307  0.654407  0.217450  1
  O  O91  1  0.794307  0.845593  0.782550  1
  O  O92  1  0.294307  0.845593  0.717450  1
  O  O93  1  0.794307  0.654407  0.282550  1
  O  O94  1  0.705693  0.345593  0.782550  1
  O  O95  1  0.205693  0.154407  0.217450  1
  O  O96  1  0.469009  0.976818  0.311996  1
  O  O97  1  0.969009  0.523182  0.688004  1
  O  O98  1  0.530991  0.476818  0.188004  1
  O  O99  1  0.030991  0.023182  0.811996  1
  O  O100  1  0.530991  0.023182  0.688004  1
  O  O101  1  0.030991  0.476818  0.311996  1
  O  O102  1  0.469009  0.523182  0.811996  1
  O  O103  1  0.969009  0.976818  0.188004  1
  O  O104  1  0.820204  0.420201  0.567996  1
  O  O105  1  0.320204  0.079799  0.432004  1
  O  O106  1  0.179796  0.920201  0.932004  1
  O  O107  1  0.679796  0.579799  0.067996  1
  O  O108  1  0.179796  0.579799  0.432004  1
  O  O109  1  0.679796  0.920201  0.567996  1
  O  O110  1  0.820204  0.079799  0.067996  1
  O  O111  1  0.320204  0.420201  0.932004  1
  O  O112  1  0.797152  0.396654  0.284932  1
  O  O113  1  0.297152  0.103346  0.715067  1
  O  O114  1  0.202848  0.896654  0.215067  1
  O  O115  1  0.702848  0.603346  0.784933  1
  O  O116  1  0.202848  0.603346  0.715067  1
  O  O117  1  0.702848  0.896654  0.284932  1
  O  O118  1  0.797152  0.103346  0.784933  1
  O  O119  1  0.297152  0.396654  0.215067  1
  O  O120  1  0.844542  0.137454  0.501106  1
  O  O121  1  0.344542  0.362546  0.498894  1
  O  O122  1  0.155458  0.637454  0.998894  1
  O  O123  1  0.655458  0.862546  0.001106  1
  O  O124  1  0.155458  0.862546  0.498894  1
  O  O125  1  0.655458  0.637454  0.501106  1
  O  O126  1  0.844542  0.362546  0.001106  1
  O  O127  1  0.344542  0.137454  0.998894  1
