# generated using pymatgen
data_Li2Cr2SiO6
_symmetry_space_group_name_H-M   'P 1'
_cell_length_a   9.42848117
_cell_length_b   5.11418593
_cell_length_c   8.36941799
_cell_angle_alpha   35.08427833
_cell_angle_beta   63.65970089
_cell_angle_gamma   68.71822826
_symmetry_Int_Tables_number   1
_chemical_formula_structural   Li2Cr2SiO6
_chemical_formula_sum   'Li4 Cr4 Si2 O12'
_cell_volume   207.87789760
_cell_formula_units_Z   2
loop_
 _symmetry_equiv_pos_site_id
 _symmetry_equiv_pos_as_xyz
  1  'x, y, z'
loop_
 _atom_site_type_symbol
 _atom_site_label
 _atom_site_symmetry_multiplicity
 _atom_site_fract_x
 _atom_site_fract_y
 _atom_site_fract_z
 _atom_site_occupancy
  Li  Li0  1  0.626473  0.999766  0.687070  1
  Li  Li1  1  0.987885  0.000525  0.006022  1
  Li  Li2  1  0.484597  0.495595  0.261378  1
  Li  Li3  1  0.127394  0.506258  0.935912  1
  Cr  Cr4  1  0.964931  0.999722  0.517667  1
  Cr  Cr5  1  0.647729  0.000112  0.176008  1
  Cr  Cr6  1  0.465221  0.499648  0.767586  1
  Cr  Cr7  1  0.147433  0.500860  0.425728  1
  Si  Si8  1  0.306404  0.999670  0.346887  1
  Si  Si9  1  0.806309  0.500148  0.596729  1
  O  O10  1  0.647977  0.931406  0.451851  1
  O  O11  1  0.964703  0.068862  0.724833  1
  O  O12  1  0.306367  0.000342  0.558840  1
  O  O13  1  0.147969  0.431476  0.218472  1
  O  O14  1  0.147987  0.568681  0.633206  1
  O  O15  1  0.806433  0.500273  0.384385  1
  O  O16  1  0.464721  0.431231  0.043662  1
  O  O17  1  0.806352  0.499948  0.809022  1
  O  O18  1  0.464667  0.568492  0.491813  1
  O  O19  1  0.964707  0.931495  0.310352  1
  O  O20  1  0.306369  -0.000067  0.134627  1
  O  O21  1  0.647958  0.068925  0.899861  1
