# generated using pymatgen
data_Li2VCoO4
_symmetry_space_group_name_H-M   'P 1'
_cell_length_a   5.18371469
_cell_length_b   5.90049076
_cell_length_c   7.87015541
_cell_angle_alpha   78.40266639
_cell_angle_beta   70.48689329
_cell_angle_gamma   90.36106674
_symmetry_Int_Tables_number   1
_chemical_formula_structural   Li2VCoO4
_chemical_formula_sum   'Li6 V3 Co3 O12'
_cell_volume   221.55792796
_cell_formula_units_Z   3
loop_
 _symmetry_equiv_pos_site_id
 _symmetry_equiv_pos_as_xyz
  1  'x, y, z'
loop_
 _atom_site_type_symbol
 _atom_site_label
 _atom_site_symmetry_multiplicity
 _atom_site_fract_x
 _atom_site_fract_y
 _atom_site_fract_z
 _atom_site_occupancy
  Li  Li0  1  0.004243  0.503738  0.002708  1
  Li  Li1  1  0.004043  0.331629  0.663510  1
  Li  Li2  1  0.998273  0.000596  0.001048  1
  Li  Li3  1  0.998314  0.657851  0.331593  1
  Li  Li4  1  0.001595  0.169080  0.331860  1
  Li  Li5  1  0.994427  0.834898  0.669804  1
  V  V6  1  0.502222  0.259663  0.995836  1
  V  V7  1  0.499067  0.908107  0.335261  1
  V  V8  1  0.500899  0.082792  0.666501  1
  Co  Co9  1  0.501241  0.748977  0.002313  1
  Co  Co10  1  0.496592  0.419710  0.330580  1
  Co  Co11  1  0.498487  0.582815  0.666966  1
  O  O12  1  0.281469  0.974983  0.162340  1
  O  O13  1  0.261739  0.446126  0.158826  1
  O  O14  1  0.273087  0.112417  0.501208  1
  O  O15  1  0.260112  0.648266  0.489461  1
  O  O16  1  0.269549  0.279447  0.836526  1
  O  O17  1  0.274838  0.812515  0.820083  1
  O  O18  1  0.740017  0.722711  0.176456  1
  O  O19  1  0.719613  0.192947  0.169110  1
  O  O20  1  0.725279  0.352081  0.513473  1
  O  O21  1  0.729357  0.884815  0.497197  1
  O  O22  1  0.737678  0.520179  0.846008  1
  O  O23  1  0.727861  0.053655  0.831331  1
