# generated using pymatgen
data_Cr2AsC10ClO10
_symmetry_space_group_name_H-M   'P 1'
_cell_length_a   7.10197085
_cell_length_b   11.61107985
_cell_length_c   20.62727568
_cell_angle_alpha   89.99886756
_cell_angle_beta   91.22418876
_cell_angle_gamma   89.99992923
_symmetry_Int_Tables_number   1
_chemical_formula_structural   Cr2AsC10ClO10
_chemical_formula_sum   'Cr8 As4 C40 Cl4 O40'
_cell_volume   1700.56889862
_cell_formula_units_Z   4
loop_
 _symmetry_equiv_pos_site_id
 _symmetry_equiv_pos_as_xyz
  1  'x, y, z'
loop_
 _atom_site_type_symbol
 _atom_site_label
 _atom_site_symmetry_multiplicity
 _atom_site_fract_x
 _atom_site_fract_y
 _atom_site_fract_z
 _atom_site_occupancy
  Cr  Cr0  1  0.579944  0.644558  0.214313  1
  Cr  Cr1  1  0.262548  0.744475  0.519917  1
  Cr  Cr2  1  0.237439  0.244460  0.980108  1
  Cr  Cr3  1  0.737452  0.255525  0.480083  1
  Cr  Cr4  1  0.762561  0.755540  0.019892  1
  Cr  Cr5  1  0.079897  0.855415  0.714310  1
  Cr  Cr6  1  0.920103  0.144585  0.285690  1
  Cr  Cr7  1  0.420056  0.355442  0.785687  1
  As  As8  1  0.877712  0.265630  0.376740  1
  As  As9  1  0.622280  0.765621  0.123272  1
  As  As10  1  0.122288  0.734370  0.623260  1
  As  As11  1  0.377720  0.234379  0.876728  1
  C  C12  1  0.552386  0.462673  0.841618  1
  C  C13  1  0.507092  0.751227  0.561563  1
  C  C14  1  0.520699  0.757818  0.974628  1
  C  C15  1  0.814220  0.572000  0.193784  1
  C  C16  1  0.280205  0.250476  0.730498  1
  C  C17  1  0.020715  0.742186  0.474638  1
  C  C18  1  0.447614  0.537327  0.158382  1
  C  C19  1  0.043548  0.958494  0.785459  1
  C  C20  1  0.650624  0.277035  0.765717  1
  C  C21  1  0.254026  0.909034  0.525608  1
  C  C22  1  0.314220  0.927993  0.693784  1
  C  C23  1  0.780203  0.249533  0.230495  1
  C  C24  1  0.881704  0.742417  0.937874  1
  C  C25  1  0.979285  0.257814  0.525362  1
  C  C26  1  0.381691  0.757589  0.437884  1
  C  C27  1  0.618309  0.242411  0.562116  1
  C  C28  1  0.775017  0.920489  0.014966  1
  C  C29  1  0.007122  0.748777  0.061559  1
  C  C30  1  0.219797  0.750467  0.769505  1
  C  C31  1  0.052403  0.037332  0.341620  1
  C  C32  1  0.349376  0.722965  0.234283  1
  C  C33  1  0.150645  0.222976  0.265716  1
  C  C34  1  0.956452  0.041506  0.214541  1
  C  C35  1  0.185780  0.428000  0.806216  1
  C  C36  1  0.849355  0.777024  0.734284  1
  C  C37  1  0.992878  0.251223  0.938441  1
  C  C38  1  0.275010  0.579530  0.514974  1
  C  C39  1  0.224983  0.079511  0.985034  1
  C  C40  1  0.456435  0.458495  0.714548  1
  C  C41  1  0.543565  0.541505  0.285452  1
  C  C42  1  0.685780  0.072007  0.306216  1
  C  C43  1  0.719795  0.749524  0.269502  1
  C  C44  1  0.724990  0.420470  0.485026  1
  C  C45  1  0.118296  0.257583  0.062126  1
  C  C46  1  0.947597  0.962668  0.658380  1
  C  C47  1  0.745974  0.090966  0.474392  1
  C  C48  1  0.754032  0.590956  0.025601  1
  C  C49  1  0.479301  0.242182  0.025372  1
  C  C50  1  0.492908  0.248773  0.438437  1
  C  C51  1  0.245968  0.409044  0.974399  1
  Cl  Cl52  1  0.498486  0.059772  0.857853  1
  Cl  Cl53  1  0.998494  0.440235  0.357850  1
  Cl  Cl54  1  0.501514  0.940228  0.142147  1
  Cl  Cl55  1  0.001506  0.559765  0.642150  1
  O  O56  1  0.655167  0.759043  0.586132  1
  O  O57  1  0.878990  0.741457  0.445982  1
  O  O58  1  0.807546  0.811850  0.301943  1
  O  O59  1  0.046828  0.265270  0.111980  1
  O  O60  1  0.457755  0.969941  0.681491  1
  O  O61  1  0.621013  0.241458  0.054017  1
  O  O62  1  0.042241  0.469941  0.818511  1
  O  O63  1  0.370761  0.471572  0.124769  1
  O  O64  1  0.344833  0.240957  0.413868  1
  O  O65  1  0.129241  0.971563  0.375234  1
  O  O66  1  0.378987  0.758542  0.945983  1
  O  O67  1  0.284463  0.480045  0.511328  1
  O  O68  1  0.957759  0.530059  0.181489  1
  O  O69  1  0.307563  0.688143  0.801946  1
  O  O70  1  0.789819  0.230422  0.753322  1
  O  O71  1  0.518624  0.479543  0.328621  1
  O  O72  1  0.155154  0.740953  0.086134  1
  O  O73  1  0.289843  0.269586  0.253319  1
  O  O74  1  0.542245  0.030059  0.318509  1
  O  O75  1  0.121010  0.258543  0.554018  1
  O  O76  1  0.981374  0.979537  0.171375  1
  O  O77  1  0.755154  0.490904  0.028009  1
  O  O78  1  0.546838  0.234731  0.611976  1
  O  O79  1  0.953172  0.734730  0.888020  1
  O  O80  1  0.715537  0.519955  0.488672  1
  O  O81  1  0.844846  0.259047  0.913866  1
  O  O82  1  0.870759  0.028437  0.624766  1
  O  O83  1  0.453162  0.765269  0.388024  1
  O  O84  1  0.710157  0.730414  0.746681  1
  O  O85  1  0.481376  0.520457  0.671379  1
  O  O86  1  0.192454  0.188150  0.698057  1
  O  O87  1  0.744844  0.990897  0.471992  1
  O  O88  1  0.784459  0.019962  0.011330  1
  O  O89  1  0.629239  0.528428  0.875231  1
  O  O90  1  0.692437  0.311857  0.198054  1
  O  O91  1  0.210181  0.769578  0.246678  1
  O  O92  1  0.215541  0.980038  0.988670  1
  O  O93  1  0.255156  0.009103  0.528008  1
  O  O94  1  0.018626  0.020463  0.828625  1
  O  O95  1  0.244846  0.509096  0.971991  1
