# generated using pymatgen
data_Li2Ni3O3F2
_symmetry_space_group_name_H-M   'P 1'
_cell_length_a   2.95361470
_cell_length_b   2.95361470
_cell_length_c   10.70394116
_cell_angle_alpha   97.93031257
_cell_angle_beta   82.06968743
_cell_angle_gamma   90.00000000
_symmetry_Int_Tables_number   1
_chemical_formula_structural   Li2Ni3O3F2
_chemical_formula_sum   'Li2 Ni3 O3 F2'
_cell_volume   91.58471157
_cell_formula_units_Z   1
loop_
 _symmetry_equiv_pos_site_id
 _symmetry_equiv_pos_as_xyz
  1  'x, y, z'
loop_
 _atom_site_type_symbol
 _atom_site_label
 _atom_site_symmetry_multiplicity
 _atom_site_fract_x
 _atom_site_fract_y
 _atom_site_fract_z
 _atom_site_occupancy
  Li  Li0  1  0.200506  0.799494  0.598986  1
  Li  Li1  1  0.599494  0.400506  0.801014  1
  Ni  Ni2  1  0.000151  0.999849  0.999698  1
  Ni  Ni3  1  0.400000  0.600000  0.200000  1
  Ni  Ni4  1  0.799849  0.200151  0.400302  1
  O  O5  1  0.501526  0.498474  0.996946  1
  O  O6  1  0.900000  0.100000  0.200000  1
  O  O7  1  0.298474  0.701527  0.403054  1
  F  F8  1  0.696808  0.303192  0.606383  1
  F  F9  1  0.103192  0.896808  0.793617  1
