# generated using pymatgen
data_Li4Mn3Fe3(CuO8)2
_symmetry_space_group_name_H-M   'P 1'
_cell_length_a   5.87602424
_cell_length_b   5.83580554
_cell_length_c   9.57540324
_cell_angle_alpha   90.00443424
_cell_angle_beta   89.31212789
_cell_angle_gamma   119.77195413
_symmetry_Int_Tables_number   1
_chemical_formula_structural   Li4Mn3Fe3(CuO8)2
_chemical_formula_sum   'Li4 Mn3 Fe3 Cu2 O16'
_cell_volume   284.98645502
_cell_formula_units_Z   1
loop_
 _symmetry_equiv_pos_site_id
 _symmetry_equiv_pos_as_xyz
  1  'x, y, z'
loop_
 _atom_site_type_symbol
 _atom_site_label
 _atom_site_symmetry_multiplicity
 _atom_site_fract_x
 _atom_site_fract_y
 _atom_site_fract_z
 _atom_site_occupancy
  Li  Li0  1  0.338823  0.669463  0.895697  1
  Li  Li1  1  0.995987  0.997933  0.996609  1
  Li  Li2  1  0.000446  0.000156  0.495397  1
  Li  Li3  1  0.670098  0.335052  0.396179  1
  Mn  Mn4  1  0.657677  0.828871  0.213915  1
  Mn  Mn5  1  0.829312  0.660365  0.713963  1
  Mn  Mn6  1  0.829326  0.168960  0.713955  1
  Fe  Fe7  1  0.166792  0.830200  0.212553  1
  Fe  Fe8  1  0.166783  0.336676  0.212528  1
  Fe  Fe9  1  0.335841  0.167926  0.712849  1
  Cu  Cu10  1  0.326413  0.663195  0.487935  1
  Cu  Cu11  1  0.661011  0.330532  0.988119  1
  O  O12  1  0.157654  0.833672  0.603379  1
  O  O13  1  0.041342  0.520714  0.340086  1
  O  O14  1  0.344651  0.672350  0.103476  1
  O  O15  1  0.986059  0.993101  0.309586  1
  O  O16  1  0.986719  0.993378  0.810509  1
  O  O17  1  0.157647  0.323915  0.603357  1
  O  O18  1  0.487639  0.961750  0.337516  1
  O  O19  1  0.487676  0.525959  0.337503  1
  O  O20  1  0.326872  0.163462  0.101422  1
  O  O21  1  0.683709  0.841838  0.605343  1
  O  O22  1  0.527413  0.488320  0.835880  1
  O  O23  1  0.527426  0.039160  0.835881  1
  O  O24  1  0.680906  0.340451  0.606499  1
  O  O25  1  0.831332  0.673150  0.103103  1
  O  O26  1  0.963112  0.481566  0.831516  1
  O  O27  1  0.831331  0.158187  0.103080  1
