# generated using pymatgen
data_V3Fe(PO4)6
_symmetry_space_group_name_H-M   'P 1'
_cell_length_a   8.75347525
_cell_length_b   8.75347582
_cell_length_c   8.75347591
_cell_angle_alpha   58.40213569
_cell_angle_beta   58.40212612
_cell_angle_gamma   58.40212678
_symmetry_Int_Tables_number   1
_chemical_formula_structural   V3Fe(PO4)6
_chemical_formula_sum   'V3 Fe1 P6 O24'
_cell_volume   456.92566466
_cell_formula_units_Z   1
loop_
 _symmetry_equiv_pos_site_id
 _symmetry_equiv_pos_as_xyz
  1  'x, y, z'
loop_
 _atom_site_type_symbol
 _atom_site_label
 _atom_site_symmetry_multiplicity
 _atom_site_fract_x
 _atom_site_fract_y
 _atom_site_fract_z
 _atom_site_occupancy
  V  V0  1  0.139886  0.139886  0.139886  1
  V  V1  1  0.359190  0.359190  0.359190  1
  V  V2  1  0.638964  0.638964  0.638964  1
  Fe  Fe3  1  0.859331  0.859331  0.859331  1
  P  P4  1  0.032388  0.749933  0.467064  1
  P  P5  1  0.467064  0.032388  0.749933  1
  P  P6  1  0.749933  0.467064  0.032388  1
  P  P7  1  0.250358  0.531380  0.968789  1
  P  P8  1  0.531380  0.968789  0.250358  1
  P  P9  1  0.968789  0.250358  0.531380  1
  O  O10  1  0.138996  0.290146  0.494697  1
  O  O11  1  0.290146  0.494697  0.138996  1
  O  O12  1  0.063497  0.926654  0.281779  1
  O  O13  1  0.494697  0.138996  0.290146  1
  O  O14  1  0.216253  0.576286  0.426758  1
  O  O15  1  0.015901  0.772653  0.634454  1
  O  O16  1  0.281779  0.063497  0.926654  1
  O  O17  1  0.426758  0.216253  0.576286  1
  O  O18  1  0.576286  0.426758  0.216253  1
  O  O19  1  0.225082  0.355270  0.995896  1
  O  O20  1  0.082978  0.712855  0.942444  1
  O  O21  1  0.355270  0.995896  0.225082  1
  O  O22  1  0.634454  0.015901  0.772653  1
  O  O23  1  0.926654  0.281779  0.063497  1
  O  O24  1  0.772653  0.634454  0.015901  1
  O  O25  1  0.432648  0.555593  0.786566  1
  O  O26  1  0.555593  0.786566  0.432648  1
  O  O27  1  0.712855  0.942444  0.082978  1
  O  O28  1  0.995896  0.225082  0.355270  1
  O  O29  1  0.786566  0.432648  0.555593  1
  O  O30  1  0.494447  0.858387  0.722475  1
  O  O31  1  0.942444  0.082978  0.712855  1
  O  O32  1  0.722475  0.494447  0.858387  1
  O  O33  1  0.858387  0.722475  0.494447  1
