# generated using pymatgen
data_Mn2AsHO5
_symmetry_space_group_name_H-M   'P 1'
_cell_length_a   10.38718486
_cell_length_b   13.83098979
_cell_length_c   12.98167248
_cell_angle_alpha   90.00000000
_cell_angle_beta   108.91568624
_cell_angle_gamma   90.00000000
_symmetry_Int_Tables_number   1
_chemical_formula_structural   Mn2AsHO5
_chemical_formula_sum   'Mn32 As16 H16 O80'
_cell_volume   1764.29565357
_cell_formula_units_Z   16
loop_
 _symmetry_equiv_pos_site_id
 _symmetry_equiv_pos_as_xyz
  1  'x, y, z'
loop_
 _atom_site_type_symbol
 _atom_site_label
 _atom_site_symmetry_multiplicity
 _atom_site_fract_x
 _atom_site_fract_y
 _atom_site_fract_z
 _atom_site_occupancy
  Mn  Mn0  1  0.027816  0.324580  0.889956  1
  Mn  Mn1  1  0.041748  0.820241  0.921505  1
  Mn  Mn2  1  0.027816  0.175420  0.389956  1
  Mn  Mn3  1  0.041748  0.679759  0.421505  1
  Mn  Mn4  1  0.193437  0.520516  0.688395  1
  Mn  Mn5  1  0.216789  0.006382  0.699044  1
  Mn  Mn6  1  0.287318  0.249474  0.802529  1
  Mn  Mn7  1  0.299969  0.733470  0.813445  1
  Mn  Mn8  1  0.193437  0.979484  0.188395  1
  Mn  Mn9  1  0.216789  0.493618  0.199044  1
  Mn  Mn10  1  0.526697  0.430369  0.899360  1
  Mn  Mn11  1  0.287318  0.250526  0.302529  1
  Mn  Mn12  1  0.299969  0.766530  0.313445  1
  Mn  Mn13  1  0.548093  0.926502  0.913463  1
  Mn  Mn14  1  0.451907  0.426502  0.586537  1
  Mn  Mn15  1  0.473303  0.930369  0.600640  1
  Mn  Mn16  1  0.526697  0.069631  0.399360  1
  Mn  Mn17  1  0.548093  0.573498  0.413463  1
  Mn  Mn18  1  0.451907  0.073498  0.086537  1
  Mn  Mn19  1  0.700031  0.233470  0.686555  1
  Mn  Mn20  1  0.712682  0.749474  0.697471  1
  Mn  Mn21  1  0.473303  0.569631  0.100640  1
  Mn  Mn22  1  0.783211  0.506382  0.800956  1
  Mn  Mn23  1  0.806563  0.020516  0.811605  1
  Mn  Mn24  1  0.700031  0.266530  0.186555  1
  Mn  Mn25  1  0.712682  0.750526  0.197471  1
  Mn  Mn26  1  0.783211  0.993618  0.300956  1
  Mn  Mn27  1  0.806563  0.479484  0.311605  1
  Mn  Mn28  1  0.958252  0.320241  0.578495  1
  Mn  Mn29  1  0.972184  0.824580  0.610044  1
  Mn  Mn30  1  0.958252  0.179759  0.078495  1
  Mn  Mn31  1  0.972184  0.675420  0.110044  1
  As  As32  1  0.113858  0.577575  0.926021  1
  As  As33  1  0.120519  0.071709  0.925198  1
  As  As34  1  0.113858  0.922425  0.426021  1
  As  As35  1  0.120519  0.428291  0.425198  1
  As  As36  1  0.379963  0.177845  0.576394  1
  As  As37  1  0.383456  0.675703  0.575062  1
  As  As38  1  0.616544  0.175703  0.924938  1
  As  As39  1  0.620037  0.677845  0.923606  1
  As  As40  1  0.379963  0.322155  0.076394  1
  As  As41  1  0.383456  0.824297  0.075062  1
  As  As42  1  0.616544  0.324297  0.424938  1
  As  As43  1  0.620037  0.822155  0.423606  1
  As  As44  1  0.879481  0.571709  0.574802  1
  As  As45  1  0.886142  0.077575  0.573979  1
  As  As46  1  0.879481  0.928291  0.074802  1
  As  As47  1  0.886142  0.422425  0.073979  1
  H  H48  1  0.034045  0.212415  0.738889  1
  H  H49  1  0.268262  0.418768  0.859250  1
  H  H50  1  0.034045  0.287585  0.238889  1
  H  H51  1  0.227867  0.841430  0.645877  1
  H  H52  1  0.268262  0.081232  0.359250  1
  H  H53  1  0.227867  0.658570  0.145877  1
  H  H54  1  0.466663  0.037901  0.757632  1
  H  H55  1  0.533337  0.537901  0.742368  1
  H  H56  1  0.466663  0.462099  0.257632  1
  H  H57  1  0.533337  0.962099  0.242368  1
  H  H58  1  0.772133  0.341430  0.854123  1
  H  H59  1  0.731738  0.918768  0.640750  1
  H  H60  1  0.772133  0.158570  0.354123  1
  H  H61  1  0.965955  0.712415  0.761111  1
  H  H62  1  0.731738  0.581232  0.140750  1
  H  H63  1  0.965955  0.787585  0.261111  1
  O  O64  1  0.009741  0.163217  0.931110  1
  O  O65  1  0.022194  0.668973  0.959628  1
  O  O66  1  0.005085  0.482165  0.877020  1
  O  O67  1  0.016355  0.971609  0.883318  1
  O  O68  1  0.066938  0.278945  0.741712  1
  O  O69  1  0.167302  0.615284  0.818733  1
  O  O70  1  0.009741  0.336783  0.431110  1
  O  O71  1  0.022194  0.831027  0.459628  1
  O  O72  1  0.005085  0.017835  0.377020  1
  O  O73  1  0.016355  0.528391  0.383318  1
  O  O74  1  0.251887  0.295726  0.957196  1
  O  O75  1  0.203745  0.096600  0.833675  1
  O  O76  1  0.254554  0.793526  0.957126  1
  O  O77  1  0.192258  0.843092  0.706959  1
  O  O78  1  0.066938  0.221055  0.241712  1
  O  O79  1  0.306877  0.415520  0.799995  1
  O  O80  1  0.238220  0.447601  0.552736  1
  O  O81  1  0.248459  0.954617  0.538582  1
  O  O82  1  0.309563  0.152033  0.676682  1
  O  O83  1  0.167302  0.884716  0.318733  1
  O  O84  1  0.320924  0.641428  0.677992  1
  O  O85  1  0.251887  0.204274  0.457196  1
  O  O86  1  0.203745  0.403400  0.333675  1
  O  O87  1  0.254554  0.706474  0.457126  1
  O  O88  1  0.192258  0.656908  0.206959  1
  O  O89  1  0.437220  0.970462  0.752906  1
  O  O90  1  0.516452  0.586029  0.942065  1
  O  O91  1  0.528524  0.080069  0.953449  1
  O  O92  1  0.508486  0.271908  0.879867  1
  O  O93  1  0.511089  0.775694  0.880091  1
  O  O94  1  0.306877  0.084480  0.299995  1
  O  O95  1  0.238220  0.052399  0.052736  1
  O  O96  1  0.248459  0.545383  0.038582  1
  O  O97  1  0.488911  0.275694  0.619909  1
  O  O98  1  0.309563  0.347967  0.176682  1
  O  O99  1  0.491514  0.771907  0.620133  1
  O  O100  1  0.320924  0.858572  0.177992  1
  O  O101  1  0.471476  0.580069  0.546551  1
  O  O102  1  0.483548  0.086029  0.557935  1
  O  O103  1  0.562780  0.470462  0.747094  1
  O  O104  1  0.437220  0.529538  0.252906  1
  O  O105  1  0.516452  0.913971  0.442065  1
  O  O106  1  0.528524  0.419931  0.453450  1
  O  O107  1  0.679076  0.141428  0.822008  1
  O  O108  1  0.508486  0.228093  0.379867  1
  O  O109  1  0.690437  0.652033  0.823318  1
  O  O110  1  0.511089  0.724306  0.380091  1
  O  O111  1  0.751541  0.454617  0.961418  1
  O  O112  1  0.761780  0.947601  0.947264  1
  O  O113  1  0.693123  0.915520  0.700005  1
  O  O114  1  0.488911  0.224306  0.119909  1
  O  O115  1  0.491514  0.728093  0.120133  1
  O  O116  1  0.471476  0.919931  0.046551  1
  O  O117  1  0.483548  0.413971  0.057935  1
  O  O118  1  0.562780  0.029538  0.247094  1
  O  O119  1  0.807742  0.343092  0.793041  1
  O  O120  1  0.745446  0.293526  0.542874  1
  O  O121  1  0.796255  0.596600  0.666325  1
  O  O122  1  0.748113  0.795726  0.542804  1
  O  O123  1  0.679076  0.358572  0.322008  1
  O  O124  1  0.832698  0.115284  0.681267  1
  O  O125  1  0.690437  0.847967  0.323318  1
  O  O126  1  0.751541  0.045383  0.461418  1
  O  O127  1  0.761780  0.552399  0.447264  1
  O  O128  1  0.693123  0.584480  0.200005  1
  O  O129  1  0.933062  0.778945  0.758288  1
  O  O130  1  0.807742  0.156908  0.293041  1
  O  O131  1  0.745446  0.206474  0.042874  1
  O  O132  1  0.796255  0.903400  0.166325  1
  O  O133  1  0.748113  0.704274  0.042804  1
  O  O134  1  0.983645  0.471609  0.616682  1
  O  O135  1  0.994915  0.982165  0.622980  1
  O  O136  1  0.977806  0.168973  0.540372  1
  O  O137  1  0.990259  0.663217  0.568890  1
  O  O138  1  0.832698  0.384716  0.181267  1
  O  O139  1  0.933062  0.721055  0.258288  1
  O  O140  1  0.983645  0.028391  0.116682  1
  O  O141  1  0.994915  0.517835  0.122980  1
  O  O142  1  0.977806  0.331027  0.040372  1
  O  O143  1  0.990259  0.836783  0.068890  1
