# generated using pymatgen
data_Fe3P8H26NO36
_symmetry_space_group_name_H-M   'P 1'
_cell_length_a   9.90011806
_cell_length_b   9.90011806
_cell_length_c   16.95250777
_cell_angle_alpha   88.96307601
_cell_angle_beta   91.03692399
_cell_angle_gamma   117.82057372
_symmetry_Int_Tables_number   1
_chemical_formula_structural   Fe3P8H26NO36
_chemical_formula_sum   'Fe6 P16 H52 N2 O72'
_cell_volume   1469.17335729
_cell_formula_units_Z   2
loop_
 _symmetry_equiv_pos_site_id
 _symmetry_equiv_pos_as_xyz
  1  'x, y, z'
loop_
 _atom_site_type_symbol
 _atom_site_label
 _atom_site_symmetry_multiplicity
 _atom_site_fract_x
 _atom_site_fract_y
 _atom_site_fract_z
 _atom_site_occupancy
  Fe  Fe0  1  0.765452  0.180320  0.756384  1
  Fe  Fe1  1  0.180320  0.765452  0.743616  1
  Fe  Fe2  1  0.234548  0.819680  0.243616  1
  Fe  Fe3  1  0.819680  0.234548  0.256384  1
  Fe  Fe4  1  0.346993  0.346993  0.750000  1
  Fe  Fe5  1  0.653007  0.653007  0.250000  1
  P  P6  1  0.107010  0.419945  0.869163  1
  P  P7  1  0.419945  0.107010  0.630837  1
  P  P8  1  0.892990  0.580055  0.130837  1
  P  P9  1  0.580055  0.892990  0.369163  1
  P  P10  1  0.017008  0.131949  0.647558  1
  P  P11  1  0.131949  0.017008  0.852442  1
  P  P12  1  0.982992  0.868051  0.352442  1
  P  P13  1  0.868051  0.982992  0.147558  1
  P  P14  1  0.511479  0.868413  0.850308  1
  P  P15  1  0.868413  0.511479  0.649692  1
  P  P16  1  0.488521  0.131587  0.149692  1
  P  P17  1  0.131587  0.488521  0.350308  1
  P  P18  1  0.633541  0.370948  0.869003  1
  P  P19  1  0.370948  0.633541  0.630997  1
  P  P20  1  0.366459  0.629052  0.130997  1
  P  P21  1  0.629052  0.366459  0.369003  1
  H  H22  1  0.514010  0.149607  0.019391  1
  H  H23  1  0.149607  0.514010  0.480609  1
  H  H24  1  0.485990  0.850393  0.980609  1
  H  H25  1  0.850393  0.485990  0.519391  1
  H  H26  1  0.162094  0.976782  0.651187  1
  H  H27  1  0.976782  0.162094  0.848813  1
  H  H28  1  0.837906  0.023218  0.348813  1
  H  H29  1  0.023218  0.837906  0.151187  1
  H  H30  1  0.087276  0.215079  0.520376  1
  H  H31  1  0.215079  0.087276  0.979624  1
  H  H32  1  0.912724  0.784921  0.479624  1
  H  H33  1  0.784921  0.912724  0.020376  1
  H  H34  1  0.751949  0.220477  0.955889  1
  H  H35  1  0.220477  0.751949  0.544111  1
  H  H36  1  0.248051  0.779523  0.044111  1
  H  H37  1  0.779523  0.248051  0.455889  1
  H  H38  1  0.396628  0.610272  0.844161  1
  H  H39  1  0.610272  0.396628  0.655839  1
  H  H40  1  0.603372  0.389728  0.155839  1
  H  H41  1  0.389728  0.603372  0.344161  1
  H  H42  1  0.441567  0.294377  0.957159  1
  H  H43  1  0.294377  0.441567  0.542841  1
  H  H44  1  0.558433  0.705623  0.042841  1
  H  H45  1  0.705623  0.558433  0.457159  1
  H  H46  1  0.954936  0.535231  0.855584  1
  H  H47  1  0.535231  0.954936  0.644416  1
  H  H48  1  0.045064  0.464769  0.144416  1
  H  H49  1  0.464769  0.045064  0.355584  1
  H  H50  1  0.835473  0.860848  0.823782  1
  H  H51  1  0.860848  0.835473  0.676218  1
  H  H52  1  0.164527  0.139152  0.176218  1
  H  H53  1  0.139152  0.164527  0.323782  1
  H  H54  1  0.692175  0.599017  0.732435  1
  H  H55  1  0.599017  0.692175  0.767565  1
  H  H56  1  0.307825  0.400983  0.267565  1
  H  H57  1  0.400983  0.307825  0.232435  1
  H  H58  1  0.676904  0.166199  0.530784  1
  H  H59  1  0.166199  0.676904  0.969216  1
  H  H60  1  0.323096  0.833801  0.469216  1
  H  H61  1  0.833801  0.323096  0.030784  1
  H  H62  1  0.887483  0.188344  0.532498  1
  H  H63  1  0.188344  0.887483  0.967502  1
  H  H64  1  0.112517  0.811656  0.467502  1
  H  H65  1  0.811656  0.112517  0.032498  1
  H  H66  1  0.222083  0.323295  0.973689  1
  H  H67  1  0.323295  0.222083  0.526311  1
  H  H68  1  0.777917  0.676705  0.026311  1
  H  H69  1  0.676705  0.777917  0.473689  1
  H  H70  1  0.283145  0.310074  0.057011  1
  H  H71  1  0.310074  0.283145  0.442989  1
  H  H72  1  0.716855  0.689926  0.942989  1
  H  H73  1  0.689926  0.716855  0.557011  1
  N  N74  1  0.704017  0.704017  0.750000  1
  N  N75  1  0.295983  0.295983  0.250000  1
  O  O76  1  0.551539  0.058300  0.664734  1
  O  O77  1  0.058300  0.551539  0.835266  1
  O  O78  1  0.448461  0.941700  0.335266  1
  O  O79  1  0.941700  0.448461  0.164734  1
  O  O80  1  0.962998  0.261579  0.832195  1
  O  O81  1  0.261579  0.962998  0.667805  1
  O  O82  1  0.037002  0.738421  0.167805  1
  O  O83  1  0.738421  0.037002  0.332195  1
  O  O84  1  0.253648  0.457488  0.819127  1
  O  O85  1  0.457488  0.253648  0.680873  1
  O  O86  1  0.746352  0.542512  0.180873  1
  O  O87  1  0.542512  0.746352  0.319127  1
  O  O88  1  0.802973  0.750089  0.814451  1
  O  O89  1  0.750089  0.802973  0.685549  1
  O  O90  1  0.197027  0.249911  0.185549  1
  O  O91  1  0.249911  0.197027  0.314451  1
  O  O92  1  0.262104  0.162936  0.820721  1
  O  O93  1  0.162936  0.262104  0.679279  1
  O  O94  1  0.737896  0.837064  0.179279  1
  O  O95  1  0.837064  0.737896  0.320721  1
  O  O96  1  0.869844  0.104795  0.685259  1
  O  O97  1  0.104795  0.869844  0.814741  1
  O  O98  1  0.130156  0.895205  0.314741  1
  O  O99  1  0.895205  0.130156  0.185259  1
  O  O100  1  0.028531  0.985386  0.634311  1
  O  O101  1  0.985386  0.028531  0.865689  1
  O  O102  1  0.971469  0.014614  0.365689  1
  O  O103  1  0.014614  0.971469  0.134311  1
  O  O104  1  0.997509  0.189929  0.555877  1
  O  O105  1  0.189929  0.997509  0.944123  1
  O  O106  1  0.002491  0.810071  0.444123  1
  O  O107  1  0.810071  0.002491  0.055877  1
  O  O108  1  0.854707  0.365948  0.687556  1
  O  O109  1  0.365948  0.854707  0.812444  1
  O  O110  1  0.145293  0.634052  0.312444  1
  O  O111  1  0.634052  0.145293  0.187556  1
  O  O112  1  0.660073  0.971574  0.808486  1
  O  O113  1  0.971574  0.660073  0.691514  1
  O  O114  1  0.339927  0.028426  0.191514  1
  O  O115  1  0.028426  0.339927  0.308486  1
  O  O116  1  0.532957  0.928698  0.937886  1
  O  O117  1  0.928698  0.532957  0.562114  1
  O  O118  1  0.467043  0.071302  0.062114  1
  O  O119  1  0.071302  0.467043  0.437886  1
  O  O120  1  0.499642  0.702791  0.857499  1
  O  O121  1  0.702791  0.499642  0.642501  1
  O  O122  1  0.500358  0.297209  0.142501  1
  O  O123  1  0.297209  0.500358  0.357500  1
  O  O124  1  0.659024  0.248054  0.826073  1
  O  O125  1  0.248054  0.659024  0.673927  1
  O  O126  1  0.340976  0.751946  0.173927  1
  O  O127  1  0.751946  0.340976  0.326073  1
  O  O128  1  0.537449  0.428163  0.819460  1
  O  O129  1  0.428163  0.537449  0.680540  1
  O  O130  1  0.462551  0.571837  0.180540  1
  O  O131  1  0.571837  0.462551  0.319460  1
  O  O132  1  0.529910  0.276814  0.944178  1
  O  O133  1  0.276814  0.529910  0.555822  1
  O  O134  1  0.470090  0.723186  0.055822  1
  O  O135  1  0.723186  0.470090  0.444178  1
  O  O136  1  0.783586  0.494577  0.900592  1
  O  O137  1  0.494577  0.783586  0.599408  1
  O  O138  1  0.216414  0.505423  0.099408  1
  O  O139  1  0.505423  0.216414  0.400592  1
  O  O140  1  0.765348  0.178765  0.500492  1
  O  O141  1  0.178765  0.765348  0.999508  1
  O  O142  1  0.234652  0.821235  0.499508  1
  O  O143  1  0.821235  0.234652  0.000492  1
  O  O144  1  0.274755  0.273610  0.002591  1
  O  O145  1  0.273610  0.274755  0.497409  1
  O  O146  1  0.725245  0.726390  0.997409  1
  O  O147  1  0.726390  0.725245  0.502591  1
