# generated using pymatgen
data_Li5Cu(PO4)2
_symmetry_space_group_name_H-M   'P 1'
_cell_length_a   6.21582605
_cell_length_b   5.32793828
_cell_length_c   9.95387160
_cell_angle_alpha   90.13877805
_cell_angle_beta   89.96284027
_cell_angle_gamma   89.86546478
_symmetry_Int_Tables_number   1
_chemical_formula_structural   Li5Cu(PO4)2
_chemical_formula_sum   'Li10 Cu2 P4 O16'
_cell_volume   329.64577016
_cell_formula_units_Z   2
loop_
 _symmetry_equiv_pos_site_id
 _symmetry_equiv_pos_as_xyz
  1  'x, y, z'
loop_
 _atom_site_type_symbol
 _atom_site_label
 _atom_site_symmetry_multiplicity
 _atom_site_fract_x
 _atom_site_fract_y
 _atom_site_fract_z
 _atom_site_occupancy
  Li  Li0  1  0.999566  0.155633  0.744364  1
  Li  Li1  1  -0.000041  0.155408  0.246356  1
  Li  Li2  1  0.245010  0.327568  0.495395  1
  Li  Li3  1  0.250001  0.327130  0.996992  1
  Li  Li4  1  0.252649  0.672531  0.246051  1
  Li  Li5  1  0.253833  0.673601  0.744341  1
  Li  Li6  1  0.499799  0.844510  0.494686  1
  Li  Li7  1  0.745913  0.673620  0.743692  1
  Li  Li8  1  0.747616  0.674044  0.246374  1
  Li  Li9  1  0.753202  0.326974  0.494635  1
  Cu  Cu10  1  0.500010  0.825841  0.999275  1
  Cu  Cu11  1  0.752257  0.330430  0.000973  1
  P  P12  1  0.005050  0.826444  0.998833  1
  P  P13  1  0.000195  0.824839  0.499724  1
  P  P14  1  0.497983  0.176092  0.255283  1
  P  P15  1  0.496541  0.177326  0.743281  1
  O  O16  1  0.000123  0.819386  0.656314  1
  O  O17  1  0.999848  0.102154  0.449379  1
  O  O18  1  0.000092  0.820108  0.155138  1
  O  O19  1  0.015731  0.100584  0.946330  1
  O  O20  1  0.205743  0.687211  0.446503  1
  O  O21  1  0.203418  0.676263  0.945218  1
  O  O22  1  0.294492  0.311184  0.198751  1
  O  O23  1  0.291035  0.314357  0.690852  1
  O  O24  1  0.489330  0.186904  0.900168  1
  O  O25  1  0.498724  0.898935  0.695065  1
  O  O26  1  0.496192  0.183673  0.410957  1
  O  O27  1  0.500032  0.895348  0.209349  1
  O  O28  1  0.704214  0.312946  0.693672  1
  O  O29  1  0.707920  0.312271  0.207699  1
  O  O30  1  0.794386  0.687845  0.447194  1
  O  O31  1  0.799136  0.698839  0.939747  1
