# generated using pymatgen
data_Li6MnV3(PO4)6
_symmetry_space_group_name_H-M   'P 1'
_cell_length_a   8.80396365
_cell_length_b   8.80396397
_cell_length_c   14.51863948
_cell_angle_alpha   106.37066893
_cell_angle_beta   73.62933198
_cell_angle_gamma   119.46402245
_symmetry_Int_Tables_number   1
_chemical_formula_structural   Li6MnV3(PO4)6
_chemical_formula_sum   'Li12 Mn2 V6 P12 O48'
_cell_volume   926.15052188
_cell_formula_units_Z   2
loop_
 _symmetry_equiv_pos_site_id
 _symmetry_equiv_pos_as_xyz
  1  'x, y, z'
loop_
 _atom_site_type_symbol
 _atom_site_label
 _atom_site_symmetry_multiplicity
 _atom_site_fract_x
 _atom_site_fract_y
 _atom_site_fract_z
 _atom_site_occupancy
  Li  Li0  1  0.013712  0.854580  0.112159  1
  Li  Li1  1  0.000222  0.500294  0.999767  1
  Li  Li2  1  0.104900  0.764579  0.638062  1
  Li  Li3  1  0.250294  0.250222  0.250233  1
  Li  Li4  1  0.486473  0.645016  0.388119  1
  Li  Li5  1  0.395016  0.736473  0.861881  1
  Li  Li6  1  0.604580  0.263712  0.137841  1
  Li  Li7  1  0.514579  0.354900  0.611938  1
  Li  Li8  1  0.751254  0.750331  0.748510  1
  Li  Li9  1  0.500331  0.001254  0.501490  1
  Li  Li10  1  0.895494  0.236813  0.362743  1
  Li  Li11  1  0.986813  0.145494  0.887257  1
  Mn  Mn12  1  0.430372  0.077307  0.714958  1
  Mn  Mn13  1  0.827307  0.680372  0.535042  1
  V  V14  1  0.067364  0.423555  0.786732  1
  V  V15  1  0.173555  0.317364  0.463268  1
  V  V16  1  0.567350  0.923002  0.287046  1
  V  V17  1  0.326954  0.182227  0.036749  1
  V  V18  1  0.673002  0.817350  0.962954  1
  V  V19  1  0.932227  0.576954  0.213251  1
  P  P20  1  0.332379  0.869663  0.118627  1
  P  P21  1  0.167844  0.630503  0.381398  1
  P  P22  1  0.074377  0.824414  0.875379  1
  P  P23  1  0.120064  0.083451  0.632721  1
  P  P24  1  0.423782  0.673782  0.625000  1
  P  P25  1  0.619663  0.582379  0.131373  1
  P  P26  1  0.380503  0.417844  0.868602  1
  P  P27  1  0.574414  0.324377  0.374621  1
  P  P28  1  0.880321  0.917105  0.368939  1
  P  P29  1  0.923372  0.173372  0.125000  1
  P  P30  1  0.833451  0.370064  0.617279  1
  P  P31  1  0.667105  0.130321  0.881061  1
  O  O32  1  0.141534  0.719237  0.113822  1
  O  O33  1  0.089248  0.613888  0.296131  1
  O  O34  1  0.057474  0.668004  0.480383  1
  O  O35  1  0.444892  0.834060  0.020347  1
  O  O36  1  0.410498  0.886121  0.204068  1
  O  O37  1  0.106908  0.190039  0.128242  1
  O  O38  1  0.192258  0.892115  0.781243  1
  O  O39  1  0.177789  0.451070  0.365287  1
  O  O40  1  0.147181  0.946815  0.968726  1
  O  O41  1  0.030871  0.108454  0.364225  1
  O  O42  1  0.359171  0.780539  0.385681  1
  O  O43  1  0.058424  0.641422  0.879517  1
  O  O44  1  0.437823  0.855738  0.620597  1
  O  O45  1  0.136692  0.160002  0.546484  1
  O  O46  1  0.636121  0.660498  0.045932  1
  O  O47  1  0.352321  0.551749  0.531317  1
  O  O48  1  0.086356  0.199340  0.730123  1
  O  O49  1  0.469237  0.391534  0.136178  1
  O  O50  1  0.301749  0.602321  0.718683  1
  O  O51  1  0.584060  0.694892  0.229653  1
  O  O52  1  0.322073  0.048907  0.134607  1
  O  O53  1  0.201070  0.427789  0.884714  1
  O  O54  1  0.391422  0.308424  0.370483  1
  O  O55  1  0.701329  0.927851  0.384197  1
  O  O56  1  0.302271  0.075230  0.615733  1
  O  O57  1  0.605738  0.687823  0.629403  1
  O  O58  1  0.798907  0.572073  0.115393  1
  O  O59  1  0.677851  0.951329  0.865803  1
  O  O60  1  0.418004  0.307474  0.769617  1
  O  O61  1  0.696815  0.397181  0.281274  1
  O  O62  1  0.530539  0.609171  0.864319  1
  O  O63  1  0.916219  0.805322  0.270197  1
  O  O64  1  0.642115  0.442258  0.468757  1
  O  O65  1  0.363888  0.339248  0.953869  1
  O  O66  1  0.864261  0.839523  0.454510  1
  O  O67  1  0.558763  0.140610  0.376907  1
  O  O68  1  0.940039  0.356908  0.121758  1
  O  O69  1  0.644942  0.221481  0.609644  1
  O  O70  1  0.971481  0.894942  0.640356  1
  O  O71  1  0.851818  0.052296  0.031385  1
  O  O72  1  0.825230  0.552271  0.634267  1
  O  O73  1  0.802296  0.101818  0.218615  1
  O  O74  1  0.890610  0.808763  0.873093  1
  O  O75  1  0.589523  0.114261  0.795490  1
  O  O76  1  0.555322  0.166219  0.979803  1
  O  O77  1  0.949340  0.336356  0.519877  1
  O  O78  1  0.910002  0.386692  0.703516  1
  O  O79  1  0.858454  0.280871  0.885775  1
