# generated using pymatgen
data_Li4Bi2C4SO16
_symmetry_space_group_name_H-M   'P 1'
_cell_length_a   10.06235583
_cell_length_b   9.64386396
_cell_length_c   10.18860185
_cell_angle_alpha   59.16848703
_cell_angle_beta   58.27446298
_cell_angle_gamma   63.10846568
_symmetry_Int_Tables_number   1
_chemical_formula_structural   Li4Bi2C4SO16
_chemical_formula_sum   'Li8 Bi4 C8 S2 O32'
_cell_volume   699.13757448
_cell_formula_units_Z   2
loop_
 _symmetry_equiv_pos_site_id
 _symmetry_equiv_pos_as_xyz
  1  'x, y, z'
loop_
 _atom_site_type_symbol
 _atom_site_label
 _atom_site_symmetry_multiplicity
 _atom_site_fract_x
 _atom_site_fract_y
 _atom_site_fract_z
 _atom_site_occupancy
  Li  Li0  1  0.930572  0.334744  0.305043  1
  Li  Li1  1  0.069938  0.058773  0.667873  1
  Li  Li2  1  0.708697  0.668200  0.058776  1
  Li  Li3  1  0.353721  0.292538  0.948858  1
  Li  Li4  1  0.910331  0.941800  0.308817  1
  Li  Li5  1  0.920454  0.302096  0.931030  1
  Li  Li6  1  0.065411  0.700032  0.684095  1
  Li  Li7  1  0.307262  0.935458  0.929628  1
  Bi  Bi8  1  0.495108  0.494761  0.015789  1
  Bi  Bi9  1  0.500189  0.002233  0.496094  1
  Bi  Bi10  1  0.500743  0.516956  0.497411  1
  Bi  Bi11  1  0.006808  0.501787  0.493090  1
  C  C12  1  0.692906  0.292339  0.254890  1
  C  C13  1  0.251549  0.260937  0.296904  1
  C  C14  1  0.296000  0.682486  0.265155  1
  C  C15  1  0.252570  0.275088  0.684098  1
  C  C16  1  0.707497  0.334020  0.731267  1
  C  C17  1  0.746468  0.706130  0.333487  1
  C  C18  1  0.320800  0.706625  0.750915  1
  C  C19  1  0.733505  0.733940  0.705673  1
  S  S20  1  0.114802  0.135785  0.114761  1
  S  S21  1  0.877661  0.875374  0.864692  1
  O  O22  1  0.293957  0.072571  0.047603  1
  O  O23  1  0.047645  0.068416  0.062808  1
  O  O24  1  0.072434  0.321816  0.043374  1
  O  O25  1  0.038505  0.081888  0.298611  1
  O  O26  1  0.695665  0.150576  0.265020  1
  O  O27  1  0.378515  0.251172  0.165062  1
  O  O28  1  0.718460  0.413496  0.112135  1
  O  O29  1  0.251440  0.156413  0.443632  1
  O  O30  1  0.122443  0.382078  0.286809  1
  O  O31  1  0.666649  0.306552  0.387167  1
  O  O32  1  0.288893  0.711595  0.129186  1
  O  O33  1  0.366567  0.138548  0.691787  1
  O  O34  1  0.768614  0.584529  0.298245  1
  O  O35  1  0.839849  0.330212  0.598390  1
  O  O36  1  0.439860  0.637250  0.266407  1
  O  O37  1  0.110916  0.279417  0.706193  1
  O  O38  1  0.862192  0.732009  0.333903  1
  O  O39  1  0.579088  0.321205  0.744349  1
  O  O40  1  0.275499  0.411628  0.656182  1
  O  O41  1  0.167483  0.688034  0.396463  1
  O  O42  1  0.597892  0.796709  0.381581  1
  O  O43  1  0.710782  0.357975  0.844835  1
  O  O44  1  0.287829  0.709227  0.643501  1
  O  O45  1  0.867956  0.617972  0.702993  1
  O  O46  1  0.727080  0.862456  0.573825  1
  O  O47  1  0.352281  0.564654  0.866389  1
  O  O48  1  0.327844  0.842537  0.743038  1
  O  O49  1  0.604786  0.719774  0.842574  1
  O  O50  1  0.943906  0.935716  0.677595  1
  O  O51  1  0.938709  0.687078  0.921610  1
  O  O52  1  0.699541  0.911219  0.943114  1
  O  O53  1  0.943730  0.953172  0.903731  1
