# generated using pymatgen
data_NaMnPCO7
_symmetry_space_group_name_H-M   'P 1'
_cell_length_a   9.09052436
_cell_length_b   6.25284197
_cell_length_c   10.47371026
_cell_angle_alpha   89.76634813
_cell_angle_beta   88.02614557
_cell_angle_gamma   91.34054967
_symmetry_Int_Tables_number   1
_chemical_formula_structural   NaMnPCO7
_chemical_formula_sum   'Na4 Mn4 P4 C4 O28'
_cell_volume   594.81937688
_cell_formula_units_Z   4
loop_
 _symmetry_equiv_pos_site_id
 _symmetry_equiv_pos_as_xyz
  1  'x, y, z'
loop_
 _atom_site_type_symbol
 _atom_site_label
 _atom_site_symmetry_multiplicity
 _atom_site_fract_x
 _atom_site_fract_y
 _atom_site_fract_z
 _atom_site_occupancy
  Na  Na0  1  0.240716  0.467291  0.623771  1
  Na  Na1  1  0.241412  0.028638  0.123109  1
  Na  Na2  1  0.759697  0.974238  0.880423  1
  Na  Na3  1  0.760715  0.974976  0.378335  1
  Mn  Mn4  1  0.342151  0.748283  0.891218  1
  Mn  Mn5  1  0.342043  0.751674  0.390969  1
  Mn  Mn6  1  0.657831  0.260469  0.608424  1
  Mn  Mn7  1  0.658298  0.264563  0.108486  1
  P  P8  1  0.433063  0.251063  0.858536  1
  P  P9  1  0.432651  0.251070  0.358417  1
  P  P10  1  0.567484  0.753288  0.641095  1
  P  P11  1  0.567403  0.756246  0.141089  1
  C  C12  1  0.076485  0.745685  0.865541  1
  C  C13  1  0.076183  0.740156  0.365306  1
  C  C14  1  0.922503  0.244369  0.634768  1
  C  C15  1  0.923665  0.258208  0.134749  1
  O  O16  1  0.056059  0.231958  0.650060  1
  O  O17  1  0.057284  0.253527  0.149919  1
  O  O18  1  0.140952  0.750468  0.976283  1
  O  O19  1  0.141022  0.733969  0.475972  1
  O  O20  1  0.176856  0.740641  0.770683  1
  O  O21  1  0.176758  0.745611  0.270290  1
  O  O22  1  0.330098  0.056342  0.895893  1
  O  O23  1  0.332037  0.442667  0.886752  1
  O  O24  1  0.325761  0.056423  0.384627  1
  O  O25  1  0.335777  0.442768  0.397200  1
  O  O26  1  0.474158  0.250788  0.712715  1
  O  O27  1  0.425041  0.745503  0.565732  1
  O  O28  1  0.474482  0.253206  0.212693  1
  O  O29  1  0.425048  0.757908  0.065735  1
  O  O30  1  0.575097  0.250029  0.934348  1
  O  O31  1  0.526569  0.762319  0.786879  1
  O  O32  1  0.574152  0.241774  0.434561  1
  O  O33  1  0.526557  0.763190  0.286888  1
  O  O34  1  0.669044  0.563430  0.610302  1
  O  O35  1  0.669425  0.949455  0.605114  1
  O  O36  1  0.667700  0.566868  0.108097  1
  O  O37  1  0.671002  0.952770  0.107174  1
  O  O38  1  0.821852  0.249802  0.729511  1
  O  O39  1  0.822625  0.260261  0.229516  1
  O  O40  1  0.858745  0.253889  0.523764  1
  O  O41  1  0.859206  0.260601  0.023775  1
  O  O42  1  0.942138  0.746045  0.850592  1
  O  O43  1  0.942260  0.743374  0.350689  1
