# generated using pymatgen
data_Na4Bi2C4SO16
_symmetry_space_group_name_H-M   'P 1'
_cell_length_a   10.31829280
_cell_length_b   10.30570744
_cell_length_c   10.44563976
_cell_angle_alpha   120.37009340
_cell_angle_beta   59.51085986
_cell_angle_gamma   119.14076646
_symmetry_Int_Tables_number   1
_chemical_formula_structural   Na4Bi2C4SO16
_chemical_formula_sum   'Na8 Bi4 C8 S2 O32'
_cell_volume   785.15784522
_cell_formula_units_Z   2
loop_
 _symmetry_equiv_pos_site_id
 _symmetry_equiv_pos_as_xyz
  1  'x, y, z'
loop_
 _atom_site_type_symbol
 _atom_site_label
 _atom_site_symmetry_multiplicity
 _atom_site_fract_x
 _atom_site_fract_y
 _atom_site_fract_z
 _atom_site_occupancy
  Na  Na0  1  0.920603  0.170603  0.329397  1
  Na  Na1  1  0.920392  0.170392  0.920392  1
  Na  Na2  1  0.921723  0.578277  0.328277  1
  Na  Na3  1  0.328277  0.171723  0.921723  1
  Na  Na4  1  0.682639  0.817361  0.067361  1
  Na  Na5  1  0.329397  0.579397  0.920603  1
  Na  Na6  1  0.329608  0.579608  0.329608  1
  Na  Na7  1  0.067361  0.432639  0.682639  1
  Bi  Bi8  1  0.495067  0.003542  0.999151  1
  Bi  Bi9  1  0.496458  0.004933  0.509325  1
  Bi  Bi10  1  0.509325  0.500849  0.496458  1
  Bi  Bi11  1  0.999151  0.990675  0.495067  1
  C  C12  1  0.721175  0.162038  0.719493  1
  C  C13  1  0.673153  0.216225  0.270701  1
  C  C14  1  0.272369  0.229299  0.283775  1
  C  C15  1  0.270701  0.227631  0.673153  1
  C  C16  1  0.719493  0.778628  0.721175  1
  C  C17  1  0.721372  0.780507  0.337962  1
  C  C18  1  0.337962  0.778825  0.721372  1
  C  C19  1  0.283775  0.826847  0.272369  1
  S  S20  1  0.875000  0.625000  0.875000  1
  S  S21  1  0.125000  0.375000  0.125000  1
  O  O22  1  0.853397  0.171095  0.716864  1
  O  O23  1  0.673482  0.097650  0.285333  1
  O  O24  1  0.716828  0.156526  0.595061  1
  O  O25  1  0.672561  0.200700  0.140197  1
  O  O26  1  0.594265  0.154639  0.843595  1
  O  O27  1  0.936294  0.563393  0.697377  1
  O  O28  1  0.936607  0.563706  0.929723  1
  O  O29  1  0.677627  0.350601  0.386854  1
  O  O30  1  0.286120  0.113146  0.149399  1
  O  O31  1  0.386854  0.213880  0.677627  1
  O  O32  1  0.929723  0.802623  0.936607  1
  O  O33  1  0.697377  0.570277  0.936294  1
  O  O34  1  0.716778  0.656405  0.345361  1
  O  O35  1  0.843595  0.783222  0.594265  1
  O  O36  1  0.140197  0.112057  0.672561  1
  O  O37  1  0.387943  0.359803  0.299300  1
  O  O38  1  0.595061  0.655364  0.716828  1
  O  O39  1  0.844636  0.904939  0.343474  1
  O  O40  1  0.285333  0.361166  0.673482  1
  O  O41  1  0.138834  0.214667  0.402350  1
  O  O42  1  0.301958  0.432460  0.065239  1
  O  O43  1  0.067540  0.198042  0.065262  1
  O  O44  1  0.716864  0.899165  0.853397  1
  O  O45  1  0.600835  0.783136  0.328905  1
  O  O46  1  0.328905  0.646603  0.600835  1
  O  O47  1  0.065239  0.434738  0.301958  1
  O  O48  1  0.065262  0.434761  0.067540  1
  O  O49  1  0.402350  0.826518  0.138834  1
  O  O50  1  0.343474  0.783172  0.844636  1
  O  O51  1  0.299300  0.827439  0.387943  1
  O  O52  1  0.345361  0.905735  0.716778  1
  O  O53  1  0.149399  0.822373  0.286120  1
