# generated using pymatgen
data_FeH12C2S2(O2F)6
_symmetry_space_group_name_H-M   'P 1'
_cell_length_a   10.04073717
_cell_length_b   10.04073717
_cell_length_c   6.67204520
_cell_angle_alpha   77.05793913
_cell_angle_beta   102.94206087
_cell_angle_gamma   138.87906347
_symmetry_Int_Tables_number   1
_chemical_formula_structural   FeH12C2S2(O2F)6
_chemical_formula_sum   'Fe1 H12 C2 S2 O12 F6'
_cell_volume   429.52759690
_cell_formula_units_Z   1
loop_
 _symmetry_equiv_pos_site_id
 _symmetry_equiv_pos_as_xyz
  1  'x, y, z'
loop_
 _atom_site_type_symbol
 _atom_site_label
 _atom_site_symmetry_multiplicity
 _atom_site_fract_x
 _atom_site_fract_y
 _atom_site_fract_z
 _atom_site_occupancy
  Fe  Fe0  1  0.000000  0.000000  0.000000  1
  H  H1  1  0.180217  0.046262  0.689699  1
  H  H2  1  0.953738  0.819783  0.689699  1
  H  H3  1  0.819783  0.953738  0.310301  1
  H  H4  1  0.046262  0.180217  0.310301  1
  H  H5  1  0.177404  0.341818  0.710561  1
  H  H6  1  0.658182  0.822596  0.710561  1
  H  H7  1  0.822596  0.658182  0.289439  1
  H  H8  1  0.341818  0.177404  0.289439  1
  H  H9  1  0.223446  0.402718  0.937905  1
  H  H10  1  0.597282  0.776554  0.937905  1
  H  H11  1  0.776554  0.597282  0.062095  1
  H  H12  1  0.402718  0.223446  0.062095  1
  C  C13  1  0.724925  0.275075  0.708751  1
  C  C14  1  0.275075  0.724925  0.291249  1
  S  S15  1  0.623254  0.376746  0.685072  1
  S  S16  1  0.376746  0.623254  0.314928  1
  O  O17  1  0.616090  0.383910  0.899680  1
  O  O18  1  0.383910  0.616090  0.100320  1
  O  O19  1  0.771756  0.577109  0.571564  1
  O  O20  1  0.422891  0.228244  0.571564  1
  O  O21  1  0.228244  0.422891  0.428436  1
  O  O22  1  0.577109  0.771756  0.428436  1
  O  O23  1  0.048423  0.951577  0.746583  1
  O  O24  1  0.951577  0.048423  0.253417  1
  O  O25  1  0.140111  0.288699  0.853563  1
  O  O26  1  0.711301  0.859889  0.853563  1
  O  O27  1  0.859889  0.711301  0.146437  1
  O  O28  1  0.288699  0.140111  0.146437  1
  F  F29  1  0.737591  0.262409  0.517069  1
  F  F30  1  0.262409  0.737591  0.482930  1
  F  F31  1  0.911704  0.400146  0.810769  1
  F  F32  1  0.599854  0.088296  0.810769  1
  F  F33  1  0.088296  0.599854  0.189231  1
  F  F34  1  0.400146  0.911704  0.189231  1
