# generated using pymatgen
data_Hf2N2O
_symmetry_space_group_name_H-M   'P 1'
_cell_length_a   8.72499962
_cell_length_b   8.76201269
_cell_length_c   8.70553778
_cell_angle_alpha   109.44249278
_cell_angle_beta   109.39098654
_cell_angle_gamma   109.59564956
_symmetry_Int_Tables_number   1
_chemical_formula_structural   Hf2N2O
_chemical_formula_sum   'Hf16 N16 O8'
_cell_volume   512.22285920
_cell_formula_units_Z   8
loop_
 _symmetry_equiv_pos_site_id
 _symmetry_equiv_pos_as_xyz
  1  'x, y, z'
loop_
 _atom_site_type_symbol
 _atom_site_label
 _atom_site_symmetry_multiplicity
 _atom_site_fract_x
 _atom_site_fract_y
 _atom_site_fract_z
 _atom_site_occupancy
  Hf  Hf0  1  0.498831  0.996261  0.986332  1
  Hf  Hf1  1  0.757147  0.288948  0.540905  1
  Hf  Hf2  1  0.719620  0.473291  0.249347  1
  Hf  Hf3  1  0.215407  0.957953  0.253677  1
  Hf  Hf4  1  0.249481  0.212520  0.958002  1
  Hf  Hf5  1  0.963985  0.257292  0.214200  1
  Hf  Hf6  1  0.503177  0.508425  0.510868  1
  Hf  Hf7  1  0.998777  0.996963  0.505440  1
  Hf  Hf8  1  0.027233  0.740323  0.775008  1
  Hf  Hf9  1  0.455854  0.248934  0.720032  1
  Hf  Hf10  1  0.007626  0.517227  0.005296  1
  Hf  Hf11  1  0.541462  0.757910  0.293780  1
  Hf  Hf12  1  0.750300  0.782652  0.030804  1
  Hf  Hf13  1  0.781777  0.026626  0.743999  1
  Hf  Hf14  1  0.281072  0.531011  0.742344  1
  Hf  Hf15  1  0.248904  0.713080  0.464445  1
  N  N16  1  0.729023  0.992873  0.958876  1
  N  N17  1  0.759672  0.035962  0.486783  1
  N  N18  1  0.510589  0.235806  0.967537  1
  N  N19  1  0.767816  0.726085  0.257225  1
  N  N20  1  0.768937  0.539950  0.526460  1
  N  N21  1  0.237587  0.967147  0.509092  1
  N  N22  1  0.962935  0.505033  0.234035  1
  N  N23  1  0.225126  0.446256  0.461626  1
  N  N24  1  0.536440  0.768927  0.544438  1
  N  N25  1  0.546436  0.534422  0.773496  1
  N  N26  1  0.226111  0.272597  0.742101  1
  N  N27  1  0.959895  0.733338  0.993369  1
  N  N28  1  0.274796  0.738965  0.223113  1
  N  N29  1  0.990307  0.957472  0.733758  1
  N  N30  1  0.030801  0.482937  0.759981  1
  N  N31  1  0.263198  0.774769  0.730799  1
  O  O32  1  0.740114  0.223671  0.275136  1
  O  O33  1  0.283232  0.018969  0.057509  1
  O  O34  1  0.466869  0.225512  0.454111  1
  O  O35  1  0.445052  0.460915  0.223212  1
  O  O36  1  0.047824  0.275517  0.012719  1
  O  O37  1  0.488072  0.764687  0.035114  1
  O  O38  1  0.012907  0.047868  0.273813  1
  O  O39  1  0.725611  0.260906  0.771218  1
