# generated using pymatgen
data_LiV2P4(HO8)2
_symmetry_space_group_name_H-M   'P 1'
_cell_length_a   12.55235652
_cell_length_b   9.26217791
_cell_length_c   7.35544090
_cell_angle_alpha   97.67112853
_cell_angle_beta   101.07723912
_cell_angle_gamma   97.05400090
_symmetry_Int_Tables_number   1
_chemical_formula_structural   LiV2P4(HO8)2
_chemical_formula_sum   'Li3 V6 P12 H6 O48'
_cell_volume   821.97075722
_cell_formula_units_Z   3
loop_
 _symmetry_equiv_pos_site_id
 _symmetry_equiv_pos_as_xyz
  1  'x, y, z'
loop_
 _atom_site_type_symbol
 _atom_site_label
 _atom_site_symmetry_multiplicity
 _atom_site_fract_x
 _atom_site_fract_y
 _atom_site_fract_z
 _atom_site_occupancy
  Li  Li0  1  0.173789  0.044582  0.846942  1
  Li  Li1  1  0.758957  0.390258  0.352155  1
  Li  Li2  1  0.576850  0.948248  0.649268  1
  V  V3  1  0.000219  0.500475  0.002121  1
  V  V4  1  0.333491  0.333431  0.496669  1
  V  V5  1  0.995758  0.997074  0.488955  1
  V  V6  1  0.666573  0.166600  0.002325  1
  V  V7  1  0.333821  0.824868  0.009430  1
  V  V8  1  0.666711  0.667653  0.498479  1
  P  P9  1  0.174984  0.023503  0.234150  1
  P  P10  1  0.157233  0.311965  0.761609  1
  P  P11  1  0.402917  0.060436  0.734013  1
  P  P12  1  0.075914  0.725242  0.735028  1
  P  P13  1  0.256816  0.609919  0.275668  1
  P  P14  1  0.505705  0.362539  0.229526  1
  P  P15  1  0.490997  0.643271  0.768355  1
  P  P16  1  0.741998  0.393914  0.740121  1
  P  P17  1  0.928878  0.278150  0.268457  1
  P  P18  1  0.591109  0.942880  0.266747  1
  P  P19  1  0.838131  0.689504  0.223554  1
  P  P20  1  0.825357  0.974919  0.763860  1
  H  H21  1  0.008541  0.514385  0.510805  1
  H  H22  1  0.322791  0.329739  0.992338  1
  H  H23  1  0.338510  0.848081  0.507289  1
  H  H24  1  0.675195  0.182652  0.512768  1
  H  H25  1  0.654576  0.660815  0.989975  1
  H  H26  1  0.982537  0.992963  0.987453  1
  O  O27  1  0.101520  0.156487  0.656362  1
  O  O28  1  0.070378  0.402552  0.819292  1
  O  O29  1  0.101708  0.044335  0.053567  1
  O  O30  1  0.001630  0.338907  0.135372  1
  O  O31  1  0.233954  0.283260  0.939966  1
  O  O32  1  0.235878  0.175752  0.349916  1
  O  O33  1  0.064970  0.617498  0.553786  1
  O  O34  1  0.221844  0.389964  0.633517  1
  O  O35  1  0.375958  0.209348  0.676987  1
  O  O36  1  0.051643  0.876945  0.691248  1
  O  O37  1  0.523408  0.078814  0.840450  1
  O  O38  1  0.196419  0.750366  0.854541  1
  O  O39  1  0.139034  0.581525  0.152168  1
  O  O40  1  0.287866  0.459157  0.320929  1
  O  O41  1  0.443064  0.284669  0.365505  1
  O  O42  1  0.115415  0.943871  0.364555  1
  O  O43  1  0.271357  0.720743  0.449855  1
  O  O44  1  0.602428  0.051860  0.445418  1
  O  O45  1  0.431948  0.494149  0.649366  1
  O  O46  1  0.729477  0.053757  0.810592  1
  O  O47  1  0.400904  0.731143  0.826830  1
  O  O48  1  0.427164  0.376425  0.052129  1
  O  O49  1  0.662722  0.005785  0.135624  1
  O  O50  1  0.332551  0.667097  0.141513  1
  O  O51  1  0.667332  0.328187  0.862470  1
  O  O52  1  0.324809  0.002480  0.856019  1
  O  O53  1  0.566572  0.618080  0.946352  1
  O  O54  1  0.266874  0.935118  0.179086  1
  O  O55  1  0.601354  0.279536  0.191683  1
  O  O56  1  0.564003  0.513592  0.349380  1
  O  O57  1  0.731323  0.284000  0.555310  1
  O  O58  1  0.397550  0.949932  0.553890  1
  O  O59  1  0.552710  0.731722  0.644630  1
  O  O60  1  0.887352  0.055644  0.637030  1
  O  O61  1  0.711592  0.538004  0.684070  1
  O  O62  1  0.862680  0.415925  0.850852  1
  O  O63  1  0.470031  0.915024  0.147906  1
  O  O64  1  0.807230  0.256748  0.158620  1
  O  O65  1  0.961039  0.130587  0.312857  1
  O  O66  1  0.621750  0.795276  0.312937  1
  O  O67  1  0.779984  0.604202  0.355770  1
  O  O68  1  0.936279  0.389890  0.443296  1
  O  O69  1  0.768164  0.821453  0.649618  1
  O  O70  1  0.761875  0.710450  0.048568  1
  O  O71  1  0.002102  0.664256  0.863741  1
  O  O72  1  0.898901  0.955497  0.949375  1
  O  O73  1  0.931210  0.602476  0.172167  1
  O  O74  1  0.898767  0.839019  0.345987  1
