# generated using pymatgen
data_Li2Mn3(BO3)4
_symmetry_space_group_name_H-M   'P 1'
_cell_length_a   5.11349349
_cell_length_b   9.06315174
_cell_length_c   10.56007014
_cell_angle_alpha   90.00000000
_cell_angle_beta   100.26953464
_cell_angle_gamma   90.00000000
_symmetry_Int_Tables_number   1
_chemical_formula_structural   Li2Mn3(BO3)4
_chemical_formula_sum   'Li4 Mn6 B8 O24'
_cell_volume   481.55957203
_cell_formula_units_Z   2
loop_
 _symmetry_equiv_pos_site_id
 _symmetry_equiv_pos_as_xyz
  1  'x, y, z'
loop_
 _atom_site_type_symbol
 _atom_site_label
 _atom_site_symmetry_multiplicity
 _atom_site_fract_x
 _atom_site_fract_y
 _atom_site_fract_z
 _atom_site_occupancy
  Li  Li0  1  0.102620  0.965013  0.610829  1
  Li  Li1  1  0.305106  0.465486  0.376495  1
  Li  Li2  1  0.602620  0.534987  0.110829  1
  Li  Li3  1  0.805106  0.034514  0.876495  1
  Mn  Mn4  1  0.119750  0.303263  0.122150  1
  Mn  Mn5  1  0.202690  0.963999  0.123568  1
  Mn  Mn6  1  0.371982  0.789352  0.385817  1
  Mn  Mn7  1  0.619750  0.196737  0.622150  1
  Mn  Mn8  1  0.702690  0.536001  0.623568  1
  Mn  Mn9  1  0.871982  0.710648  0.885817  1
  B  B10  1  0.179095  0.298615  0.609239  1
  B  B11  1  0.135155  0.635226  0.136987  1
  B  B12  1  0.335276  0.807320  0.908068  1
  B  B13  1  0.353328  0.140324  0.353197  1
  B  B14  1  0.635155  0.864774  0.636987  1
  B  B15  1  0.679095  0.201385  0.109239  1
  B  B16  1  0.853328  0.359676  0.853197  1
  B  B17  1  0.835276  0.692680  0.408068  1
  O  O18  1  0.069712  0.352622  0.949562  1
  O  O19  1  0.084106  0.651171  0.396222  1
  O  O20  1  0.148652  0.909885  0.942692  1
  O  O21  1  0.226985  0.266557  0.303242  1
  O  O22  1  0.267435  0.001850  0.304354  1
  O  O23  1  0.239995  0.666726  0.886551  1
  O  O24  1  0.260836  0.155187  0.637527  1
  O  O25  1  0.394705  0.383600  0.584967  1
  O  O26  1  0.261629  0.501651  0.170070  1
  O  O27  1  0.289780  0.759276  0.185130  1
  O  O28  1  0.387185  0.848017  0.566617  1
  O  O29  1  0.422520  0.158648  0.099912  1
  O  O30  1  0.584106  0.848829  0.896222  1
  O  O31  1  0.569712  0.147378  0.449562  1
  O  O32  1  0.648652  0.590115  0.442692  1
  O  O33  1  0.726985  0.233443  0.803242  1
  O  O34  1  0.767435  0.498150  0.804354  1
  O  O35  1  0.739995  0.833274  0.386551  1
  O  O36  1  0.760836  0.344813  0.137527  1
  O  O37  1  0.761629  0.998349  0.670070  1
  O  O38  1  0.789780  0.740724  0.685130  1
  O  O39  1  0.894705  0.116400  0.084967  1
  O  O40  1  0.922520  0.341352  0.599912  1
  O  O41  1  0.887185  0.651983  0.066617  1
