# generated using pymatgen
data_Li3MnVP2(O4F)2
_symmetry_space_group_name_H-M   'P 1'
_cell_length_a   5.27338108
_cell_length_b   5.43341639
_cell_length_c   7.66827443
_cell_angle_alpha   110.36151743
_cell_angle_beta   107.93318410
_cell_angle_gamma   97.08112094
_symmetry_Int_Tables_number   1
_chemical_formula_structural   Li3MnVP2(O4F)2
_chemical_formula_sum   'Li3 Mn1 V1 P2 O8 F2'
_cell_volume   189.32738038
_cell_formula_units_Z   1
loop_
 _symmetry_equiv_pos_site_id
 _symmetry_equiv_pos_as_xyz
  1  'x, y, z'
loop_
 _atom_site_type_symbol
 _atom_site_label
 _atom_site_symmetry_multiplicity
 _atom_site_fract_x
 _atom_site_fract_y
 _atom_site_fract_z
 _atom_site_occupancy
  Li  Li0  1  0.093420  0.431073  0.839585  1
  Li  Li1  1  0.980571  0.527779  0.489170  1
  Li  Li2  1  0.905960  0.565922  0.146297  1
  Mn  Mn3  1  0.491534  0.494278  0.501198  1
  V  V4  1  0.000518  0.000449  0.000556  1
  P  P5  1  0.421012  0.120049  0.763757  1
  P  P6  1  0.580830  0.879531  0.238833  1
  O  O7  1  0.283192  0.164070  0.923569  1
  O  O8  1  0.329004  0.824486  0.611013  1
  O  O9  1  0.328457  0.318249  0.668263  1
  O  O10  1  0.256733  0.786817  0.120052  1
  O  O11  1  0.744924  0.210824  0.879828  1
  O  O12  1  0.674480  0.683282  0.336268  1
  O  O13  1  0.669161  0.177030  0.389605  1
  O  O14  1  0.719263  0.836593  0.079394  1
  F  F15  1  0.098022  0.344093  0.257339  1
  F  F16  1  0.895670  0.660292  0.741148  1
