# generated using pymatgen
data_Li2NiP2O7
_symmetry_space_group_name_H-M   'P 1'
_cell_length_a   9.74362153
_cell_length_b   9.73938286
_cell_length_c   11.09621992
_cell_angle_alpha   90.10278900
_cell_angle_beta   102.30782913
_cell_angle_gamma   89.79353819
_symmetry_Int_Tables_number   1
_chemical_formula_structural   Li2NiP2O7
_chemical_formula_sum   'Li16 Ni8 P16 O56'
_cell_volume   1028.78759737
_cell_formula_units_Z   8
loop_
 _symmetry_equiv_pos_site_id
 _symmetry_equiv_pos_as_xyz
  1  'x, y, z'
loop_
 _atom_site_type_symbol
 _atom_site_label
 _atom_site_symmetry_multiplicity
 _atom_site_fract_x
 _atom_site_fract_y
 _atom_site_fract_z
 _atom_site_occupancy
  Li  Li0  1  0.113096  0.720719  0.448104  1
  Li  Li1  1  0.169078  0.423654  0.542884  1
  Li  Li2  1  0.087053  0.106825  0.027924  1
  Li  Li3  1  0.343292  0.912024  0.956114  1
  Li  Li4  1  0.155295  0.411576  0.044543  1
  Li  Li5  1  0.414145  0.608357  0.971563  1
  Li  Li6  1  0.330769  0.922634  0.457100  1
  Li  Li7  1  0.386781  0.221571  0.550495  1
  Li  Li8  1  0.613219  0.778429  0.449505  1
  Li  Li9  1  0.669231  0.077366  0.542901  1
  Li  Li10  1  0.585855  0.391643  0.028437  1
  Li  Li11  1  0.844705  0.588424  0.955457  1
  Li  Li12  1  0.656708  0.087976  0.043886  1
  Li  Li13  1  0.912947  0.893175  0.972076  1
  Li  Li14  1  0.830921  0.576346  0.457116  1
  Li  Li15  1  0.886904  0.279282  0.551896  1
  Ni  Ni16  1  0.199744  0.927518  0.673571  1
  Ni  Ni17  1  0.253847  0.210262  0.822149  1
  Ni  Ni18  1  0.246240  0.711085  0.176973  1
  Ni  Ni19  1  0.299699  0.428548  0.326180  1
  Ni  Ni20  1  0.700301  0.571452  0.673820  1
  Ni  Ni21  1  0.753760  0.288915  0.823027  1
  Ni  Ni22  1  0.746153  0.789738  0.177851  1
  Ni  Ni23  1  0.800256  0.072482  0.326429  1
  P  P24  1  0.025743  0.450935  0.760042  1
  P  P25  1  0.119790  0.705997  0.891356  1
  P  P26  1  0.058783  0.929155  0.242173  1
  P  P27  1  0.121501  0.150844  0.426031  1
  P  P28  1  0.378529  0.650348  0.573918  1
  P  P29  1  0.441865  0.429275  0.757663  1
  P  P30  1  0.525393  0.049209  0.759612  1
  P  P31  1  0.380301  0.205708  0.108669  1
  P  P32  1  0.619699  0.794292  0.891331  1
  P  P33  1  0.474607  0.950791  0.240388  1
  P  P34  1  0.558135  0.570725  0.242337  1
  P  P35  1  0.621471  0.349652  0.426082  1
  P  P36  1  0.878499  0.849156  0.573969  1
  P  P37  1  0.941217  0.070845  0.757827  1
  P  P38  1  0.880210  0.294002  0.108644  1
  P  P39  1  0.974257  0.549065  0.239958  1
  O  O40  1  0.021843  0.413595  0.626789  1
  O  O41  1  0.028681  0.840044  0.555492  1
  O  O42  1  0.089493  0.088469  0.730988  1
  O  O43  1  0.119314  0.358916  0.855925  1
  O  O44  1  0.096626  0.600938  0.774916  1
  O  O45  1  0.183419  0.832095  0.843124  1
  O  O46  1  0.225318  0.635520  0.999585  1
  O  O47  1  0.020939  0.275721  0.075338  1
  O  O48  1  0.113784  0.078695  0.293502  1
  O  O49  1  0.064468  0.931785  0.107683  1
  O  O50  1  0.124249  0.536653  0.211568  1
  O  O51  1  0.188591  0.291228  0.416497  1
  O  O52  1  0.165540  0.823233  0.312075  1
  O  O53  1  0.222611  0.063240  0.521017  1
  O  O54  1  0.276753  0.563372  0.479038  1
  O  O55  1  0.335061  0.324009  0.687657  1
  O  O56  1  0.311949  0.791395  0.583418  1
  O  O57  1  0.375255  0.037521  0.787602  1
  O  O58  1  0.386472  0.579049  0.706465  1
  O  O59  1  0.436732  0.432751  0.892157  1
  O  O60  1  0.478944  0.776873  0.924458  1
  O  O61  1  0.275298  0.135128  0.000289  1
  O  O62  1  0.316367  0.332383  0.156747  1
  O  O63  1  0.403576  0.101182  0.225276  1
  O  O64  1  0.409887  0.589063  0.269540  1
  O  O65  1  0.381245  0.859056  0.144302  1
  O  O66  1  0.521682  0.086112  0.626426  1
  O  O67  1  0.471420  0.342103  0.444899  1
  O  O68  1  0.528580  0.657897  0.555101  1
  O  O69  1  0.478318  0.913888  0.373574  1
  O  O70  1  0.618755  0.140944  0.855698  1
  O  O71  1  0.590113  0.410937  0.730460  1
  O  O72  1  0.596424  0.898818  0.774724  1
  O  O73  1  0.683633  0.667617  0.843253  1
  O  O74  1  0.724702  0.864872  0.999711  1
  O  O75  1  0.521056  0.223127  0.075542  1
  O  O76  1  0.563268  0.567249  0.107843  1
  O  O77  1  0.613528  0.420951  0.293535  1
  O  O78  1  0.624745  0.962479  0.212398  1
  O  O79  1  0.688051  0.208605  0.416582  1
  O  O80  1  0.664939  0.675991  0.312343  1
  O  O81  1  0.723247  0.436628  0.520962  1
  O  O82  1  0.777389  0.936760  0.478983  1
  O  O83  1  0.834460  0.176767  0.687925  1
  O  O84  1  0.811409  0.708772  0.583503  1
  O  O85  1  0.875751  0.463347  0.788432  1
  O  O86  1  0.935532  0.068215  0.892317  1
  O  O87  1  0.886216  0.921305  0.706498  1
  O  O88  1  0.979061  0.724279  0.924662  1
  O  O89  1  0.774682  0.364480  0.000415  1
  O  O90  1  0.816581  0.167905  0.156876  1
  O  O91  1  0.903374  0.399062  0.225084  1
  O  O92  1  0.880686  0.641084  0.144075  1
  O  O93  1  0.910507  0.911531  0.269012  1
  O  O94  1  0.971319  0.159956  0.444508  1
  O  O95  1  0.978157  0.586405  0.373211  1
