# generated using pymatgen
data_ZnH20S2(NO7)2
_symmetry_space_group_name_H-M   'P 1'
_cell_length_a   9.05393928
_cell_length_b   12.73434401
_cell_length_c   6.43184380
_cell_angle_alpha   90.00000000
_cell_angle_beta   107.32249819
_cell_angle_gamma   90.00000000
_symmetry_Int_Tables_number   1
_chemical_formula_structural   ZnH20S2(NO7)2
_chemical_formula_sum   'Zn2 H40 S4 N4 O28'
_cell_volume   707.93123013
_cell_formula_units_Z   2
loop_
 _symmetry_equiv_pos_site_id
 _symmetry_equiv_pos_as_xyz
  1  'x, y, z'
loop_
 _atom_site_type_symbol
 _atom_site_label
 _atom_site_symmetry_multiplicity
 _atom_site_fract_x
 _atom_site_fract_y
 _atom_site_fract_z
 _atom_site_occupancy
  Zn  Zn0  1  0.500000  0.500000  0.000000  1
  Zn  Zn1  1  0.000000  0.000000  0.000000  1
  H  H2  1  0.572271  0.170899  0.210258  1
  H  H3  1  0.927729  0.670899  0.789742  1
  H  H4  1  0.427729  0.829101  0.789742  1
  H  H5  1  0.072271  0.329101  0.210258  1
  H  H6  1  0.737591  0.204705  0.409790  1
  H  H7  1  0.762409  0.704705  0.590210  1
  H  H8  1  0.262409  0.795295  0.590210  1
  H  H9  1  0.237591  0.295295  0.409790  1
  H  H10  1  0.572881  0.175038  0.470880  1
  H  H11  1  0.927119  0.675038  0.529120  1
  H  H12  1  0.427119  0.824962  0.529120  1
  H  H13  1  0.072881  0.324962  0.470880  1
  H  H14  1  0.673251  0.079108  0.384386  1
  H  H15  1  0.826749  0.579109  0.615614  1
  H  H16  1  0.326749  0.920891  0.615614  1
  H  H17  1  0.173251  0.420891  0.384386  1
  H  H18  1  0.722540  0.409456  0.330188  1
  H  H19  1  0.777460  0.909456  0.669812  1
  H  H20  1  0.277460  0.590544  0.669812  1
  H  H21  1  0.222540  0.090544  0.330188  1
  H  H22  1  0.760726  0.380727  0.108178  1
  H  H23  1  0.739274  0.880727  0.891822  1
  H  H24  1  0.239274  0.619273  0.891822  1
  H  H25  1  0.260726  0.119273  0.108178  1
  H  H26  1  0.227702  0.399695  0.947054  1
  H  H27  1  0.272298  0.899695  0.052946  1
  H  H28  1  0.772298  0.600305  0.052946  1
  H  H29  1  0.727702  0.100305  0.947054  1
  H  H30  1  0.356222  0.310715  0.006041  1
  H  H31  1  0.143778  0.810715  0.993959  1
  H  H32  1  0.643778  0.689285  0.993959  1
  H  H33  1  0.856222  0.189285  0.006041  1
  H  H34  1  0.403595  0.570711  0.324976  1
  H  H35  1  0.096405  0.070711  0.675024  1
  H  H36  1  0.596405  0.429289  0.675024  1
  H  H37  1  0.903595  0.929289  0.324976  1
  H  H38  1  0.528075  0.652004  0.297280  1
  H  H39  1  0.971925  0.152004  0.702720  1
  H  H40  1  0.471925  0.347996  0.702720  1
  H  H41  1  0.028075  0.847996  0.297280  1
  S  S42  1  0.909880  0.368191  0.745072  1
  S  S43  1  0.590120  0.868191  0.254928  1
  S  S44  1  0.090120  0.631809  0.254928  1
  S  S45  1  0.409880  0.131809  0.745072  1
  N  N46  1  0.639975  0.157608  0.368987  1
  N  N47  1  0.860025  0.657608  0.631013  1
  N  N48  1  0.360025  0.842392  0.631013  1
  N  N49  1  0.139975  0.342392  0.368987  1
  O  O50  1  0.921079  0.278911  0.597542  1
  O  O51  1  0.578921  0.778911  0.402458  1
  O  O52  1  0.078921  0.721089  0.402458  1
  O  O53  1  0.421079  0.221089  0.597542  1
  O  O54  1  0.051207  0.433344  0.791336  1
  O  O55  1  0.448793  0.933344  0.208664  1
  O  O56  1  0.948793  0.566656  0.208664  1
  O  O57  1  0.551207  0.066656  0.791336  1
  O  O58  1  0.772638  0.434238  0.627591  1
  O  O59  1  0.727362  0.934238  0.372409  1
  O  O60  1  0.227362  0.565762  0.372409  1
  O  O61  1  0.272638  0.065762  0.627591  1
  O  O62  1  0.888530  0.324736  0.950515  1
  O  O63  1  0.611470  0.824736  0.049485  1
  O  O64  1  0.111470  0.675264  0.049485  1
  O  O65  1  0.388530  0.175264  0.950515  1
  O  O66  1  0.676752  0.392519  0.174212  1
  O  O67  1  0.823248  0.892519  0.825788  1
  O  O68  1  0.323248  0.607481  0.825788  1
  O  O69  1  0.176752  0.107481  0.174212  1
  O  O70  1  0.334532  0.383922  0.041192  1
  O  O71  1  0.165468  0.883922  0.958808  1
  O  O72  1  0.665468  0.616078  0.958808  1
  O  O73  1  0.834532  0.116078  0.041192  1
  O  O74  1  0.501582  0.576059  0.286165  1
  O  O75  1  0.998418  0.076059  0.713835  1
  O  O76  1  0.498418  0.423941  0.713835  1
  O  O77  1  0.001582  0.923941  0.286165  1
