# generated using pymatgen
data_CaH4SO6
_symmetry_space_group_name_H-M   'P 1'
_cell_length_a   5.68431769
_cell_length_b   8.28425608
_cell_length_c   6.38681173
_cell_angle_alpha   98.01178804
_cell_angle_beta   66.03039182
_cell_angle_gamma   110.06461204
_symmetry_Int_Tables_number   1
_chemical_formula_structural   CaH4SO6
_chemical_formula_sum   'Ca2 H8 S2 O12'
_cell_volume   258.14033858
_cell_formula_units_Z   2
loop_
 _symmetry_equiv_pos_site_id
 _symmetry_equiv_pos_as_xyz
  1  'x, y, z'
loop_
 _atom_site_type_symbol
 _atom_site_label
 _atom_site_symmetry_multiplicity
 _atom_site_fract_x
 _atom_site_fract_y
 _atom_site_fract_z
 _atom_site_occupancy
  Ca  Ca0  1  0.323920  0.147841  0.250000  1
  Ca  Ca1  1  0.676080  0.852159  0.750000  1
  H  H2  1  0.089361  0.681169  0.013867  1
  H  H3  1  0.091809  0.681169  0.486133  1
  H  H4  1  0.188447  0.468921  0.490708  1
  H  H5  1  0.219527  0.531079  0.990708  1
  H  H6  1  0.780473  0.468921  0.009292  1
  H  H7  1  0.811553  0.531079  0.509292  1
  H  H8  1  0.908191  0.318831  0.513867  1
  H  H9  1  0.910639  0.318831  0.986133  1
  S  S10  1  0.670340  0.840680  0.250000  1
  S  S11  1  0.329660  0.159320  0.750000  1
  O  O12  1  0.108183  0.349554  0.453445  1
  O  O13  1  0.573582  0.951415  0.159202  1
  O  O14  1  0.443517  0.733205  0.445757  1
  O  O15  1  0.258629  0.650446  0.953445  1
  O  O16  1  0.122167  0.048585  0.659202  1
  O  O17  1  0.789688  0.733205  0.054243  1
  O  O18  1  0.210312  0.266795  0.945757  1
  O  O19  1  0.877833  0.951415  0.340798  1
  O  O20  1  0.741371  0.349554  0.046555  1
  O  O21  1  0.556483  0.266795  0.554243  1
  O  O22  1  0.426418  0.048585  0.840798  1
  O  O23  1  0.891817  0.650446  0.546555  1
