# generated using pymatgen
data_Sm3Bi5O12
_symmetry_space_group_name_H-M   'P 1'
_cell_length_a   9.62744769
_cell_length_b   9.64375387
_cell_length_c   9.63233979
_cell_angle_alpha   109.48016955
_cell_angle_beta   109.40316895
_cell_angle_gamma   109.41592933
_symmetry_Int_Tables_number   1
_chemical_formula_structural   Sm3Bi5O12
_chemical_formula_sum   'Sm6 Bi10 O24'
_cell_volume   689.41167679
_cell_formula_units_Z   2
loop_
 _symmetry_equiv_pos_site_id
 _symmetry_equiv_pos_as_xyz
  1  'x, y, z'
loop_
 _atom_site_type_symbol
 _atom_site_label
 _atom_site_symmetry_multiplicity
 _atom_site_fract_x
 _atom_site_fract_y
 _atom_site_fract_z
 _atom_site_occupancy
  Sm  Sm0  1  0.966347  0.249243  0.216100  1
  Sm  Sm1  1  0.001450  0.500154  0.999217  1
  Sm  Sm2  1  0.781095  0.031483  0.750320  1
  Sm  Sm3  1  0.500853  0.000381  0.002292  1
  Sm  Sm4  1  0.498059  0.499387  0.498928  1
  Sm  Sm5  1  0.000766  0.000867  0.499177  1
  Bi  Bi6  1  0.721754  0.470727  0.249426  1
  Bi  Bi7  1  0.751657  0.782854  0.030635  1
  Bi  Bi8  1  0.750240  0.279681  0.529584  1
  Bi  Bi9  1  0.472439  0.250053  0.721619  1
  Bi  Bi10  1  0.530385  0.750226  0.281592  1
  Bi  Bi11  1  0.251486  0.717820  0.471949  1
  Bi  Bi12  1  0.248260  0.219306  0.970048  1
  Bi  Bi13  1  0.219133  0.969695  0.251765  1
  Bi  Bi14  1  0.281338  0.529368  0.749592  1
  Bi  Bi15  1  0.028903  0.750764  0.778811  1
  O  O16  1  0.011982  0.048325  0.276111  1
  O  O17  1  0.764869  0.035491  0.493033  1
  O  O18  1  0.741201  0.225000  0.269687  1
  O  O19  1  0.981711  0.954428  0.722289  1
  O  O20  1  0.514765  0.236733  0.967852  1
  O  O21  1  0.769300  0.548364  0.532030  1
  O  O22  1  0.732483  0.260226  0.776373  1
  O  O23  1  0.450175  0.466449  0.228118  1
  O  O24  1  0.465332  0.228374  0.450954  1
  O  O25  1  0.780265  0.731036  0.261275  1
  O  O26  1  0.727293  0.996445  0.958729  1
  O  O27  1  0.236135  0.967351  0.515438  1
  O  O28  1  0.486406  0.764083  0.035237  1
  O  O29  1  0.228462  0.452597  0.464477  1
  O  O30  1  0.271345  0.734994  0.221459  1
  O  O31  1  0.548448  0.531844  0.769254  1
  O  O32  1  0.966059  0.506565  0.233606  1
  O  O33  1  0.534511  0.770579  0.550520  1
  O  O34  1  0.275989  0.013501  0.047710  1
  O  O35  1  0.222004  0.271045  0.736985  1
  O  O36  1  0.037524  0.268722  0.008746  1
  O  O37  1  0.033964  0.486162  0.762739  1
  O  O38  1  0.264390  0.780359  0.731126  1
  O  O39  1  0.951222  0.719313  0.985192  1
