# generated using pymatgen
data_CoH12SO10
_symmetry_space_group_name_H-M   'P 1'
_cell_length_a   6.21037274
_cell_length_b   6.21037274
_cell_length_c   24.79430036
_cell_angle_alpha   82.78866829
_cell_angle_beta   97.21133171
_cell_angle_gamma   106.95997124
_symmetry_Int_Tables_number   1
_chemical_formula_structural   CoH12SO10
_chemical_formula_sum   'Co4 H48 S4 O40'
_cell_volume   903.46730897
_cell_formula_units_Z   4
loop_
 _symmetry_equiv_pos_site_id
 _symmetry_equiv_pos_as_xyz
  1  'x, y, z'
loop_
 _atom_site_type_symbol
 _atom_site_label
 _atom_site_symmetry_multiplicity
 _atom_site_fract_x
 _atom_site_fract_y
 _atom_site_fract_z
 _atom_site_occupancy
  Co  Co0  1  0.000000  0.000000  0.500000  1
  Co  Co1  1  0.000000  0.000000  0.000000  1
  Co  Co2  1  0.016316  0.016316  0.750000  1
  Co  Co3  1  0.983684  0.983684  0.250000  1
  H  H4  1  0.975126  0.658426  0.579833  1
  H  H5  1  0.658426  0.975126  0.920167  1
  H  H6  1  0.024874  0.341574  0.420167  1
  H  H7  1  0.341574  0.024874  0.079833  1
  H  H8  1  0.718869  0.648220  0.557310  1
  H  H9  1  0.648220  0.718869  0.942690  1
  H  H10  1  0.281131  0.351780  0.442690  1
  H  H11  1  0.351780  0.281131  0.057310  1
  H  H12  1  0.269989  0.306872  0.566753  1
  H  H13  1  0.306872  0.269989  0.933247  1
  H  H14  1  0.730011  0.693128  0.433247  1
  H  H15  1  0.693128  0.730011  0.066753  1
  H  H16  1  0.327311  0.072615  0.584354  1
  H  H17  1  0.072615  0.327311  0.915646  1
  H  H18  1  0.672689  0.927385  0.415646  1
  H  H19  1  0.927385  0.672689  0.084354  1
  H  H20  1  0.703859  0.246963  0.497201  1
  H  H21  1  0.246963  0.703859  0.002799  1
  H  H22  1  0.296141  0.753037  0.502799  1
  H  H23  1  0.753037  0.296141  0.997201  1
  H  H24  1  0.669543  0.068258  0.551500  1
  H  H25  1  0.068258  0.669543  0.948500  1
  H  H26  1  0.330457  0.931742  0.448500  1
  H  H27  1  0.931742  0.330457  0.051500  1
  H  H28  1  0.687843  0.053490  0.802316  1
  H  H29  1  0.053490  0.687843  0.697684  1
  H  H30  1  0.312157  0.946510  0.197684  1
  H  H31  1  0.946510  0.312157  0.302316  1
  H  H32  1  0.653227  0.789420  0.799191  1
  H  H33  1  0.789420  0.653227  0.700809  1
  H  H34  1  0.346773  0.210580  0.200809  1
  H  H35  1  0.210580  0.346773  0.299191  1
  H  H36  1  0.037399  0.448251  0.780755  1
  H  H37  1  0.448251  0.037399  0.719245  1
  H  H38  1  0.962601  0.551749  0.219245  1
  H  H39  1  0.551749  0.962601  0.280755  1
  H  H40  1  0.110643  0.283183  0.829193  1
  H  H41  1  0.283183  0.110643  0.670807  1
  H  H42  1  0.889357  0.716817  0.170807  1
  H  H43  1  0.716817  0.889357  0.329193  1
  H  H44  1  0.749256  0.076986  0.655565  1
  H  H45  1  0.076986  0.749256  0.844435  1
  H  H46  1  0.250744  0.923014  0.344435  1
  H  H47  1  0.923014  0.250744  0.155565  1
  H  H48  1  0.872941  0.314734  0.679212  1
  H  H49  1  0.314734  0.872941  0.820788  1
  H  H50  1  0.127059  0.685266  0.320788  1
  H  H51  1  0.685266  0.127059  0.179212  1
  S  S52  1  0.421583  0.691283  0.622340  1
  S  S53  1  0.691283  0.421583  0.877660  1
  S  S54  1  0.578417  0.308717  0.377660  1
  S  S55  1  0.308717  0.578417  0.122340  1
  O  O56  1  0.185825  0.650876  0.635731  1
  O  O57  1  0.650876  0.185825  0.864269  1
  O  O58  1  0.814175  0.349124  0.364269  1
  O  O59  1  0.349124  0.814175  0.135731  1
  O  O60  1  0.554073  0.588720  0.665987  1
  O  O61  1  0.588720  0.554073  0.834013  1
  O  O62  1  0.445927  0.411280  0.334013  1
  O  O63  1  0.411280  0.445927  0.165987  1
  O  O64  1  0.421170  0.599079  0.569032  1
  O  O65  1  0.599079  0.421170  0.930968  1
  O  O66  1  0.578830  0.400921  0.430968  1
  O  O67  1  0.400921  0.578830  0.069032  1
  O  O68  1  0.531259  0.946213  0.614337  1
  O  O69  1  0.946213  0.531259  0.885663  1
  O  O70  1  0.468741  0.053787  0.385663  1
  O  O71  1  0.053787  0.468741  0.114337  1
  O  O72  1  0.873980  0.679932  0.546538  1
  O  O73  1  0.679932  0.873980  0.953462  1
  O  O74  1  0.126020  0.320068  0.453462  1
  O  O75  1  0.320068  0.126020  0.046538  1
  O  O76  1  0.202221  0.140009  0.570433  1
  O  O77  1  0.140009  0.202221  0.929567  1
  O  O78  1  0.797779  0.859991  0.429567  1
  O  O79  1  0.859991  0.797779  0.070433  1
  O  O80  1  0.753278  0.123897  0.518878  1
  O  O81  1  0.123897  0.753278  0.981122  1
  O  O82  1  0.246722  0.876103  0.481122  1
  O  O83  1  0.876103  0.246722  0.018878  1
  O  O84  1  0.684824  0.941362  0.776830  1
  O  O85  1  0.941362  0.684824  0.723170  1
  O  O86  1  0.315177  0.058638  0.223170  1
  O  O87  1  0.058638  0.315177  0.276830  1
  O  O88  1  0.096629  0.316346  0.789601  1
  O  O89  1  0.316346  0.096629  0.710399  1
  O  O90  1  0.903371  0.683654  0.210399  1
  O  O91  1  0.683654  0.903371  0.289601  1
  O  O92  1  0.885264  0.162774  0.678178  1
  O  O93  1  0.162774  0.885264  0.821822  1
  O  O94  1  0.114736  0.837226  0.321822  1
  O  O95  1  0.837226  0.114736  0.178178  1
