# generated using pymatgen
data_TmTe3O8
_symmetry_space_group_name_H-M   'P 1'
_cell_length_a   5.57862640
_cell_length_b   6.85995284
_cell_length_c   9.95029726
_cell_angle_alpha   105.36465010
_cell_angle_beta   106.27958240
_cell_angle_gamma   66.00804975
_symmetry_Int_Tables_number   1
_chemical_formula_structural   TmTe3O8
_chemical_formula_sum   'Tm2 Te6 O16'
_cell_volume   328.95527491
_cell_formula_units_Z   2
loop_
 _symmetry_equiv_pos_site_id
 _symmetry_equiv_pos_as_xyz
  1  'x, y, z'
loop_
 _atom_site_type_symbol
 _atom_site_label
 _atom_site_symmetry_multiplicity
 _atom_site_fract_x
 _atom_site_fract_y
 _atom_site_fract_z
 _atom_site_occupancy
  Tm  Tm0  1  0.560867  0.750000  0.750000  1
  Tm  Tm1  1  0.439133  0.250000  0.250000  1
  Te  Te2  1  0.134303  0.916762  0.356091  1
  Te  Te3  1  0.694972  0.583238  0.143909  1
  Te  Te4  1  0.000000  0.500000  0.500000  1
  Te  Te5  1  0.305028  0.416762  0.856091  1
  Te  Te6  1  0.000000  0.000000  0.000000  1
  Te  Te7  1  0.865697  0.083238  0.643909  1
  O  O8  1  0.366264  0.914139  0.132732  1
  O  O9  1  0.217400  0.941702  0.585759  1
  O  O10  1  0.155543  0.994954  0.829541  1
  O  O11  1  0.781685  0.807025  0.596071  1
  O  O12  1  0.147670  0.585861  0.367268  1
  O  O13  1  0.426657  0.441702  0.085759  1
  O  O14  1  0.992639  0.692975  0.903929  1
  O  O15  1  0.679043  0.494954  0.329541  1
  O  O16  1  0.320957  0.505046  0.670459  1
  O  O17  1  0.007361  0.307025  0.096071  1
  O  O18  1  0.573343  0.558298  0.914241  1
  O  O19  1  0.852330  0.414139  0.632732  1
  O  O20  1  0.218315  0.192975  0.403929  1
  O  O21  1  0.844457  0.005046  0.170459  1
  O  O22  1  0.782600  0.058298  0.414241  1
  O  O23  1  0.633736  0.085861  0.867268  1
