# generated using pymatgen
data_Li2CoSiO4
_symmetry_space_group_name_H-M   'P 1'
_cell_length_a   5.40196132
_cell_length_b   5.00890128
_cell_length_c   6.32302958
_cell_angle_alpha   90.00000000
_cell_angle_beta   89.43863027
_cell_angle_gamma   90.00000000
_symmetry_Int_Tables_number   1
_chemical_formula_structural   Li2CoSiO4
_chemical_formula_sum   'Li4 Co2 Si2 O8'
_cell_volume   171.07963310
_cell_formula_units_Z   2
loop_
 _symmetry_equiv_pos_site_id
 _symmetry_equiv_pos_as_xyz
  1  'x, y, z'
loop_
 _atom_site_type_symbol
 _atom_site_label
 _atom_site_symmetry_multiplicity
 _atom_site_fract_x
 _atom_site_fract_y
 _atom_site_fract_z
 _atom_site_occupancy
  Li  Li0  1  0.342414  0.999732  0.267671  1
  Li  Li1  1  0.165015  0.499302  0.500191  1
  Li  Li2  1  0.834985  0.999302  0.499809  1
  Li  Li3  1  0.657586  0.499732  0.732329  1
  Co  Co4  1  0.180903  0.498939  0.006868  1
  Co  Co5  1  0.819097  0.998939  0.993132  1
  Si  Si6  1  0.324839  0.993343  0.743648  1
  Si  Si7  1  0.675161  0.493343  0.256352  1
  O  O8  1  0.180594  0.095508  0.968482  1
  O  O9  1  0.183803  0.104322  0.536671  1
  O  O10  1  0.321093  0.662795  0.751858  1
  O  O11  1  0.615028  0.100023  0.751742  1
  O  O12  1  0.384972  0.600023  0.248258  1
  O  O13  1  0.678907  0.162795  0.248142  1
  O  O14  1  0.816197  0.604322  0.463329  1
  O  O15  1  0.819406  0.595508  0.031518  1
