# generated using pymatgen
data_Li4Ti5Mn4O18
_symmetry_space_group_name_H-M   'P 1'
_cell_length_a   9.10970779
_cell_length_b   26.39404635
_cell_length_c   2.91765548
_cell_angle_alpha   90.00000000
_cell_angle_beta   90.00000000
_cell_angle_gamma   90.00000000
_symmetry_Int_Tables_number   1
_chemical_formula_structural   Li4Ti5Mn4O18
_chemical_formula_sum   'Li8 Ti10 Mn8 O36'
_cell_volume   701.52706377
_cell_formula_units_Z   2
loop_
 _symmetry_equiv_pos_site_id
 _symmetry_equiv_pos_as_xyz
  1  'x, y, z'
loop_
 _atom_site_type_symbol
 _atom_site_label
 _atom_site_symmetry_multiplicity
 _atom_site_fract_x
 _atom_site_fract_y
 _atom_site_fract_z
 _atom_site_occupancy
  Li  Li0  1  0.188962  0.991703  0.000000  1
  Li  Li1  1  0.205495  0.186884  0.000000  1
  Li  Li2  1  0.294505  0.686884  0.000000  1
  Li  Li3  1  0.311038  0.491703  0.000000  1
  Li  Li4  1  0.688962  0.508297  0.000000  1
  Li  Li5  1  0.705495  0.313116  0.000000  1
  Li  Li6  1  0.794505  0.813116  0.000000  1
  Li  Li7  1  0.811038  0.008297  0.000000  1
  Ti  Ti8  1  0.000000  0.500000  0.000000  1
  Ti  Ti9  1  0.997670  0.101931  0.000000  1
  Ti  Ti10  1  0.142940  0.808109  0.500000  1
  Ti  Ti11  1  0.357060  0.308109  0.500000  1
  Ti  Ti12  1  0.502330  0.601931  0.000000  1
  Ti  Ti13  1  0.500000  0.000000  0.000000  1
  Ti  Ti14  1  0.497670  0.398069  0.000000  1
  Ti  Ti15  1  0.642940  0.691891  0.500000  1
  Ti  Ti16  1  0.857060  0.191891  0.500000  1
  Ti  Ti17  1  0.002330  0.898069  0.000000  1
  Mn  Mn18  1  0.014277  0.308300  0.000000  1
  Mn  Mn19  1  0.149390  0.588105  0.500000  1
  Mn  Mn20  1  0.350610  0.088105  0.500000  1
  Mn  Mn21  1  0.485723  0.808300  0.000000  1
  Mn  Mn22  1  0.514277  0.191700  0.000000  1
  Mn  Mn23  1  0.649390  0.911895  0.500000  1
  Mn  Mn24  1  0.850610  0.411895  0.500000  1
  Mn  Mn25  1  0.985723  0.691700  0.000000  1
  O  O26  1  0.988160  0.424163  0.000000  1
  O  O27  1  0.011840  0.575837  0.000000  1
  O  O28  1  0.051010  0.941833  0.500000  1
  O  O29  1  0.052479  0.155586  0.500000  1
  O  O30  1  0.116741  0.669691  0.500000  1
  O  O31  1  0.094172  0.764445  0.000000  1
  O  O32  1  0.146493  0.499417  0.500000  1
  O  O33  1  0.147220  0.290686  0.500000  1
  O  O34  1  0.180224  0.858722  0.000000  1
  O  O35  1  0.207662  0.084922  0.000000  1
  O  O36  1  0.292338  0.584922  0.000000  1
  O  O37  1  0.319776  0.358722  0.000000  1
  O  O38  1  0.352780  0.790686  0.500000  1
  O  O39  1  0.353507  0.999417  0.500000  1
  O  O40  1  0.405828  0.264445  0.000000  1
  O  O41  1  0.383259  0.169691  0.500000  1
  O  O42  1  0.447521  0.655586  0.500000  1
  O  O43  1  0.448990  0.441833  0.500000  1
  O  O44  1  0.488160  0.075837  0.000000  1
  O  O45  1  0.511840  0.924163  0.000000  1
  O  O46  1  0.551010  0.558167  0.500000  1
  O  O47  1  0.552479  0.344414  0.500000  1
  O  O48  1  0.616741  0.830309  0.500000  1
  O  O49  1  0.594172  0.735555  0.000000  1
  O  O50  1  0.646493  0.000583  0.500000  1
  O  O51  1  0.647220  0.209314  0.500000  1
  O  O52  1  0.680224  0.641278  0.000000  1
  O  O53  1  0.707662  0.415078  0.000000  1
  O  O54  1  0.792338  0.915078  0.000000  1
  O  O55  1  0.819776  0.141278  0.000000  1
  O  O56  1  0.852780  0.709314  0.500000  1
  O  O57  1  0.853507  0.500583  0.500000  1
  O  O58  1  0.905828  0.235555  0.000000  1
  O  O59  1  0.883259  0.330309  0.500000  1
  O  O60  1  0.947521  0.844414  0.500000  1
  O  O61  1  0.948990  0.058167  0.500000  1
