# generated using pymatgen
data_Li4Fe3P4(HO8)2
_symmetry_space_group_name_H-M   'P 1'
_cell_length_a   9.25512023
_cell_length_b   9.48039998
_cell_length_c   8.69009149
_cell_angle_alpha   90.00000000
_cell_angle_beta   115.98778673
_cell_angle_gamma   90.00000000
_symmetry_Int_Tables_number   1
_chemical_formula_structural   Li4Fe3P4(HO8)2
_chemical_formula_sum   'Li8 Fe6 P8 H4 O32'
_cell_volume   685.39100562
_cell_formula_units_Z   2
loop_
 _symmetry_equiv_pos_site_id
 _symmetry_equiv_pos_as_xyz
  1  'x, y, z'
loop_
 _atom_site_type_symbol
 _atom_site_label
 _atom_site_symmetry_multiplicity
 _atom_site_fract_x
 _atom_site_fract_y
 _atom_site_fract_z
 _atom_site_occupancy
  Li  Li0  1  0.033920  0.654154  0.581101  1
  Li  Li1  1  0.311364  0.020226  0.716992  1
  Li  Li2  1  0.033920  0.845846  0.081101  1
  Li  Li3  1  0.311364  0.479774  0.216992  1
  Li  Li4  1  0.688636  0.520226  0.783008  1
  Li  Li5  1  0.966080  0.154154  0.918899  1
  Li  Li6  1  0.688636  0.979774  0.283008  1
  Li  Li7  1  0.966080  0.345846  0.418899  1
  Fe  Fe8  1  0.375978  0.367395  0.606291  1
  Fe  Fe9  1  0.624022  0.867395  0.893709  1
  Fe  Fe10  1  0.500000  0.000000  0.500000  1
  Fe  Fe11  1  0.375978  0.132605  0.106291  1
  Fe  Fe12  1  0.624022  0.632605  0.393709  1
  Fe  Fe13  1  0.500000  0.500000  0.000000  1
  P  P14  1  0.169991  0.315244  0.809613  1
  P  P15  1  0.169991  0.184756  0.309613  1
  P  P16  1  0.380441  0.683956  0.565379  1
  P  P17  1  0.619559  0.183955  0.934621  1
  P  P18  1  0.380441  0.816044  0.065379  1
  P  P19  1  0.619559  0.316045  0.434621  1
  P  P20  1  0.830009  0.815244  0.690387  1
  P  P21  1  0.830009  0.684756  0.190387  1
  H  H22  1  0.111517  0.804186  0.860372  1
  H  H23  1  0.111517  0.695814  0.360372  1
  H  H24  1  0.888483  0.304186  0.639628  1
  H  H25  1  0.888483  0.195814  0.139628  1
  O  O26  1  0.005483  0.810760  0.707230  1
  O  O27  1  0.194776  0.799882  0.005846  1
  O  O28  1  0.238062  0.161885  0.842070  1
  O  O29  1  0.275900  0.411241  0.962585  1
  O  O30  1  0.162534  0.373117  0.637961  1
  O  O31  1  0.005483  0.689240  0.207230  1
  O  O32  1  0.194776  0.700118  0.505846  1
  O  O33  1  0.406245  0.865522  0.910758  1
  O  O34  1  0.238062  0.338115  0.342070  1
  O  O35  1  0.275900  0.088759  0.462585  1
  O  O36  1  0.536860  0.328601  0.869665  1
  O  O37  1  0.162534  0.126883  0.137961  1
  O  O38  1  0.446012  0.575608  0.714283  1
  O  O39  1  0.553988  0.075608  0.785717  1
  O  O40  1  0.463140  0.828601  0.630335  1
  O  O41  1  0.406245  0.634478  0.410758  1
  O  O42  1  0.593755  0.365522  0.589242  1
  O  O43  1  0.536860  0.171399  0.369665  1
  O  O44  1  0.446012  0.924392  0.214283  1
  O  O45  1  0.553988  0.424392  0.285717  1
  O  O46  1  0.837466  0.873117  0.862039  1
  O  O47  1  0.463140  0.671399  0.130335  1
  O  O48  1  0.724100  0.911241  0.537415  1
  O  O49  1  0.761938  0.661885  0.657930  1
  O  O50  1  0.593755  0.134478  0.089242  1
  O  O51  1  0.805224  0.299882  0.494154  1
  O  O52  1  0.994517  0.310760  0.792770  1
  O  O53  1  0.837466  0.626883  0.362039  1
  O  O54  1  0.724100  0.588759  0.037415  1
  O  O55  1  0.761938  0.838115  0.157930  1
  O  O56  1  0.805224  0.200118  0.994154  1
  O  O57  1  0.994517  0.189240  0.292770  1
