# generated using pymatgen
data_BaSrI4
_symmetry_space_group_name_H-M   'P 1'
_cell_length_a   19.27963106
_cell_length_b   11.34103204
_cell_length_c   10.93873275
_cell_angle_alpha   90.00000000
_cell_angle_beta   83.18940907
_cell_angle_gamma   90.00000000
_symmetry_Int_Tables_number   1
_chemical_formula_structural   BaSrI4
_chemical_formula_sum   'Ba8 Sr8 I32'
_cell_volume   2374.88667577
_cell_formula_units_Z   8
loop_
 _symmetry_equiv_pos_site_id
 _symmetry_equiv_pos_as_xyz
  1  'x, y, z'
loop_
 _atom_site_type_symbol
 _atom_site_label
 _atom_site_symmetry_multiplicity
 _atom_site_fract_x
 _atom_site_fract_y
 _atom_site_fract_z
 _atom_site_occupancy
  Ba  Ba0  1  0.154470  0.973202  0.598430  1
  Ba  Ba1  1  0.136088  0.720991  0.174698  1
  Ba  Ba2  1  0.345530  0.473202  0.901570  1
  Ba  Ba3  1  0.363912  0.220991  0.325302  1
  Ba  Ba4  1  0.636088  0.779009  0.674698  1
  Ba  Ba5  1  0.654470  0.526798  0.098430  1
  Ba  Ba6  1  0.863912  0.279009  0.825302  1
  Ba  Ba7  1  0.845530  0.026798  0.401570  1
  Sr  Sr8  1  0.088084  0.449773  0.631273  1
  Sr  Sr9  1  0.082165  0.177961  0.077738  1
  Sr  Sr10  1  0.411916  0.949773  0.868727  1
  Sr  Sr11  1  0.417835  0.677961  0.422262  1
  Sr  Sr12  1  0.582165  0.322039  0.577738  1
  Sr  Sr13  1  0.588084  0.050227  0.131273  1
  Sr  Sr14  1  0.917835  0.822039  0.922262  1
  Sr  Sr15  1  0.911916  0.550227  0.368727  1
  I  I16  1  0.049534  0.450623  0.173784  1
  I  I17  1  0.057790  0.210859  0.792422  1
  I  I18  1  0.046393  0.688679  0.490425  1
  I  I19  1  0.091778  0.888967  0.912578  1
  I  I20  1  0.100781  0.999500  0.302791  1
  I  I21  1  0.187065  0.551258  0.825233  1
  I  I22  1  0.195723  0.266459  0.472702  1
  I  I23  1  0.247907  0.247524  0.074034  1
  I  I24  1  0.252093  0.747524  0.425966  1
  I  I25  1  0.304277  0.766459  0.027298  1
  I  I26  1  0.312936  0.051258  0.674767  1
  I  I27  1  0.399219  0.499500  0.197209  1
  I  I28  1  0.408222  0.388967  0.587422  1
  I  I29  1  0.442210  0.710859  0.707578  1
  I  I30  1  0.453607  0.188679  0.009575  1
  I  I31  1  0.450466  0.950623  0.326216  1
  I  I32  1  0.549534  0.049377  0.673784  1
  I  I33  1  0.546393  0.811321  0.990425  1
  I  I34  1  0.557790  0.289141  0.292422  1
  I  I35  1  0.591778  0.611033  0.412578  1
  I  I36  1  0.600781  0.500500  0.802791  1
  I  I37  1  0.687065  0.948742  0.325233  1
  I  I38  1  0.695723  0.233541  0.972702  1
  I  I39  1  0.747907  0.252476  0.574034  1
  I  I40  1  0.752093  0.752476  0.925966  1
  I  I41  1  0.804277  0.733541  0.527298  1
  I  I42  1  0.812935  0.448742  0.174767  1
  I  I43  1  0.899219  0.000500  0.697209  1
  I  I44  1  0.908222  0.111033  0.087422  1
  I  I45  1  0.953607  0.311321  0.509575  1
  I  I46  1  0.942210  0.789141  0.207578  1
  I  I47  1  0.950466  0.549377  0.826216  1
