# generated using pymatgen
data_Li3P3(WO6)2
_symmetry_space_group_name_H-M   'P 1'
_cell_length_a   8.93194124
_cell_length_b   12.54699323
_cell_length_c   8.99862780
_cell_angle_alpha   90.00000000
_cell_angle_beta   90.00000000
_cell_angle_gamma   90.16682662
_symmetry_Int_Tables_number   1
_chemical_formula_structural   Li3P3(WO6)2
_chemical_formula_sum   'Li12 P12 W8 O48'
_cell_volume   1008.46300115
_cell_formula_units_Z   4
loop_
 _symmetry_equiv_pos_site_id
 _symmetry_equiv_pos_as_xyz
  1  'x, y, z'
loop_
 _atom_site_type_symbol
 _atom_site_label
 _atom_site_symmetry_multiplicity
 _atom_site_fract_x
 _atom_site_fract_y
 _atom_site_fract_z
 _atom_site_occupancy
  Li  Li0  1  0.077327  0.694265  0.090495  1
  Li  Li1  1  0.079123  0.758973  0.702259  1
  Li  Li2  1  0.205263  0.177770  0.776178  1
  Li  Li3  1  0.294737  0.322230  0.276178  1
  Li  Li4  1  0.420877  0.741027  0.202259  1
  Li  Li5  1  0.422673  0.805735  0.590495  1
  Li  Li6  1  0.577327  0.194265  0.409505  1
  Li  Li7  1  0.579123  0.258973  0.797741  1
  Li  Li8  1  0.705263  0.677770  0.723822  1
  Li  Li9  1  0.794737  0.822230  0.223822  1
  Li  Li10  1  0.920877  0.241027  0.297741  1
  Li  Li11  1  0.922673  0.305735  0.909505  1
  P  P12  1  0.039814  0.491125  0.248612  1
  P  P13  1  0.101738  0.848115  0.385603  1
  P  P14  1  0.102299  0.150558  0.102433  1
  P  P15  1  0.398262  0.651885  0.885603  1
  P  P16  1  0.397701  0.349442  0.602433  1
  P  P17  1  0.460186  0.008875  0.748612  1
  P  P18  1  0.539814  0.991125  0.251388  1
  P  P19  1  0.602299  0.650558  0.397567  1
  P  P20  1  0.601738  0.348115  0.114397  1
  P  P21  1  0.897701  0.849442  0.897567  1
  P  P22  1  0.898262  0.151885  0.614397  1
  P  P23  1  0.960186  0.508875  0.751388  1
  W  W24  1  0.248111  0.611898  0.536145  1
  W  W25  1  0.251889  0.888102  0.036145  1
  W  W26  1  0.748111  0.111898  0.963855  1
  W  W27  1  0.751889  0.388102  0.463855  1
  W  W28  1  0.247824  0.111112  0.457466  1
  W  W29  1  0.252176  0.388888  0.957466  1
  W  W30  1  0.747824  0.611112  0.042534  1
  W  W31  1  0.752176  0.888888  0.542534  1
  O  O32  1  0.038574  0.435267  0.866740  1
  O  O33  1  0.071840  0.850103  0.879900  1
  O  O34  1  0.067271  0.598309  0.695199  1
  O  O35  1  0.068737  0.173223  0.595612  1
  O  O36  1  0.096616  0.564330  0.370888  1
  O  O37  1  0.142488  0.808058  0.226216  1
  O  O38  1  0.140007  0.965114  0.405078  1
  O  O39  1  0.137031  0.234636  0.977394  1
  O  O40  1  0.160787  0.191976  0.256049  1
  O  O41  1  0.175023  0.433862  0.174601  1
  O  O42  1  0.168512  0.045258  0.057361  1
  O  O43  1  0.188422  0.781754  0.507421  1
  O  O44  1  0.311578  0.718246  0.007421  1
  O  O45  1  0.331488  0.454742  0.557361  1
  O  O46  1  0.324977  0.066138  0.674601  1
  O  O47  1  0.339213  0.308024  0.756049  1
  O  O48  1  0.359993  0.534886  0.905078  1
  O  O49  1  0.362969  0.265364  0.477393  1
  O  O50  1  0.357512  0.691942  0.726216  1
  O  O51  1  0.403384  0.935670  0.870888  1
  O  O52  1  0.432729  0.901691  0.195199  1
  O  O53  1  0.428160  0.649897  0.379900  1
  O  O54  1  0.431263  0.326777  0.095612  1
  O  O55  1  0.461426  0.064733  0.366740  1
  O  O56  1  0.538574  0.935267  0.633260  1
  O  O57  1  0.568737  0.673223  0.904388  1
  O  O58  1  0.571840  0.350103  0.620100  1
  O  O59  1  0.567271  0.098309  0.804801  1
  O  O60  1  0.596616  0.064330  0.129112  1
  O  O61  1  0.642488  0.308058  0.273784  1
  O  O62  1  0.637031  0.734636  0.522606  1
  O  O63  1  0.640007  0.465114  0.094922  1
  O  O64  1  0.660787  0.691976  0.243951  1
  O  O65  1  0.675023  0.933862  0.325399  1
  O  O66  1  0.668512  0.545258  0.442639  1
  O  O67  1  0.688422  0.281754  0.992579  1
  O  O68  1  0.811578  0.218246  0.492579  1
  O  O69  1  0.831488  0.954742  0.942639  1
  O  O70  1  0.824977  0.566138  0.825399  1
  O  O71  1  0.839213  0.808024  0.743951  1
  O  O72  1  0.862969  0.765364  0.022606  1
  O  O73  1  0.859993  0.034886  0.594922  1
  O  O74  1  0.857512  0.191942  0.773784  1
  O  O75  1  0.903384  0.435670  0.629112  1
  O  O76  1  0.931263  0.826777  0.404388  1
  O  O77  1  0.932729  0.401691  0.304801  1
  O  O78  1  0.928160  0.149897  0.120100  1
  O  O79  1  0.961426  0.564733  0.133260  1
