# generated using pymatgen
data_Al2NiO4
_symmetry_space_group_name_H-M   'P 1'
_cell_length_a   5.75876801
_cell_length_b   5.76787463
_cell_length_c   34.40087285
_cell_angle_alpha   59.80135368
_cell_angle_beta   59.62874600
_cell_angle_gamma   59.94767565
_symmetry_Int_Tables_number   1
_chemical_formula_structural   Al2NiO4
_chemical_formula_sum   'Al24 Ni12 O48'
_cell_volume   804.16162413
_cell_formula_units_Z   12
loop_
 _symmetry_equiv_pos_site_id
 _symmetry_equiv_pos_as_xyz
  1  'x, y, z'
loop_
 _atom_site_type_symbol
 _atom_site_label
 _atom_site_symmetry_multiplicity
 _atom_site_fract_x
 _atom_site_fract_y
 _atom_site_fract_z
 _atom_site_occupancy
  Al  Al0  1  0.266618  0.243951  0.040914  1
  Al  Al1  1  0.630484  0.627728  0.019010  1
  Al  Al2  1  0.629455  0.118791  0.103877  1
  Al  Al3  1  0.262563  0.246340  0.207459  1
  Al  Al4  1  0.983382  0.007364  0.333648  1
  Al  Al5  1  0.629455  0.628492  0.103877  1
  Al  Al6  1  0.618565  0.122890  0.271932  1
  Al  Al7  1  0.627243  0.628993  0.185795  1
  Al  Al8  1  0.254971  0.242339  0.376725  1
  Al  Al9  1  0.618565  0.626950  0.271932  1
  Al  Al10  1  0.622723  0.124535  0.438042  1
  Al  Al11  1  0.256596  0.241624  0.543360  1
  Al  Al12  1  0.992303  0.007773  0.665359  1
  Al  Al13  1  0.622723  0.624493  0.438042  1
  Al  Al14  1  0.624433  0.124699  0.604361  1
  Al  Al15  1  0.257541  0.241972  0.709752  1
  Al  Al16  1  0.990921  0.007410  0.499043  1
  Al  Al17  1  0.624433  0.624706  0.604361  1
  Al  Al18  1  0.625515  0.124525  0.770831  1
  Al  Al19  1  0.260517  0.240263  0.876493  1
  Al  Al20  1  0.625515  0.624969  0.770831  1
  Al  Al21  1  0.631644  0.120721  0.937037  1
  Al  Al22  1  0.995782  0.008661  0.831149  1
  Al  Al23  1  0.631644  0.625414  0.937037  1
  Ni  Ni24  1  0.003957  0.004032  0.997997  1
  Ni  Ni25  1  0.993125  0.000053  0.167795  1
  Ni  Ni26  1  0.121883  0.626964  0.104032  1
  Ni  Ni27  1  0.117349  0.626373  0.271650  1
  Ni  Ni28  1  0.123684  0.624515  0.437881  1
  Ni  Ni29  1  0.621527  0.626061  0.354392  1
  Ni  Ni30  1  0.124984  0.624884  0.604208  1
  Ni  Ni31  1  0.624655  0.624628  0.521015  1
  Ni  Ni32  1  0.125753  0.625022  0.770700  1
  Ni  Ni33  1  0.625397  0.624828  0.687491  1
  Ni  Ni34  1  0.127599  0.625184  0.937006  1
  Ni  Ni35  1  0.626779  0.623388  0.854408  1
  O  O36  1  0.400830  0.372069  0.062138  1
  O  O37  1  0.398835  0.372917  0.142555  1
  O  O38  1  0.400830  0.854276  0.062138  1
  O  O39  1  0.862383  0.379132  0.063226  1
  O  O40  1  0.411926  0.863292  0.143582  1
  O  O41  1  0.395701  0.375329  0.228933  1
  O  O42  1  0.839765  0.411431  0.145618  1
  O  O43  1  0.392509  0.372389  0.310452  1
  O  O44  1  0.395701  0.855370  0.228933  1
  O  O45  1  0.843729  0.874896  0.067747  1
  O  O46  1  0.839765  0.875095  0.145618  1
  O  O47  1  0.856482  0.383357  0.229467  1
  O  O48  1  0.370752  0.883387  0.310412  1
  O  O49  1  0.389658  0.357433  0.398611  1
  O  O50  1  0.854848  0.386144  0.310519  1
  O  O51  1  0.828230  0.871802  0.238028  1
  O  O52  1  0.394304  0.370632  0.477406  1
  O  O53  1  0.389658  0.861245  0.398611  1
  O  O54  1  0.854848  0.895894  0.310519  1
  O  O55  1  0.862809  0.371750  0.398949  1
  O  O56  1  0.383697  0.879284  0.476289  1
  O  O57  1  0.391194  0.357323  0.565122  1
  O  O58  1  0.858569  0.388676  0.476604  1
  O  O59  1  0.850757  0.878063  0.398853  1
  O  O60  1  0.395231  0.370783  0.643867  1
  O  O61  1  0.391194  0.860750  0.565122  1
  O  O62  1  0.864361  0.371119  0.565567  1
  O  O63  1  0.858569  0.893132  0.476604  1
  O  O64  1  0.385716  0.879506  0.642546  1
  O  O65  1  0.391837  0.357409  0.731630  1
  O  O66  1  0.859649  0.389271  0.642990  1
  O  O67  1  0.854658  0.879189  0.564494  1
  O  O68  1  0.395837  0.370465  0.810539  1
  O  O69  1  0.391837  0.860973  0.731630  1
  O  O70  1  0.865058  0.371157  0.732104  1
  O  O71  1  0.859649  0.893143  0.642990  1
  O  O72  1  0.389028  0.878874  0.808870  1
  O  O73  1  0.393676  0.353764  0.898773  1
  O  O74  1  0.860270  0.390400  0.809441  1
  O  O75  1  0.400004  0.371036  0.976321  1
  O  O76  1  0.393676  0.859923  0.898773  1
  O  O77  1  0.856259  0.879636  0.730745  1
  O  O78  1  0.868868  0.366495  0.899690  1
  O  O79  1  0.860270  0.892683  0.809441  1
  O  O80  1  0.424631  0.859366  0.976106  1
  O  O81  1  0.843581  0.414928  0.978180  1
  O  O82  1  0.864493  0.880864  0.895629  1
  O  O83  1  0.843581  0.872413  0.978180  1
