# generated using pymatgen
data_Mn4O7F
_symmetry_space_group_name_H-M   'P 1'
_cell_length_a   6.70555708
_cell_length_b   5.49795136
_cell_length_c   6.65606647
_cell_angle_alpha   89.33210068
_cell_angle_beta   96.04333666
_cell_angle_gamma   88.87058690
_symmetry_Int_Tables_number   1
_chemical_formula_structural   Mn4O7F
_chemical_formula_sum   'Mn8 O14 F2'
_cell_volume   243.95363830
_cell_formula_units_Z   2
loop_
 _symmetry_equiv_pos_site_id
 _symmetry_equiv_pos_as_xyz
  1  'x, y, z'
loop_
 _atom_site_type_symbol
 _atom_site_label
 _atom_site_symmetry_multiplicity
 _atom_site_fract_x
 _atom_site_fract_y
 _atom_site_fract_z
 _atom_site_occupancy
  Mn  Mn0  1  0.373597  0.353240  0.137388  1
  Mn  Mn1  1  0.122710  0.651993  0.378033  1
  Mn  Mn2  1  0.880220  0.168099  0.136533  1
  Mn  Mn3  1  0.369897  0.129412  0.610666  1
  Mn  Mn4  1  0.138041  0.857933  0.875711  1
  Mn  Mn5  1  0.629207  0.851666  0.372008  1
  Mn  Mn6  1  0.624201  0.648973  0.873896  1
  Mn  Mn7  1  0.874122  0.355720  0.628344  1
  O  O8  1  0.157192  0.117880  0.080385  1
  O  O9  1  0.171583  0.613025  0.094068  1
  O  O10  1  0.329069  0.387840  0.409808  1
  O  O11  1  0.571169  0.610301  0.154790  1
  O  O12  1  0.078196  0.613477  0.658962  1
  O  O13  1  0.345478  0.884591  0.417084  1
  O  O14  1  0.094207  0.108153  0.669054  1
  O  O15  1  0.595747  0.114640  0.170006  1
  O  O16  1  0.405617  0.887088  0.824614  1
  O  O17  1  0.653527  0.105889  0.576254  1
  O  O18  1  0.905412  0.887616  0.323419  1
  O  O19  1  0.925152  0.395460  0.349804  1
  O  O20  1  0.670483  0.609996  0.591281  1
  O  O21  1  0.822522  0.386198  0.907989  1
  F  F22  1  0.407804  0.366098  0.839049  1
  F  F23  1  0.854848  0.894715  0.920854  1
