# generated using pymatgen
data_LiSiBiO4
_symmetry_space_group_name_H-M   'P 1'
_cell_length_a   8.65702239
_cell_length_b   5.24969789
_cell_length_c   7.85119280
_cell_angle_alpha   90.00000000
_cell_angle_beta   90.00000000
_cell_angle_gamma   90.00000000
_symmetry_Int_Tables_number   1
_chemical_formula_structural   LiSiBiO4
_chemical_formula_sum   'Li4 Si4 Bi4 O16'
_cell_volume   356.81121346
_cell_formula_units_Z   4
loop_
 _symmetry_equiv_pos_site_id
 _symmetry_equiv_pos_as_xyz
  1  'x, y, z'
loop_
 _atom_site_type_symbol
 _atom_site_label
 _atom_site_symmetry_multiplicity
 _atom_site_fract_x
 _atom_site_fract_y
 _atom_site_fract_z
 _atom_site_occupancy
  Li  Li0  1  0.081539  0.974681  0.779184  1
  Li  Li1  1  0.418461  0.974681  0.279183  1
  Li  Li2  1  0.581539  0.474681  0.720816  1
  Li  Li3  1  0.918461  0.474681  0.220817  1
  Si  Si4  1  0.079217  0.986348  0.236515  1
  Si  Si5  1  0.420783  0.986348  0.736515  1
  Si  Si6  1  0.579217  0.486347  0.263485  1
  Si  Si7  1  0.920783  0.486347  0.763485  1
  Bi  Bi8  1  0.271397  0.452729  0.475380  1
  Bi  Bi9  1  0.228603  0.452729  0.975380  1
  Bi  Bi10  1  0.771397  0.952729  0.024620  1
  Bi  Bi11  1  0.728603  0.952729  0.524620  1
  O  O12  1  0.091333  0.345751  0.731465  1
  O  O13  1  0.080749  0.259128  0.343311  1
  O  O14  1  0.081763  0.071736  0.032835  1
  O  O15  1  0.221051  0.792967  0.280380  1
  O  O16  1  0.278949  0.792967  0.780380  1
  O  O17  1  0.418237  0.071736  0.532835  1
  O  O18  1  0.419251  0.259128  0.843311  1
  O  O19  1  0.408667  0.345751  0.231465  1
  O  O20  1  0.591333  0.845751  0.768535  1
  O  O21  1  0.580749  0.759128  0.156689  1
  O  O22  1  0.581763  0.571736  0.467165  1
  O  O23  1  0.721051  0.292967  0.219620  1
  O  O24  1  0.778949  0.292967  0.719620  1
  O  O25  1  0.918237  0.571736  0.967165  1
  O  O26  1  0.919251  0.759128  0.656689  1
  O  O27  1  0.908667  0.845751  0.268535  1
