# generated using pymatgen
data_Mn2(CO3)3
_symmetry_space_group_name_H-M   'P 1'
_cell_length_a   7.64141161
_cell_length_b   7.66498131
_cell_length_c   7.65133096
_cell_angle_alpha   106.95864456
_cell_angle_beta   106.83282267
_cell_angle_gamma   107.58019120
_symmetry_Int_Tables_number   1
_chemical_formula_structural   Mn2(CO3)3
_chemical_formula_sum   'Mn4 C6 O18'
_cell_volume   371.93959009
_cell_formula_units_Z   2
loop_
 _symmetry_equiv_pos_site_id
 _symmetry_equiv_pos_as_xyz
  1  'x, y, z'
loop_
 _atom_site_type_symbol
 _atom_site_label
 _atom_site_symmetry_multiplicity
 _atom_site_fract_x
 _atom_site_fract_y
 _atom_site_fract_z
 _atom_site_occupancy
  Mn  Mn0  1  0.056819  0.532412  0.187700  1
  Mn  Mn1  1  0.180276  0.046306  0.527604  1
  Mn  Mn2  1  0.531990  0.529777  0.539544  1
  Mn  Mn3  1  0.526951  0.179542  0.046942  1
  C  C4  1  0.168001  0.254495  0.919727  1
  C  C5  1  0.254370  0.918987  0.168379  1
  C  C6  1  0.412629  0.813544  0.614579  1
  C  C7  1  0.619608  0.416281  0.809168  1
  C  C8  1  0.806681  0.605604  0.411028  1
  C  C9  1  0.919634  0.168933  0.254968  1
  O  O10  1  0.061124  0.351999  0.949124  1
  O  O11  1  0.103364  0.748309  0.098815  1
  O  O12  1  0.096606  0.106408  0.748710  1
  O  O13  1  0.066934  0.341701  0.309037  1
  O  O14  1  0.380652  0.972796  0.685450  1
  O  O15  1  0.352805  0.709771  0.423598  1
  O  O16  1  0.510145  0.759961  0.738132  1
  O  O17  1  0.350648  0.944288  0.058506  1
  O  O18  1  0.428728  0.363759  0.695351  1
  O  O19  1  0.339923  0.305652  0.063972  1
  O  O20  1  0.307183  0.065022  0.338544  1
  O  O21  1  0.678729  0.381846  0.965855  1
  O  O22  1  0.741033  0.722391  0.505810  1
  O  O23  1  0.747387  0.511327  0.756163  1
  O  O24  1  0.706924  0.415159  0.353670  1
  O  O25  1  0.965667  0.685782  0.384001  1
  O  O26  1  0.946717  0.060806  0.351785  1
  O  O27  1  0.749966  0.098681  0.105311  1
