# generated using pymatgen
data_LiFeBO3
_symmetry_space_group_name_H-M   'P 1'
_cell_length_a   5.65090920
_cell_length_b   7.43355871
_cell_length_c   6.81595443
_cell_angle_alpha   90.01245758
_cell_angle_beta   72.56891289
_cell_angle_gamma   89.99446664
_symmetry_Int_Tables_number   1
_chemical_formula_structural   LiFeBO3
_chemical_formula_sum   'Li4 Fe4 B4 O12'
_cell_volume   273.16535573
_cell_formula_units_Z   4
loop_
 _symmetry_equiv_pos_site_id
 _symmetry_equiv_pos_as_xyz
  1  'x, y, z'
loop_
 _atom_site_type_symbol
 _atom_site_label
 _atom_site_symmetry_multiplicity
 _atom_site_fract_x
 _atom_site_fract_y
 _atom_site_fract_z
 _atom_site_occupancy
  Li  Li0  1  0.262359  0.059499  0.094963  1
  Li  Li1  1  0.237616  0.559544  0.405051  1
  Li  Li2  1  0.762384  0.440456  0.594949  1
  Li  Li3  1  0.737641  0.940501  0.905037  1
  Fe  Fe4  1  0.138410  0.236437  0.741207  1
  Fe  Fe5  1  0.361581  0.736452  0.758834  1
  Fe  Fe6  1  0.638419  0.263548  0.241166  1
  Fe  Fe7  1  0.861590  0.763563  0.258793  1
  B  B8  1  0.095880  0.365241  0.185191  1
  B  B9  1  0.404106  0.865224  0.314823  1
  B  B10  1  0.595894  0.134776  0.685177  1
  B  B11  1  0.904120  0.634759  0.814809  1
  O  O12  1  0.009101  0.237777  0.071454  1
  O  O13  1  0.077834  0.514485  0.697041  1
  O  O14  1  0.332651  0.359389  0.197047  1
  O  O15  1  0.167346  0.859383  0.302929  1
  O  O16  1  0.490885  0.737808  0.428561  1
  O  O17  1  0.577800  0.985443  0.197073  1
  O  O18  1  0.422200  0.014557  0.802927  1
  O  O19  1  0.509115  0.262192  0.571439  1
  O  O20  1  0.832654  0.140617  0.697071  1
  O  O21  1  0.667349  0.640611  0.802953  1
  O  O22  1  0.922166  0.485515  0.302959  1
  O  O23  1  0.990899  0.762223  0.928546  1
