# generated using pymatgen
data_K3LiTi7O16
_symmetry_space_group_name_H-M   'P 1'
_cell_length_a   8.20745269
_cell_length_b   7.10690689
_cell_length_c   7.14073123
_cell_angle_alpha   65.01232126
_cell_angle_beta   82.76120903
_cell_angle_gamma   97.13814088
_symmetry_Int_Tables_number   1
_chemical_formula_structural   K3LiTi7O16
_chemical_formula_sum   'K3 Li1 Ti7 O16'
_cell_volume   367.15170109
_cell_formula_units_Z   1
loop_
 _symmetry_equiv_pos_site_id
 _symmetry_equiv_pos_as_xyz
  1  'x, y, z'
loop_
 _atom_site_type_symbol
 _atom_site_label
 _atom_site_symmetry_multiplicity
 _atom_site_fract_x
 _atom_site_fract_y
 _atom_site_fract_z
 _atom_site_occupancy
  K  K0  1  0.963919  0.269800  0.266870  1
  K  K1  1  0.993093  0.560473  0.564190  1
  K  K2  1  0.968084  0.838305  0.875948  1
  Li  Li3  1  0.626214  0.469235  0.156031  1
  Ti  Ti4  1  0.642172  0.231022  0.909985  1
  Ti  Ti5  1  0.372778  0.283247  0.589839  1
  Ti  Ti6  1  0.371698  0.036568  0.342921  1
  Ti  Ti7  1  0.373732  0.527486  0.849179  1
  Ti  Ti8  1  0.618249  0.966543  0.657707  1
  Ti  Ti9  1  0.641828  0.714464  0.393695  1
  Ti  Ti10  1  0.373020  0.775863  0.095928  1
  O  O11  1  0.766247  0.133664  0.733326  1
  O  O12  1  0.420787  0.041474  0.830504  1
  O  O13  1  0.793774  0.384873  0.960761  1
  O  O14  1  0.553924  0.192682  0.430244  1
  O  O15  1  0.566115  0.453957  0.671105  1
  O  O16  1  0.554952  0.709531  0.917442  1
  O  O17  1  0.224617  0.129795  0.495456  1
  O  O18  1  0.232241  0.372950  0.752491  1
  O  O19  1  0.433629  0.553939  0.337415  1
  O  O20  1  0.766346  0.874281  0.508195  1
  O  O21  1  0.432801  0.287013  0.070771  1
  O  O22  1  0.793786  0.637218  0.266534  1
  O  O23  1  0.421341  0.794517  0.584106  1
  O  O24  1  0.226404  0.608705  0.016881  1
  O  O25  1  0.571651  0.955350  0.169451  1
  O  O26  1  0.233504  0.868773  0.256300  1
