# generated using pymatgen
data_Li2Cr(BO2)5
_symmetry_space_group_name_H-M   'P 1'
_cell_length_a   7.14835019
_cell_length_b   15.61630370
_cell_length_c   7.13318900
_cell_angle_alpha   90.00000000
_cell_angle_beta   89.81638963
_cell_angle_gamma   90.00000000
_symmetry_Int_Tables_number   1
_chemical_formula_structural   Li2Cr(BO2)5
_chemical_formula_sum   'Li8 Cr4 B20 O40'
_cell_volume   796.27955906
_cell_formula_units_Z   4
loop_
 _symmetry_equiv_pos_site_id
 _symmetry_equiv_pos_as_xyz
  1  'x, y, z'
loop_
 _atom_site_type_symbol
 _atom_site_label
 _atom_site_symmetry_multiplicity
 _atom_site_fract_x
 _atom_site_fract_y
 _atom_site_fract_z
 _atom_site_occupancy
  Li  Li0  1  0.098464  0.166935  0.997935  1
  Li  Li1  1  0.098464  0.333065  0.497935  1
  Li  Li2  1  0.305133  0.923422  0.589308  1
  Li  Li3  1  0.305133  0.576578  0.089308  1
  Li  Li4  1  0.694867  0.423422  0.910692  1
  Li  Li5  1  0.694867  0.076578  0.410692  1
  Li  Li6  1  0.901536  0.666935  0.502065  1
  Li  Li7  1  0.901536  0.833065  0.002065  1
  Cr  Cr8  1  0.155506  0.124533  0.529993  1
  Cr  Cr9  1  0.155506  0.375467  0.029993  1
  Cr  Cr10  1  0.844494  0.624533  0.970007  1
  Cr  Cr11  1  0.844494  0.875467  0.470007  1
  B  B12  1  0.206804  0.024045  0.907065  1
  B  B13  1  0.206804  0.475955  0.407065  1
  B  B14  1  0.215674  0.774109  0.523339  1
  B  B15  1  0.215674  0.725891  0.023339  1
  B  B16  1  0.249439  0.504954  0.737871  1
  B  B17  1  0.249439  0.995046  0.237871  1
  B  B18  1  0.320691  0.620838  0.506028  1
  B  B19  1  0.320691  0.879162  0.006028  1
  B  B20  1  0.453014  0.258429  0.500360  1
  B  B21  1  0.453014  0.241571  0.000360  1
  B  B22  1  0.546986  0.758429  0.999640  1
  B  B23  1  0.546986  0.741571  0.499640  1
  B  B24  1  0.679309  0.120838  0.993972  1
  B  B25  1  0.679309  0.379162  0.493972  1
  B  B26  1  0.750561  0.004954  0.762129  1
  B  B27  1  0.750561  0.495046  0.262129  1
  B  B28  1  0.784326  0.274109  0.976661  1
  B  B29  1  0.784326  0.225891  0.476661  1
  B  B30  1  0.793196  0.524045  0.592935  1
  B  B31  1  0.793196  0.975955  0.092935  1
  O  O32  1  0.087913  0.838099  0.542371  1
  O  O33  1  0.087913  0.661901  0.042371  1
  O  O34  1  0.156300  0.085682  0.782051  1
  O  O35  1  0.156300  0.414318  0.282051  1
  O  O36  1  0.171404  0.810247  0.995343  1
  O  O37  1  0.173951  0.452605  0.596443  1
  O  O38  1  0.171404  0.689753  0.495343  1
  O  O39  1  0.173951  0.047395  0.096443  1
  O  O40  1  0.253765  0.478305  0.922312  1
  O  O41  1  0.253765  0.021695  0.422312  1
  O  O42  1  0.267886  0.234086  0.504074  1
  O  O43  1  0.280404  0.946047  0.860789  1
  O  O44  1  0.267886  0.265914  0.004074  1
  O  O45  1  0.280404  0.553953  0.360789  1
  O  O46  1  0.318836  0.583064  0.694308  1
  O  O47  1  0.318836  0.916936  0.194308  1
  O  O48  1  0.404168  0.801190  0.536887  1
  O  O49  1  0.404168  0.698810  0.036887  1
  O  O50  1  0.496265  0.341677  0.531547  1
  O  O51  1  0.503735  0.841677  0.968453  1
  O  O52  1  0.496265  0.158323  0.031547  1
  O  O53  1  0.503735  0.658323  0.468453  1
  O  O54  1  0.595832  0.301190  0.963113  1
  O  O55  1  0.595832  0.198810  0.463113  1
  O  O56  1  0.681164  0.083064  0.805692  1
  O  O57  1  0.681164  0.416936  0.305692  1
  O  O58  1  0.719596  0.446047  0.639211  1
  O  O59  1  0.732114  0.734086  0.995926  1
  O  O60  1  0.719596  0.053953  0.139211  1
  O  O61  1  0.732114  0.765914  0.495926  1
  O  O62  1  0.746235  0.978305  0.577688  1
  O  O63  1  0.746235  0.521695  0.077688  1
  O  O64  1  0.826049  0.952605  0.903557  1
  O  O65  1  0.828596  0.310247  0.504657  1
  O  O66  1  0.826049  0.547395  0.403557  1
  O  O67  1  0.828596  0.189753  0.004657  1
  O  O68  1  0.843700  0.585682  0.717949  1
  O  O69  1  0.843700  0.914318  0.217949  1
  O  O70  1  0.912087  0.338099  0.957629  1
  O  O71  1  0.912087  0.161901  0.457629  1
