# generated using pymatgen
data_Cr2O3
_symmetry_space_group_name_H-M   'P 1'
_cell_length_a   8.17282093
_cell_length_b   9.43434667
_cell_length_c   9.44084338
_cell_angle_alpha   90.00456391
_cell_angle_beta   54.75184675
_cell_angle_gamma   54.71515041
_symmetry_Int_Tables_number   1
_chemical_formula_structural   Cr2O3
_chemical_formula_sum   'Cr16 O24'
_cell_volume   420.19806159
_cell_formula_units_Z   8
loop_
 _symmetry_equiv_pos_site_id
 _symmetry_equiv_pos_as_xyz
  1  'x, y, z'
loop_
 _atom_site_type_symbol
 _atom_site_label
 _atom_site_symmetry_multiplicity
 _atom_site_fract_x
 _atom_site_fract_y
 _atom_site_fract_z
 _atom_site_occupancy
  Cr  Cr0  1  0.997866  0.001973  0.001620  1
  Cr  Cr1  1  0.997299  0.001529  0.501448  1
  Cr  Cr2  1  0.998806  0.501435  0.001358  1
  Cr  Cr3  1  0.997822  0.501926  0.501268  1
  Cr  Cr4  1  0.997506  0.251769  0.289534  1
  Cr  Cr5  1  0.997372  0.252360  0.789969  1
  Cr  Cr6  1  0.499028  0.539261  0.750961  1
  Cr  Cr7  1  0.497550  0.464204  0.251377  1
  Cr  Cr8  1  0.421969  0.289355  0.039858  1
  Cr  Cr9  1  0.420487  0.790911  0.540911  1
  Cr  Cr10  1  0.574865  0.713505  0.963174  1
  Cr  Cr11  1  0.574568  0.212971  0.461931  1
  Cr  Cr12  1  0.497454  0.963265  0.251893  1
  Cr  Cr13  1  0.498155  0.040012  0.751194  1
  Cr  Cr14  1  0.998562  0.751540  0.713437  1
  Cr  Cr15  1  0.998910  0.750920  0.212312  1
  O  O16  1  0.183725  0.549138  0.273972  1
  O  O17  1  0.184079  0.768498  0.774772  1
  O  O18  1  0.182528  0.049405  0.543591  1
  O  O19  1  0.184716  0.267723  0.042315  1
  O  O20  1  0.266162  0.960108  0.227081  1
  O  O21  1  0.266736  0.274581  0.726201  1
  O  O22  1  0.267526  0.773968  0.007208  1
  O  O23  1  0.267045  0.459930  0.506092  1
  O  O24  1  0.277260  0.997091  0.769064  1
  O  O25  1  0.278135  0.226843  0.268122  1
  O  O26  1  0.280908  0.494163  0.953234  1
  O  O27  1  0.279084  0.726874  0.454738  1
  O  O28  1  0.717730  0.776471  0.734963  1
  O  O29  1  0.718414  0.006848  0.233325  1
  O  O30  1  0.716284  0.276329  0.547984  1
  O  O31  1  0.717276  0.508370  0.048806  1
  O  O32  1  0.729664  0.728846  0.276746  1
  O  O33  1  0.730028  0.042623  0.776091  1
  O  O34  1  0.728688  0.229677  0.995961  1
  O  O35  1  0.728641  0.543210  0.495934  1
  O  O36  1  0.812840  0.454276  0.728149  1
  O  O37  1  0.811147  0.236096  0.228552  1
  O  O38  1  0.811789  0.735592  0.960906  1
  O  O39  1  0.811337  0.953934  0.459827  1
