# generated using pymatgen
data_Li6Mn11(OF12)2
_symmetry_space_group_name_H-M   'P 1'
_cell_length_a   8.54034296
_cell_length_b   9.02314248
_cell_length_c   8.38560346
_cell_angle_alpha   107.09843198
_cell_angle_beta   90.18284499
_cell_angle_gamma   109.21672138
_symmetry_Int_Tables_number   1
_chemical_formula_structural   Li6Mn11(OF12)2
_chemical_formula_sum   'Li6 Mn11 O2 F24'
_cell_volume   579.63637594
_cell_formula_units_Z   1
loop_
 _symmetry_equiv_pos_site_id
 _symmetry_equiv_pos_as_xyz
  1  'x, y, z'
loop_
 _atom_site_type_symbol
 _atom_site_label
 _atom_site_symmetry_multiplicity
 _atom_site_fract_x
 _atom_site_fract_y
 _atom_site_fract_z
 _atom_site_occupancy
  Li  Li0  1  0.094274  0.237480  0.411802  1
  Li  Li1  1  0.210670  0.451802  0.085797  1
  Li  Li2  1  0.573428  0.936390  0.293855  1
  Li  Li3  1  0.383496  0.084794  0.704036  1
  Li  Li4  1  0.802539  0.551073  0.925941  1
  Li  Li5  1  0.897458  0.741807  0.581075  1
  Mn  Mn6  1  0.112447  0.851574  0.285381  1
  Mn  Mn7  1  0.217162  0.740393  0.869996  1
  Mn  Mn8  1  0.000500  0.992197  0.008327  1
  Mn  Mn9  1  0.284123  0.672897  0.484271  1
  Mn  Mn10  1  0.391402  0.474243  0.707608  1
  Mn  Mn11  1  0.355774  0.153830  0.151924  1
  Mn  Mn12  1  0.612778  0.851655  0.868610  1
  Mn  Mn13  1  0.630167  0.573375  0.281975  1
  Mn  Mn14  1  0.720711  0.333608  0.530071  1
  Mn  Mn15  1  0.797767  0.253282  0.126138  1
  Mn  Mn16  1  0.882338  0.156865  0.722204  1
  O  O17  1  0.133602  0.064962  0.233181  1
  O  O18  1  0.404047  0.720810  0.718531  1
  F  F19  1  0.001629  0.745443  0.996452  1
  F  F20  1  0.069135  0.676925  0.635596  1
  F  F21  1  0.100635  0.199049  0.621095  1
  F  F22  1  0.147640  0.618901  0.248280  1
  F  F23  1  0.234347  0.516892  0.896168  1
  F  F24  1  0.288408  0.920594  0.496850  1
  F  F25  1  0.392804  0.907533  0.110785  1
  F  F26  1  0.293542  0.427348  0.454653  1
  F  F27  1  0.249393  0.023520  0.890110  1
  F  F28  1  0.404230  0.391763  0.128612  1
  F  F29  1  0.492020  0.285795  0.654579  1
  F  F30  1  0.504605  0.734586  0.342905  1
  F  F31  1  0.627003  0.625122  0.888351  1
  F  F32  1  0.755017  0.986416  0.107120  1
  F  F33  1  0.592292  0.242447  0.277329  1
  F  F34  1  0.691221  0.555011  0.519809  1
  F  F35  1  0.660285  0.108194  0.872747  1
  F  F36  1  0.860514  0.913887  0.765900  1
  F  F37  1  0.705908  0.086172  0.506939  1
  F  F38  1  0.762020  0.464213  0.105616  1
  F  F39  1  0.858622  0.391914  0.759270  1
  F  F40  1  0.875733  0.774079  0.369170  1
  F  F41  1  0.920007  0.322503  0.366816  1
  F  F42  1  0.008307  0.238658  0.994127  1
