# generated using pymatgen
data_LiNiPO4
_symmetry_space_group_name_H-M   'P 1'
_cell_length_a   5.42175039
_cell_length_b   6.20759964
_cell_length_c   5.42175039
_cell_angle_alpha   76.60369296
_cell_angle_beta   62.00030177
_cell_angle_gamma   103.39630704
_symmetry_Int_Tables_number   1
_chemical_formula_structural   LiNiPO4
_chemical_formula_sum   'Li2 Ni2 P2 O8'
_cell_volume   143.89433017
_cell_formula_units_Z   2
loop_
 _symmetry_equiv_pos_site_id
 _symmetry_equiv_pos_as_xyz
  1  'x, y, z'
loop_
 _atom_site_type_symbol
 _atom_site_label
 _atom_site_symmetry_multiplicity
 _atom_site_fract_x
 _atom_site_fract_y
 _atom_site_fract_z
 _atom_site_occupancy
  Li  Li0  1  0.811924  0.250000  0.811924  1
  Li  Li1  1  0.561924  0.750000  0.561924  1
  Ni  Ni2  1  0.438628  0.250000  0.438628  1
  Ni  Ni3  1  0.188628  0.750000  0.188628  1
  P  P4  1  0.121097  0.250000  0.121097  1
  P  P5  1  0.871097  0.750000  0.871097  1
  O  O6  1  0.778296  0.107823  0.269039  1
  O  O7  1  0.289298  0.087543  0.166718  1
  O  O8  1  0.754263  0.587543  0.201754  1
  O  O9  1  0.876862  0.607823  0.670473  1
  O  O10  1  0.166718  0.412457  0.289298  1
  O  O11  1  0.269039  0.392177  0.778296  1
  O  O12  1  0.670473  0.892177  0.876862  1
  O  O13  1  0.201754  0.912457  0.754263  1
