# generated using pymatgen
data_S
_symmetry_space_group_name_H-M   'P 1'
_cell_length_a   9.61960280
_cell_length_b   9.61960280
_cell_length_c   14.14742304
_cell_angle_alpha   106.20316515
_cell_angle_beta   106.20316515
_cell_angle_gamma   100.32473104
_symmetry_Int_Tables_number   1
_chemical_formula_structural   S
_chemical_formula_sum   S32
_cell_volume   1159.35059575
_cell_formula_units_Z   32
loop_
 _symmetry_equiv_pos_site_id
 _symmetry_equiv_pos_as_xyz
  1  'x, y, z'
loop_
 _atom_site_type_symbol
 _atom_site_label
 _atom_site_symmetry_multiplicity
 _atom_site_fract_x
 _atom_site_fract_y
 _atom_site_fract_z
 _atom_site_occupancy
  S  S0  1  0.153053  0.039914  0.910475  1
  S  S1  1  0.129439  0.742577  0.589525  1
  S  S2  1  0.960086  0.846947  0.589525  1
  S  S3  1  0.257423  0.870561  0.910475  1
  S  S4  1  0.846947  0.960086  0.089525  1
  S  S5  1  0.870561  0.257423  0.410475  1
  S  S6  1  0.039914  0.153053  0.410475  1
  S  S7  1  0.742577  0.129439  0.089525  1
  S  S8  1  0.304846  0.243477  0.011462  1
  S  S9  1  0.232015  0.793384  0.488538  1
  S  S10  1  0.756523  0.695154  0.488538  1
  S  S11  1  0.206616  0.767985  0.011462  1
  S  S12  1  0.695154  0.756523  0.988538  1
  S  S13  1  0.767985  0.206616  0.511462  1
  S  S14  1  0.243477  0.304846  0.511462  1
  S  S15  1  0.793384  0.232015  0.988538  1
  S  S16  1  0.274019  0.295937  0.154512  1
  S  S17  1  0.141425  0.619507  0.345488  1
  S  S18  1  0.704063  0.725981  0.345488  1
  S  S19  1  0.380493  0.858575  0.154512  1
  S  S20  1  0.725981  0.704063  0.845488  1
  S  S21  1  0.858575  0.380493  0.654512  1
  S  S22  1  0.295937  0.274019  0.654512  1
  S  S23  1  0.619507  0.141425  0.845488  1
  S  S24  1  0.427861  0.232335  0.255938  1
  S  S25  1  0.976396  0.671923  0.244062  1
  S  S26  1  0.767665  0.572139  0.244062  1
  S  S27  1  0.328077  0.023604  0.255938  1
  S  S28  1  0.572139  0.767665  0.744062  1
  S  S29  1  0.023604  0.328077  0.755938  1
  S  S30  1  0.232335  0.427861  0.755938  1
  S  S31  1  0.671923  0.976396  0.744062  1
