# generated using pymatgen
data_Pr16Si16N27Cl3O14
_symmetry_space_group_name_H-M   'P 1'
_cell_length_a   12.23970815
_cell_length_b   9.97192196
_cell_length_c   11.30995818
_cell_angle_alpha   100.40750706
_cell_angle_beta   103.16365301
_cell_angle_gamma   102.06107177
_symmetry_Int_Tables_number   1
_chemical_formula_structural   Pr16Si16N27Cl3O14
_chemical_formula_sum   'Pr16 Si16 N27 Cl3 O14'
_cell_volume   1276.15946282
_cell_formula_units_Z   1
loop_
 _symmetry_equiv_pos_site_id
 _symmetry_equiv_pos_as_xyz
  1  'x, y, z'
loop_
 _atom_site_type_symbol
 _atom_site_label
 _atom_site_symmetry_multiplicity
 _atom_site_fract_x
 _atom_site_fract_y
 _atom_site_fract_z
 _atom_site_occupancy
  Pr  Pr0  1  0.065812  0.678113  0.093261  1
  Pr  Pr1  1  0.054967  0.296778  0.908617  1
  Pr  Pr2  1  0.223806  0.153131  0.669240  1
  Pr  Pr3  1  0.280290  0.954415  0.991793  1
  Pr  Pr4  1  0.263269  0.742053  0.637865  1
  Pr  Pr5  1  0.401679  0.705155  0.179056  1
  Pr  Pr6  1  0.501961  0.247699  0.601009  1
  Pr  Pr7  1  0.535478  0.728141  0.890920  1
  Pr  Pr8  1  0.651167  0.065867  0.420711  1
  Pr  Pr9  1  0.705475  0.166564  0.056875  1
  Pr  Pr10  1  0.653034  0.588410  0.263732  1
  Pr  Pr11  1  0.775614  0.480523  0.831950  1
  Pr  Pr12  1  0.871893  0.909259  0.549270  1
  Pr  Pr13  1  0.591461  0.650480  0.589898  1
  Pr  Pr14  1  0.996026  0.265328  0.407365  1
  Pr  Pr15  1  0.861238  0.912323  0.872001  1
  Si  Si16  1  0.071628  0.777947  0.397261  1
  Si  Si17  1  0.020065  0.725362  0.797429  1
  Si  Si18  1  0.186252  0.558355  0.348545  1
  Si  Si19  1  0.140730  0.042257  0.308861  1
  Si  Si20  1  0.239981  0.637758  0.884984  1
  Si  Si21  1  0.316177  0.464071  0.536966  1
  Si  Si22  1  0.380755  0.322574  0.080266  1
  Si  Si23  1  0.454456  0.035223  0.848015  1
  Si  Si24  1  0.191174  0.179789  0.164845  1
  Si  Si25  1  0.365420  0.465988  0.336641  1
  Si  Si26  1  0.650794  0.015345  0.712498  1
  Si  Si27  1  0.415414  0.102522  0.262352  1
  Si  Si28  1  0.376444  0.447705  0.917180  1
  Si  Si29  1  0.689328  0.868444  0.201739  1
  Si  Si30  1  0.851084  0.224602  0.684313  1
  Si  Si31  1  0.947832  0.340588  0.133368  1
  N  N32  1  0.162794  0.892455  0.539754  1
  N  N33  1  0.083449  0.462930  0.199197  1
  N  N34  1  0.151250  0.115508  0.999207  1
  N  N35  1  0.108878  0.079456  0.452662  1
  N  N36  1  0.174599  0.487386  0.478274  1
  N  N37  1  0.143054  0.693215  0.775105  1
  N  N38  1  0.231002  0.721095  0.029794  1
  N  N39  1  0.303873  0.334198  0.195778  1
  N  N40  1  0.578816  0.732151  0.110099  1
  N  N41  1  0.485800  0.105037  0.014369  1
  N  N42  1  0.262110  0.064216  0.238552  1
  N  N43  1  0.408240  0.609276  0.647054  1
  N  N44  1  0.436274  0.175715  0.104398  1
  N  N45  1  0.491725  0.576472  0.340093  1
  N  N46  1  0.594474  0.011828  0.839312  1
  N  N47  1  0.723716  0.841175  0.348044  1
  N  N48  1  0.508364  0.201038  0.395047  1
  N  N49  1  0.694214  0.173589  0.674255  1
  N  N50  1  0.865533  0.162332  0.531204  1
  N  N51  1  0.715184  0.890875  0.665534  1
  N  N52  1  0.782204  0.993414  0.155586  1
  N  N53  1  0.904553  0.195180  0.007443  1
  N  N54  1  0.084104  0.161948  0.239974  1
  N  N55  1  0.947198  0.673363  0.895642  1
  N  N56  1  0.224425  0.451025  0.857370  1
  N  N57  1  0.068283  0.962086  0.502086  1
  N  N58  1  0.880536  0.350911  0.983359  1
  Cl  Cl59  1  0.461656  0.909649  0.528742  1
  Cl  Cl60  1  0.657030  0.438953  0.025480  1
  Cl  Cl61  1  0.790781  0.590218  0.496831  1
  O  O62  1  0.922168  0.106864  0.743534  1
  O  O63  1  0.624376  0.458407  0.665635  1
  O  O64  1  0.088773  0.863357  0.275203  1
  O  O65  1  0.142125  0.484282  0.103016  1
  O  O66  1  0.147822  0.336969  0.750502  1
  O  O67  1  0.318211  0.312610  0.575880  1
  O  O68  1  0.411551  0.130539  0.747470  1
  O  O69  1  0.441148  0.948146  0.217999  1
  O  O70  1  0.675170  0.040301  0.208675  1
  O  O71  1  0.078283  0.964840  0.973774  1
  O  O72  1  0.703376  0.714948  0.845691  1
  O  O73  1  0.815176  0.246971  0.448759  1
  O  O74  1  0.877925  0.333327  0.237539  1
  O  O75  1  0.960952  0.823478  0.719129  1
