# generated using pymatgen
data_Mg3(AsO4)2
_symmetry_space_group_name_H-M   'P 1'
_cell_length_a   9.16533570
_cell_length_b   11.56852189
_cell_length_c   6.38598071
_cell_angle_alpha   90.00000000
_cell_angle_beta   99.75182467
_cell_angle_gamma   90.00000000
_symmetry_Int_Tables_number   1
_chemical_formula_structural   Mg3(AsO4)2
_chemical_formula_sum   'Mg12 As8 O32'
_cell_volume   667.31795054
_cell_formula_units_Z   4
loop_
 _symmetry_equiv_pos_site_id
 _symmetry_equiv_pos_as_xyz
  1  'x, y, z'
loop_
 _atom_site_type_symbol
 _atom_site_label
 _atom_site_symmetry_multiplicity
 _atom_site_fract_x
 _atom_site_fract_y
 _atom_site_fract_z
 _atom_site_occupancy
  Mg  Mg0  1  0.081094  0.611615  0.614649  1
  Mg  Mg1  1  0.081094  0.888385  0.114649  1
  Mg  Mg2  1  0.264053  0.916207  0.661219  1
  Mg  Mg3  1  0.362300  0.298201  0.632209  1
  Mg  Mg4  1  0.264053  0.583793  0.161219  1
  Mg  Mg5  1  0.362300  0.201799  0.132209  1
  Mg  Mg6  1  0.637700  0.798201  0.867791  1
  Mg  Mg7  1  0.735947  0.416207  0.838781  1
  Mg  Mg8  1  0.637700  0.701799  0.367791  1
  Mg  Mg9  1  0.735947  0.083793  0.338781  1
  Mg  Mg10  1  0.918906  0.111615  0.885351  1
  Mg  Mg11  1  0.918906  0.388385  0.385351  1
  As  As12  1  0.088221  0.365053  0.892082  1
  As  As13  1  0.088221  0.134947  0.392082  1
  As  As14  1  0.397426  0.580278  0.687357  1
  As  As15  1  0.397426  0.919722  0.187357  1
  As  As16  1  0.602574  0.080278  0.812643  1
  As  As17  1  0.602574  0.419722  0.312643  1
  As  As18  1  0.911779  0.865053  0.607918  1
  As  As19  1  0.911779  0.634947  0.107918  1
  O  O20  1  0.073568  0.788974  0.604577  1
  O  O21  1  0.072294  0.434885  0.650398  1
  O  O22  1  0.073568  0.711026  0.104577  1
  O  O23  1  0.128818  0.054187  0.617585  1
  O  O24  1  0.072294  0.065115  0.150398  1
  O  O25  1  0.235449  0.273807  0.880677  1
  O  O26  1  0.128818  0.445813  0.117585  1
  O  O27  1  0.262817  0.913728  0.965382  1
  O  O28  1  0.235449  0.226193  0.380677  1
  O  O29  1  0.284918  0.615922  0.867159  1
  O  O30  1  0.262817  0.586272  0.465382  1
  O  O31  1  0.284918  0.884078  0.367159  1
  O  O32  1  0.478460  0.445716  0.734784  1
  O  O33  1  0.473445  0.183892  0.834356  1
  O  O34  1  0.478460  0.054284  0.234784  1
  O  O35  1  0.473445  0.316108  0.334356  1
  O  O36  1  0.526555  0.683892  0.665644  1
  O  O37  1  0.521540  0.945715  0.765216  1
  O  O38  1  0.526555  0.816108  0.165644  1
  O  O39  1  0.521540  0.554285  0.265216  1
  O  O40  1  0.715082  0.115922  0.632841  1
  O  O41  1  0.737183  0.413728  0.534618  1
  O  O42  1  0.715082  0.384078  0.132841  1
  O  O43  1  0.764551  0.773807  0.619323  1
  O  O44  1  0.737183  0.086272  0.034618  1
  O  O45  1  0.871182  0.554187  0.882415  1
  O  O46  1  0.764551  0.726193  0.119323  1
  O  O47  1  0.927706  0.934885  0.849602  1
  O  O48  1  0.871182  0.945813  0.382415  1
  O  O49  1  0.926432  0.288974  0.895423  1
  O  O50  1  0.927706  0.565115  0.349602  1
  O  O51  1  0.926432  0.211026  0.395423  1
