# generated using pymatgen
data_LiCuPO4
_symmetry_space_group_name_H-M   'P 1'
_cell_length_a   9.85284006
_cell_length_b   9.98333246
_cell_length_c   16.38568857
_cell_angle_alpha   82.19299087
_cell_angle_beta   90.00000000
_cell_angle_gamma   60.43144895
_symmetry_Int_Tables_number   1
_chemical_formula_structural   LiCuPO4
_chemical_formula_sum   'Li16 Cu16 P16 O64'
_cell_volume   1384.65616429
_cell_formula_units_Z   16
loop_
 _symmetry_equiv_pos_site_id
 _symmetry_equiv_pos_as_xyz
  1  'x, y, z'
loop_
 _atom_site_type_symbol
 _atom_site_label
 _atom_site_symmetry_multiplicity
 _atom_site_fract_x
 _atom_site_fract_y
 _atom_site_fract_z
 _atom_site_occupancy
  Li  Li0  1  0.270144  0.847214  0.872699  1
  Li  Li1  1  0.770904  0.784576  0.873899  1
  Li  Li2  1  0.882642  0.847214  0.372699  1
  Li  Li3  1  0.444520  0.784576  0.373899  1
  Li  Li4  1  0.324815  0.671719  0.622737  1
  Li  Li5  1  0.882685  0.608409  0.621230  1
  Li  Li6  1  0.003466  0.671719  0.122737  1
  Li  Li7  1  0.508905  0.608409  0.121230  1
  Li  Li8  1  0.272821  0.347096  0.873673  1
  Li  Li9  1  0.770489  0.286394  0.871936  1
  Li  Li10  1  0.380083  0.347096  0.373673  1
  Li  Li11  1  0.943118  0.286394  0.371936  1
  Li  Li12  1  0.826519  0.168115  0.621361  1
  Li  Li13  1  0.382130  0.112513  0.621254  1
  Li  Li14  1  0.005366  0.168115  0.121361  1
  Li  Li15  1  0.505357  0.112513  0.121254  1
  Cu  Cu16  1  0.815099  0.988571  0.997934  1
  Cu  Cu17  1  0.196330  0.988571  0.497934  1
  Cu  Cu18  1  0.579326  0.720966  0.747977  1
  Cu  Cu19  1  0.076278  0.670194  0.751163  1
  Cu  Cu20  1  0.313984  0.544048  0.999596  1
  Cu  Cu21  1  0.699708  0.720966  0.247977  1
  Cu  Cu22  1  0.814841  0.486755  0.997419  1
  Cu  Cu23  1  0.253528  0.670194  0.251163  1
  Cu  Cu24  1  0.141968  0.544048  0.499596  1
  Cu  Cu25  1  0.698404  0.486755  0.497419  1
  Cu  Cu26  1  0.572567  0.225935  0.748082  1
  Cu  Cu27  1  0.082306  0.164814  0.749721  1
  Cu  Cu28  1  0.315835  0.043852  0.998573  1
  Cu  Cu29  1  0.201499  0.225935  0.248082  1
  Cu  Cu30  1  0.752880  0.164814  0.249721  1
  Cu  Cu31  1  0.640313  0.043852  0.498573  1
  P  P32  1  0.914010  0.985477  0.808401  1
  P  P33  1  0.100513  0.985477  0.308401  1
  P  P34  1  0.983354  0.850373  0.559682  1
  P  P35  1  0.541671  0.793728  0.559229  1
  P  P36  1  0.166273  0.850373  0.059682  1
  P  P37  1  0.664601  0.793728  0.059229  1
  P  P38  1  0.416158  0.539465  0.810086  1
  P  P39  1  0.917015  0.482520  0.808059  1
  P  P40  1  0.044376  0.539465  0.310086  1
  P  P41  1  0.600464  0.482520  0.308059  1
  P  P42  1  0.482634  0.351549  0.560520  1
  P  P43  1  0.042401  0.294215  0.558246  1
  P  P44  1  0.165816  0.351549  0.060520  1
  P  P45  1  0.663384  0.294215  0.058246  1
  P  P46  1  0.417382  0.035931  0.809749  1
  P  P47  1  0.546686  0.035931  0.309749  1
  O  O48  1  0.338738  0.998943  0.884583  1
  O  O49  1  0.077584  0.968666  0.796772  1
  O  O50  1  0.577808  0.892589  0.799551  1
  O  O51  1  0.743283  0.835441  0.985590  1
  O  O52  1  0.662319  0.998943  0.384583  1
  O  O53  1  0.556777  0.936325  0.573895  1
  O  O54  1  0.235271  0.775060  0.981950  1
  O  O55  1  0.929970  0.820946  0.818030  1
  O  O56  1  0.953749  0.968666  0.296772  1
  O  O57  1  0.132574  0.864130  0.572583  1
  O  O58  1  0.529603  0.892589  0.299551  1
  O  O59  1  0.421275  0.835441  0.485590  1
  O  O60  1  0.506898  0.936325  0.073895  1
  O  O61  1  0.480645  0.742384  0.638307  1
  O  O62  1  0.979333  0.741781  0.635559  1
  O  O63  1  0.442187  0.676787  0.822403  1
  O  O64  1  0.989669  0.775060  0.481950  1
  O  O65  1  0.249084  0.820946  0.318030  1
  O  O66  1  0.003296  0.864130  0.072583  1
  O  O67  1  0.703479  0.660590  0.541601  1
  O  O68  1  0.842313  0.559212  0.884635  1
  O  O69  1  0.299776  0.586533  0.733088  1
  O  O70  1  0.805263  0.589925  0.730936  1
  O  O71  1  0.776971  0.742384  0.138307  1
  O  O72  1  0.278886  0.741781  0.135559  1
  O  O73  1  0.881027  0.676787  0.322403  1
  O  O74  1  0.342736  0.498300  0.885980  1
  O  O75  1  0.079325  0.470212  0.798526  1
  O  O76  1  0.338545  0.517883  0.550577  1
  O  O77  1  0.635931  0.660590  0.041601  1
  O  O78  1  0.598475  0.559212  0.384635  1
  O  O79  1  0.113690  0.586533  0.233088  1
  O  O80  1  0.604812  0.589925  0.230936  1
  O  O81  1  0.575373  0.396180  0.797521  1
  O  O82  1  0.740951  0.335927  0.983991  1
  O  O83  1  0.158964  0.498300  0.385980  1
  O  O84  1  0.058072  0.435623  0.573697  1
  O  O85  1  0.239033  0.275114  0.983708  1
  O  O86  1  0.937128  0.316250  0.817786  1
  O  O87  1  0.450463  0.470212  0.298526  1
  O  O88  1  0.143573  0.517883  0.050577  1
  O  O89  1  0.633846  0.362018  0.572554  1
  O  O90  1  0.028447  0.396180  0.297521  1
  O  O91  1  0.923123  0.335927  0.483991  1
  O  O92  1  0.506305  0.435623  0.073697  1
  O  O93  1  0.477323  0.244709  0.637603  1
  O  O94  1  0.979361  0.243021  0.636176  1
  O  O95  1  0.485853  0.275114  0.483708  1
  O  O96  1  0.440755  0.174788  0.822705  1
  O  O97  1  0.746622  0.316250  0.317786  1
  O  O98  1  0.004136  0.362018  0.072554  1
  O  O99  1  0.204944  0.160766  0.540878  1
  O  O100  1  0.844821  0.060758  0.886172  1
  O  O101  1  0.799290  0.096707  0.733220  1
  O  O102  1  0.306724  0.078788  0.730647  1
  O  O103  1  0.277967  0.244709  0.137603  1
  O  O104  1  0.777618  0.243021  0.136176  1
  O  O105  1  0.384457  0.174788  0.322705  1
  O  O106  1  0.634290  0.160766  0.040878  1
  O  O107  1  0.837237  0.015335  0.550042  1
  O  O108  1  0.094421  0.060758  0.386172  1
  O  O109  1  0.104001  0.096707  0.233220  1
  O  O110  1  0.614488  0.078788  0.230647  1
  O  O111  1  0.147429  0.015335  0.050042  1
