# generated using pymatgen
data_Li2VO2F
_symmetry_space_group_name_H-M   'P 1'
_cell_length_a   3.02528622
_cell_length_b   9.07367467
_cell_length_c   8.96513138
_cell_angle_alpha   109.46241774
_cell_angle_beta   89.97489153
_cell_angle_gamma   91.13921382
_symmetry_Int_Tables_number   1
_chemical_formula_structural   Li2VO2F
_chemical_formula_sum   'Li8 V4 O8 F4'
_cell_volume   231.98422431
_cell_formula_units_Z   4
loop_
 _symmetry_equiv_pos_site_id
 _symmetry_equiv_pos_as_xyz
  1  'x, y, z'
loop_
 _atom_site_type_symbol
 _atom_site_label
 _atom_site_symmetry_multiplicity
 _atom_site_fract_x
 _atom_site_fract_y
 _atom_site_fract_z
 _atom_site_occupancy
  Li  Li0  1  0.000886  0.088860  0.250725  1
  Li  Li1  1  0.994890  0.614971  0.739024  1
  Li  Li2  1  0.999358  0.409786  0.258180  1
  Li  Li3  1  0.005107  0.880290  0.744253  1
  Li  Li4  1  0.499910  0.342008  0.498089  1
  Li  Li5  1  0.500921  0.152951  0.000887  1
  Li  Li6  1  0.498176  0.672570  0.530063  1
  Li  Li7  1  0.499656  0.852541  0.972678  1
  V  V8  1  0.002765  0.753765  0.259884  1
  V  V9  1  0.000551  0.248157  0.747499  1
  V  V10  1  0.490134  0.481796  0.997391  1
  V  V11  1  0.507336  0.003161  0.503105  1
  O  O12  1  0.992526  0.159916  0.504124  1
  O  O13  1  -0.001645  0.337680  0.997196  1
  O  O14  1  0.015129  0.841962  0.491690  1
  O  O15  1  0.498795  0.906421  0.258211  1
  O  O16  1  0.496611  0.593088  0.230888  1
  O  O17  1  0.489556  0.096235  0.741868  1
  O  O18  1  0.511966  0.405390  0.762128  1
  O  O19  1  0.500691  0.749891  0.754412  1
  F  F20  1  0.995263  0.654793  0.004648  1
  F  F21  1  0.999715  0.009257  0.013195  1
  F  F22  1  0.001768  0.492600  0.490085  1
  F  F23  1  0.499856  0.251911  0.249776  1
