# generated using pymatgen
data_CaAl2H16N9
_symmetry_space_group_name_H-M   'P 1'
_cell_length_a   9.99346585
_cell_length_b   8.87298140
_cell_length_c   9.99346585
_cell_angle_alpha   114.17232798
_cell_angle_beta   118.88192831
_cell_angle_gamma   99.95051379
_symmetry_Int_Tables_number   1
_chemical_formula_structural   CaAl2H16N9
_chemical_formula_sum   'Ca2 Al4 H32 N18'
_cell_volume   627.10685959
_cell_formula_units_Z   2
loop_
 _symmetry_equiv_pos_site_id
 _symmetry_equiv_pos_as_xyz
  1  'x, y, z'
loop_
 _atom_site_type_symbol
 _atom_site_label
 _atom_site_symmetry_multiplicity
 _atom_site_fract_x
 _atom_site_fract_y
 _atom_site_fract_z
 _atom_site_occupancy
  Ca  Ca0  1  0.936801  0.750000  0.186801  1
  Ca  Ca1  1  0.063199  0.250000  0.813199  1
  Al  Al2  1  0.827285  0.312288  0.031951  1
  Al  Al3  1  0.780337  0.812288  0.485003  1
  Al  Al4  1  0.172715  0.687712  0.968049  1
  Al  Al5  1  0.219663  0.187712  0.514997  1
  H  H6  1  0.035965  0.187343  0.072493  1
  H  H7  1  0.614850  0.687343  0.151378  1
  H  H8  1  0.964035  0.812657  0.927507  1
  H  H9  1  0.385150  0.312657  0.848622  1
  H  H10  1  0.855058  0.043126  0.860131  1
  H  H11  1  0.682994  0.543126  0.188067  1
  H  H12  1  0.144942  0.956874  0.139869  1
  H  H13  1  0.317006  0.456874  0.811933  1
  H  H14  1  0.526397  0.113334  0.910570  1
  H  H15  1  0.702764  0.613334  0.586937  1
  H  H16  1  0.473603  0.886666  0.089430  1
  H  H17  1  0.297236  0.386666  0.413063  1
  H  H18  1  0.670613  0.166955  0.117344  1
  H  H19  1  0.549610  0.666955  0.496342  1
  H  H20  1  0.329387  0.833045  0.882656  1
  H  H21  1  0.450390  0.333045  0.503658  1
  H  H22  1  0.777906  0.394763  0.803099  1
  H  H23  1  0.091665  0.894763  0.616857  1
  H  H24  1  0.222094  0.605237  0.196901  1
  H  H25  1  0.908335  0.105237  0.383143  1
  H  H26  1  0.623027  0.382363  0.819841  1
  H  H27  1  0.062521  0.882363  0.759336  1
  H  H28  1  0.376973  0.617637  0.180159  1
  H  H29  1  0.937479  0.117637  0.240664  1
  H  H30  1  0.973798  0.549209  0.371633  1
  H  H31  1  0.677576  0.049209  0.575411  1
  H  H32  1  0.026202  0.450791  0.628367  1
  H  H33  1  0.322424  0.950791  0.424589  1
  H  H34  1  0.122656  0.554776  0.344623  1
  H  H35  1  0.710154  0.054776  0.432120  1
  H  H36  1  0.877344  0.445224  0.655377  1
  H  H37  1  0.289846  0.945224  0.567880  1
  N  N38  1  0.938764  0.182630  0.963807  1
  N  N39  1  0.718822  0.682630  0.243866  1
  N  N40  1  0.061236  0.817370  0.036193  1
  N  N41  1  0.281178  0.317370  0.756134  1
  N  N42  1  0.649110  0.205441  0.028792  1
  N  N43  1  0.676649  0.705441  0.556331  1
  N  N44  1  0.350890  0.794559  0.971208  1
  N  N45  1  0.323351  0.294559  0.443669  1
  N  N46  1  0.750275  0.414683  0.893224  1
  N  N47  1  0.021459  0.914683  0.664408  1
  N  N48  1  0.249725  0.585317  0.106776  1
  N  N49  1  0.978541  0.085317  0.335592  1
  N  N50  1  0.996798  0.526357  0.277628  1
  N  N51  1  0.748729  0.026357  0.529559  1
  N  N52  1  0.003202  0.473643  0.722372  1
  N  N53  1  0.251271  0.973643  0.470441  1
  N  N54  1  0.353160  0.250000  0.103160  1
  N  N55  1  0.646840  0.750000  0.896840  1
