# generated using pymatgen
data_LiMnPH2O5
_symmetry_space_group_name_H-M   'P 1'
_cell_length_a   10.43032828
_cell_length_b   17.01420773
_cell_length_c   5.13860003
_cell_angle_alpha   90.00000000
_cell_angle_beta   90.00000000
_cell_angle_gamma   90.00000000
_symmetry_Int_Tables_number   1
_chemical_formula_structural   LiMnPH2O5
_chemical_formula_sum   'Li8 Mn8 P8 H16 O40'
_cell_volume   911.91534437
_cell_formula_units_Z   8
loop_
 _symmetry_equiv_pos_site_id
 _symmetry_equiv_pos_as_xyz
  1  'x, y, z'
loop_
 _atom_site_type_symbol
 _atom_site_label
 _atom_site_symmetry_multiplicity
 _atom_site_fract_x
 _atom_site_fract_y
 _atom_site_fract_z
 _atom_site_occupancy
  Li  Li0  1  0.176450  0.496168  0.469849  1
  Li  Li1  1  0.176450  0.996168  0.530151  1
  Li  Li2  1  0.396245  0.247804  0.909793  1
  Li  Li3  1  0.396245  0.747804  0.090207  1
  Li  Li4  1  0.676450  0.003832  0.469849  1
  Li  Li5  1  0.676450  0.503832  0.530151  1
  Li  Li6  1  0.896245  0.752196  0.090207  1
  Li  Li7  1  0.896245  0.252196  0.909793  1
  Mn  Mn8  1  0.149375  0.189936  0.541389  1
  Mn  Mn9  1  0.149375  0.689936  0.458611  1
  Mn  Mn10  1  0.420514  0.942164  0.110386  1
  Mn  Mn11  1  0.420514  0.442164  0.889614  1
  Mn  Mn12  1  0.649375  0.810064  0.458611  1
  Mn  Mn13  1  0.649375  0.310064  0.541389  1
  Mn  Mn14  1  0.920514  0.557836  0.110386  1
  Mn  Mn15  1  0.920514  0.057836  0.889614  1
  P  P16  1  0.226713  0.091842  0.013095  1
  P  P17  1  0.226713  0.591842  0.986905  1
  P  P18  1  0.345907  0.341424  0.411428  1
  P  P19  1  0.345907  0.841424  0.588572  1
  P  P20  1  0.726713  0.908158  0.986905  1
  P  P21  1  0.726713  0.408158  0.013095  1
  P  P22  1  0.845907  0.658576  0.588572  1
  P  P23  1  0.845907  0.158576  0.411428  1
  H  H24  1  0.005537  0.370748  0.091157  1
  H  H25  1  0.005537  0.870747  0.908843  1
  H  H26  1  0.050262  0.381541  0.636342  1
  H  H27  1  0.050262  0.881541  0.363658  1
  H  H28  1  0.108051  0.305802  0.132225  1
  H  H29  1  0.108051  0.805802  0.867775  1
  H  H30  1  0.448467  0.053281  0.611182  1
  H  H31  1  0.448467  0.553281  0.388818  1
  H  H32  1  0.505537  0.129253  0.091157  1
  H  H33  1  0.505537  0.629253  0.908843  1
  H  H34  1  0.550262  0.618459  0.363658  1
  H  H35  1  0.550262  0.118459  0.636342  1
  H  H36  1  0.608051  0.694198  0.867775  1
  H  H37  1  0.608051  0.194198  0.132225  1
  H  H38  1  0.948467  0.446719  0.611182  1
  H  H39  1  0.948467  0.946719  0.388818  1
  O  O40  1  0.026784  0.426906  0.528447  1
  O  O41  1  0.026784  0.926906  0.471553  1
  O  O42  1  0.038379  0.322364  0.013016  1
  O  O43  1  0.038379  0.822364  0.986984  1
  O  O44  1  0.118753  0.049120  0.856470  1
  O  O45  1  0.118753  0.549120  0.143530  1
  O  O46  1  0.192243  0.593737  0.692871  1
  O  O47  1  0.192243  0.093737  0.307129  1
  O  O48  1  0.217188  0.796587  0.574005  1
  O  O49  1  0.217188  0.296587  0.425995  1
  O  O50  1  0.241620  0.176617  0.902274  1
  O  O51  1  0.241620  0.676617  0.097726  1
  O  O52  1  0.329581  0.925945  0.473780  1
  O  O53  1  0.329581  0.425945  0.526220  1
  O  O54  1  0.353999  0.046669  0.970087  1
  O  O55  1  0.353999  0.546669  0.029913  1
  O  O56  1  0.388121  0.345580  0.122256  1
  O  O57  1  0.388121  0.845580  0.877744  1
  O  O58  1  0.450222  0.297665  0.574966  1
  O  O59  1  0.450222  0.797665  0.425034  1
  O  O60  1  0.526784  0.073094  0.528447  1
  O  O61  1  0.526784  0.573094  0.471553  1
  O  O62  1  0.538379  0.177636  0.013016  1
  O  O63  1  0.538379  0.677636  0.986984  1
  O  O64  1  0.618753  0.950880  0.143530  1
  O  O65  1  0.618753  0.450880  0.856470  1
  O  O66  1  0.692243  0.906263  0.692871  1
  O  O67  1  0.692243  0.406263  0.307129  1
  O  O68  1  0.717188  0.703413  0.574005  1
  O  O69  1  0.717188  0.203413  0.425995  1
  O  O70  1  0.741620  0.323383  0.902274  1
  O  O71  1  0.741620  0.823383  0.097726  1
  O  O72  1  0.829581  0.574055  0.473780  1
  O  O73  1  0.829581  0.074055  0.526220  1
  O  O74  1  0.853999  0.453331  0.970087  1
  O  O75  1  0.853999  0.953331  0.029913  1
  O  O76  1  0.888121  0.654420  0.877744  1
  O  O77  1  0.888121  0.154420  0.122256  1
  O  O78  1  0.950222  0.702335  0.425034  1
  O  O79  1  0.950222  0.202335  0.574966  1
