# generated using pymatgen
data_Li2FePCO7
_symmetry_space_group_name_H-M   'P 1'
_cell_length_a   8.32042110
_cell_length_b   10.16794998
_cell_length_c   6.48879721
_cell_angle_alpha   90.00000000
_cell_angle_beta   90.00000000
_cell_angle_gamma   85.26872855
_symmetry_Int_Tables_number   1
_chemical_formula_structural   Li2FePCO7
_chemical_formula_sum   'Li8 Fe4 P4 C4 O28'
_cell_volume   547.09221078
_cell_formula_units_Z   4
loop_
 _symmetry_equiv_pos_site_id
 _symmetry_equiv_pos_as_xyz
  1  'x, y, z'
loop_
 _atom_site_type_symbol
 _atom_site_label
 _atom_site_symmetry_multiplicity
 _atom_site_fract_x
 _atom_site_fract_y
 _atom_site_fract_z
 _atom_site_occupancy
  Li  Li0  1  0.096534  0.381505  0.246247  1
  Li  Li1  1  0.096534  0.881505  0.253753  1
  Li  Li2  1  0.274683  0.125610  0.034325  1
  Li  Li3  1  0.274683  0.625610  0.465675  1
  Li  Li4  1  0.725317  0.374390  0.534325  1
  Li  Li5  1  0.725317  0.874390  0.965675  1
  Li  Li6  1  0.903466  0.118495  0.746247  1
  Li  Li7  1  0.903466  0.618495  0.753753  1
  Fe  Fe8  1  0.329865  0.399873  0.757818  1
  Fe  Fe9  1  0.329865  0.899873  0.742182  1
  Fe  Fe10  1  0.670135  0.100127  0.257818  1
  Fe  Fe11  1  0.670135  0.600127  0.242182  1
  P  P12  1  0.420356  0.360725  0.254882  1
  P  P13  1  0.420356  0.860725  0.245118  1
  P  P14  1  0.579644  0.139275  0.754882  1
  P  P15  1  0.579644  0.639275  0.745118  1
  C  C16  1  0.039908  0.351007  0.744553  1
  C  C17  1  0.039908  0.851007  0.755447  1
  C  C18  1  0.960092  0.148993  0.244553  1
  C  C19  1  0.960092  0.648993  0.255447  1
  O  O20  1  0.076913  0.474152  0.740212  1
  O  O21  1  0.102187  0.183759  0.219997  1
  O  O22  1  0.076913  0.974152  0.759788  1
  O  O23  1  0.162300  0.263262  0.773752  1
  O  O24  1  0.102187  0.683759  0.280003  1
  O  O25  1  0.162300  0.763262  0.726248  1
  O  O26  1  0.318116  0.403561  0.063491  1
  O  O27  1  0.304371  0.401770  0.437041  1
  O  O28  1  0.304371  0.901770  0.062959  1
  O  O29  1  0.318116  0.903561  0.436509  1
  O  O30  1  0.420082  0.072917  0.777493  1
  O  O31  1  0.461167  0.208539  0.242368  1
  O  O32  1  0.420082  0.572917  0.722507  1
  O  O33  1  0.461167  0.708539  0.257632  1
  O  O34  1  0.538833  0.291461  0.742368  1
  O  O35  1  0.579918  0.427083  0.277493  1
  O  O36  1  0.538833  0.791461  0.757632  1
  O  O37  1  0.579918  0.927083  0.222507  1
  O  O38  1  0.681884  0.096439  0.563491  1
  O  O39  1  0.695629  0.098230  0.937041  1
  O  O40  1  0.695629  0.598230  0.562959  1
  O  O41  1  0.681884  0.596439  0.936509  1
  O  O42  1  0.837700  0.236738  0.273752  1
  O  O43  1  0.897813  0.316241  0.719997  1
  O  O44  1  0.837700  0.736738  0.226248  1
  O  O45  1  0.923087  0.025848  0.240212  1
  O  O46  1  0.897813  0.816241  0.780003  1
  O  O47  1  0.923087  0.525848  0.259788  1
