# generated using pymatgen
data_V2(OF)3
_symmetry_space_group_name_H-M   'P 1'
_cell_length_a   5.17339478
_cell_length_b   13.23778602
_cell_length_c   5.22743234
_cell_angle_alpha   88.84652947
_cell_angle_beta   119.53039883
_cell_angle_gamma   89.76790062
_symmetry_Int_Tables_number   1
_chemical_formula_structural   V2(OF)3
_chemical_formula_sum   'V6 O9 F9'
_cell_volume   311.38786478
_cell_formula_units_Z   3
loop_
 _symmetry_equiv_pos_site_id
 _symmetry_equiv_pos_as_xyz
  1  'x, y, z'
loop_
 _atom_site_type_symbol
 _atom_site_label
 _atom_site_symmetry_multiplicity
 _atom_site_fract_x
 _atom_site_fract_y
 _atom_site_fract_z
 _atom_site_occupancy
  V  V0  1  0.995445  0.512769  0.973016  1
  V  V1  1  0.952683  0.001367  0.981874  1
  V  V2  1  0.641402  0.842460  0.324894  1
  V  V3  1  0.376269  0.670760  0.675306  1
  V  V4  1  0.716216  0.334615  0.347390  1
  V  V5  1  0.333205  0.175062  0.639971  1
  O  O6  1  0.349279  0.917118  0.249791  1
  O  O7  1  0.977135  0.247928  0.573421  1
  O  O8  1  0.775988  0.917822  0.090773  1
  O  O9  1  0.083625  0.582867  0.759817  1
  O  O10  1  0.410505  0.249973  0.428060  1
  O  O11  1  0.579249  0.745877  0.581736  1
  O  O12  1  0.910247  0.411525  0.252943  1
  O  O13  1  0.670541  0.080983  0.762478  1
  O  O14  1  0.662445  0.580827  0.907917  1
  F  F15  1  0.998468  0.745885  0.420532  1
  F  F16  1  0.407967  0.748857  0.997874  1
  F  F17  1  0.325420  0.412890  0.086180  1
  F  F18  1  0.074297  0.079898  0.334174  1
  F  F19  1  0.256885  0.579429  0.338512  1
  F  F20  1  0.580233  0.249480  0.008665  1
  F  F21  1  0.245890  0.079515  0.923509  1
  F  F22  1  0.740732  0.415061  0.665879  1
  F  F23  1  0.935873  0.917035  0.675286  1
