# generated using pymatgen
data_LiCuPO4
_symmetry_space_group_name_H-M   'P 1'
_cell_length_a   10.11209676
_cell_length_b   6.83575809
_cell_length_c   5.05945897
_cell_angle_alpha   89.99589590
_cell_angle_beta   89.99803492
_cell_angle_gamma   90.00566803
_symmetry_Int_Tables_number   1
_chemical_formula_structural   LiCuPO4
_chemical_formula_sum   'Li4 Cu4 P4 O16'
_cell_volume   349.72926666
_cell_formula_units_Z   4
loop_
 _symmetry_equiv_pos_site_id
 _symmetry_equiv_pos_as_xyz
  1  'x, y, z'
loop_
 _atom_site_type_symbol
 _atom_site_label
 _atom_site_symmetry_multiplicity
 _atom_site_fract_x
 _atom_site_fract_y
 _atom_site_fract_z
 _atom_site_occupancy
  Li  Li0  1  0.147027  0.512008  0.242419  1
  Li  Li1  1  0.352868  0.011996  0.742482  1
  Li  Li2  1  0.647084  0.987995  0.242435  1
  Li  Li3  1  0.852923  0.487985  0.742445  1
  Cu  Cu4  1  0.166936  0.009443  0.248072  1
  Cu  Cu5  1  0.333077  0.509427  0.748065  1
  Cu  Cu6  1  0.666959  0.490587  0.248033  1
  Cu  Cu7  1  0.833100  0.990539  0.748104  1
  P  P8  1  0.094413  0.766847  0.750884  1
  P  P9  1  0.405604  0.267088  0.250969  1
  P  P10  1  0.594358  0.732975  0.750909  1
  P  P11  1  0.905572  0.233079  0.250925  1
  O  O12  1  0.056853  0.243422  0.194813  1
  O  O13  1  0.123440  0.764699  0.052368  1
  O  O14  1  0.153269  0.578465  0.623862  1
  O  O15  1  0.160663  0.952268  0.633527  1
  O  O16  1  0.339359  0.452216  0.133396  1
  O  O17  1  0.346773  0.078394  0.123704  1
  O  O18  1  0.376544  0.264847  0.552296  1
  O  O19  1  0.443167  0.743266  0.694859  1
  O  O20  1  0.556853  0.256634  0.194842  1
  O  O21  1  0.623438  0.735271  0.052312  1
  O  O22  1  0.653257  0.921616  0.623751  1
  O  O23  1  0.660642  0.547774  0.633521  1
  O  O24  1  0.839349  0.047733  0.133450  1
  O  O25  1  0.846753  0.421562  0.123754  1
  O  O26  1  0.876555  0.235201  0.552370  1
  O  O27  1  0.943165  0.756660  0.694834  1
