# generated using pymatgen
data_Li8MnFe7(BO3)8
_symmetry_space_group_name_H-M   'P 1'
_cell_length_a   5.22381249
_cell_length_b   9.07096539
_cell_length_c   11.47609942
_cell_angle_alpha   68.11486325
_cell_angle_beta   77.62689815
_cell_angle_gamma   90.20178377
_symmetry_Int_Tables_number   1
_chemical_formula_structural   Li8MnFe7(BO3)8
_chemical_formula_sum   'Li8 Mn1 Fe7 B8 O24'
_cell_volume   490.79442547
_cell_formula_units_Z   1
loop_
 _symmetry_equiv_pos_site_id
 _symmetry_equiv_pos_as_xyz
  1  'x, y, z'
loop_
 _atom_site_type_symbol
 _atom_site_label
 _atom_site_symmetry_multiplicity
 _atom_site_fract_x
 _atom_site_fract_y
 _atom_site_fract_z
 _atom_site_occupancy
  Li  Li0  1  0.976949  0.964378  0.417864  1
  Li  Li1  1  0.700750  0.715629  0.915917  1
  Li  Li2  1  0.513942  0.496507  0.663677  1
  Li  Li3  1  0.733954  0.750541  0.168047  1
  Li  Li4  1  0.478482  0.462890  0.415971  1
  Li  Li5  1  0.201242  0.218087  0.916622  1
  Li  Li6  1  0.015092  0.993739  0.667712  1
  Li  Li7  1  0.234057  0.250993  0.169189  1
  Mn  Mn8  1  0.018133  0.346722  0.633303  1
  Fe  Fe9  1  0.996927  0.649872  0.377026  1
  Fe  Fe10  1  0.728509  0.055972  0.884617  1
  Fe  Fe11  1  0.515644  0.841687  0.635340  1
  Fe  Fe12  1  0.752971  0.432233  0.132107  1
  Fe  Fe13  1  0.490787  0.142765  0.383318  1
  Fe  Fe14  1  0.220340  0.559502  0.884670  1
  Fe  Fe15  1  0.254780  0.934716  0.130152  1
  B  B16  1  0.982930  0.317323  0.373976  1
  B  B17  1  0.727098  0.397612  0.876543  1
  B  B18  1  0.765108  0.101626  0.127076  1
  B  B19  1  0.524411  0.182902  0.627772  1
  B  B20  1  0.484701  0.815986  0.374983  1
  B  B21  1  0.230564  0.896142  0.878106  1
  B  B22  1  0.266345  0.601818  0.125329  1
  B  B23  1  0.019206  0.688419  0.625093  1
  O  O24  1  0.972539  0.892171  0.865170  1
  O  O25  1  0.888425  0.286192  0.849839  1
  O  O26  1  0.825286  0.509839  0.916516  1
  O  O27  1  0.911972  0.831258  0.615077  1
  O  O28  1  0.892003  0.577641  0.594022  1
  O  O29  1  0.757470  0.148929  0.669352  1
  O  O30  1  0.735079  0.343659  0.344236  1
  O  O31  1  0.472429  0.398832  0.859717  1
  O  O32  1  0.394425  0.787488  0.848616  1
  O  O33  1  0.601756  0.920134  0.416454  1
  O  O34  1  0.608860  0.688136  0.359972  1
  O  O35  1  0.325430  0.009541  0.917500  1
  O  O36  1  0.660578  0.980998  0.097638  1
  O  O37  1  0.423377  0.328423  0.612933  1
  O  O38  1  0.395186  0.071903  0.596977  1
  O  O39  1  0.602503  0.205281  0.164081  1
  O  O40  1  0.536137  0.618878  0.114150  1
  O  O41  1  0.256121  0.656708  0.663826  1
  O  O42  1  0.235769  0.844712  0.346364  1
  O  O43  1  0.097953  0.422590  0.415102  1
  O  O44  1  0.110445  0.189406  0.360951  1
  O  O45  1  0.161107  0.481533  0.095845  1
  O  O46  1  0.104137  0.705486  0.162842  1
  O  O47  1  0.034890  0.119002  0.116009  1
