# generated using pymatgen
data_Zr2N2O
_symmetry_space_group_name_H-M   'P 1'
_cell_length_a   3.27441311
_cell_length_b   5.62505197
_cell_length_c   16.65908149
_cell_angle_alpha   90.79706627
_cell_angle_beta   95.63996804
_cell_angle_gamma   106.92120305
_symmetry_Int_Tables_number   1
_chemical_formula_structural   Zr2N2O
_chemical_formula_sum   'Zr8 N8 O4'
_cell_volume   291.84254332
_cell_formula_units_Z   4
loop_
 _symmetry_equiv_pos_site_id
 _symmetry_equiv_pos_as_xyz
  1  'x, y, z'
loop_
 _atom_site_type_symbol
 _atom_site_label
 _atom_site_symmetry_multiplicity
 _atom_site_fract_x
 _atom_site_fract_y
 _atom_site_fract_z
 _atom_site_occupancy
  Zr  Zr0  1  0.674939  0.185201  0.164677  1
  Zr  Zr1  1  0.669568  0.420952  0.918183  1
  Zr  Zr2  1  0.650757  0.626908  0.674607  1
  Zr  Zr3  1  0.330432  0.079048  0.581817  1
  Zr  Zr4  1  0.325061  0.314799  0.335323  1
  Zr  Zr5  1  0.987930  0.969275  0.006585  1
  Zr  Zr6  1  0.349243  0.873092  0.825393  1
  Zr  Zr7  1  0.012070  0.530725  0.493415  1
  N  N8  1  0.627375  0.222506  0.032243  1
  N  N9  1  0.372625  0.277494  0.467757  1
  N  N10  1  0.709188  0.614783  0.803592  1
  N  N11  1  0.674956  0.803030  0.546882  1
  N  N12  1  0.987851  0.356500  0.619203  1
  N  N13  1  0.012149  0.143500  0.880797  1
  N  N14  1  0.290812  0.885217  0.696408  1
  N  N15  1  0.325044  0.696970  0.953118  1
  O  O16  1  0.695601  0.098578  0.292624  1
  O  O17  1  0.304399  0.401422  0.207376  1
  O  O18  1  0.035953  0.940549  0.131356  1
  O  O19  1  0.964047  0.559451  0.368644  1
