# generated using pymatgen
data_V2P2H6PbO14
_symmetry_space_group_name_H-M   'P 1'
_cell_length_a   6.32151707
_cell_length_b   6.32151707
_cell_length_c   14.00075671
_cell_angle_alpha   81.48960943
_cell_angle_beta   98.51039057
_cell_angle_gamma   90.22530027
_symmetry_Int_Tables_number   1
_chemical_formula_structural   V2P2H6PbO14
_chemical_formula_sum   'V4 P4 H12 Pb2 O28'
_cell_volume   547.14672183
_cell_formula_units_Z   2
loop_
 _symmetry_equiv_pos_site_id
 _symmetry_equiv_pos_as_xyz
  1  'x, y, z'
loop_
 _atom_site_type_symbol
 _atom_site_label
 _atom_site_symmetry_multiplicity
 _atom_site_fract_x
 _atom_site_fract_y
 _atom_site_fract_z
 _atom_site_occupancy
  V  V0  1  0.742035  0.049255  0.468001  1
  V  V1  1  0.950745  0.257965  0.968001  1
  V  V2  1  0.269719  0.507300  0.569333  1
  V  V3  1  0.492700  0.730281  0.069333  1
  P  P4  1  0.258539  0.024275  0.521444  1
  P  P5  1  0.975725  0.741461  0.021444  1
  P  P6  1  0.759254  0.524600  0.524591  1
  P  P7  1  0.475400  0.240746  0.024591  1
  H  H8  1  0.719825  0.086070  0.257763  1
  H  H9  1  0.913930  0.280175  0.757763  1
  H  H10  1  0.189870  0.408086  0.782840  1
  H  H11  1  0.591914  0.810130  0.282840  1
  H  H12  1  0.395877  0.545645  0.781364  1
  H  H13  1  0.454355  0.604123  0.281364  1
  H  H14  1  0.097260  0.983094  0.714051  1
  H  H15  1  0.016906  0.902740  0.214051  1
  H  H16  1  0.782094  0.565500  0.786718  1
  H  H17  1  0.434500  0.217906  0.286718  1
  H  H18  1  0.885543  0.788174  0.786017  1
  H  H19  1  0.211826  0.114457  0.286017  1
  Pb  Pb20  1  0.503817  0.041384  0.777565  1
  Pb  Pb21  1  0.958616  0.496183  0.277565  1
  O  O22  1  0.789433  0.030174  0.586754  1
  O  O23  1  0.969826  0.210567  0.086754  1
  O  O24  1  0.436130  0.043260  0.457402  1
  O  O25  1  0.956740  0.563870  0.957402  1
  O  O26  1  0.045198  0.062654  0.452718  1
  O  O27  1  0.937346  0.954802  0.952718  1
  O  O28  1  0.735712  0.366266  0.449167  1
  O  O29  1  0.633734  0.264288  0.949167  1
  O  O30  1  0.748426  0.745893  0.461063  1
  O  O31  1  0.254107  0.251574  0.961063  1
  O  O32  1  0.224749  0.531362  0.452216  1
  O  O33  1  0.468638  0.775251  0.952216  1
  O  O34  1  0.274294  0.800471  0.586592  1
  O  O35  1  0.199529  0.725706  0.086592  1
  O  O36  1  0.976979  0.487238  0.594080  1
  O  O37  1  0.512762  0.023021  0.094080  1
  O  O38  1  0.579642  0.496503  0.589970  1
  O  O39  1  0.503497  0.420358  0.089970  1
  O  O40  1  0.289408  0.188982  0.595597  1
  O  O41  1  0.811018  0.710592  0.095597  1
  O  O42  1  0.664357  0.098445  0.317581  1
  O  O43  1  0.901555  0.335643  0.817581  1
  O  O44  1  0.316889  0.436883  0.748589  1
  O  O45  1  0.563117  0.683111  0.248589  1
  O  O46  1  0.173379  0.923935  0.778271  1
  O  O47  1  0.076065  0.826621  0.278271  1
  O  O48  1  0.743708  0.724305  0.769684  1
  O  O49  1  0.275695  0.256292  0.269684  1
