# generated using pymatgen
data_SrLaMnRuO6
_symmetry_space_group_name_H-M   'P 1'
_cell_length_a   5.75514018
_cell_length_b   5.65948378
_cell_length_c   8.01138231
_cell_angle_alpha   90.13416970
_cell_angle_beta   90.00000000
_cell_angle_gamma   90.00000000
_symmetry_Int_Tables_number   1
_chemical_formula_structural   SrLaMnRuO6
_chemical_formula_sum   'Sr2 La2 Mn2 Ru2 O12'
_cell_volume   260.93899899
_cell_formula_units_Z   2
loop_
 _symmetry_equiv_pos_site_id
 _symmetry_equiv_pos_as_xyz
  1  'x, y, z'
loop_
 _atom_site_type_symbol
 _atom_site_label
 _atom_site_symmetry_multiplicity
 _atom_site_fract_x
 _atom_site_fract_y
 _atom_site_fract_z
 _atom_site_occupancy
  Sr  Sr0  1  0.964219  0.994374  0.250834  1
  Sr  Sr1  1  0.535781  0.494374  0.750834  1
  La  La2  1  0.451041  0.509410  0.251594  1
  La  La3  1  0.048959  0.009410  0.751594  1
  Mn  Mn4  1  0.993533  0.500454  0.501276  1
  Mn  Mn5  1  0.506467  0.000454  0.001276  1
  Ru  Ru6  1  0.998100  0.500544  0.000086  1
  Ru  Ru7  1  0.501900  0.000544  0.500086  1
  O  O8  1  0.026844  0.432055  0.241550  1
  O  O9  1  0.223949  0.796037  0.459936  1
  O  O10  1  0.204121  0.778045  0.036930  1
  O  O11  1  0.276051  0.296037  0.959936  1
  O  O12  1  0.295879  0.278045  0.536930  1
  O  O13  1  0.473156  0.932055  0.741550  1
  O  O14  1  0.515872  0.089556  0.258559  1
  O  O15  1  0.693443  0.711826  0.455109  1
  O  O16  1  0.709377  0.687700  0.044126  1
  O  O17  1  0.806557  0.211826  0.955109  1
  O  O18  1  0.790623  0.187700  0.544126  1
  O  O19  1  0.984128  0.589556  0.758559  1
