# generated using pymatgen
data_LiBi3(P3O10)2
_symmetry_space_group_name_H-M   'P 1'
_cell_length_a   8.99517351
_cell_length_b   8.99517351
_cell_length_c   13.38354690
_cell_angle_alpha   90.00000000
_cell_angle_beta   90.00000000
_cell_angle_gamma   70.14757759
_symmetry_Int_Tables_number   1
_chemical_formula_structural   LiBi3(P3O10)2
_chemical_formula_sum   'Li2 Bi6 P12 O40'
_cell_volume   1018.54833826
_cell_formula_units_Z   2
loop_
 _symmetry_equiv_pos_site_id
 _symmetry_equiv_pos_as_xyz
  1  'x, y, z'
loop_
 _atom_site_type_symbol
 _atom_site_label
 _atom_site_symmetry_multiplicity
 _atom_site_fract_x
 _atom_site_fract_y
 _atom_site_fract_z
 _atom_site_occupancy
  Li  Li0  1  0.084794  0.915206  0.000000  1
  Li  Li1  1  0.584794  0.415206  0.500000  1
  Bi  Bi2  1  0.383318  0.616682  0.000000  1
  Bi  Bi3  1  0.324386  0.243861  0.227213  1
  Bi  Bi4  1  0.756139  0.675614  0.772787  1
  Bi  Bi5  1  0.256139  0.175614  0.727213  1
  Bi  Bi6  1  0.824386  0.743861  0.272787  1
  Bi  Bi7  1  0.883318  0.116682  0.500000  1
  P  P8  1  0.391537  0.859865  0.312022  1
  P  P9  1  0.140135  0.608463  0.687978  1
  P  P10  1  0.324656  0.778467  0.794865  1
  P  P11  1  0.221533  0.675344  0.205135  1
  P  P12  1  0.781329  0.609091  0.035738  1
  P  P13  1  0.281329  0.109091  0.464261  1
  P  P14  1  0.390909  0.218671  0.964261  1
  P  P15  1  0.890909  0.718671  0.535739  1
  P  P16  1  0.640135  0.108463  0.812022  1
  P  P17  1  0.891537  0.359865  0.187978  1
  P  P18  1  0.721533  0.175344  0.294865  1
  P  P19  1  0.824656  0.278467  0.705135  1
  O  O20  1  0.338606  0.993443  0.236492  1
  O  O21  1  0.006557  0.661394  0.763508  1
  O  O22  1  0.091800  0.621565  0.248527  1
  O  O23  1  0.378435  0.908200  0.751473  1
  O  O24  1  0.354585  0.925048  0.423797  1
  O  O25  1  0.074953  0.645415  0.576203  1
  O  O26  1  0.174141  0.791244  0.115717  1
  O  O27  1  0.208756  0.825859  0.884283  1
  O  O28  1  0.272841  0.760976  0.300273  1
  O  O29  1  0.239024  0.727159  0.699727  1
  O  O30  1  0.059485  0.247490  0.190887  1
  O  O31  1  0.752510  0.940515  0.809113  1
  O  O32  1  0.559485  0.747490  0.309113  1
  O  O33  1  0.252510  0.440515  0.690887  1
  O  O34  1  0.468754  0.635603  0.827820  1
  O  O35  1  0.864397  0.031246  0.327820  1
  O  O36  1  0.364397  0.531246  0.172180  1
  O  O37  1  0.968754  0.135603  0.672180  1
  O  O38  1  0.845535  0.898513  0.548175  1
  O  O39  1  0.601487  0.654465  0.048175  1
  O  O40  1  0.101487  0.154465  0.451825  1
  O  O41  1  0.345535  0.398513  0.951825  1
  O  O42  1  0.784579  0.657143  0.599818  1
  O  O43  1  0.842857  0.715421  0.099818  1
  O  O44  1  0.342857  0.215421  0.400182  1
  O  O45  1  0.284579  0.157143  0.900182  1
  O  O46  1  0.403608  0.158982  0.070919  1
  O  O47  1  0.903608  0.658982  0.429081  1
  O  O48  1  0.341018  0.096392  0.570919  1
  O  O49  1  0.841018  0.596392  0.929081  1
  O  O50  1  0.506557  0.161394  0.736492  1
  O  O51  1  0.838606  0.493443  0.263508  1
  O  O52  1  0.878435  0.408200  0.748527  1
  O  O53  1  0.591800  0.121565  0.251473  1
  O  O54  1  0.574952  0.145415  0.923797  1
  O  O55  1  0.854585  0.425047  0.076203  1
  O  O56  1  0.708756  0.325859  0.615717  1
  O  O57  1  0.674141  0.291244  0.384283  1
  O  O58  1  0.739024  0.227159  0.800273  1
  O  O59  1  0.772841  0.260976  0.199727  1
