# generated using pymatgen
data_Li2MnVP2(HO5)2
_symmetry_space_group_name_H-M   'P 1'
_cell_length_a   5.43381780
_cell_length_b   7.39541492
_cell_length_c   14.44549290
_cell_angle_alpha   86.18120286
_cell_angle_beta   85.68670967
_cell_angle_gamma   105.85566853
_symmetry_Int_Tables_number   1
_chemical_formula_structural   Li2MnVP2(HO5)2
_chemical_formula_sum   'Li6 Mn3 V3 P6 H6 O30'
_cell_volume   554.52632810
_cell_formula_units_Z   3
loop_
 _symmetry_equiv_pos_site_id
 _symmetry_equiv_pos_as_xyz
  1  'x, y, z'
loop_
 _atom_site_type_symbol
 _atom_site_label
 _atom_site_symmetry_multiplicity
 _atom_site_fract_x
 _atom_site_fract_y
 _atom_site_fract_z
 _atom_site_occupancy
  Li  Li0  1  0.143519  0.582988  0.248160  1
  Li  Li1  1  0.182189  0.751628  0.415864  1
  Li  Li2  1  0.481138  0.905338  0.915732  1
  Li  Li3  1  0.518862  0.094662  0.084268  1
  Li  Li4  1  0.817811  0.248372  0.584136  1
  Li  Li5  1  0.856481  0.417012  0.751840  1
  Mn  Mn6  1  0.000000  0.500000  0.000000  1
  Mn  Mn7  1  0.336874  0.332915  0.667234  1
  Mn  Mn8  1  0.663126  0.667085  0.332766  1
  V  V9  1  0.000000  0.000000  0.000000  1
  V  V10  1  0.335627  0.831642  0.667698  1
  V  V11  1  0.664373  0.168358  0.332302  1
  P  P12  1  0.193988  0.328729  0.438266  1
  P  P13  1  0.135150  0.004861  0.226396  1
  P  P14  1  0.524441  0.659914  0.107831  1
  P  P15  1  0.475559  0.340086  0.892169  1
  P  P16  1  0.864850  0.995139  0.773604  1
  P  P17  1  0.806012  0.671271  0.561734  1
  H  H18  1  0.055289  0.779993  0.881548  1
  H  H19  1  0.281817  0.557325  0.786573  1
  H  H20  1  0.613184  0.895166  0.450467  1
  H  H21  1  0.386816  0.104834  0.549533  1
  H  H22  1  0.718183  0.442675  0.213427  1
  H  H23  1  0.944711  0.220007  0.118452  1
  O  O24  1  0.133000  0.956100  0.123708  1
  O  O25  1  0.055212  0.822674  0.293678  1
  O  O26  1  0.048473  0.869192  0.756213  1
  O  O27  1  0.091462  0.784782  0.569614  1
  O  O28  1  0.098681  0.778713  0.947155  1
  O  O29  1  0.232323  0.565228  0.098767  1
  O  O30  1  0.271630  0.510485  0.370153  1
  O  O31  1  0.196431  0.376882  0.540419  1
  O  O32  1  0.232567  0.559010  0.721167  1
  O  O33  1  0.625537  0.841474  0.036602  1
  O  O34  1  0.524439  0.722284  0.207832  1
  O  O35  1  0.559065  0.893785  0.386540  1
  O  O36  1  0.313194  0.478869  0.904307  1
  O  O37  1  0.379926  0.204441  0.419951  1
  O  O38  1  0.578321  0.884004  0.766933  1
  O  O39  1  0.421679  0.115996  0.233067  1
  O  O40  1  0.620074  0.795559  0.580049  1
  O  O41  1  0.686805  0.521131  0.095693  1
  O  O42  1  0.440935  0.106215  0.613460  1
  O  O43  1  0.475561  0.277716  0.792168  1
  O  O44  1  0.374463  0.158526  0.963398  1
  O  O45  1  0.767433  0.440990  0.278833  1
  O  O46  1  0.803569  0.623118  0.459581  1
  O  O47  1  0.728370  0.489515  0.629847  1
  O  O48  1  0.767677  0.434772  0.901233  1
  O  O49  1  0.901319  0.221287  0.052845  1
  O  O50  1  0.908538  0.215218  0.430386  1
  O  O51  1  0.951527  0.130808  0.243787  1
  O  O52  1  0.944788  0.177326  0.706322  1
  O  O53  1  0.867000  0.043900  0.876292  1
