# generated using pymatgen
data_Cu10Bi25O48
_symmetry_space_group_name_H-M   'P 1'
_cell_length_a   8.51255273
_cell_length_b   8.51254847
_cell_length_c   18.13487274
_cell_angle_alpha   89.99996605
_cell_angle_beta   90.00014569
_cell_angle_gamma   89.99991762
_symmetry_Int_Tables_number   1
_chemical_formula_structural   Cu10Bi25O48
_chemical_formula_sum   'Cu10 Bi25 O48'
_cell_volume   1314.11667210
_cell_formula_units_Z   1
loop_
 _symmetry_equiv_pos_site_id
 _symmetry_equiv_pos_as_xyz
  1  'x, y, z'
loop_
 _atom_site_type_symbol
 _atom_site_label
 _atom_site_symmetry_multiplicity
 _atom_site_fract_x
 _atom_site_fract_y
 _atom_site_fract_z
 _atom_site_occupancy
  Cu  Cu0  1  0.250000  0.250002  0.174268  1
  Cu  Cu1  1  0.250007  0.250002  0.524947  1
  Cu  Cu2  1  0.250009  0.249998  0.692104  1
  Cu  Cu3  1  0.249998  0.250003  0.861153  1
  Cu  Cu4  1  0.750003  0.750001  0.141188  1
  Cu  Cu5  1  0.750004  0.750002  0.307991  1
  Cu  Cu6  1  0.750004  0.750009  0.476842  1
  Cu  Cu7  1  0.749999  0.750001  0.641024  1
  Cu  Cu8  1  0.749993  0.749997  0.805061  1
  Cu  Cu9  1  0.749998  0.749995  0.971103  1
  Bi  Bi10  1  0.084662  0.567154  0.078421  1
  Bi  Bi11  1  0.069045  0.907453  0.244108  1
  Bi  Bi12  1  0.075130  0.580452  0.419460  1
  Bi  Bi13  1  0.077497  0.579915  0.752087  1
  Bi  Bi14  1  0.078604  0.921545  0.585611  1
  Bi  Bi15  1  0.083439  0.917683  0.919125  1
  Bi  Bi16  1  0.250006  0.250001  0.322405  1
  Bi  Bi17  1  0.415339  0.932849  0.078421  1
  Bi  Bi18  1  0.430954  0.592549  0.244105  1
  Bi  Bi19  1  0.421397  0.578458  0.585611  1
  Bi  Bi20  1  0.424874  0.919552  0.419463  1
  Bi  Bi21  1  0.416563  0.582317  0.919123  1
  Bi  Bi22  1  0.422498  0.920086  0.752088  1
  Bi  Bi23  1  0.592547  0.069046  0.244109  1
  Bi  Bi24  1  0.567155  0.415337  0.078420  1
  Bi  Bi25  1  0.580450  0.424875  0.419461  1
  Bi  Bi26  1  0.582317  0.083433  0.919124  1
  Bi  Bi27  1  0.578456  0.078604  0.585612  1
  Bi  Bi28  1  0.579911  0.422502  0.752088  1
  Bi  Bi29  1  0.907454  0.430953  0.244108  1
  Bi  Bi30  1  0.921542  0.421400  0.585609  1
  Bi  Bi31  1  0.917684  0.416562  0.919123  1
  Bi  Bi32  1  0.932846  0.084663  0.078421  1
  Bi  Bi33  1  0.919556  0.075130  0.419461  1
  Bi  Bi34  1  0.920087  0.077498  0.752089  1
  O  O35  1  0.046147  0.144679  0.192075  1
  O  O36  1  0.013407  0.351750  0.030039  1
  O  O37  1  0.043479  0.148032  0.529252  1
  O  O38  1  0.028905  0.353449  0.367643  1
  O  O39  1  0.045200  0.352665  0.696213  1
  O  O40  1  0.045553  0.147349  0.864219  1
  O  O41  1  0.148249  0.013411  0.030039  1
  O  O42  1  0.144681  0.453853  0.192076  1
  O  O43  1  0.146554  0.028902  0.367642  1
  O  O44  1  0.147338  0.045204  0.696217  1
  O  O45  1  0.147351  0.454446  0.864217  1
  O  O46  1  0.148028  0.456523  0.529251  1
  O  O47  1  0.355324  0.046144  0.192076  1
  O  O48  1  0.351971  0.043481  0.529252  1
  O  O49  1  0.352652  0.045547  0.864219  1
  O  O50  1  0.351751  0.486596  0.030039  1
  O  O51  1  0.353451  0.471101  0.367644  1
  O  O52  1  0.352661  0.454800  0.696214  1
  O  O53  1  0.486594  0.148250  0.030039  1
  O  O54  1  0.453856  0.355321  0.192073  1
  O  O55  1  0.471100  0.146550  0.367644  1
  O  O56  1  0.456522  0.351971  0.529251  1
  O  O57  1  0.454793  0.147339  0.696217  1
  O  O58  1  0.454451  0.352648  0.864217  1
  O  O59  1  0.548831  0.651194  0.138349  1
  O  O60  1  0.544157  0.652210  0.472041  1
  O  O61  1  0.546225  0.652600  0.801132  1
  O  O62  1  0.543401  0.848138  0.301197  1
  O  O63  1  0.543225  0.849509  0.637119  1
  O  O64  1  0.547247  0.847549  0.967071  1
  O  O65  1  0.651860  0.543399  0.301195  1
  O  O66  1  0.650492  0.543225  0.637118  1
  O  O67  1  0.652453  0.547248  0.967070  1
  O  O68  1  0.651192  0.951173  0.138351  1
  O  O69  1  0.652209  0.955849  0.472042  1
  O  O70  1  0.652597  0.953775  0.801131  1
  O  O71  1  0.848810  0.548830  0.138350  1
  O  O72  1  0.847796  0.544156  0.472039  1
  O  O73  1  0.847400  0.546224  0.801131  1
  O  O74  1  0.848138  0.956597  0.301197  1
  O  O75  1  0.849511  0.956778  0.637120  1
  O  O76  1  0.847549  0.952755  0.967071  1
  O  O77  1  0.956596  0.651858  0.301198  1
  O  O78  1  0.956776  0.650492  0.637117  1
  O  O79  1  0.951172  0.848810  0.138349  1
  O  O80  1  0.955849  0.847796  0.472041  1
  O  O81  1  0.953777  0.847401  0.801132  1
  O  O82  1  0.952754  0.652452  0.967071  1
