# generated using pymatgen
data_Li3Mn(CuO3)2
_symmetry_space_group_name_H-M   'P 1'
_cell_length_a   15.42985180
_cell_length_b   9.77499333
_cell_length_c   9.77499336
_cell_angle_alpha   16.96236319
_cell_angle_beta   16.76352879
_cell_angle_gamma   16.76352925
_symmetry_Int_Tables_number   1
_chemical_formula_structural   Li3Mn(CuO3)2
_chemical_formula_sum   'Li3 Mn1 Cu2 O6'
_cell_volume   107.79085177
_cell_formula_units_Z   1
loop_
 _symmetry_equiv_pos_site_id
 _symmetry_equiv_pos_as_xyz
  1  'x, y, z'
loop_
 _atom_site_type_symbol
 _atom_site_label
 _atom_site_symmetry_multiplicity
 _atom_site_fract_x
 _atom_site_fract_y
 _atom_site_fract_z
 _atom_site_occupancy
  Li  Li0  1  0.166667  0.500000  0.500000  1
  Li  Li1  1  0.494043  0.502724  0.502724  1
  Li  Li2  1  0.839291  0.497276  0.497276  1
  Mn  Mn3  1  0.666667  0.000000  0.000000  1
  Cu  Cu4  1  0.983068  0.012827  0.012827  1
  Cu  Cu5  1  0.350265  0.987173  0.987173  1
  O  O6  1  0.266989  0.245744  0.245744  1
  O  O7  1  0.569773  0.262341  0.262341  1
  O  O8  1  0.066344  0.754256  0.754256  1
  O  O9  1  0.870254  0.289356  0.289356  1
  O  O10  1  0.463080  0.710644  0.710644  1
  O  O11  1  0.763561  0.737659  0.737659  1
