# generated using pymatgen
data_Co6O7F5
_symmetry_space_group_name_H-M   'P 1'
_cell_length_a   4.55432821
_cell_length_b   4.53667290
_cell_length_c   8.94499109
_cell_angle_alpha   90.00000000
_cell_angle_beta   90.00000000
_cell_angle_gamma   94.19883842
_symmetry_Int_Tables_number   1
_chemical_formula_structural   Co6O7F5
_chemical_formula_sum   'Co6 O7 F5'
_cell_volume   184.32085437
_cell_formula_units_Z   1
loop_
 _symmetry_equiv_pos_site_id
 _symmetry_equiv_pos_as_xyz
  1  'x, y, z'
loop_
 _atom_site_type_symbol
 _atom_site_label
 _atom_site_symmetry_multiplicity
 _atom_site_fract_x
 _atom_site_fract_y
 _atom_site_fract_z
 _atom_site_occupancy
  Co  Co0  1  0.008051  0.984152  0.992984  1
  Co  Co1  1  0.008051  0.984152  0.340349  1
  Co  Co2  1  0.037746  0.010141  0.666667  1
  Co  Co3  1  0.504163  0.486567  0.166667  1
  Co  Co4  1  0.474291  0.514049  0.838079  1
  Co  Co5  1  0.474291  0.514049  0.495254  1
  O  O6  1  0.192342  0.814578  0.826951  1
  O  O7  1  0.192342  0.814578  0.506382  1
  O  O8  1  0.302503  0.300757  0.331962  1
  O  O9  1  0.302503  0.300757  0.001372  1
  O  O10  1  0.304209  0.317281  0.666667  1
  O  O11  1  0.689416  0.686532  0.001174  1
  O  O12  1  0.689416  0.686532  0.332160  1
  F  F13  1  0.200139  0.789915  0.166667  1
  F  F14  1  0.699036  0.713611  0.666667  1
  F  F15  1  0.814327  0.175843  0.166667  1
  F  F16  1  0.803587  0.203253  0.823843  1
  F  F17  1  0.803587  0.203253  0.509490  1
