# generated using pymatgen
data_Mg4Cu11O15
_symmetry_space_group_name_H-M   'P 1'
_cell_length_a   4.03442962
_cell_length_b   9.56379204
_cell_length_c   16.28640271
_cell_angle_alpha   90.00000000
_cell_angle_beta   90.00000000
_cell_angle_gamma   90.00000000
_symmetry_Int_Tables_number   1
_chemical_formula_structural   Mg4Cu11O15
_chemical_formula_sum   'Mg8 Cu22 O30'
_cell_volume   628.40182404
_cell_formula_units_Z   2
loop_
 _symmetry_equiv_pos_site_id
 _symmetry_equiv_pos_as_xyz
  1  'x, y, z'
loop_
 _atom_site_type_symbol
 _atom_site_label
 _atom_site_symmetry_multiplicity
 _atom_site_fract_x
 _atom_site_fract_y
 _atom_site_fract_z
 _atom_site_occupancy
  Mg  Mg0  1  0.250000  0.750000  0.280674  1
  Mg  Mg1  1  0.250000  0.750000  0.480798  1
  Mg  Mg2  1  0.250000  0.750000  0.680464  1
  Mg  Mg3  1  0.250000  0.750000  0.880428  1
  Mg  Mg4  1  0.250000  0.750000  0.080563  1
  Mg  Mg5  1  0.750000  0.250000  0.118732  1
  Mg  Mg6  1  0.750000  0.250000  0.319251  1
  Mg  Mg7  1  0.750000  0.250000  0.520357  1
  Cu  Cu8  1  0.250000  0.085693  0.030719  1
  Cu  Cu9  1  0.250000  0.086737  0.229792  1
  Cu  Cu10  1  0.250000  0.414307  0.030719  1
  Cu  Cu11  1  0.250000  0.086708  0.430131  1
  Cu  Cu12  1  0.250000  0.413263  0.229792  1
  Cu  Cu13  1  0.250000  0.086391  0.630883  1
  Cu  Cu14  1  0.250000  0.413292  0.430131  1
  Cu  Cu15  1  0.250000  0.085882  0.831562  1
  Cu  Cu16  1  0.250000  0.413609  0.630883  1
  Cu  Cu17  1  0.250000  0.414118  0.831562  1
  Cu  Cu18  1  0.750000  0.586403  0.169723  1
  Cu  Cu19  1  0.750000  0.913597  0.169723  1
  Cu  Cu20  1  0.750000  0.250000  0.921209  1
  Cu  Cu21  1  0.750000  0.250000  0.721693  1
  Cu  Cu22  1  0.750000  0.586715  0.370106  1
  Cu  Cu23  1  0.750000  0.586663  0.568290  1
  Cu  Cu24  1  0.750000  0.913337  0.568290  1
  Cu  Cu25  1  0.750000  0.913285  0.370106  1
  Cu  Cu26  1  0.750000  0.587009  0.768677  1
  Cu  Cu27  1  0.750000  0.587187  0.969659  1
  Cu  Cu28  1  0.750000  0.912991  0.768677  1
  Cu  Cu29  1  0.750000  0.912813  0.969659  1
  O  O30  1  0.250000  0.250000  0.096680  1
  O  O31  1  0.250000  0.250000  0.296657  1
  O  O32  1  0.250000  0.250000  0.496666  1
  O  O33  1  0.250000  0.250000  0.696073  1
  O  O34  1  0.250000  0.598862  0.182221  1
  O  O35  1  0.250000  0.598576  0.382326  1
  O  O36  1  0.250000  0.250000  0.896289  1
  O  O37  1  0.250000  0.598237  0.582566  1
  O  O38  1  0.250000  0.598167  0.782862  1
  O  O39  1  0.250000  0.598954  0.982226  1
  O  O40  1  0.250000  0.901424  0.382326  1
  O  O41  1  0.250000  0.901763  0.582566  1
  O  O42  1  0.250000  0.901138  0.182221  1
  O  O43  1  0.250000  0.901833  0.782862  1
  O  O44  1  0.250000  0.901046  0.982226  1
  O  O45  1  0.750000  0.096255  0.019126  1
  O  O46  1  0.750000  0.098969  0.217667  1
  O  O47  1  0.750000  0.098846  0.417752  1
  O  O48  1  0.750000  0.096330  0.616917  1
  O  O49  1  0.750000  0.403745  0.019126  1
  O  O50  1  0.750000  0.401031  0.217667  1
  O  O51  1  0.750000  0.750000  0.102988  1
  O  O52  1  0.750000  0.095407  0.817888  1
  O  O53  1  0.750000  0.401154  0.417752  1
  O  O54  1  0.750000  0.403670  0.616917  1
  O  O55  1  0.750000  0.750000  0.303155  1
  O  O56  1  0.750000  0.750000  0.501401  1
  O  O57  1  0.750000  0.404593  0.817888  1
  O  O58  1  0.750000  0.750000  0.701402  1
  O  O59  1  0.750000  0.750000  0.902339  1
