# generated using pymatgen
data_LiMnV(PO4)3
_symmetry_space_group_name_H-M   'P 1'
_cell_length_a   8.85337078
_cell_length_b   8.28784580
_cell_length_c   8.39890903
_cell_angle_alpha   59.43059833
_cell_angle_beta   64.13629591
_cell_angle_gamma   90.36890398
_symmetry_Int_Tables_number   1
_chemical_formula_structural   LiMnV(PO4)3
_chemical_formula_sum   'Li2 Mn2 V2 P6 O24'
_cell_volume   456.27024631
_cell_formula_units_Z   2
loop_
 _symmetry_equiv_pos_site_id
 _symmetry_equiv_pos_as_xyz
  1  'x, y, z'
loop_
 _atom_site_type_symbol
 _atom_site_label
 _atom_site_symmetry_multiplicity
 _atom_site_fract_x
 _atom_site_fract_y
 _atom_site_fract_z
 _atom_site_occupancy
  Li  Li0  1  0.123506  0.313239  0.947213  1
  Li  Li1  1  0.876494  0.686761  0.052787  1
  Mn  Mn2  1  0.565982  0.863653  0.289468  1
  Mn  Mn3  1  0.434018  0.136347  0.710532  1
  V  V4  1  0.052350  0.347192  0.309342  1
  V  V5  1  0.947650  0.652808  0.690658  1
  P  P6  1  0.248321  0.040322  0.220130  1
  P  P7  1  0.254399  0.469606  0.501866  1
  P  P8  1  0.247398  0.750788  0.793796  1
  P  P9  1  0.752602  0.249212  0.206204  1
  P  P10  1  0.745601  0.530394  0.498134  1
  P  P11  1  0.751679  0.959678  0.779870  1
  O  O12  1  0.105202  0.834411  0.397338  1
  O  O13  1  0.250668  0.125830  0.011660  1
  O  O14  1  0.187120  0.180008  0.298578  1
  O  O15  1  0.178145  0.473583  0.361393  1
  O  O16  1  0.110494  0.488207  0.681935  1
  O  O17  1  0.086837  0.772663  0.755025  1
  O  O18  1  0.424752  0.026229  0.201171  1
  O  O19  1  0.274565  0.267275  0.622079  1
  O  O20  1  0.423614  0.635657  0.352078  1
  O  O21  1  0.182155  0.532788  0.002913  1
  O  O22  1  0.261703  0.890586  0.857223  1
  O  O23  1  0.410562  0.771878  0.612887  1
  O  O24  1  0.589438  0.228122  0.387113  1
  O  O25  1  0.738297  0.109413  0.142777  1
  O  O26  1  0.817845  0.467212  0.997087  1
  O  O27  1  0.576386  0.364343  0.647922  1
  O  O28  1  0.725435  0.732725  0.377921  1
  O  O29  1  0.575248  0.973771  0.798829  1
  O  O30  1  0.913163  0.227337  0.244975  1
  O  O31  1  0.889506  0.511793  0.318065  1
  O  O32  1  0.821855  0.526417  0.638607  1
  O  O33  1  0.812880  0.819992  0.701422  1
  O  O34  1  0.749332  0.874170  0.988340  1
  O  O35  1  0.894798  0.165589  0.602662  1
