# generated using pymatgen
data_ZnP2H7NO8
_symmetry_space_group_name_H-M   'P 1'
_cell_length_a   7.75205489
_cell_length_b   13.35839652
_cell_length_c   8.21034240
_cell_angle_alpha   90.00000000
_cell_angle_beta   107.25337134
_cell_angle_gamma   90.00000000
_symmetry_Int_Tables_number   1
_chemical_formula_structural   ZnP2H7NO8
_chemical_formula_sum   'Zn4 P8 H28 N4 O32'
_cell_volume   811.96431797
_cell_formula_units_Z   4
loop_
 _symmetry_equiv_pos_site_id
 _symmetry_equiv_pos_as_xyz
  1  'x, y, z'
loop_
 _atom_site_type_symbol
 _atom_site_label
 _atom_site_symmetry_multiplicity
 _atom_site_fract_x
 _atom_site_fract_y
 _atom_site_fract_z
 _atom_site_occupancy
  Zn  Zn0  1  0.105881  0.008532  0.257445  1
  Zn  Zn1  1  0.394119  0.508532  0.242555  1
  Zn  Zn2  1  0.605881  0.491468  0.757445  1
  Zn  Zn3  1  0.894119  0.991468  0.742555  1
  P  P4  1  0.237362  0.533958  0.847594  1
  P  P5  1  0.262638  0.033958  0.652406  1
  P  P6  1  0.141024  0.838056  0.010517  1
  P  P7  1  0.358976  0.338056  0.489483  1
  P  P8  1  0.641024  0.661944  0.510517  1
  P  P9  1  0.858976  0.161944  0.989483  1
  P  P10  1  0.737362  0.966042  0.347594  1
  P  P11  1  0.762638  0.466042  0.152406  1
  H  H12  1  0.042004  0.765166  0.386696  1
  H  H13  1  0.048468  0.413126  0.295466  1
  H  H14  1  0.130640  0.694322  0.560740  1
  H  H15  1  0.274209  0.306212  0.963483  1
  H  H16  1  0.216993  0.376759  0.707161  1
  H  H17  1  0.283007  0.876759  0.792839  1
  H  H18  1  0.225791  0.806212  0.536517  1
  H  H19  1  0.369360  0.194322  0.939260  1
  H  H20  1  0.242710  0.706663  0.413963  1
  H  H21  1  0.136463  0.672053  0.048108  1
  H  H22  1  0.363537  0.172053  0.451892  1
  H  H23  1  0.257290  0.206663  0.086037  1
  H  H24  1  0.542004  0.734834  0.886696  1
  H  H25  1  0.548468  0.086874  0.795466  1
  H  H26  1  0.451532  0.913126  0.204534  1
  H  H27  1  0.457996  0.265166  0.113304  1
  H  H28  1  0.742710  0.793337  0.913963  1
  H  H29  1  0.636463  0.827947  0.548108  1
  H  H30  1  0.863537  0.327947  0.951892  1
  H  H31  1  0.757290  0.293337  0.586037  1
  H  H32  1  0.630640  0.805678  0.060740  1
  H  H33  1  0.774209  0.193788  0.463483  1
  H  H34  1  0.716993  0.123241  0.207161  1
  H  H35  1  0.783007  0.623241  0.292839  1
  H  H36  1  0.725791  0.693788  0.036517  1
  H  H37  1  0.869360  0.305678  0.439260  1
  H  H38  1  0.951532  0.586874  0.704534  1
  H  H39  1  0.957996  0.234834  0.613304  1
  N  N40  1  0.160575  0.742841  0.474101  1
  N  N41  1  0.339425  0.242841  0.025899  1
  N  N42  1  0.660575  0.757159  0.974101  1
  N  N43  1  0.839425  0.257159  0.525899  1
  O  O44  1  0.084167  0.593164  0.709686  1
  O  O45  1  0.087986  0.065786  0.689090  1
  O  O46  1  0.201671  0.419462  0.826525  1
  O  O47  1  0.269760  0.816461  0.904095  1
  O  O48  1  0.042405  0.117525  0.092988  1
  O  O49  1  0.230240  0.316461  0.595905  1
  O  O50  1  0.092757  0.736393  0.087083  1
  O  O51  1  0.298329  0.919462  0.673475  1
  O  O52  1  0.268722  0.064749  0.472965  1
  O  O53  1  0.412014  0.565786  0.810910  1
  O  O54  1  0.263554  0.406128  0.334919  1
  O  O55  1  0.415833  0.093164  0.790314  1
  O  O56  1  0.236446  0.906128  0.165081  1
  O  O57  1  0.231278  0.564748  0.027035  1
  O  O58  1  0.407243  0.236393  0.412917  1
  O  O59  1  0.457595  0.617525  0.407012  1
  O  O60  1  0.542405  0.382476  0.592988  1
  O  O61  1  0.592757  0.763607  0.587083  1
  O  O62  1  0.768722  0.435252  0.972965  1
  O  O63  1  0.763554  0.093872  0.834919  1
  O  O64  1  0.584167  0.906836  0.209686  1
  O  O65  1  0.736446  0.593872  0.665081  1
  O  O66  1  0.587986  0.434214  0.189090  1
  O  O67  1  0.731278  0.935252  0.527035  1
  O  O68  1  0.701671  0.080538  0.326525  1
  O  O69  1  0.907243  0.263607  0.912917  1
  O  O70  1  0.769760  0.683539  0.404095  1
  O  O71  1  0.957595  0.882475  0.907012  1
  O  O72  1  0.730240  0.183539  0.095905  1
  O  O73  1  0.798329  0.580538  0.173475  1
  O  O74  1  0.912014  0.934214  0.310910  1
  O  O75  1  0.915833  0.406836  0.290314  1
