# generated using pymatgen
data_Bi14WO24
_symmetry_space_group_name_H-M   'P 1'
_cell_length_a   8.92070197
_cell_length_b   8.91916255
_cell_length_c   10.63629114
_cell_angle_alpha   114.54143119
_cell_angle_beta   114.72462829
_cell_angle_gamma   89.97603503
_symmetry_Int_Tables_number   1
_chemical_formula_structural   Bi14WO24
_chemical_formula_sum   'Bi14 W1 O24'
_cell_volume   683.70151244
_cell_formula_units_Z   1
loop_
 _symmetry_equiv_pos_site_id
 _symmetry_equiv_pos_as_xyz
  1  'x, y, z'
loop_
 _atom_site_type_symbol
 _atom_site_label
 _atom_site_symmetry_multiplicity
 _atom_site_fract_x
 _atom_site_fract_y
 _atom_site_fract_z
 _atom_site_occupancy
  Bi  Bi0  1  0.132406  0.939628  0.659749  1
  Bi  Bi1  1  0.053831  0.469229  0.333035  1
  Bi  Bi2  1  0.344712  0.341569  0.682919  1
  Bi  Bi3  1  0.272361  0.867110  0.331674  1
  Bi  Bi4  1  0.217069  0.443416  0.998186  1
  Bi  Bi5  1  0.522982  0.716426  0.654359  1
  Bi  Bi6  1  0.466587  0.274193  0.331752  1
  Bi  Bi7  1  0.441722  0.785018  0.998906  1
  Bi  Bi8  1  0.717112  0.132578  0.661132  1
  Bi  Bi9  1  0.658485  0.658751  0.320376  1
  Bi  Bi10  1  0.560216  0.220375  0.001280  1
  Bi  Bi11  1  0.935713  0.522606  0.654287  1
  Bi  Bi12  1  0.865943  0.056051  0.335225  1
  Bi  Bi13  1  0.785617  0.563197  0.003118  1
  W  W14  1  0.974891  0.976836  0.958204  1
  O  O15  1  0.200712  0.025391  0.025005  1
  O  O16  1  0.997000  0.327310  0.493167  1
  O  O17  1  0.237438  0.542854  0.841965  1
  O  O18  1  0.299235  0.240785  0.840934  1
  O  O19  1  0.170074  0.001322  0.498510  1
  O  O20  1  0.110438  0.619707  0.229940  1
  O  O21  1  0.382387  0.880760  0.764517  1
  O  O22  1  0.325841  0.496846  0.497103  1
  O  O23  1  0.539550  0.602620  0.840479  1
  O  O24  1  0.595463  0.301836  0.839598  1
  O  O25  1  0.488203  0.825323  0.490654  1
  O  O26  1  0.496655  0.176289  0.503581  1
  O  O27  1  0.395258  0.699422  0.156984  1
  O  O28  1  0.459248  0.400674  0.159428  1
  O  O29  1  0.892340  0.167240  0.012607  1
  O  O30  1  0.666298  0.493420  0.490543  1
  O  O31  1  0.616540  0.115452  0.231819  1
  O  O32  1  0.881888  0.380029  0.764782  1
  O  O33  1  0.873636  0.867589  0.746984  1
  O  O34  1  0.826625  0.003487  0.497548  1
  O  O35  1  0.697547  0.760157  0.160597  1
  O  O36  1  0.758489  0.464098  0.164657  1
  O  O37  1  0.998948  0.669294  0.495495  1
  O  O38  1  0.925042  0.842611  0.031900  1
