# generated using pymatgen
data_Na3CaAl3Si3SO16
_symmetry_space_group_name_H-M   'P 1'
_cell_length_a   7.85365760
_cell_length_b   7.82867981
_cell_length_c   15.68949193
_cell_angle_alpha   109.27934547
_cell_angle_beta   109.60873251
_cell_angle_gamma   109.51049784
_symmetry_Int_Tables_number   1
_chemical_formula_structural   Na3CaAl3Si3SO16
_chemical_formula_sum   'Na6 Ca2 Al6 Si6 S2 O32'
_cell_volume   742.72061652
_cell_formula_units_Z   2
loop_
 _symmetry_equiv_pos_site_id
 _symmetry_equiv_pos_as_xyz
  1  'x, y, z'
loop_
 _atom_site_type_symbol
 _atom_site_label
 _atom_site_symmetry_multiplicity
 _atom_site_fract_x
 _atom_site_fract_y
 _atom_site_fract_z
 _atom_site_occupancy
  Na  Na0  1  0.016119  0.016234  0.821361  1
  Na  Na1  1  0.996673  0.998407  0.294374  1
  Na  Na2  1  0.361049  0.355546  0.173243  1
  Na  Na3  1  0.994826  0.600004  0.498704  1
  Na  Na4  1  0.626774  0.005122  0.001714  1
  Na  Na5  1  0.005866  0.630660  0.001039  1
  Ca  Ca6  1  0.370713  0.378439  0.699547  1
  Ca  Ca7  1  0.640160  0.996363  0.500412  1
  Al  Al8  1  0.246698  0.503334  0.874713  1
  Al  Al9  1  0.504244  0.249128  0.873762  1
  Al  Al10  1  0.498921  0.746375  0.629412  1
  Al  Al11  1  0.250915  0.747270  0.248585  1
  Al  Al12  1  0.751081  0.501307  0.630024  1
  Al  Al13  1  0.750532  0.252892  0.249767  1
  Si  Si14  1  0.244937  0.757689  0.750014  1
  Si  Si15  1  0.258191  0.501945  0.377243  1
  Si  Si16  1  0.755833  0.243188  0.749704  1
  Si  Si17  1  0.505428  0.255308  0.378014  1
  Si  Si18  1  0.502052  0.751291  0.123209  1
  Si  Si19  1  0.750606  0.503254  0.122770  1
  S  S20  1  0.003383  0.013194  0.503668  1
  S  S21  1  0.985300  0.985770  0.995639  1
  O  O22  1  0.988640  0.403613  0.849733  1
  O  O23  1  0.005916  0.713239  0.707830  1
  O  O24  1  0.276259  0.593668  0.788244  1
  O  O25  1  0.990342  0.009548  0.596856  1
  O  O26  1  0.005362  0.209522  0.509250  1
  O  O27  1  0.289600  0.714767  0.652124  1
  O  O28  1  0.304093  0.304718  0.838804  1
  O  O29  1  0.016232  0.405890  0.349955  1
  O  O30  1  0.992484  0.692971  0.201725  1
  O  O31  1  0.413913  0.011284  0.353574  1
  O  O32  1  0.414924  0.696467  0.498272  1
  O  O33  1  0.407334  0.991794  0.849447  1
  O  O34  1  0.197025  0.017971  0.509580  1
  O  O35  1  0.309561  0.600117  0.306154  1
  O  O36  1  0.791169  0.790141  0.904583  1
  O  O37  1  0.999256  0.998975  0.095368  1
  O  O38  1  0.981450  0.172802  0.991309  1
  O  O39  1  0.313150  0.700514  0.149641  1
  O  O40  1  0.589985  0.276979  0.784720  1
  O  O41  1  0.311618  0.308103  0.359547  1
  O  O42  1  0.572810  0.570225  0.649692  1
  O  O43  1  0.720695  0.283433  0.649331  1
  O  O44  1  0.410804  0.705598  0.004135  1
  O  O45  1  0.173180  0.983301  0.992176  1
  O  O46  1  0.692812  0.399544  0.498854  1
  O  O47  1  0.710757  0.003125  0.704519  1
  O  O48  1  0.809075  0.829281  0.407632  1
  O  O49  1  0.595482  0.299202  0.303651  1
  O  O50  1  0.598188  0.598612  0.141795  1
  O  O51  1  0.699460  0.314100  0.149615  1
  O  O52  1  0.691977  0.992301  0.201080  1
  O  O53  1  0.706143  0.415472  0.003881  1
