# generated using pymatgen
data_Li8CrS6
_symmetry_space_group_name_H-M   'P 1'
_cell_length_a   6.85174350
_cell_length_b   6.85178100
_cell_length_c   13.37079905
_cell_angle_alpha   90.00033501
_cell_angle_beta   90.00017711
_cell_angle_gamma   119.99962636
_symmetry_Int_Tables_number   1
_chemical_formula_structural   Li8CrS6
_chemical_formula_sum   'Li16 Cr2 S12'
_cell_volume   543.61846293
_cell_formula_units_Z   2
loop_
 _symmetry_equiv_pos_site_id
 _symmetry_equiv_pos_as_xyz
  1  'x, y, z'
loop_
 _atom_site_type_symbol
 _atom_site_label
 _atom_site_symmetry_multiplicity
 _atom_site_fract_x
 _atom_site_fract_y
 _atom_site_fract_z
 _atom_site_occupancy
  Li  Li0  1  0.999991  0.685543  0.765712  1
  Li  Li1  1  0.999986  0.621125  0.130157  1
  Li  Li2  1  -0.000001  0.378859  0.630162  1
  Li  Li3  1  0.999991  0.314458  0.265715  1
  Li  Li4  1  0.333316  0.666670  0.402900  1
  Li  Li5  1  0.333310  0.666644  0.902903  1
  Li  Li6  1  0.314446  0.314453  0.765706  1
  Li  Li7  1  0.378857  0.378854  0.130160  1
  Li  Li8  1  0.621134  0.621141  0.630161  1
  Li  Li9  1  0.314450  0.999989  0.265713  1
  Li  Li10  1  0.685524  0.685525  0.265713  1
  Li  Li11  1  0.378855  0.000004  0.630160  1
  Li  Li12  1  0.666642  0.333317  0.902901  1
  Li  Li13  1  0.666667  0.333346  0.402904  1
  Li  Li14  1  0.621123  0.999992  0.130155  1
  Li  Li15  1  0.685536  -0.000002  0.765711  1
  Cr  Cr16  1  -0.000022  -0.000014  0.998585  1
  Cr  Cr17  1  0.000058  0.000102  0.498580  1
  S  S18  1  0.999985  0.695290  0.950736  1
  S  S19  1  -0.000001  0.304785  0.450709  1
  S  S20  1  0.333329  0.666654  0.217866  1
  S  S21  1  0.999992  0.999996  0.165784  1
  S  S22  1  0.999988  -0.000005  0.665700  1
  S  S23  1  0.333333  0.666677  0.717868  1
  S  S24  1  0.304738  0.304747  0.950722  1
  S  S25  1  0.304792  0.000001  0.450703  1
  S  S26  1  0.695206  0.695212  0.450703  1
  S  S27  1  0.666673  0.333336  0.717869  1
  S  S28  1  0.666650  0.333312  0.217876  1
  S  S29  1  0.695252  0.999989  0.950725  1
