# generated using pymatgen
data_Li2Mn2(PO4)3
_symmetry_space_group_name_H-M   'P 1'
_cell_length_a   8.54005170
_cell_length_b   12.31942475
_cell_length_c   8.59423213
_cell_angle_alpha   89.90761821
_cell_angle_beta   90.37611787
_cell_angle_gamma   88.90912428
_symmetry_Int_Tables_number   1
_chemical_formula_structural   Li2Mn2(PO4)3
_chemical_formula_sum   'Li8 Mn8 P12 O48'
_cell_volume   904.00175835
_cell_formula_units_Z   4
loop_
 _symmetry_equiv_pos_site_id
 _symmetry_equiv_pos_as_xyz
  1  'x, y, z'
loop_
 _atom_site_type_symbol
 _atom_site_label
 _atom_site_symmetry_multiplicity
 _atom_site_fract_x
 _atom_site_fract_y
 _atom_site_fract_z
 _atom_site_occupancy
  Li  Li0  1  0.228679  0.185876  0.771694  1
  Li  Li1  1  0.280985  0.679720  0.220089  1
  Li  Li2  1  0.283995  0.312643  0.272318  1
  Li  Li3  1  0.696135  0.691678  0.735788  1
  Li  Li4  1  0.779051  0.178525  0.282185  1
  Li  Li5  1  0.780092  0.813348  0.226513  1
  Li  Li6  1  0.924539  0.295128  0.918941  1
  Li  Li7  1  0.952786  0.717274  0.579972  1
  Mn  Mn8  1  0.251869  0.112565  0.460063  1
  Mn  Mn9  1  0.250300  0.885412  0.031309  1
  Mn  Mn10  1  0.255274  0.390232  0.959711  1
  Mn  Mn11  1  0.257169  0.615220  0.540368  1
  Mn  Mn12  1  0.749679  0.383568  0.466157  1
  Mn  Mn13  1  0.751856  0.611879  0.040189  1
  Mn  Mn14  1  0.743234  0.111141  0.960223  1
  Mn  Mn15  1  0.747696  0.894463  0.539166  1
  P  P16  1  0.038620  0.497228  0.252274  1
  P  P17  1  0.106932  0.851945  0.393037  1
  P  P18  1  0.103886  0.138975  0.102684  1
  P  P19  1  0.398526  0.359997  0.603387  1
  P  P20  1  0.395276  0.650952  0.894223  1
  P  P21  1  0.460786  0.998746  0.752305  1
  P  P22  1  0.534179  0.998163  0.246332  1
  P  P23  1  0.608047  0.350656  0.105536  1
  P  P24  1  0.611976  0.637306  0.396919  1
  P  P25  1  0.899959  0.151131  0.609266  1
  P  P26  1  0.896944  0.857826  0.897293  1
  P  P27  1  0.957306  0.501765  0.745984  1
  O  O28  1  0.057379  0.579187  0.645521  1
  O  O29  1  0.051007  0.424625  0.855614  1
  O  O30  1  0.080070  0.163151  0.600672  1
  O  O31  1  0.077597  0.845950  0.899049  1
  O  O32  1  0.151645  0.021562  0.070235  1
  O  O33  1  0.155133  0.963574  0.438432  1
  O  O34  1  0.146118  0.417129  0.159800  1
  O  O35  1  0.149595  0.575914  0.342164  1
  O  O36  1  0.160620  0.176009  0.265643  1
  O  O37  1  0.158293  0.819159  0.225715  1
  O  O38  1  0.160267  0.217950  0.977254  1
  O  O39  1  0.169170  0.763695  0.511007  1
  O  O40  1  0.323976  0.285237  0.484348  1
  O  O41  1  0.320453  0.733664  0.011431  1
  O  O42  1  0.356105  0.679453  0.722517  1
  O  O43  1  0.343962  0.326010  0.769453  1
  O  O44  1  0.353760  0.078394  0.659486  1
  O  O45  1  0.354090  0.923069  0.844660  1
  O  O46  1  0.351432  0.479406  0.572600  1
  O  O47  1  0.339592  0.541331  0.945906  1
  O  O48  1  0.427855  0.336344  0.098146  1
  O  O49  1  0.429963  0.658285  0.398598  1
  O  O50  1  0.442803  0.074469  0.353559  1
  O  O51  1  0.439347  0.923933  0.140908  1
  O  O52  1  0.558518  0.922316  0.649557  1
  O  O53  1  0.556294  0.077807  0.854317  1
  O  O54  1  0.579559  0.346510  0.603548  1
  O  O55  1  0.575578  0.661535  0.908819  1
  O  O56  1  0.657181  0.463010  0.061112  1
  O  O57  1  0.645959  0.516166  0.420374  1
  O  O58  1  0.644717  0.076919  0.156792  1
  O  O59  1  0.644687  0.918873  0.337497  1
  O  O60  1  0.659773  0.317881  0.274642  1
  O  O61  1  0.661427  0.675411  0.232682  1
  O  O62  1  0.692174  0.270462  0.990533  1
  O  O63  1  0.697095  0.705656  0.518740  1
  O  O64  1  0.823117  0.232554  0.490035  1
  O  O65  1  0.822579  0.783041  0.015760  1
  O  O66  1  0.855509  0.179138  0.780324  1
  O  O67  1  0.847451  0.820921  0.728411  1
  O  O68  1  0.855709  0.422566  0.653276  1
  O  O69  1  0.847772  0.581589  0.833416  1
  O  O70  1  0.845450  0.040698  0.560121  1
  O  O71  1  0.846083  0.976477  0.924154  1
  O  O72  1  0.920668  0.152597  0.105484  1
  O  O73  1  0.923829  0.838318  0.403391  1
  O  O74  1  0.941197  0.424419  0.356958  1
  O  O75  1  0.945020  0.573298  0.143411  1
