# generated using pymatgen
data_LiSiBiO4
_symmetry_space_group_name_H-M   'P 1'
_cell_length_a   8.93433121
_cell_length_b   5.37368413
_cell_length_c   8.85239863
_cell_angle_alpha   90.00000000
_cell_angle_beta   107.64590875
_cell_angle_gamma   90.00000000
_symmetry_Int_Tables_number   1
_chemical_formula_structural   LiSiBiO4
_chemical_formula_sum   'Li4 Si4 Bi4 O16'
_cell_volume   405.00873262
_cell_formula_units_Z   4
loop_
 _symmetry_equiv_pos_site_id
 _symmetry_equiv_pos_as_xyz
  1  'x, y, z'
loop_
 _atom_site_type_symbol
 _atom_site_label
 _atom_site_symmetry_multiplicity
 _atom_site_fract_x
 _atom_site_fract_y
 _atom_site_fract_z
 _atom_site_occupancy
  Li  Li0  1  0.216961  0.330731  0.867664  1
  Li  Li1  1  0.375391  0.826212  0.356161  1
  Li  Li2  1  0.716961  0.669269  0.867664  1
  Li  Li3  1  0.875391  0.173788  0.356161  1
  Si  Si4  1  0.993767  0.683669  0.248963  1
  Si  Si5  1  0.346883  0.792343  0.742285  1
  Si  Si6  1  0.493767  0.316331  0.248963  1
  Si  Si7  1  0.846883  0.207657  0.742285  1
  Bi  Bi8  1  0.072039  0.842182  0.963799  1
  Bi  Bi9  1  0.256293  0.322333  0.496343  1
  Bi  Bi10  1  0.572039  0.157818  0.963799  1
  Bi  Bi11  1  0.756293  0.677667  0.496343  1
  O  O12  1  0.014938  0.242290  0.888075  1
  O  O13  1  0.023720  0.390355  0.301245  1
  O  O14  1  0.199331  0.646835  0.773226  1
  O  O15  1  0.327034  0.103277  0.745368  1
  O  O16  1  0.159520  0.809004  0.238561  1
  O  O17  1  0.364442  0.694950  0.569572  1
  O  O18  1  0.514938  0.757710  0.888075  1
  O  O19  1  0.426517  0.176943  0.382213  1
  O  O20  1  0.376963  0.267953  0.065324  1
  O  O21  1  0.523720  0.609645  0.301245  1
  O  O22  1  0.699331  0.353165  0.773226  1
  O  O23  1  0.827034  0.896723  0.745368  1
  O  O24  1  0.659520  0.190996  0.238561  1
  O  O25  1  0.864442  0.305050  0.569572  1
  O  O26  1  0.926517  0.823057  0.382213  1
  O  O27  1  0.876963  0.732047  0.065324  1
