# generated using pymatgen
data_Li2MnNi3O8
_symmetry_space_group_name_H-M   'P 1'
_cell_length_a   5.67736355
_cell_length_b   5.86612045
_cell_length_c   5.70315101
_cell_angle_alpha   118.59295112
_cell_angle_beta   60.92682617
_cell_angle_gamma   89.30776053
_symmetry_Int_Tables_number   1
_chemical_formula_structural   Li2MnNi3O8
_chemical_formula_sum   'Li2 Mn1 Ni3 O8'
_cell_volume   138.15553319
_cell_formula_units_Z   1
loop_
 _symmetry_equiv_pos_site_id
 _symmetry_equiv_pos_as_xyz
  1  'x, y, z'
loop_
 _atom_site_type_symbol
 _atom_site_label
 _atom_site_symmetry_multiplicity
 _atom_site_fract_x
 _atom_site_fract_y
 _atom_site_fract_z
 _atom_site_occupancy
  Li  Li0  1  0.999998  0.499997  0.500011  1
  Li  Li1  1  0.500004  0.499998  0.499990  1
  Mn  Mn2  1  -0.000002  0.000011  0.000004  1
  Ni  Ni3  1  0.000001  0.000005  0.500000  1
  Ni  Ni4  1  0.500000  0.999996  -0.000004  1
  Ni  Ni5  1  0.500001  0.000004  0.500001  1
  O  O6  1  0.273795  0.196731  0.448460  1
  O  O7  1  0.258850  0.207990  0.988301  1
  O  O8  1  0.783531  0.208298  0.458439  1
  O  O9  1  0.741151  0.215654  0.005800  1
  O  O10  1  0.258859  0.784342  0.994198  1
  O  O11  1  0.216466  0.791701  0.541565  1
  O  O12  1  0.741146  0.792005  0.011703  1
  O  O13  1  0.726207  0.803275  0.551540  1
