# generated using pymatgen
data_SmBO3
_symmetry_space_group_name_H-M   'P 1'
_cell_length_a   4.21243068
_cell_length_b   4.05235911
_cell_length_c   8.81102350
_cell_angle_alpha   90.00060049
_cell_angle_beta   90.00002506
_cell_angle_gamma   121.31374451
_symmetry_Int_Tables_number   1
_chemical_formula_structural   SmBO3
_chemical_formula_sum   'Sm2 B2 O6'
_cell_volume   128.49754568
_cell_formula_units_Z   2
loop_
 _symmetry_equiv_pos_site_id
 _symmetry_equiv_pos_as_xyz
  1  'x, y, z'
loop_
 _atom_site_type_symbol
 _atom_site_label
 _atom_site_symmetry_multiplicity
 _atom_site_fract_x
 _atom_site_fract_y
 _atom_site_fract_z
 _atom_site_occupancy
  Sm  Sm0  1  0.056053  0.000020  -0.000001  1
  Sm  Sm1  1  0.056023  0.000019  0.500001  1
  B  B2  1  0.499208  0.742545  0.250002  1
  B  B3  1  0.756657  0.257480  0.749998  1
  O  O4  1  0.332346  0.657169  0.106914  1
  O  O5  1  0.332359  0.657181  0.393091  1
  O  O6  1  0.880224  0.932486  0.249997  1
  O  O7  1  0.675182  0.342827  0.606910  1
  O  O8  1  0.675160  0.342822  0.893087  1
  O  O9  1  0.947789  0.067551  0.750000  1
