# generated using pymatgen
data_Li3Mn4(BO3)4
_symmetry_space_group_name_H-M   'P 1'
_cell_length_a   5.88717626
_cell_length_b   5.30025433
_cell_length_c   9.01846030
_cell_angle_alpha   90.56787313
_cell_angle_beta   103.51847230
_cell_angle_gamma   113.10828080
_symmetry_Int_Tables_number   1
_chemical_formula_structural   Li3Mn4(BO3)4
_chemical_formula_sum   'Li3 Mn4 B4 O12'
_cell_volume   250.02688424
_cell_formula_units_Z   1
loop_
 _symmetry_equiv_pos_site_id
 _symmetry_equiv_pos_as_xyz
  1  'x, y, z'
loop_
 _atom_site_type_symbol
 _atom_site_label
 _atom_site_symmetry_multiplicity
 _atom_site_fract_x
 _atom_site_fract_y
 _atom_site_fract_z
 _atom_site_occupancy
  Li  Li0  1  0.682480  0.414892  0.031735  1
  Li  Li1  1  0.342430  0.082767  0.468243  1
  Li  Li2  1  0.320689  0.592934  0.969406  1
  Mn  Mn3  1  0.756979  0.459540  0.693984  1
  Mn  Mn4  1  0.761264  0.964757  0.211931  1
  Mn  Mn5  1  0.240071  0.046716  0.793557  1
  Mn  Mn6  1  0.255428  0.547205  0.306156  1
  B  B7  1  0.739177  0.442982  0.361600  1
  B  B8  1  0.260551  0.060357  0.134201  1
  B  B9  1  0.739907  0.941962  0.871498  1
  B  B10  1  0.256121  0.553679  0.631404  1
  O  O11  1  0.854212  0.394435  0.247829  1
  O  O12  1  0.707374  0.283293  0.477022  1
  O  O13  1  0.670259  0.167059  0.858127  1
  O  O14  1  0.639858  0.643279  0.337498  1
  O  O15  1  0.842259  0.871673  0.763171  1
  O  O16  1  0.298878  0.227857  0.019075  1
  O  O17  1  0.697032  0.780775  0.990315  1
  O  O18  1  0.172542  0.126115  0.255161  1
  O  O19  1  0.341327  0.341316  0.637872  1
  O  O20  1  0.324193  0.833235  0.141195  1
  O  O21  1  0.261481  0.710821  0.511509  1
  O  O22  1  0.166972  0.611985  0.753147  1
