# generated using pymatgen
data_NbCu(PO4)2
_symmetry_space_group_name_H-M   'P 1'
_cell_length_a   9.95246019
_cell_length_b   6.20711126
_cell_length_c   5.12146071
_cell_angle_alpha   90.00000000
_cell_angle_beta   91.18415802
_cell_angle_gamma   90.00000000
_symmetry_Int_Tables_number   1
_chemical_formula_structural   NbCu(PO4)2
_chemical_formula_sum   'Nb2 Cu2 P4 O16'
_cell_volume   316.31593052
_cell_formula_units_Z   2
loop_
 _symmetry_equiv_pos_site_id
 _symmetry_equiv_pos_as_xyz
  1  'x, y, z'
loop_
 _atom_site_type_symbol
 _atom_site_label
 _atom_site_symmetry_multiplicity
 _atom_site_fract_x
 _atom_site_fract_y
 _atom_site_fract_z
 _atom_site_occupancy
  Nb  Nb0  1  0.223991  0.750000  0.470462  1
  Nb  Nb1  1  0.776009  0.250000  0.529538  1
  Cu  Cu2  1  0.277406  0.250000  0.929687  1
  Cu  Cu3  1  0.722594  0.750000  0.070313  1
  P  P4  1  0.099904  0.250000  0.444402  1
  P  P5  1  0.402684  0.750000  0.896204  1
  P  P6  1  0.597316  0.250000  0.103796  1
  P  P7  1  0.900096  0.750000  0.555598  1
  O  O8  1  0.050681  0.750000  0.656088  1
  O  O9  1  0.104585  0.250000  0.738661  1
  O  O10  1  0.167263  0.045174  0.321795  1
  O  O11  1  0.167263  0.454826  0.321795  1
  O  O12  1  0.327599  0.938852  0.740710  1
  O  O13  1  0.327599  0.561148  0.740710  1
  O  O14  1  0.357015  0.750000  0.184942  1
  O  O15  1  0.448868  0.250000  0.129423  1
  O  O16  1  0.551132  0.750000  0.870577  1
  O  O17  1  0.642985  0.250000  0.815058  1
  O  O18  1  0.672401  0.061148  0.259290  1
  O  O19  1  0.672401  0.438852  0.259290  1
  O  O20  1  0.832737  0.545174  0.678205  1
  O  O21  1  0.832737  0.954826  0.678205  1
  O  O22  1  0.895415  0.750000  0.261339  1
  O  O23  1  0.949319  0.250000  0.343912  1
