# generated using pymatgen
data_Li2Nb6NiO18
_symmetry_space_group_name_H-M   'P 1'
_cell_length_a   11.15711878
_cell_length_b   8.96978465
_cell_length_c   7.67183064
_cell_angle_alpha   112.94822422
_cell_angle_beta   96.14544752
_cell_angle_gamma   105.55483187
_symmetry_Int_Tables_number   1
_chemical_formula_structural   Li2Nb6NiO18
_chemical_formula_sum   'Li4 Nb12 Ni2 O36'
_cell_volume   661.45471328
_cell_formula_units_Z   2
loop_
 _symmetry_equiv_pos_site_id
 _symmetry_equiv_pos_as_xyz
  1  'x, y, z'
loop_
 _atom_site_type_symbol
 _atom_site_label
 _atom_site_symmetry_multiplicity
 _atom_site_fract_x
 _atom_site_fract_y
 _atom_site_fract_z
 _atom_site_occupancy
  Li  Li0  1  0.052322  0.335756  0.448245  1
  Li  Li1  1  0.386635  0.674681  0.124439  1
  Li  Li2  1  0.552292  0.332115  0.455920  1
  Li  Li3  1  0.878307  0.660129  0.110651  1
  Nb  Nb4  1  0.006976  0.014030  0.491437  1
  Nb  Nb5  1  0.173885  0.654083  0.823042  1
  Nb  Nb6  1  0.155563  0.668950  0.333425  1
  Nb  Nb7  1  0.341865  0.340708  0.678791  1
  Nb  Nb8  1  0.341875  0.343295  0.179754  1
  Nb  Nb9  1  0.498007  0.997041  0.506038  1
  Nb  Nb10  1  0.669666  0.668847  0.839721  1
  Nb  Nb11  1  0.495038  0.987743  0.969751  1
  Nb  Nb12  1  0.680563  0.657505  0.344601  1
  Nb  Nb13  1  0.841739  0.352582  0.673776  1
  Nb  Nb14  1  0.826199  0.318722  0.148056  1
  Nb  Nb15  1  0.996192  0.001301  0.003897  1
  Ni  Ni16  1  0.194240  0.998910  0.801925  1
  Ni  Ni17  1  0.695673  0.000340  0.301984  1
  O  O18  1  0.044553  0.787747  0.309158  1
  O  O19  1  0.148538  0.884803  0.952041  1
  O  O20  1  0.033024  0.461886  0.290562  1
  O  O21  1  0.048407  0.093391  0.284972  1
  O  O22  1  0.203634  0.781585  0.623655  1
  O  O23  1  0.160301  0.611382  0.037280  1
  O  O24  1  0.221796  0.456262  0.644869  1
  O  O25  1  0.169995  0.181956  0.996150  1
  O  O26  1  0.336265  0.854410  0.355835  1
  O  O27  1  0.371051  0.783347  0.940334  1
  O  O28  1  0.207843  0.113240  0.630519  1
  O  O29  1  0.289723  0.530342  0.290053  1
  O  O30  1  0.372506  0.425683  0.946732  1
  O  O31  1  0.507212  0.915777  0.703089  1
  O  O32  1  0.338036  0.264928  0.370399  1
  O  O33  1  0.372325  0.103481  0.957348  1
  O  O34  1  0.497819  0.535227  0.700870  1
  O  O35  1  0.575219  0.810416  0.307292  1
  O  O36  1  0.472180  0.206269  0.631032  1
  O  O37  1  0.650216  0.889994  0.019640  1
  O  O38  1  0.534957  0.456491  0.273118  1
  O  O39  1  0.555476  0.076014  0.275590  1
  O  O40  1  0.705078  0.743803  0.610623  1
  O  O41  1  0.677688  0.598049  0.034484  1
  O  O42  1  0.721422  0.460058  0.652721  1
  O  O43  1  0.654945  0.204704  0.031933  1
  O  O44  1  0.821542  0.889991  0.352747  1
  O  O45  1  0.708272  0.111565  0.566637  1
  O  O46  1  0.875729  0.789738  0.946246  1
  O  O47  1  0.808618  0.542957  0.302981  1
  O  O48  1  0.864169  0.410276  0.940366  1
  O  O49  1  0.018915  0.931141  0.703006  1
  O  O50  1  0.817619  0.221561  0.344448  1
  O  O51  1  0.895004  0.132652  0.990349  1
  O  O52  1  0.996378  0.522431  0.675648  1
  O  O53  1  0.974076  0.209711  0.633965  1
