# generated using pymatgen
data_Li3V4(PO4)6
_symmetry_space_group_name_H-M   'P 1'
_cell_length_a   8.74295682
_cell_length_b   8.65681997
_cell_length_c   8.64059944
_cell_angle_alpha   89.55477530
_cell_angle_beta   60.49521769
_cell_angle_gamma   59.16107268
_symmetry_Int_Tables_number   1
_chemical_formula_structural   Li3V4(PO4)6
_chemical_formula_sum   'Li3 V4 P6 O24'
_cell_volume   461.74696160
_cell_formula_units_Z   1
loop_
 _symmetry_equiv_pos_site_id
 _symmetry_equiv_pos_as_xyz
  1  'x, y, z'
loop_
 _atom_site_type_symbol
 _atom_site_label
 _atom_site_symmetry_multiplicity
 _atom_site_fract_x
 _atom_site_fract_y
 _atom_site_fract_z
 _atom_site_occupancy
  Li  Li0  1  0.636125  0.705348  0.108663  1
  Li  Li1  1  0.391392  0.661557  0.642859  1
  Li  Li2  1  0.375098  0.183270  0.968401  1
  V  V3  1  0.203719  0.867511  0.154345  1
  V  V4  1  0.218893  0.361429  0.637663  1
  V  V5  1  0.795027  0.632737  0.357019  1
  V  V6  1  0.794147  0.134492  0.849525  1
  P  P7  1  0.275729  0.965117  0.474285  1
  P  P8  1  0.283297  0.459288  0.248247  1
  P  P9  1  0.000594  0.249295  0.035498  1
  P  P10  1  0.720745  0.536457  0.756071  1
  P  P11  1  0.001653  0.752997  0.957380  1
  P  P12  1  0.720959  0.037751  0.530307  1
  O  O13  1  0.317101  0.923586  0.277138  1
  O  O14  1  0.085821  0.961972  0.624857  1
  O  O15  1  0.247925  0.652252  0.228931  1
  O  O16  1  0.102101  0.451688  0.270674  1
  O  O17  1  0.476194  0.791728  0.456123  1
  O  O18  1  0.173230  0.080229  0.059292  1
  O  O19  1  0.486854  0.294761  0.062786  1
  O  O20  1  0.129874  0.803373  0.992168  1
  O  O21  1  0.865436  0.702711  0.113691  1
  O  O22  1  0.306688  0.435471  0.412836  1
  O  O23  1  0.178342  0.587706  0.765386  1
  O  O24  1  0.762234  0.846139  0.482159  1
  O  O25  1  0.247578  0.151604  0.517124  1
  O  O26  1  0.823254  0.423652  0.215774  1
  O  O27  1  0.673235  0.579731  0.605423  1
  O  O28  1  0.142291  0.297653  0.877661  1
  O  O29  1  0.889913  0.188066  0.988119  1
  O  O30  1  0.529646  0.694595  0.948536  1
  O  O31  1  0.834098  0.923737  0.935103  1
  O  O32  1  0.512227  0.205204  0.550964  1
  O  O33  1  0.919177  0.526868  0.717443  1
  O  O34  1  0.758193  0.343346  0.765626  1
  O  O35  1  0.911277  0.040281  0.378334  1
  O  O36  1  0.673585  0.084491  0.728852  1
