# generated using pymatgen
data_Na3CuO2
_symmetry_space_group_name_H-M   'P 1'
_cell_length_a   7.91365880
_cell_length_b   8.62118620
_cell_length_c   5.93494104
_cell_angle_alpha   90.00000000
_cell_angle_beta   112.62621208
_cell_angle_gamma   90.00000000
_symmetry_Int_Tables_number   1
_chemical_formula_structural   Na3CuO2
_chemical_formula_sum   'Na12 Cu4 O8'
_cell_volume   373.74776152
_cell_formula_units_Z   4
loop_
 _symmetry_equiv_pos_site_id
 _symmetry_equiv_pos_as_xyz
  1  'x, y, z'
loop_
 _atom_site_type_symbol
 _atom_site_label
 _atom_site_symmetry_multiplicity
 _atom_site_fract_x
 _atom_site_fract_y
 _atom_site_fract_z
 _atom_site_occupancy
  Na  Na0  1  0.001063  0.530762  0.753143  1
  Na  Na1  1  0.126521  0.973822  0.868121  1
  Na  Na2  1  0.187888  0.790276  0.426891  1
  Na  Na3  1  0.373479  0.473822  0.631879  1
  Na  Na4  1  0.312112  0.290276  0.073109  1
  Na  Na5  1  0.498937  0.030762  0.746857  1
  Na  Na6  1  0.501063  0.969238  0.253143  1
  Na  Na7  1  0.687888  0.709724  0.926891  1
  Na  Na8  1  0.626521  0.526178  0.368121  1
  Na  Na9  1  0.812112  0.209724  0.573109  1
  Na  Na10  1  0.873479  0.026178  0.131879  1
  Na  Na11  1  0.998937  0.469238  0.246857  1
  Cu  Cu12  1  0.173253  0.178505  0.464270  1
  Cu  Cu13  1  0.326747  0.678505  0.035730  1
  Cu  Cu14  1  0.673253  0.321495  0.964270  1
  Cu  Cu15  1  0.826747  0.821495  0.535730  1
  O  O16  1  0.117974  0.318082  0.649176  1
  O  O17  1  0.225493  0.041213  0.269739  1
  O  O18  1  0.382026  0.818082  0.850824  1
  O  O19  1  0.274507  0.541213  0.230261  1
  O  O20  1  0.725493  0.458787  0.769739  1
  O  O21  1  0.617974  0.181918  0.149176  1
  O  O22  1  0.774507  0.958787  0.730261  1
  O  O23  1  0.882026  0.681918  0.350824  1
