# generated using pymatgen
data_Fe38O39
_symmetry_space_group_name_H-M   'P 1'
_cell_length_a   40.34274536
_cell_length_b   24.61252332
_cell_length_c   10.25882715
_cell_angle_alpha   24.14690182
_cell_angle_beta   40.89789027
_cell_angle_gamma   19.04792241
_symmetry_Int_Tables_number   1
_chemical_formula_structural   Fe38O39
_chemical_formula_sum   'Fe38 O39'
_cell_volume   817.94299097
_cell_formula_units_Z   1
loop_
 _symmetry_equiv_pos_site_id
 _symmetry_equiv_pos_as_xyz
  1  'x, y, z'
loop_
 _atom_site_type_symbol
 _atom_site_label
 _atom_site_symmetry_multiplicity
 _atom_site_fract_x
 _atom_site_fract_y
 _atom_site_fract_z
 _atom_site_occupancy
  Fe  Fe0  1  0.076749  0.333557  0.001191  1
  Fe  Fe1  1  0.148344  0.355650  0.968855  1
  Fe  Fe2  1  0.225148  0.353174  0.966469  1
  Fe  Fe3  1  0.077606  0.663158  0.006886  1
  Fe  Fe4  1  0.308001  0.331337  0.003747  1
  Fe  Fe5  1  0.149030  0.678395  -0.002459  1
  Fe  Fe6  1  0.387054  0.329278  0.999756  1
  Fe  Fe7  1  0.225572  0.672861  0.005775  1
  Fe  Fe8  1  0.458250  0.338291  0.000222  1
  Fe  Fe9  1  0.079123  0.991650  0.004556  1
  Fe  Fe10  1  0.305016  0.674891  0.990286  1
  Fe  Fe11  1  0.537327  0.335130  0.003355  1
  Fe  Fe12  1  0.155824  0.991889  0.008973  1
  Fe  Fe13  1  0.385681  0.663666  0.002815  1
  Fe  Fe14  1  0.614319  0.336334  0.997185  1
  Fe  Fe15  1  0.233811  0.994063  0.005927  1
  Fe  Fe16  1  0.462673  0.664870  0.996645  1
  Fe  Fe17  1  0.694984  0.325109  0.009714  1
  Fe  Fe18  1  0.310045  0.992401  0.006158  1
  Fe  Fe19  1  0.541750  0.661709  -0.000222  1
  Fe  Fe20  1  0.774428  0.327139  0.994225  1
  Fe  Fe21  1  0.375184  0.023845  0.976356  1
  Fe  Fe22  1  0.612946  0.670722  0.000244  1
  Fe  Fe23  1  0.850970  0.321605  0.002459  1
  Fe  Fe24  1  0.468325  0.986013  0.014182  1
  Fe  Fe25  1  0.691999  0.668663  0.996253  1
  Fe  Fe26  1  0.922394  0.336842  0.993114  1
  Fe  Fe27  1  0.531675  0.013987  0.985818  1
  Fe  Fe28  1  0.774852  0.646826  0.033531  1
  Fe  Fe29  1  -0.000057  0.338309  0.986429  1
  Fe  Fe30  1  0.624816  0.976155  0.023644  1
  Fe  Fe31  1  0.851656  0.644350  0.031145  1
  Fe  Fe32  1  0.689955  0.007599  0.993842  1
  Fe  Fe33  1  0.923251  0.666443  0.998809  1
  Fe  Fe34  1  0.766189  0.005937  0.994073  1
  Fe  Fe35  1  0.000057  0.661691  0.013571  1
  Fe  Fe36  1  0.844176  0.008111  0.991027  1
  Fe  Fe37  1  0.920877  0.008350  0.995444  1
  O  O38  1  0.075233  0.173340  0.485812  1
  O  O39  1  0.158872  0.152674  0.512677  1
  O  O40  1  0.232946  0.169901  0.490165  1
  O  O41  1  0.069450  0.513384  0.492865  1
  O  O42  1  0.307958  0.169464  0.504528  1
  O  O43  1  0.154028  0.502213  0.479984  1
  O  O44  1  0.372805  0.197930  0.458631  1
  O  O45  1  0.250632  0.451113  0.549475  1
  O  O46  1  0.456312  0.178670  0.494959  1
  O  O47  1  0.060303  0.871295  0.463860  1
  O  O48  1  0.301418  0.511920  0.490549  1
  O  O49  1  0.545145  0.143317  0.529987  1
  O  O50  1  0.158499  0.809514  0.540360  1
  O  O51  1  0.376270  0.518014  0.483340  1
  O  O52  1  0.616881  0.165705  0.493512  1
  O  O53  1  0.237225  0.816584  0.521163  1
  O  O54  1  0.460675  0.495651  0.504336  1
  O  O55  1  0.688104  0.166029  0.511987  1
  O  O56  1  0.311896  0.833971  0.488013  1
  O  O57  1  0.539325  0.504349  0.495664  1
  O  O58  1  0.762775  0.183416  0.478837  1
  O  O59  1  0.383119  0.834295  0.506488  1
  O  O60  1  0.623730  0.481986  0.516660  1
  O  O61  1  0.841501  0.190486  0.459640  1
  O  O62  1  0.454855  0.856683  0.470013  1
  O  O63  1  0.698582  0.488080  0.509451  1
  O  O64  1  0.939697  0.128705  0.536140  1
  O  O65  1  0.543688  0.821330  0.505041  1
  O  O66  1  0.749368  0.548887  0.450525  1
  O  O67  1  0.004767  0.164307  0.476226  1
  O  O68  1  0.627195  0.802070  0.541369  1
  O  O69  1  0.845972  0.497787  0.520016  1
  O  O70  1  0.692042  0.830536  0.495472  1
  O  O71  1  0.930550  0.486616  0.507135  1
  O  O72  1  0.767054  0.830099  0.509835  1
  O  O73  1  0.000000  0.500000  0.500000  1
  O  O74  1  0.841128  0.847326  0.487323  1
  O  O75  1  0.924767  0.826660  0.514189  1
  O  O76  1  0.995233  0.835693  0.523774  1
