# generated using pymatgen
data_CrTe
_symmetry_space_group_name_H-M   'P 1'
_cell_length_a   4.13682875
_cell_length_b   4.13682875
_cell_length_c   6.32906556
_cell_angle_alpha   90.00000000
_cell_angle_beta   90.00000000
_cell_angle_gamma   119.99999993
_symmetry_Int_Tables_number   1
_chemical_formula_structural   CrTe
_chemical_formula_sum   'Cr2 Te2'
_cell_volume   93.80053432
_cell_formula_units_Z   2
loop_
 _symmetry_equiv_pos_site_id
 _symmetry_equiv_pos_as_xyz
  1  'x, y, z'
loop_
 _atom_site_type_symbol
 _atom_site_label
 _atom_site_symmetry_multiplicity
 _atom_site_fract_x
 _atom_site_fract_y
 _atom_site_fract_z
 _atom_site_occupancy
  Cr  Cr0  1  0.000000  0.000000  0.000000  1
  Cr  Cr1  1  0.000000  0.000000  0.500000  1
  Te  Te2  1  0.333333  0.666667  0.250000  1
  Te  Te3  1  0.666667  0.333333  0.750000  1
