# generated using pymatgen
data_Li3V3P8O29
_symmetry_space_group_name_H-M   'P 1'
_cell_length_a   9.74340978
_cell_length_b   9.75348879
_cell_length_c   14.35193016
_cell_angle_alpha   90.48659091
_cell_angle_beta   91.12572516
_cell_angle_gamma   60.36224243
_symmetry_Int_Tables_number   1
_chemical_formula_structural   Li3V3P8O29
_chemical_formula_sum   'Li6 V6 P16 O58'
_cell_volume   1185.22650552
_cell_formula_units_Z   2
loop_
 _symmetry_equiv_pos_site_id
 _symmetry_equiv_pos_as_xyz
  1  'x, y, z'
loop_
 _atom_site_type_symbol
 _atom_site_label
 _atom_site_symmetry_multiplicity
 _atom_site_fract_x
 _atom_site_fract_y
 _atom_site_fract_z
 _atom_site_occupancy
  Li  Li0  1  0.774070  0.315047  0.054954  1
  Li  Li1  1  0.300328  0.916758  0.057545  1
  Li  Li2  1  0.325949  0.772394  0.560295  1
  Li  Li3  1  0.694123  0.079152  0.936448  1
  Li  Li4  1  0.086333  0.679007  0.443531  1
  Li  Li5  1  0.937982  0.080949  0.496467  1
  V  V6  1  0.564540  0.430453  0.254577  1
  V  V7  1  0.433762  0.564511  0.752387  1
  V  V8  1  0.569331  0.990782  0.742763  1
  V  V9  1  0.435133  0.004476  0.256772  1
  V  V10  1  0.999029  0.564255  0.245453  1
  V  V11  1  0.999121  0.434630  0.749469  1
  P  P12  1  0.917950  0.773781  0.838570  1
  P  P13  1  0.784772  0.915145  0.337406  1
  P  P14  1  0.920279  0.307156  0.341728  1
  P  P15  1  0.658025  0.667610  0.134003  1
  P  P16  1  0.665366  0.662114  0.630136  1
  P  P17  1  0.773710  0.318857  0.841023  1
  P  P18  1  0.687688  0.226064  0.661717  1
  P  P19  1  0.321810  0.910377  0.843274  1
  P  P20  1  0.679391  0.089183  0.156177  1
  P  P21  1  0.317337  0.770562  0.342023  1
  P  P22  1  0.227104  0.683199  0.161683  1
  P  P23  1  0.331146  0.337827  0.368834  1
  P  P24  1  0.339411  0.325609  0.866605  1
  P  P25  1  0.086137  0.686078  0.657212  1
  P  P26  1  0.217358  0.085722  0.664140  1
  P  P27  1  0.087093  0.224089  0.160795  1
  O  O28  1  0.016813  0.762231  0.565763  1
  O  O29  1  0.919261  0.739352  0.334263  1
  O  O30  1  0.739747  0.019001  0.063914  1
  O  O31  1  0.745048  0.917161  0.832522  1
  O  O32  1  0.909800  0.619251  0.819539  1
  O  O33  1  0.813597  0.657460  0.180619  1
  O  O34  1  0.926289  0.461536  0.329021  1
  O  O35  1  0.993162  0.231749  0.076701  1
  O  O36  1  0.918677  0.341721  0.834834  1
  O  O37  1  0.671328  0.810660  0.675090  1
  O  O38  1  0.620925  0.919588  0.328662  1
  O  O39  1  0.811573  0.516002  0.675683  1
  O  O40  1  0.660186  0.668347  0.030853  1
  O  O41  1  0.661400  0.670827  0.526936  1
  O  O42  1  0.657867  0.518355  0.173036  1
  O  O43  1  0.481026  0.900962  0.819476  1
  O  O44  1  0.517487  0.818866  0.177984  1
  O  O45  1  0.744531  0.346973  0.327161  1
  O  O46  1  0.789126  0.203403  0.757136  1
  O  O47  1  0.784306  0.208823  0.580114  1
  O  O48  1  0.761253  0.246405  0.929910  1
  O  O49  1  0.622573  0.480453  0.821281  1
  O  O50  1  0.510936  0.672660  0.669294  1
  O  O51  1  0.660660  0.257057  0.165281  1
  O  O52  1  0.476161  0.615948  0.326552  1
  O  O53  1  0.345024  0.913382  0.333613  1
  O  O54  1  0.799560  0.987297  0.239168  1
  O  O55  1  0.805866  0.998561  0.418064  1
  O  O56  1  0.203017  0.994129  0.584661  1
  O  O57  1  0.646784  0.091069  0.669586  1
  O  O58  1  0.534458  0.386327  0.671329  1
  O  O59  1  0.344377  0.741655  0.828710  1
  O  O60  1  0.482958  0.330160  0.323739  1
  O  O61  1  0.379408  0.522823  0.179738  1
  O  O62  1  0.231391  0.771008  0.079806  1
  O  O63  1  0.240500  0.767894  0.430979  1
  O  O64  1  0.203553  0.787263  0.256002  1
  O  O65  1  0.258981  0.657198  0.664935  1
  O  O66  1  0.485072  0.175097  0.827742  1
  O  O67  1  0.520379  0.097929  0.182035  1
  O  O68  1  0.348118  0.470035  0.818569  1
  O  O69  1  0.340982  0.336132  0.969465  1
  O  O70  1  0.335864  0.339152  0.471891  1
  O  O71  1  0.185991  0.489606  0.327310  1
  O  O72  1  0.380331  0.080448  0.671296  1
  O  O73  1  0.328251  0.188899  0.324755  1
  O  O74  1  0.083535  0.654920  0.166676  1
  O  O75  1  0.995489  0.796869  0.743647  1
  O  O76  1  0.002757  0.774422  0.924159  1
  O  O77  1  0.086709  0.528657  0.673422  1
  O  O78  1  0.186259  0.337426  0.820983  1
  O  O79  1  0.095895  0.378566  0.177906  1
  O  O80  1  0.257681  0.080941  0.162923  1
  O  O81  1  0.259516  0.979751  0.935086  1
  O  O82  1  0.200010  0.013735  0.761701  1
  O  O83  1  0.083093  0.258944  0.666584  1
  O  O84  1  0.989941  0.214055  0.427467  1
  O  O85  1  0.008298  0.200406  0.252339  1
