# generated using pymatgen
data_Co2O3F
_symmetry_space_group_name_H-M   'P 1'
_cell_length_a   4.37704042
_cell_length_b   9.23514731
_cell_length_c   5.93081653
_cell_angle_alpha   71.27052262
_cell_angle_beta   90.00000000
_cell_angle_gamma   87.45961810
_symmetry_Int_Tables_number   1
_chemical_formula_structural   Co2O3F
_chemical_formula_sum   'Co8 O12 F4'
_cell_volume   226.79496999
_cell_formula_units_Z   4
loop_
 _symmetry_equiv_pos_site_id
 _symmetry_equiv_pos_as_xyz
  1  'x, y, z'
loop_
 _atom_site_type_symbol
 _atom_site_label
 _atom_site_symmetry_multiplicity
 _atom_site_fract_x
 _atom_site_fract_y
 _atom_site_fract_z
 _atom_site_occupancy
  Co  Co0  1  0.477301  0.238051  0.630974  1
  Co  Co1  1  0.527153  0.263540  0.118230  1
  Co  Co2  1  0.472847  0.736460  0.381770  1
  Co  Co3  1  0.522699  0.761949  0.869026  1
  Co  Co4  1  0.000000  0.000000  0.505868  1
  Co  Co5  1  0.000000  0.500000  0.750000  1
  Co  Co6  1  0.000000  0.000000  0.994132  1
  Co  Co7  1  0.000000  0.500000  0.250000  1
  O  O8  1  0.807316  0.404025  0.047988  1
  O  O9  1  0.805474  0.903884  0.798058  1
  O  O10  1  0.692985  0.150478  0.925858  1
  O  O11  1  0.694179  0.653432  0.174663  1
  O  O12  1  0.692985  0.150478  0.423664  1
  O  O13  1  0.694179  0.653432  0.671904  1
  O  O14  1  0.307015  0.849522  0.076336  1
  O  O15  1  0.305821  0.346568  0.828096  1
  O  O16  1  0.305821  0.346568  0.325337  1
  O  O17  1  0.307015  0.849522  0.574142  1
  O  O18  1  0.192684  0.595975  0.452012  1
  O  O19  1  0.194526  0.096116  0.701942  1
  F  F20  1  0.783902  0.389849  0.555076  1
  F  F21  1  0.799643  0.896528  0.301736  1
  F  F22  1  0.216098  0.610151  0.944924  1
  F  F23  1  0.200357  0.103472  0.198264  1
