# generated using pymatgen
data_LiCu2PO4
_symmetry_space_group_name_H-M   'P 1'
_cell_length_a   6.23702541
_cell_length_b   10.89669513
_cell_length_c   5.26309052
_cell_angle_alpha   90.00002341
_cell_angle_beta   89.99981381
_cell_angle_gamma   89.99989881
_symmetry_Int_Tables_number   1
_chemical_formula_structural   LiCu2PO4
_chemical_formula_sum   'Li4 Cu8 P4 O16'
_cell_volume   357.69523370
_cell_formula_units_Z   4
loop_
 _symmetry_equiv_pos_site_id
 _symmetry_equiv_pos_as_xyz
  1  'x, y, z'
loop_
 _atom_site_type_symbol
 _atom_site_label
 _atom_site_symmetry_multiplicity
 _atom_site_fract_x
 _atom_site_fract_y
 _atom_site_fract_z
 _atom_site_occupancy
  Li  Li0  1  0.250000  0.417015  0.798119  1
  Li  Li1  1  0.250000  0.917016  0.701880  1
  Li  Li2  1  0.750000  0.082985  0.298119  1
  Li  Li3  1  0.750000  0.582985  0.201879  1
  Cu  Cu4  1  0.970532  0.325114  0.197117  1
  Cu  Cu5  1  0.970530  0.825115  0.302879  1
  Cu  Cu6  1  0.529445  0.325123  0.197128  1
  Cu  Cu7  1  0.529480  0.825115  0.302884  1
  Cu  Cu8  1  0.470530  0.674887  0.802876  1
  Cu  Cu9  1  0.470563  0.174880  0.697125  1
  Cu  Cu10  1  0.029481  0.674884  0.802887  1
  Cu  Cu11  1  0.029438  0.174875  0.697123  1
  P  P12  1  0.250001  0.078651  0.194669  1
  P  P13  1  0.250000  0.578650  0.305329  1
  P  P14  1  0.749999  0.421349  0.694669  1
  P  P15  1  0.749999  0.921349  0.805330  1
  O  O16  1  0.044653  0.149500  0.281550  1
  O  O17  1  0.044652  0.649501  0.218451  1
  O  O18  1  0.250000  0.068471  0.897457  1
  O  O19  1  0.250000  0.449220  0.184535  1
  O  O20  1  0.249999  0.949219  0.315465  1
  O  O21  1  0.250002  0.568469  0.602540  1
  O  O22  1  0.455348  0.149502  0.281547  1
  O  O23  1  0.455348  0.649500  0.218448  1
  O  O24  1  0.544653  0.850500  0.718451  1
  O  O25  1  0.544652  0.350500  0.781549  1
  O  O26  1  0.750000  0.050780  0.684536  1
  O  O27  1  0.749998  0.431531  0.397457  1
  O  O28  1  0.749999  0.550781  0.815463  1
  O  O29  1  0.750002  0.931531  0.102541  1
  O  O30  1  0.955348  0.350500  0.781548  1
  O  O31  1  0.955348  0.850501  0.718448  1
