# generated using pymatgen
data_LiAgF3
_symmetry_space_group_name_H-M   'P 1'
_cell_length_a   5.42523069
_cell_length_b   5.70432528
_cell_length_c   5.46548579
_cell_angle_alpha   63.51466733
_cell_angle_beta   61.99839103
_cell_angle_gamma   85.85289081
_symmetry_Int_Tables_number   1
_chemical_formula_structural   LiAgF3
_chemical_formula_sum   'Li2 Ag2 F6'
_cell_volume   131.64187130
_cell_formula_units_Z   2
loop_
 _symmetry_equiv_pos_site_id
 _symmetry_equiv_pos_as_xyz
  1  'x, y, z'
loop_
 _atom_site_type_symbol
 _atom_site_label
 _atom_site_symmetry_multiplicity
 _atom_site_fract_x
 _atom_site_fract_y
 _atom_site_fract_z
 _atom_site_occupancy
  Li  Li0  1  0.374957  0.064117  0.284525  1
  Li  Li1  1  0.624955  0.935709  0.715620  1
  Ag  Ag2  1  0.161723  0.458303  0.695706  1
  Ag  Ag3  1  0.838242  0.541593  0.304362  1
  F  F4  1  0.061645  0.247720  0.495008  1
  F  F5  1  0.591511  0.795515  0.134654  1
  F  F6  1  0.297153  0.761889  0.756002  1
  F  F7  1  0.702855  0.238255  0.243861  1
  F  F8  1  0.408556  0.204569  0.865330  1
  F  F9  1  0.938403  0.752330  0.504932  1
