# generated using pymatgen
data_Li5Zn4(BO3)4
_symmetry_space_group_name_H-M   'P 1'
_cell_length_a   5.13250215
_cell_length_b   5.11635177
_cell_length_c   11.51355910
_cell_angle_alpha   89.29308752
_cell_angle_beta   90.58586282
_cell_angle_gamma   59.91325267
_symmetry_Int_Tables_number   1
_chemical_formula_structural   Li5Zn4(BO3)4
_chemical_formula_sum   'Li5 Zn4 B4 O12'
_cell_volume   261.54009991
_cell_formula_units_Z   1
loop_
 _symmetry_equiv_pos_site_id
 _symmetry_equiv_pos_as_xyz
  1  'x, y, z'
loop_
 _atom_site_type_symbol
 _atom_site_label
 _atom_site_symmetry_multiplicity
 _atom_site_fract_x
 _atom_site_fract_y
 _atom_site_fract_z
 _atom_site_occupancy
  Li  Li0  1  0.339624  0.684504  0.839085  1
  Li  Li1  1  0.361628  0.662006  0.468648  1
  Li  Li2  1  0.339342  0.630641  0.284953  1
  Li  Li3  1  0.687482  0.331192  0.666509  1
  Li  Li4  1  0.662980  0.348892  0.080381  1
  Zn  Zn5  1  0.985394  0.671502  0.639222  1
  Zn  Zn6  1  0.685366  0.987001  0.887898  1
  Zn  Zn7  1  0.001186  0.325504  0.366283  1
  Zn  Zn8  1  0.312305  0.018908  0.102189  1
  B  B9  1  0.009328  0.333574  0.870373  1
  B  B10  1  0.669839  0.991161  0.377909  1
  B  B11  1  0.329019  0.014297  0.632909  1
  B  B12  1  0.987771  0.670781  0.116112  1
  O  O13  1  0.026805  0.589060  0.839426  1
  O  O14  1  0.420066  0.949278  0.364181  1
  O  O15  1  0.345822  0.730037  0.637994  1
  O  O16  1  0.267742  0.653203  0.122472  1
  O  O17  1  0.055493  0.268236  0.604339  1
  O  O18  1  0.733186  0.942531  0.080338  1
  O  O19  1  0.265668  0.062236  0.903584  1
  O  O20  1  0.961555  0.738397  0.392108  1
  O  O21  1  0.730049  0.349640  0.868032  1
  O  O22  1  0.629243  0.283185  0.377520  1
  O  O23  1  0.586543  0.029021  0.656129  1
  O  O24  1  0.964462  0.418513  0.146004  1
