# generated using pymatgen
data_LiMnF3
_symmetry_space_group_name_H-M   'P 1'
_cell_length_a   7.96669655
_cell_length_b   7.13011893
_cell_length_c   7.27453860
_cell_angle_alpha   89.95698174
_cell_angle_beta   95.14485216
_cell_angle_gamma   103.13989699
_symmetry_Int_Tables_number   1
_chemical_formula_structural   LiMnF3
_chemical_formula_sum   'Li6 Mn6 F18'
_cell_volume   400.69692973
_cell_formula_units_Z   6
loop_
 _symmetry_equiv_pos_site_id
 _symmetry_equiv_pos_as_xyz
  1  'x, y, z'
loop_
 _atom_site_type_symbol
 _atom_site_label
 _atom_site_symmetry_multiplicity
 _atom_site_fract_x
 _atom_site_fract_y
 _atom_site_fract_z
 _atom_site_occupancy
  Li  Li0  1  0.083222  0.262793  0.451766  1
  Li  Li1  1  0.324902  0.588431  0.237883  1
  Li  Li2  1  0.330241  0.073715  0.245458  1
  Li  Li3  1  0.669759  0.926285  0.754542  1
  Li  Li4  1  0.675098  0.411569  0.762117  1
  Li  Li5  1  0.916778  0.737207  0.548234  1
  Mn  Mn6  1  0.041201  0.762094  0.041324  1
  Mn  Mn7  1  0.958799  0.237906  0.958676  1
  Mn  Mn8  1  0.267366  0.564060  0.737807  1
  Mn  Mn9  1  0.289081  0.077913  0.748801  1
  Mn  Mn10  1  0.710919  0.922087  0.251199  1
  Mn  Mn11  1  0.732634  0.435940  0.262193  1
  F  F12  1  0.088651  0.777100  0.749600  1
  F  F13  1  0.077880  0.266489  0.708355  1
  F  F14  1  0.171045  0.499263  0.007738  1
  F  F15  1  0.226483  0.512685  0.455413  1
  F  F16  1  0.284444  0.821764  0.188420  1
  F  F17  1  0.238988  0.098341  0.466985  1
  F  F18  1  0.177619  0.090245  0.009975  1
  F  F19  1  0.428489  0.848621  0.763599  1
  F  F20  1  0.435643  0.371815  0.781340  1
  F  F21  1  0.564357  0.628185  0.218660  1
  F  F22  1  0.571511  0.151379  0.236401  1
  F  F23  1  0.822381  0.909755  0.990025  1
  F  F24  1  0.761012  0.901659  0.533015  1
  F  F25  1  0.715556  0.178236  0.811580  1
  F  F26  1  0.773517  0.487315  0.544587  1
  F  F27  1  0.828955  0.500737  0.992262  1
  F  F28  1  0.922120  0.733511  0.291645  1
  F  F29  1  0.911349  0.222900  0.250400  1
