# generated using pymatgen
data_Fe3O5F
_symmetry_space_group_name_H-M   'P 1'
_cell_length_a   7.36891411
_cell_length_b   5.54805085
_cell_length_c   5.54805085
_cell_angle_alpha   70.68024405
_cell_angle_beta   70.55607292
_cell_angle_gamma   70.55607292
_symmetry_Int_Tables_number   1
_chemical_formula_structural   Fe3O5F
_chemical_formula_sum   'Fe6 O10 F2'
_cell_volume   195.41481391
_cell_formula_units_Z   2
loop_
 _symmetry_equiv_pos_site_id
 _symmetry_equiv_pos_as_xyz
  1  'x, y, z'
loop_
 _atom_site_type_symbol
 _atom_site_label
 _atom_site_symmetry_multiplicity
 _atom_site_fract_x
 _atom_site_fract_y
 _atom_site_fract_z
 _atom_site_occupancy
  Fe  Fe0  1  0.847030  0.675856  0.675856  1
  Fe  Fe1  1  0.663280  0.326145  0.326145  1
  Fe  Fe2  1  0.323271  0.656178  0.656178  1
  Fe  Fe3  1  0.162828  0.330751  0.330751  1
  Fe  Fe4  1  0.509765  0.004002  0.004002  1
  Fe  Fe5  1  0.992080  0.004010  0.004010  1
  O  O6  1  0.666173  0.031716  0.644405  1
  O  O7  1  0.329399  0.357486  0.968738  1
  O  O8  1  0.953848  0.229580  0.229580  1
  O  O9  1  0.039250  0.777407  0.777407  1
  O  O10  1  0.377809  0.428605  0.428605  1
  O  O11  1  0.700626  0.101860  0.101860  1
  O  O12  1  0.329399  0.968738  0.357486  1
  O  O13  1  0.666173  0.644405  0.031716  1
  O  O14  1  0.003892  0.307823  0.691621  1
  O  O15  1  0.003892  0.691621  0.307823  1
  F  F16  1  0.302631  0.894786  0.894786  1
  F  F17  1  0.628653  0.569032  0.569032  1
