# generated using pymatgen
data_Na5H29(IO12)2
_symmetry_space_group_name_H-M   'P 1'
_cell_length_a   8.80539328
_cell_length_b   8.76031498
_cell_length_c   9.27177568
_cell_angle_alpha   76.25114209
_cell_angle_beta   60.70792807
_cell_angle_gamma   86.35434436
_symmetry_Int_Tables_number   1
_chemical_formula_structural   Na5H29(IO12)2
_chemical_formula_sum   'Na5 H29 I2 O24'
_cell_volume   604.71200026
_cell_formula_units_Z   1
loop_
 _symmetry_equiv_pos_site_id
 _symmetry_equiv_pos_as_xyz
  1  'x, y, z'
loop_
 _atom_site_type_symbol
 _atom_site_label
 _atom_site_symmetry_multiplicity
 _atom_site_fract_x
 _atom_site_fract_y
 _atom_site_fract_z
 _atom_site_occupancy
  Na  Na0  1  0.000000  0.000000  0.000000  1
  Na  Na1  1  0.271799  0.124224  0.111631  1
  Na  Na2  1  0.296757  0.357348  0.354555  1
  Na  Na3  1  0.703243  0.642652  0.645445  1
  Na  Na4  1  0.728201  0.875776  0.888369  1
  H  H5  1  0.013487  0.665608  0.117131  1
  H  H6  1  0.972580  0.007111  0.389916  1
  H  H7  1  0.100996  0.403645  0.187985  1
  H  H8  1  0.020978  0.785117  0.350627  1
  H  H9  1  0.276601  0.441114  0.014447  1
  H  H10  1  0.095148  0.661235  0.446997  1
  H  H11  1  0.389506  0.810699  0.147981  1
  H  H12  1  0.500000  0.000000  0.000000  1
  H  H13  1  0.119863  0.891916  0.699723  1
  H  H14  1  0.523475  0.157473  0.184210  1
  H  H15  1  0.162098  0.695090  0.929075  1
  H  H16  1  0.477937  0.091160  0.375167  1
  H  H17  1  0.525622  0.552212  0.254631  1
  H  H18  1  0.327512  0.213950  0.751071  1
  H  H19  1  0.618192  0.947491  0.177886  1
  H  H20  1  0.381808  0.052509  0.822114  1
  H  H21  1  0.672488  0.786050  0.248929  1
  H  H22  1  0.474378  0.447788  0.745369  1
  H  H23  1  0.522063  0.908840  0.624833  1
  H  H24  1  0.837902  0.304910  0.070925  1
  H  H25  1  0.476525  0.842527  0.815790  1
  H  H26  1  0.880137  0.108084  0.300277  1
  H  H27  1  0.610494  0.189301  0.852019  1
  H  H28  1  0.904852  0.338765  0.553003  1
  H  H29  1  0.723399  0.558886  0.985553  1
  H  H30  1  0.979022  0.214883  0.649373  1
  H  H31  1  0.899003  0.596355  0.812015  1
  H  H32  1  0.027420  0.992889  0.610084  1
  H  H33  1  0.986513  0.334392  0.882869  1
  I  I34  1  0.327600  0.594626  0.589693  1
  I  I35  1  0.672400  0.405374  0.410307  1
  O  O36  1  0.979985  0.038301  0.278848  1
  O  O37  1  0.089890  0.749654  0.017331  1
  O  O38  1  0.226652  0.381414  0.134260  1
  O  O39  1  0.012057  0.283848  0.537250  1
  O  O40  1  0.417289  0.877746  0.036058  1
  O  O41  1  0.103600  0.515907  0.737108  1
  O  O42  1  0.315860  0.623731  0.390019  1
  O  O43  1  0.426960  0.111339  0.299769  1
  O  O44  1  0.313373  0.797260  0.612556  1
  O  O45  1  0.406027  0.371044  0.558462  1
  O  O46  1  0.287114  0.124134  0.851876  1
  O  O47  1  0.610363  0.468711  0.218837  1
  O  O48  1  0.389637  0.531289  0.781163  1
  O  O49  1  0.712886  0.875866  0.148124  1
  O  O50  1  0.593973  0.628956  0.441538  1
  O  O51  1  0.686627  0.202740  0.387444  1
  O  O52  1  0.573040  0.888661  0.700231  1
  O  O53  1  0.684140  0.376269  0.609981  1
  O  O54  1  0.896400  0.484093  0.262892  1
  O  O55  1  0.582711  0.122254  0.963942  1
  O  O56  1  0.987943  0.716152  0.462750  1
  O  O57  1  0.773348  0.618586  0.865740  1
  O  O58  1  0.910110  0.250346  0.982669  1
  O  O59  1  0.020015  0.961699  0.721152  1
