# generated using pymatgen
data_BaNa2O2
_symmetry_space_group_name_H-M   'P 1'
_cell_length_a   3.80499607
_cell_length_b   6.87010302
_cell_length_c   7.87331960
_cell_angle_alpha   90.00000000
_cell_angle_beta   90.00000000
_cell_angle_gamma   106.07671461
_symmetry_Int_Tables_number   1
_chemical_formula_structural   BaNa2O2
_chemical_formula_sum   'Ba2 Na4 O4'
_cell_volume   197.76517595
_cell_formula_units_Z   2
loop_
 _symmetry_equiv_pos_site_id
 _symmetry_equiv_pos_as_xyz
  1  'x, y, z'
loop_
 _atom_site_type_symbol
 _atom_site_label
 _atom_site_symmetry_multiplicity
 _atom_site_fract_x
 _atom_site_fract_y
 _atom_site_fract_z
 _atom_site_occupancy
  Ba  Ba0  1  0.192892  0.385783  0.066500  1
  Ba  Ba1  1  0.807108  0.614217  0.566500  1
  Na  Na2  1  0.056361  0.112721  0.610062  1
  Na  Na3  1  0.424180  0.848361  0.856786  1
  Na  Na4  1  0.943639  0.887279  0.110062  1
  Na  Na5  1  0.575820  0.151639  0.356786  1
  O  O6  1  0.188388  0.376778  0.411398  1
  O  O7  1  0.455551  0.911102  0.570145  1
  O  O8  1  0.544449  0.088898  0.070145  1
  O  O9  1  0.811612  0.623222  0.911398  1
