# generated using pymatgen
data_K5CeNi2(NO2)12
_symmetry_space_group_name_H-M   'P 1'
_cell_length_a   10.71452862
_cell_length_b   10.71452862
_cell_length_c   10.71452862
_cell_angle_alpha   90.00000000
_cell_angle_beta   90.00000000
_cell_angle_gamma   90.00000000
_symmetry_Int_Tables_number   1
_chemical_formula_structural   K5CeNi2(NO2)12
_chemical_formula_sum   'K10 Ce2 Ni4 N24 O48'
_cell_volume   1230.03992387
_cell_formula_units_Z   2
loop_
 _symmetry_equiv_pos_site_id
 _symmetry_equiv_pos_as_xyz
  1  'x, y, z'
loop_
 _atom_site_type_symbol
 _atom_site_label
 _atom_site_symmetry_multiplicity
 _atom_site_fract_x
 _atom_site_fract_y
 _atom_site_fract_z
 _atom_site_occupancy
  K  K0  1  0.500000  0.500000  0.000000  1
  K  K1  1  0.500000  0.000000  0.500000  1
  K  K2  1  0.250000  0.750000  0.750000  1
  K  K3  1  0.750000  0.250000  0.250000  1
  K  K4  1  0.750000  0.250000  0.750000  1
  K  K5  1  0.000000  0.000000  0.000000  1
  K  K6  1  0.750000  0.750000  0.250000  1
  K  K7  1  0.250000  0.750000  0.250000  1
  K  K8  1  0.000000  0.500000  0.500000  1
  K  K9  1  0.250000  0.250000  0.750000  1
  Ce  Ce10  1  0.250000  0.250000  0.250000  1
  Ce  Ce11  1  0.750000  0.750000  0.750000  1
  Ni  Ni12  1  0.000000  0.000000  0.500000  1
  Ni  Ni13  1  0.500000  0.000000  0.000000  1
  Ni  Ni14  1  0.000000  0.500000  0.000000  1
  Ni  Ni15  1  0.500000  0.500000  0.500000  1
  N  N16  1  0.504766  0.507021  0.695841  1
  N  N17  1  0.804159  0.995234  0.507021  1
  N  N18  1  0.695841  0.995234  0.992979  1
  N  N19  1  0.507021  0.804159  0.995234  1
  N  N20  1  0.995234  0.992979  0.695841  1
  N  N21  1  0.007021  0.304159  0.004766  1
  N  N22  1  0.304159  0.004766  0.007021  1
  N  N23  1  0.804159  0.504766  0.992979  1
  N  N24  1  0.507021  0.695841  0.504766  1
  N  N25  1  0.004766  0.492979  0.195841  1
  N  N26  1  0.992979  0.804159  0.504766  1
  N  N27  1  0.495234  0.492979  0.304159  1
  N  N28  1  0.504766  0.992979  0.804159  1
  N  N29  1  0.007021  0.195841  0.495234  1
  N  N30  1  0.695841  0.504766  0.507021  1
  N  N31  1  0.492979  0.195841  0.004766  1
  N  N32  1  0.492979  0.304159  0.495234  1
  N  N33  1  0.195841  0.004766  0.492979  1
  N  N34  1  0.992979  0.695841  0.995234  1
  N  N35  1  0.995234  0.507021  0.804159  1
  N  N36  1  0.495234  0.007021  0.195841  1
  N  N37  1  0.004766  0.007021  0.304159  1
  N  N38  1  0.195841  0.495234  0.007021  1
  N  N39  1  0.304159  0.495234  0.492979  1
  O  O40  1  0.506269  0.257231  0.906331  1
  O  O41  1  0.006269  0.757231  0.093669  1
  O  O42  1  0.406331  0.006269  0.742769  1
  O  O43  1  0.242769  0.593669  0.506269  1
  O  O44  1  0.906331  0.506269  0.257231  1
  O  O45  1  0.255955  0.105095  0.473009  1
  O  O46  1  0.394905  0.473009  0.244045  1
  O  O47  1  0.973009  0.744045  0.605095  1
  O  O48  1  0.593669  0.993731  0.257231  1
  O  O49  1  0.026991  0.255955  0.394905  1
  O  O50  1  0.093669  0.006269  0.757231  1
  O  O51  1  0.394905  0.026991  0.255955  1
  O  O52  1  0.742769  0.406331  0.006269  1
  O  O53  1  0.894905  0.973009  0.755955  1
  O  O54  1  0.026991  0.244045  0.105095  1
  O  O55  1  0.906331  0.993731  0.242769  1
  O  O56  1  0.894905  0.526991  0.744045  1
  O  O57  1  0.257231  0.906331  0.506269  1
  O  O58  1  0.093669  0.493731  0.742769  1
  O  O59  1  0.105095  0.026991  0.244045  1
  O  O60  1  0.526991  0.744045  0.894905  1
  O  O61  1  0.257231  0.593669  0.993731  1
  O  O62  1  0.255955  0.394905  0.026991  1
  O  O63  1  0.742769  0.093669  0.493731  1
  O  O64  1  0.006269  0.742769  0.406331  1
  O  O65  1  0.244045  0.394905  0.473009  1
  O  O66  1  0.406331  0.493731  0.757231  1
  O  O67  1  0.993731  0.257231  0.593669  1
  O  O68  1  0.593669  0.506269  0.242769  1
  O  O69  1  0.526991  0.755955  0.605095  1
  O  O70  1  0.744045  0.605095  0.973009  1
  O  O71  1  0.605095  0.973009  0.744045  1
  O  O72  1  0.242769  0.906331  0.993731  1
  O  O73  1  0.755955  0.894905  0.973009  1
  O  O74  1  0.757231  0.093669  0.006269  1
  O  O75  1  0.506269  0.242769  0.593669  1
  O  O76  1  0.744045  0.894905  0.526991  1
  O  O77  1  0.757231  0.406331  0.493731  1
  O  O78  1  0.993731  0.242769  0.906331  1
  O  O79  1  0.493731  0.742769  0.093669  1
  O  O80  1  0.105095  0.473009  0.255955  1
  O  O81  1  0.244045  0.105095  0.026991  1
  O  O82  1  0.473009  0.244045  0.394905  1
  O  O83  1  0.605095  0.526991  0.755955  1
  O  O84  1  0.493731  0.757231  0.406331  1
  O  O85  1  0.973009  0.755955  0.894905  1
  O  O86  1  0.755955  0.605095  0.526991  1
  O  O87  1  0.473009  0.255955  0.105095  1
