# generated using pymatgen
data_LiFeSiO4
_symmetry_space_group_name_H-M   'P 1'
_cell_length_a   5.23229092
_cell_length_b   5.23230133
_cell_length_c   9.33915014
_cell_angle_alpha   89.96294809
_cell_angle_beta   89.99979555
_cell_angle_gamma   120.00256502
_symmetry_Int_Tables_number   1
_chemical_formula_structural   LiFeSiO4
_chemical_formula_sum   'Li2 Fe2 Si2 O8'
_cell_volume   221.41715817
_cell_formula_units_Z   2
loop_
 _symmetry_equiv_pos_site_id
 _symmetry_equiv_pos_as_xyz
  1  'x, y, z'
loop_
 _atom_site_type_symbol
 _atom_site_label
 _atom_site_symmetry_multiplicity
 _atom_site_fract_x
 _atom_site_fract_y
 _atom_site_fract_z
 _atom_site_occupancy
  Li  Li0  1  0.999981  0.000119  0.198123  1
  Li  Li1  1  0.999792  0.999919  0.698166  1
  Fe  Fe2  1  0.333438  0.666807  0.135277  1
  Fe  Fe3  1  0.666580  0.333266  0.635210  1
  Si  Si4  1  0.333237  0.666541  0.765297  1
  Si  Si5  1  0.666767  0.333406  0.265059  1
  O  O6  1  0.029976  0.376474  0.704357  1
  O  O7  1  0.346050  0.969572  0.704054  1
  O  O8  1  0.334058  0.666630  0.938520  1
  O  O9  1  0.376617  0.346505  0.204425  1
  O  O10  1  0.623093  0.653590  0.703730  1
  O  O11  1  0.667487  0.333221  0.438801  1
  O  O12  1  0.653639  0.030520  0.203965  1
  O  O13  1  0.969583  0.623432  0.203838  1
