# generated using pymatgen
data_Li6V5(P2O7)4
_symmetry_space_group_name_H-M   'P 1'
_cell_length_a   13.20451032
_cell_length_b   9.18197221
_cell_length_c   10.52497630
_cell_angle_alpha   66.17918948
_cell_angle_beta   87.86025907
_cell_angle_gamma   73.76906853
_symmetry_Int_Tables_number   1
_chemical_formula_structural   Li6V5(P2O7)4
_chemical_formula_sum   'Li12 V10 P16 O56'
_cell_volume   1116.69637380
_cell_formula_units_Z   2
loop_
 _symmetry_equiv_pos_site_id
 _symmetry_equiv_pos_as_xyz
  1  'x, y, z'
loop_
 _atom_site_type_symbol
 _atom_site_label
 _atom_site_symmetry_multiplicity
 _atom_site_fract_x
 _atom_site_fract_y
 _atom_site_fract_z
 _atom_site_occupancy
  Li  Li0  1  0.189367  0.084262  0.872176  1
  Li  Li1  1  0.078371  0.878559  0.591287  1
  Li  Li2  1  0.250000  0.500000  0.500000  1
  Li  Li3  1  0.421629  0.121441  0.408713  1
  Li  Li4  1  0.310633  0.915738  0.127824  1
  Li  Li5  1  0.527748  0.822609  0.011318  1
  Li  Li6  1  0.693924  0.108302  0.860933  1
  Li  Li7  1  0.570503  0.888993  0.595247  1
  Li  Li8  1  0.750000  0.500000  0.500000  1
  Li  Li9  1  0.929497  0.111007  0.404753  1
  Li  Li10  1  0.806076  0.891698  0.139067  1
  Li  Li11  1  0.972252  0.177391  0.988682  1
  V  V12  1  0.138502  0.101715  0.278212  1
  V  V13  1  0.008589  0.804404  0.989682  1
  V  V14  1  0.184274  0.491227  0.243377  1
  V  V15  1  0.315726  0.508773  0.756623  1
  V  V16  1  0.491411  0.195596  0.010318  1
  V  V17  1  0.361498  0.898285  0.721788  1
  V  V18  1  0.642414  0.100657  0.282190  1
  V  V19  1  0.682451  0.501265  0.241217  1
  V  V20  1  0.817549  0.498735  0.758783  1
  V  V21  1  0.857586  0.899343  0.717810  1
  P  P22  1  0.150758  0.193665  0.554999  1
  P  P23  1  0.063178  0.550799  0.808107  1
  P  P24  1  0.038893  0.808458  0.302801  1
  P  P25  1  0.222405  0.284528  0.038957  1
  P  P26  1  0.277595  0.715472  0.961043  1
  P  P27  1  0.461107  0.191542  0.697199  1
  P  P28  1  0.436822  0.449201  0.191893  1
  P  P29  1  0.349242  0.806335  0.445001  1
  P  P30  1  0.649392  0.202243  0.551262  1
  P  P31  1  0.567499  0.536975  0.806314  1
  P  P32  1  0.540000  0.820692  0.304815  1
  P  P33  1  0.720487  0.289661  0.039758  1
  P  P34  1  0.779513  0.710339  0.960242  1
  P  P35  1  0.960000  0.179308  0.695185  1
  P  P36  1  0.932501  0.463025  0.193686  1
  P  P37  1  0.850608  0.797757  0.448738  1
  O  O38  1  0.011383  0.073345  0.848624  1
  O  O39  1  0.039754  0.279118  0.604101  1
  O  O40  1  0.013902  0.562524  0.167164  1
  O  O41  1  0.129321  0.084346  0.486621  1
  O  O42  1  0.011705  0.724822  0.810486  1
  O  O43  1  0.183692  0.136950  0.044622  1
  O  O44  1  0.131539  0.453088  0.960354  1
  O  O45  1  0.046964  0.933597  0.362225  1
  O  O46  1  0.219948  0.088685  0.692755  1
  O  O47  1  0.190342  0.335903  0.457706  1
  O  O48  1  0.232496  0.275622  0.187298  1
  O  O49  1  0.144061  0.678769  0.320525  1
  O  O50  1  0.143676  0.562407  0.699251  1
  O  O51  1  0.178280  0.704872  0.039495  1
  O  O52  1  0.321720  0.295128  0.960505  1
  O  O53  1  0.356324  0.437593  0.300749  1
  O  O54  1  0.355939  0.321231  0.679475  1
  O  O55  1  0.267504  0.724378  0.812702  1
  O  O56  1  0.309658  0.664097  0.542294  1
  O  O57  1  0.280052  0.911315  0.307245  1
  O  O58  1  0.453036  0.066403  0.637775  1
  O  O59  1  0.368461  0.546912  0.039646  1
  O  O60  1  0.316308  0.863050  0.955378  1
  O  O61  1  0.488295  0.275178  0.189514  1
  O  O62  1  0.515225  0.099624  0.849061  1
  O  O63  1  0.370679  0.915654  0.513379  1
  O  O64  1  0.486098  0.437476  0.832836  1
  O  O65  1  0.538610  0.291289  0.597789  1
  O  O66  1  0.460246  0.720882  0.395899  1
  O  O67  1  0.514917  0.544102  0.188624  1
  O  O68  1  0.624749  0.095787  0.482318  1
  O  O69  1  0.488617  0.926655  0.151376  1
  O  O70  1  0.516770  0.721406  0.772377  1
  O  O71  1  0.673700  0.145709  0.045369  1
  O  O72  1  0.631425  0.462895  0.961738  1
  O  O73  1  0.550362  0.934783  0.374956  1
  O  O74  1  0.717409  0.090797  0.689420  1
  O  O75  1  0.693925  0.339204  0.455624  1
  O  O76  1  0.732559  0.278366  0.188465  1
  O  O77  1  0.642830  0.689269  0.317548  1
  O  O78  1  0.652749  0.505795  0.711692  1
  O  O79  1  0.680671  0.713387  0.038075  1
  O  O80  1  0.819329  0.286613  0.961925  1
  O  O81  1  0.847251  0.494205  0.288308  1
  O  O82  1  0.857170  0.310731  0.682452  1
  O  O83  1  0.767441  0.721634  0.811535  1
  O  O84  1  0.806075  0.660796  0.544376  1
  O  O85  1  0.782591  0.909203  0.310580  1
  O  O86  1  0.949638  0.065217  0.625044  1
  O  O87  1  0.868575  0.537105  0.038262  1
  O  O88  1  0.826300  0.854291  0.954631  1
  O  O89  1  0.983230  0.278594  0.227623  1
  O  O90  1  0.875251  0.904213  0.517682  1
  O  O91  1  0.985083  0.455898  0.811376  1
  O  O92  1  0.961390  0.708711  0.402211  1
  O  O93  1  0.984775  0.900376  0.150939  1
