# generated using pymatgen
data_V(CO3)2
_symmetry_space_group_name_H-M   'P 1'
_cell_length_a   7.60594273
_cell_length_b   9.23795775
_cell_length_c   7.13412587
_cell_angle_alpha   89.99964252
_cell_angle_beta   89.99968645
_cell_angle_gamma   89.99917219
_symmetry_Int_Tables_number   1
_chemical_formula_structural   V(CO3)2
_chemical_formula_sum   'V4 C8 O24'
_cell_volume   501.26777973
_cell_formula_units_Z   4
loop_
 _symmetry_equiv_pos_site_id
 _symmetry_equiv_pos_as_xyz
  1  'x, y, z'
loop_
 _atom_site_type_symbol
 _atom_site_label
 _atom_site_symmetry_multiplicity
 _atom_site_fract_x
 _atom_site_fract_y
 _atom_site_fract_z
 _atom_site_occupancy
  V  V0  1  0.144560  0.629409  0.236668  1
  V  V1  1  0.355456  0.129405  0.736675  1
  V  V2  1  0.644479  0.629419  0.263333  1
  V  V3  1  0.855511  0.129424  0.763332  1
  C  C4  1  0.219504  0.405133  0.575015  1
  C  C5  1  0.246407  0.901176  0.421325  1
  C  C6  1  0.253604  0.401142  0.921293  1
  C  C7  1  0.280511  0.905174  0.074992  1
  C  C8  1  0.719528  0.405108  0.924965  1
  C  C9  1  0.746429  0.901199  0.078657  1
  C  C10  1  0.753620  0.401123  0.578722  1
  C  C11  1  0.780529  0.905197  0.425021  1
  O  O12  1  0.074469  0.131683  0.786867  1
  O  O13  1  0.154315  0.483794  0.452324  1
  O  O14  1  0.155174  0.786761  0.425802  1
  O  O15  1  0.205625  0.784173  0.049549  1
  O  O16  1  0.207308  0.467073  0.065371  1
  O  O17  1  0.196258  0.463371  0.755579  1
  O  O18  1  0.303734  0.963368  0.255576  1
  O  O19  1  0.292680  0.967071  0.565344  1
  O  O20  1  0.294361  0.284182  0.549559  1
  O  O21  1  0.344810  0.286769  0.925795  1
  O  O22  1  0.345666  0.983787  0.952348  1
  O  O23  1  0.425528  0.631680  0.286876  1
  O  O24  1  0.574399  0.131678  0.713145  1
  O  O25  1  0.654308  0.483807  0.047698  1
  O  O26  1  0.655171  0.786755  0.074199  1
  O  O27  1  0.705616  0.784168  0.450448  1
  O  O28  1  0.707296  0.467083  0.434604  1
  O  O29  1  0.696265  0.463370  0.744418  1
  O  O30  1  0.803731  0.963371  0.244422  1
  O  O31  1  0.792692  0.967066  0.934665  1
  O  O32  1  0.794367  0.284193  0.950438  1
  O  O33  1  0.844812  0.286777  0.574201  1
  O  O34  1  0.845670  0.983783  0.547638  1
  O  O35  1  0.925609  0.631675  0.213134  1
