# generated using pymatgen
data_Hg3(SF)2
_symmetry_space_group_name_H-M   'P 1'
_cell_length_a   7.27489865
_cell_length_b   7.27489865
_cell_length_c   7.27489865
_cell_angle_alpha   109.47122067
_cell_angle_beta   109.47122067
_cell_angle_gamma   109.47122060
_symmetry_Int_Tables_number   1
_chemical_formula_structural   Hg3(SF)2
_chemical_formula_sum   'Hg6 S4 F4'
_cell_volume   296.38686339
_cell_formula_units_Z   2
loop_
 _symmetry_equiv_pos_site_id
 _symmetry_equiv_pos_as_xyz
  1  'x, y, z'
loop_
 _atom_site_type_symbol
 _atom_site_label
 _atom_site_symmetry_multiplicity
 _atom_site_fract_x
 _atom_site_fract_y
 _atom_site_fract_z
 _atom_site_occupancy
  F  F0  1  0.465097  0.500000  0.000000  1
  F  F1  1  0.500000  0.000000  0.465097  1
  F  F2  1  0.000000  0.465097  0.500000  1
  F  F3  1  0.034903  0.034903  0.034903  1
  S  S4  1  0.932060  0.500000  0.000000  1
  S  S5  1  0.500000  0.000000  0.932060  1
  S  S6  1  0.567940  0.567940  0.567940  1
  S  S7  1  0.000000  0.932060  0.500000  1
  Hg  Hg8  1  0.750000  0.919281  0.169281  1
  Hg  Hg9  1  0.330719  0.250000  0.580719  1
  Hg  Hg10  1  0.580719  0.330719  0.250000  1
  Hg  Hg11  1  0.169281  0.750000  0.919281  1
  Hg  Hg12  1  0.919281  0.169281  0.750000  1
  Hg  Hg13  1  0.250000  0.580719  0.330719  1
