# generated using pymatgen
data_Li3VPCO7
_symmetry_space_group_name_H-M   'P 1'
_cell_length_a   8.29188027
_cell_length_b   5.19702681
_cell_length_c   6.62870563
_cell_angle_alpha   90.00000000
_cell_angle_beta   90.00000000
_cell_angle_gamma   88.60439620
_symmetry_Int_Tables_number   1
_chemical_formula_structural   Li3VPCO7
_chemical_formula_sum   'Li6 V2 P2 C2 O14'
_cell_volume   285.56689902
_cell_formula_units_Z   2
loop_
 _symmetry_equiv_pos_site_id
 _symmetry_equiv_pos_as_xyz
  1  'x, y, z'
loop_
 _atom_site_type_symbol
 _atom_site_label
 _atom_site_symmetry_multiplicity
 _atom_site_fract_x
 _atom_site_fract_y
 _atom_site_fract_z
 _atom_site_occupancy
  Li  Li0  1  0.996471  0.025026  0.498441  1
  Li  Li1  1  0.167159  0.439544  0.202545  1
  Li  Li2  1  0.517979  0.431795  0.411011  1
  Li  Li3  1  0.482021  0.568205  0.911011  1
  Li  Li4  1  0.832841  0.560456  0.702545  1
  Li  Li5  1  0.003529  0.974974  0.998441  1
  V  V6  1  0.265918  0.040512  0.750578  1
  V  V7  1  0.734082  0.959488  0.250578  1
  P  P8  1  0.330180  0.957571  0.246814  1
  P  P9  1  0.669820  0.042429  0.746814  1
  C  C10  1  0.145203  0.498296  0.744256  1
  C  C11  1  0.854797  0.501704  0.244256  1
  O  O12  1  0.045213  0.306897  0.729046  1
  O  O13  1  0.087853  0.729308  0.767379  1
  O  O14  1  0.230381  0.091077  0.071578  1
  O  O15  1  0.225865  0.006842  0.437241  1
  O  O16  1  0.298831  0.448732  0.738959  1
  O  O17  1  0.356126  0.664907  0.202737  1
  O  O18  1  0.491988  0.095778  0.274016  1
  O  O19  1  0.508012  0.904222  0.774016  1
  O  O20  1  0.643874  0.335093  0.702737  1
  O  O21  1  0.701169  0.551268  0.238959  1
  O  O22  1  0.774135  0.993158  0.937241  1
  O  O23  1  0.769619  0.908923  0.571578  1
  O  O24  1  0.912147  0.270692  0.267379  1
  O  O25  1  0.954787  0.693102  0.229046  1
