# generated using pymatgen
data_Li2MnCr3O8
_symmetry_space_group_name_H-M   'P 1'
_cell_length_a   5.96377133
_cell_length_b   5.96377093
_cell_length_c   5.96377073
_cell_angle_alpha   59.43351284
_cell_angle_beta   59.43351618
_cell_angle_gamma   59.43351939
_symmetry_Int_Tables_number   1
_chemical_formula_structural   Li2MnCr3O8
_chemical_formula_sum   'Li2 Mn1 Cr3 O8'
_cell_volume   148.05192859
_cell_formula_units_Z   1
loop_
 _symmetry_equiv_pos_site_id
 _symmetry_equiv_pos_as_xyz
  1  'x, y, z'
loop_
 _atom_site_type_symbol
 _atom_site_label
 _atom_site_symmetry_multiplicity
 _atom_site_fract_x
 _atom_site_fract_y
 _atom_site_fract_z
 _atom_site_occupancy
  Li  Li0  1  0.123340  0.123340  0.123340  1
  Li  Li1  1  0.499535  0.499535  0.499535  1
  Mn  Mn2  1  0.879841  0.879841  0.879841  1
  Cr  Cr3  1  0.006658  0.498633  0.498633  1
  Cr  Cr4  1  0.498633  0.006658  0.498633  1
  Cr  Cr5  1  0.498633  0.498633  0.006658  1
  O  O6  1  0.260585  0.260585  0.260585  1
  O  O7  1  0.248719  0.248719  0.708444  1
  O  O8  1  0.248719  0.708444  0.248719  1
  O  O9  1  0.708444  0.248719  0.248719  1
  O  O10  1  0.295002  0.745803  0.745803  1
  O  O11  1  0.745803  0.295002  0.745803  1
  O  O12  1  0.745803  0.745803  0.295002  1
  O  O13  1  0.740286  0.740286  0.740286  1
