# generated using pymatgen
data_Na5Ni2P2(CO7)2
_symmetry_space_group_name_H-M   'P 1'
_cell_length_a   10.16022408
_cell_length_b   10.39632860
_cell_length_c   6.61901904
_cell_angle_alpha   90.00000000
_cell_angle_beta   90.00000000
_cell_angle_gamma   60.60339638
_symmetry_Int_Tables_number   1
_chemical_formula_structural   Na5Ni2P2(CO7)2
_chemical_formula_sum   'Na10 Ni4 P4 C4 O28'
_cell_volume   609.13867007
_cell_formula_units_Z   2
loop_
 _symmetry_equiv_pos_site_id
 _symmetry_equiv_pos_as_xyz
  1  'x, y, z'
loop_
 _atom_site_type_symbol
 _atom_site_label
 _atom_site_symmetry_multiplicity
 _atom_site_fract_x
 _atom_site_fract_y
 _atom_site_fract_z
 _atom_site_occupancy
  Na  Na0  1  0.002328  0.267580  0.486309  1
  Na  Na1  1  0.002328  0.267580  0.013691  1
  Na  Na2  1  0.489323  0.257256  0.993827  1
  Na  Na3  1  0.489323  0.257256  0.506173  1
  Na  Na4  1  0.846551  0.069394  0.750000  1
  Na  Na5  1  0.153449  0.930606  0.250000  1
  Na  Na6  1  0.510678  0.742744  0.006173  1
  Na  Na7  1  0.510678  0.742744  0.493827  1
  Na  Na8  1  0.997672  0.732420  0.986309  1
  Na  Na9  1  0.997672  0.732420  0.513691  1
  Ni  Ni10  1  0.284276  0.064221  0.750000  1
  Ni  Ni11  1  0.213845  0.436715  0.250000  1
  Ni  Ni12  1  0.786155  0.563285  0.750000  1
  Ni  Ni13  1  0.715724  0.935779  0.250000  1
  P  P14  1  0.351667  0.067175  0.250000  1
  P  P15  1  0.148729  0.431269  0.750000  1
  P  P16  1  0.851271  0.568731  0.250000  1
  P  P17  1  0.648333  0.932825  0.750000  1
  C  C18  1  0.826379  0.107694  0.250000  1
  C  C19  1  0.320068  0.610359  0.250000  1
  C  C20  1  0.679932  0.389641  0.750000  1
  C  C21  1  0.173621  0.892306  0.750000  1
  O  O22  1  0.092079  0.036181  0.750000  1
  O  O23  1  0.265278  0.054637  0.064443  1
  O  O24  1  0.265278  0.054637  0.435557  1
  O  O25  1  0.142598  0.286302  0.750000  1
  O  O26  1  0.018674  0.436105  0.250000  1
  O  O27  1  0.484035  0.064403  0.750000  1
  O  O28  1  0.356279  0.213341  0.250000  1
  O  O29  1  0.229613  0.445649  0.938401  1
  O  O30  1  0.229613  0.445649  0.561599  1
  O  O31  1  0.682036  0.159713  0.250000  1
  O  O32  1  0.174367  0.663142  0.250000  1
  O  O33  1  0.399605  0.467405  0.250000  1
  O  O34  1  0.623149  0.304867  0.750000  1
  O  O35  1  0.109739  0.813545  0.750000  1
  O  O36  1  0.890261  0.186455  0.250000  1
  O  O37  1  0.376851  0.695133  0.250000  1
  O  O38  1  0.600395  0.532595  0.750000  1
  O  O39  1  0.825633  0.336858  0.750000  1
  O  O40  1  0.317964  0.840287  0.750000  1
  O  O41  1  0.770387  0.554351  0.061599  1
  O  O42  1  0.770387  0.554351  0.438401  1
  O  O43  1  0.643721  0.786659  0.750000  1
  O  O44  1  0.515965  0.935597  0.250000  1
  O  O45  1  0.981326  0.563895  0.750000  1
  O  O46  1  0.857402  0.713698  0.250000  1
  O  O47  1  0.734722  0.945363  0.564443  1
  O  O48  1  0.734722  0.945363  0.935557  1
  O  O49  1  0.907921  0.963819  0.250000  1
