# generated using pymatgen
data_H4SeO5
_symmetry_space_group_name_H-M   'P 1'
_cell_length_a   8.79471839
_cell_length_b   10.56793411
_cell_length_c   9.24845433
_cell_angle_alpha   90.00000000
_cell_angle_beta   90.00000000
_cell_angle_gamma   90.00000000
_symmetry_Int_Tables_number   1
_chemical_formula_structural   H4SeO5
_chemical_formula_sum   'H32 Se8 O40'
_cell_volume   859.56988360
_cell_formula_units_Z   8
loop_
 _symmetry_equiv_pos_site_id
 _symmetry_equiv_pos_as_xyz
  1  'x, y, z'
loop_
 _atom_site_type_symbol
 _atom_site_label
 _atom_site_symmetry_multiplicity
 _atom_site_fract_x
 _atom_site_fract_y
 _atom_site_fract_z
 _atom_site_occupancy
  H  H0  1  0.777834  0.456220  0.273992  1
  H  H1  1  0.277834  0.043780  0.726008  1
  H  H2  1  0.222166  0.956220  0.226008  1
  H  H3  1  0.722166  0.543780  0.773992  1
  H  H4  1  0.222166  0.543780  0.726008  1
  H  H5  1  0.722166  0.956220  0.273992  1
  H  H6  1  0.777834  0.043780  0.773992  1
  H  H7  1  0.277834  0.456220  0.226008  1
  H  H8  1  0.825667  0.467069  0.099042  1
  H  H9  1  0.325667  0.032931  0.900958  1
  H  H10  1  0.174333  0.967069  0.400958  1
  H  H11  1  0.674333  0.532931  0.599042  1
  H  H12  1  0.174333  0.532931  0.900958  1
  H  H13  1  0.674333  0.967069  0.099042  1
  H  H14  1  0.825667  0.032931  0.599042  1
  H  H15  1  0.325667  0.467069  0.400958  1
  H  H16  1  0.794533  0.074446  0.170857  1
  H  H17  1  0.294533  0.425554  0.829143  1
  H  H18  1  0.205467  0.574446  0.329143  1
  H  H19  1  0.705467  0.925554  0.670857  1
  H  H20  1  0.205467  0.925554  0.829143  1
  H  H21  1  0.705467  0.574446  0.170857  1
  H  H22  1  0.794533  0.425554  0.670857  1
  H  H23  1  0.294533  0.074446  0.329143  1
  H  H24  1  0.541763  0.259229  0.232494  1
  H  H25  1  0.041763  0.240771  0.767506  1
  H  H26  1  0.458237  0.759229  0.267506  1
  H  H27  1  0.958237  0.740771  0.732494  1
  H  H28  1  0.458237  0.740771  0.767506  1
  H  H29  1  0.958237  0.759229  0.232494  1
  H  H30  1  0.541763  0.240771  0.732494  1
  H  H31  1  0.041763  0.259229  0.267506  1
  Se  Se32  1  0.890105  0.267072  0.465116  1
  Se  Se33  1  0.390105  0.232928  0.534884  1
  Se  Se34  1  0.109895  0.767072  0.034884  1
  Se  Se35  1  0.609895  0.732928  0.965116  1
  Se  Se36  1  0.109895  0.732928  0.534884  1
  Se  Se37  1  0.609895  0.767072  0.465116  1
  Se  Se38  1  0.890105  0.232928  0.965116  1
  Se  Se39  1  0.390105  0.267072  0.034884  1
  O  O40  1  0.749378  0.345809  0.388386  1
  O  O41  1  0.249378  0.154191  0.611614  1
  O  O42  1  0.250622  0.845809  0.111614  1
  O  O43  1  0.750622  0.654191  0.888386  1
  O  O44  1  0.250622  0.654191  0.611614  1
  O  O45  1  0.750622  0.845809  0.388386  1
  O  O46  1  0.749378  0.154191  0.888386  1
  O  O47  1  0.249378  0.345809  0.111614  1
  O  O48  1  0.869719  0.111594  0.463159  1
  O  O49  1  0.369719  0.388406  0.536841  1
  O  O50  1  0.130281  0.611594  0.036841  1
  O  O51  1  0.630281  0.888406  0.963159  1
  O  O52  1  0.130281  0.888406  0.536841  1
  O  O53  1  0.630281  0.611594  0.463159  1
  O  O54  1  0.869719  0.388406  0.963159  1
  O  O55  1  0.369719  0.111594  0.036841  1
  O  O56  1  0.929237  0.326317  0.628418  1
  O  O57  1  0.429237  0.173683  0.371582  1
  O  O58  1  0.070763  0.826317  0.871582  1
  O  O59  1  0.570763  0.673683  0.128418  1
  O  O60  1  0.070763  0.673683  0.371582  1
  O  O61  1  0.570763  0.826317  0.628418  1
  O  O62  1  0.929237  0.173683  0.128418  1
  O  O63  1  0.429237  0.326317  0.871582  1
  O  O64  1  0.056383  0.300048  0.364452  1
  O  O65  1  0.556383  0.199952  0.635548  1
  O  O66  1  0.943617  0.800048  0.135548  1
  O  O67  1  0.443617  0.699952  0.864452  1
  O  O68  1  0.943617  0.699952  0.635548  1
  O  O69  1  0.443617  0.800048  0.364452  1
  O  O70  1  0.056383  0.199952  0.864452  1
  O  O71  1  0.556383  0.300048  0.135548  1
  O  O72  1  0.702576  0.017797  0.190549  1
  O  O73  1  0.202576  0.482203  0.809451  1
  O  O74  1  0.297424  0.517797  0.309451  1
  O  O75  1  0.797424  0.982203  0.690549  1
  O  O76  1  0.297424  0.982203  0.809451  1
  O  O77  1  0.797424  0.517797  0.190549  1
  O  O78  1  0.702576  0.482203  0.690549  1
  O  O79  1  0.202576  0.017797  0.309451  1
