# generated using pymatgen
data_CaP3H10NO12
_symmetry_space_group_name_H-M   'P 1'
_cell_length_a   13.12913247
_cell_length_b   12.76577989
_cell_length_c   7.09737829
_cell_angle_alpha   90.00000000
_cell_angle_beta   90.00000000
_cell_angle_gamma   90.00000000
_symmetry_Int_Tables_number   1
_chemical_formula_structural   CaP3H10NO12
_chemical_formula_sum   'Ca4 P12 H40 N4 O48'
_cell_volume   1189.54626026
_cell_formula_units_Z   4
loop_
 _symmetry_equiv_pos_site_id
 _symmetry_equiv_pos_as_xyz
  1  'x, y, z'
loop_
 _atom_site_type_symbol
 _atom_site_label
 _atom_site_symmetry_multiplicity
 _atom_site_fract_x
 _atom_site_fract_y
 _atom_site_fract_z
 _atom_site_occupancy
  Ca  Ca0  1  0.317841  0.744727  0.846315  1
  Ca  Ca1  1  0.682159  0.255273  0.846315  1
  Ca  Ca2  1  0.817841  0.755273  0.153685  1
  Ca  Ca3  1  0.182159  0.244727  0.153685  1
  P  P4  1  0.347605  0.659916  0.327864  1
  P  P5  1  0.652395  0.340084  0.327864  1
  P  P6  1  0.847605  0.840084  0.672136  1
  P  P7  1  0.152395  0.159916  0.672136  1
  P  P8  1  0.672373  0.515886  0.062446  1
  P  P9  1  0.327627  0.484114  0.062446  1
  P  P10  1  0.172373  0.984114  0.937554  1
  P  P11  1  0.827627  0.015886  0.937554  1
  P  P12  1  0.545302  0.706399  0.130559  1
  P  P13  1  0.454698  0.293601  0.130559  1
  P  P14  1  0.045302  0.793601  0.869441  1
  P  P15  1  0.954698  0.206399  0.869441  1
  H  H16  1  0.941916  0.970044  0.263998  1
  H  H17  1  0.058084  0.029956  0.263998  1
  H  H18  1  0.441916  0.529956  0.736002  1
  H  H19  1  0.558084  0.470044  0.736002  1
  H  H20  1  0.969719  0.060183  0.427236  1
  H  H21  1  0.030281  0.939817  0.427236  1
  H  H22  1  0.469719  0.439817  0.572764  1
  H  H23  1  0.530281  0.560183  0.572764  1
  H  H24  1  0.561842  0.993072  0.084885  1
  H  H25  1  0.438158  0.006928  0.084885  1
  H  H26  1  0.061842  0.506928  0.915115  1
  H  H27  1  0.938158  0.493072  0.915115  1
  H  H28  1  0.490752  0.933691  0.913385  1
  H  H29  1  0.509248  0.066309  0.913385  1
  H  H30  1  0.990752  0.566309  0.086615  1
  H  H31  1  0.009248  0.433691  0.086615  1
  H  H32  1  0.964025  0.595126  0.443207  1
  H  H33  1  0.035975  0.404874  0.443207  1
  H  H34  1  0.464025  0.904874  0.556793  1
  H  H35  1  0.535975  0.095126  0.556793  1
  H  H36  1  0.008695  0.696222  0.353502  1
  H  H37  1  0.991305  0.303778  0.353502  1
  H  H38  1  0.508695  0.803778  0.646498  1
  H  H39  1  0.491305  0.196222  0.646498  1
  H  H40  1  0.338016  0.268712  0.693707  1
  H  H41  1  0.661984  0.731288  0.693707  1
  H  H42  1  0.838016  0.231288  0.306293  1
  H  H43  1  0.161984  0.768712  0.306293  1
  H  H44  1  0.625885  0.732764  0.483549  1
  H  H45  1  0.374115  0.267236  0.483549  1
  H  H46  1  0.125885  0.767236  0.516451  1
  H  H47  1  0.874115  0.232764  0.516451  1
  H  H48  1  0.843747  0.569681  0.588396  1
  H  H49  1  0.156253  0.430319  0.588396  1
  H  H50  1  0.343747  0.930319  0.411604  1
  H  H51  1  0.656253  0.069681  0.411604  1
  H  H52  1  0.192679  0.447467  0.793676  1
  H  H53  1  0.807321  0.552533  0.793676  1
  H  H54  1  0.692679  0.052533  0.206324  1
  H  H55  1  0.307321  0.947467  0.206324  1
  N  N56  1  0.500000  0.500000  0.651326  1
  N  N57  1  0.000000  0.000000  0.348674  1
  N  N58  1  0.000000  0.500000  0.004132  1
  N  N59  1  0.500000  0.000000  0.995868  1
  O  O60  1  0.671654  0.331442  0.534024  1
  O  O61  1  0.328346  0.668558  0.534024  1
  O  O62  1  0.171654  0.168558  0.465976  1
  O  O63  1  0.828346  0.831442  0.465976  1
  O  O64  1  0.712086  0.274084  0.190855  1
  O  O65  1  0.287914  0.725916  0.190855  1
  O  O66  1  0.212086  0.225916  0.809145  1
  O  O67  1  0.787914  0.774084  0.809145  1
  O  O68  1  0.336166  0.535763  0.270985  1
  O  O69  1  0.663834  0.464237  0.270985  1
  O  O70  1  0.836166  0.964237  0.729015  1
  O  O71  1  0.163834  0.035763  0.729015  1
  O  O72  1  0.970050  0.824793  0.697891  1
  O  O73  1  0.029950  0.175207  0.697891  1
  O  O74  1  0.470050  0.675207  0.302109  1
  O  O75  1  0.529950  0.324793  0.302109  1
  O  O76  1  0.345257  0.565274  0.912364  1
  O  O77  1  0.654743  0.434726  0.912364  1
  O  O78  1  0.845257  0.934726  0.087636  1
  O  O79  1  0.154743  0.065274  0.087636  1
  O  O80  1  0.268318  0.920006  0.942750  1
  O  O81  1  0.731682  0.079994  0.942750  1
  O  O82  1  0.768318  0.579994  0.057250  1
  O  O83  1  0.231682  0.420006  0.057250  1
  O  O84  1  0.573864  0.591282  0.048258  1
  O  O85  1  0.426136  0.408718  0.048258  1
  O  O86  1  0.073864  0.908718  0.951742  1
  O  O87  1  0.926136  0.091282  0.951742  1
  O  O88  1  0.638560  0.753910  0.219506  1
  O  O89  1  0.361440  0.246090  0.219506  1
  O  O90  1  0.138560  0.746090  0.780494  1
  O  O91  1  0.861440  0.253910  0.780494  1
  O  O92  1  0.486846  0.763405  0.982302  1
  O  O93  1  0.513154  0.236595  0.982302  1
  O  O94  1  0.986846  0.736595  0.017698  1
  O  O95  1  0.013154  0.263405  0.017698  1
  O  O96  1  0.048244  0.356671  0.340374  1
  O  O97  1  0.951756  0.643329  0.340374  1
  O  O98  1  0.548244  0.143329  0.659626  1
  O  O99  1  0.451756  0.856671  0.659626  1
  O  O100  1  0.102789  0.783968  0.387336  1
  O  O101  1  0.897211  0.216032  0.387336  1
  O  O102  1  0.602789  0.716032  0.612664  1
  O  O103  1  0.397211  0.283968  0.612664  1
  O  O104  1  0.644420  0.026169  0.300985  1
  O  O105  1  0.355580  0.973831  0.300985  1
  O  O106  1  0.144420  0.473831  0.699015  1
  O  O107  1  0.855580  0.526169  0.699015  1
