# generated using pymatgen
data_GeW2C10(BrO5)2
_symmetry_space_group_name_H-M   'P 1'
_cell_length_a   9.66663075
_cell_length_b   13.31912883
_cell_length_c   15.43103647
_cell_angle_alpha   90.00000000
_cell_angle_beta   92.34818262
_cell_angle_gamma   90.00000000
_symmetry_Int_Tables_number   1
_chemical_formula_structural   GeW2C10(BrO5)2
_chemical_formula_sum   'Ge4 W8 C40 Br8 O40'
_cell_volume   1985.09462576
_cell_formula_units_Z   4
loop_
 _symmetry_equiv_pos_site_id
 _symmetry_equiv_pos_as_xyz
  1  'x, y, z'
loop_
 _atom_site_type_symbol
 _atom_site_label
 _atom_site_symmetry_multiplicity
 _atom_site_fract_x
 _atom_site_fract_y
 _atom_site_fract_z
 _atom_site_occupancy
  Ge  Ge0  1  0.998239  0.228410  0.231195  1
  Ge  Ge1  1  0.501761  0.728410  0.268805  1
  Ge  Ge2  1  0.498239  0.271590  0.731195  1
  Ge  Ge3  1  0.001761  0.771590  0.768805  1
  W  W4  1  0.701766  0.312932  0.848372  1
  W  W5  1  0.201766  0.187068  0.348372  1
  W  W6  1  0.116980  0.702842  0.626785  1
  W  W7  1  0.883020  0.297158  0.373215  1
  W  W8  1  0.616980  0.797158  0.126785  1
  W  W9  1  0.798234  0.812932  0.651628  1
  W  W10  1  0.383020  0.202842  0.873215  1
  W  W11  1  0.298234  0.687068  0.151628  1
  C  C12  1  0.225117  0.142796  0.940740  1
  C  C13  1  0.774883  0.857204  0.059260  1
  C  C14  1  0.276623  0.177082  0.224646  1
  C  C15  1  0.398076  0.139544  0.379509  1
  C  C16  1  0.279533  0.729817  0.716457  1
  C  C17  1  0.175864  0.173028  0.482951  1
  C  C18  1  0.493701  0.852663  0.022656  1
  C  C19  1  0.922671  0.434929  0.315441  1
  C  C20  1  0.993701  0.647337  0.522656  1
  C  C21  1  0.720467  0.270183  0.283543  1
  C  C22  1  0.220467  0.229817  0.783543  1
  C  C23  1  0.274883  0.642796  0.559260  1
  C  C24  1  0.129278  0.039907  0.338910  1
  C  C25  1  0.601924  0.860456  0.620491  1
  C  C26  1  0.824136  0.826972  0.517049  1
  C  C27  1  0.351518  0.343225  0.929797  1
  C  C28  1  0.776623  0.322918  0.724646  1
  C  C29  1  0.370722  0.539907  0.161090  1
  C  C30  1  0.077329  0.565071  0.684559  1
  C  C31  1  0.148482  0.843225  0.570203  1
  C  C32  1  0.629278  0.460093  0.838910  1
  C  C33  1  0.870722  0.960093  0.661090  1
  C  C34  1  0.223377  0.677082  0.275354  1
  C  C35  1  0.763392  0.163270  0.857150  1
  C  C36  1  0.324136  0.673028  0.017049  1
  C  C37  1  0.675864  0.326972  0.982951  1
  C  C38  1  0.263392  0.336730  0.357150  1
  C  C39  1  0.577329  0.934929  0.184559  1
  C  C40  1  0.723377  0.822918  0.775354  1
  C  C41  1  0.851518  0.156775  0.429797  1
  C  C42  1  0.422671  0.065071  0.815441  1
  C  C43  1  0.898076  0.360456  0.879509  1
  C  C44  1  0.725117  0.357204  0.440740  1
  C  C45  1  0.006299  0.352663  0.477344  1
  C  C46  1  0.236608  0.836730  0.142850  1
  C  C47  1  0.779533  0.770183  0.216457  1
  C  C48  1  0.648482  0.656775  0.070203  1
  C  C49  1  0.736608  0.663270  0.642850  1
  C  C50  1  0.101924  0.639544  0.120491  1
  C  C51  1  0.506299  0.147337  0.977344  1
  Br  Br52  1  0.541493  0.157043  0.619555  1
  Br  Br53  1  0.041493  0.342957  0.119555  1
  Br  Br54  1  0.598925  0.594163  0.346993  1
  Br  Br55  1  0.901075  0.094163  0.153007  1
  Br  Br56  1  0.401075  0.405837  0.653007  1
  Br  Br57  1  0.958507  0.657043  0.880445  1
  Br  Br58  1  0.098925  0.905837  0.846993  1
  Br  Br59  1  0.458507  0.842957  0.380445  1
  O  O60  1  0.171826  0.668569  0.341626  1
  O  O61  1  0.667670  0.342177  0.056411  1
  O  O62  1  0.798734  0.080129  0.861627  1
  O  O63  1  0.944973  0.512214  0.284512  1
  O  O64  1  0.866172  0.890655  0.022311  1
  O  O65  1  0.671826  0.831431  0.841626  1
  O  O66  1  0.909691  0.042285  0.665577  1
  O  O67  1  0.409691  0.457715  0.165576  1
  O  O68  1  0.828174  0.331431  0.658374  1
  O  O69  1  0.633828  0.390655  0.477689  1
  O  O70  1  0.201266  0.919871  0.138373  1
  O  O71  1  0.433474  0.893375  0.966423  1
  O  O72  1  0.298734  0.419871  0.361627  1
  O  O73  1  0.055027  0.487786  0.715488  1
  O  O74  1  0.510652  0.113773  0.396362  1
  O  O75  1  0.555027  0.012214  0.215488  1
  O  O76  1  0.167670  0.157823  0.556411  1
  O  O77  1  0.366172  0.609345  0.522311  1
  O  O78  1  0.832441  0.079158  0.461284  1
  O  O79  1  0.566526  0.106625  0.033577  1
  O  O80  1  0.667559  0.579158  0.038716  1
  O  O81  1  0.066526  0.393375  0.533577  1
  O  O82  1  0.622200  0.258196  0.238984  1
  O  O83  1  0.933474  0.606625  0.466423  1
  O  O84  1  0.701266  0.580129  0.638373  1
  O  O85  1  0.444973  0.987786  0.784512  1
  O  O86  1  0.090309  0.957715  0.334423  1
  O  O87  1  0.989348  0.613773  0.103638  1
  O  O88  1  0.010652  0.386227  0.896362  1
  O  O89  1  0.332330  0.657823  0.943589  1
  O  O90  1  0.377800  0.741804  0.761016  1
  O  O91  1  0.332441  0.420842  0.961284  1
  O  O92  1  0.590309  0.542285  0.834423  1
  O  O93  1  0.167559  0.920842  0.538716  1
  O  O94  1  0.122200  0.241804  0.738984  1
  O  O95  1  0.832330  0.842177  0.443589  1
  O  O96  1  0.328174  0.168569  0.158374  1
  O  O97  1  0.489348  0.886227  0.603638  1
  O  O98  1  0.133828  0.109345  0.977689  1
  O  O99  1  0.877800  0.758196  0.261016  1
