# generated using pymatgen
data_LiMn2F5
_symmetry_space_group_name_H-M   'P 1'
_cell_length_a   7.88435488
_cell_length_b   10.98506142
_cell_length_c   7.88435488
_cell_angle_alpha   88.66042865
_cell_angle_beta   94.18143016
_cell_angle_gamma   91.33957135
_symmetry_Int_Tables_number   1
_chemical_formula_structural   LiMn2F5
_chemical_formula_sum   'Li6 Mn12 F30'
_cell_volume   680.70026682
_cell_formula_units_Z   6
loop_
 _symmetry_equiv_pos_site_id
 _symmetry_equiv_pos_as_xyz
  1  'x, y, z'
loop_
 _atom_site_type_symbol
 _atom_site_label
 _atom_site_symmetry_multiplicity
 _atom_site_fract_x
 _atom_site_fract_y
 _atom_site_fract_z
 _atom_site_occupancy
  Li  Li0  1  0.057026  0.550870  0.716858  1
  Li  Li1  1  0.283142  0.050870  0.942974  1
  Li  Li2  1  0.654025  0.750000  0.654025  1
  Li  Li3  1  0.345975  0.250000  0.345975  1
  Li  Li4  1  0.716858  0.949130  0.057026  1
  Li  Li5  1  0.942974  0.449130  0.283142  1
  Mn  Mn6  1  0.010510  0.935676  0.709753  1
  Mn  Mn7  1  0.290247  0.435676  0.989490  1
  Mn  Mn8  1  0.000566  0.749980  0.365864  1
  Mn  Mn9  1  0.634136  0.249980  0.999434  1
  Mn  Mn10  1  0.344823  0.562174  0.376930  1
  Mn  Mn11  1  0.376930  0.937826  0.344823  1
  Mn  Mn12  1  0.623070  0.062174  0.655177  1
  Mn  Mn13  1  0.655177  0.437826  0.623070  1
  Mn  Mn14  1  0.365864  0.750020  0.000566  1
  Mn  Mn15  1  0.999434  0.250020  0.634136  1
  Mn  Mn16  1  0.709753  0.564324  0.010510  1
  Mn  Mn17  1  0.989490  0.064324  0.290247  1
  F  F18  1  0.211338  0.611300  0.894133  1
  F  F19  1  0.105867  0.111300  0.788662  1
  F  F20  1  0.225519  0.883626  0.862827  1
  F  F21  1  0.137173  0.383626  0.774481  1
  F  F22  1  0.131585  0.606409  0.506000  1
  F  F23  1  0.139918  0.926349  0.472604  1
  F  F24  1  0.494000  0.106409  0.868415  1
  F  F25  1  0.527396  0.426349  0.860082  1
  F  F26  1  0.596650  0.718904  0.887113  1
  F  F27  1  0.112887  0.218904  0.403350  1
  F  F28  1  0.785387  0.958578  0.831678  1
  F  F29  1  0.539604  0.887879  0.553562  1
  F  F30  1  0.168322  0.458578  0.214613  1
  F  F31  1  0.256426  0.750000  0.256426  1
  F  F32  1  0.446438  0.387879  0.460396  1
  F  F33  1  0.553562  0.612121  0.539604  1
  F  F34  1  0.743574  0.250000  0.743574  1
  F  F35  1  0.831678  0.541422  0.785387  1
  F  F36  1  0.460396  0.112121  0.446438  1
  F  F37  1  0.214613  0.041422  0.168322  1
  F  F38  1  0.887113  0.781096  0.596650  1
  F  F39  1  0.403350  0.281096  0.112887  1
  F  F40  1  0.472604  0.573651  0.139918  1
  F  F41  1  0.506000  0.893591  0.131585  1
  F  F42  1  0.860082  0.073651  0.527396  1
  F  F43  1  0.868415  0.393591  0.494000  1
  F  F44  1  0.862827  0.616374  0.225519  1
  F  F45  1  0.774481  0.116374  0.137173  1
  F  F46  1  0.894133  0.888700  0.211338  1
  F  F47  1  0.788662  0.388700  0.105867  1
