# generated using pymatgen
data_Li24Mn11CrO36
_symmetry_space_group_name_H-M   'P 1'
_cell_length_a   8.66458348
_cell_length_b   8.64625725
_cell_length_c   9.72499431
_cell_angle_alpha   90.13279195
_cell_angle_beta   98.36974133
_cell_angle_gamma   60.03217367
_symmetry_Int_Tables_number   1
_chemical_formula_structural   Li24Mn11CrO36
_chemical_formula_sum   'Li24 Mn11 Cr1 O36'
_cell_volume   622.32395646
_cell_formula_units_Z   1
loop_
 _symmetry_equiv_pos_site_id
 _symmetry_equiv_pos_as_xyz
  1  'x, y, z'
loop_
 _atom_site_type_symbol
 _atom_site_label
 _atom_site_symmetry_multiplicity
 _atom_site_fract_x
 _atom_site_fract_y
 _atom_site_fract_z
 _atom_site_occupancy
  Li  Li0  1  0.163078  0.003818  0.000122  1
  Li  Li1  1  0.001373  0.249225  0.748229  1
  Li  Li2  1  0.170485  0.162562  0.498328  1
  Li  Li3  1  0.334463  0.082871  0.248281  1
  Li  Li4  1  0.167522  0.324449  0.998745  1
  Li  Li5  1  0.501083  0.004054  0.999807  1
  Li  Li6  1  0.497978  0.164923  0.500010  1
  Li  Li7  1  0.171892  0.502826  0.503289  1
  Li  Li8  1  0.000612  0.749489  0.251569  1
  Li  Li9  1  0.497170  0.342924  0.999367  1
  Li  Li10  1  0.165201  0.665292  0.000676  1
  Li  Li11  1  0.332125  0.585269  0.748165  1
  Li  Li12  1  0.162098  0.831439  0.497668  1
  Li  Li13  1  0.498973  0.502060  0.501119  1
  Li  Li14  1  0.837863  0.169993  0.500686  1
  Li  Li15  1  0.669504  0.415811  0.251663  1
  Li  Li16  1  0.499826  0.664182  0.999491  1
  Li  Li17  1  0.830553  0.333975  0.002714  1
  Li  Li18  1  0.834908  0.493256  0.498651  1
  Li  Li19  1  0.500230  0.839308  0.500883  1
  Li  Li20  1  0.826965  0.673720  0.998800  1
  Li  Li21  1  0.665861  0.917121  0.748560  1
  Li  Li22  1  0.833828  0.832501  0.500022  1
  Li  Li23  1  0.836184  0.994312  0.999564  1
  Mn  Mn24  1  0.001634  0.081806  0.250277  1
  Mn  Mn25  1  0.999814  0.583216  0.750612  1
  Mn  Mn26  1  0.333681  0.250576  0.749959  1
  Mn  Mn27  1  0.336519  0.415893  0.251694  1
  Mn  Mn28  1  0.668150  0.083944  0.250444  1
  Mn  Mn29  1  0.999495  0.917746  0.749874  1
  Mn  Mn30  1  0.666898  0.250759  0.750752  1
  Mn  Mn31  1  0.334756  0.750043  0.250108  1
  Mn  Mn32  1  0.333656  0.915789  0.749744  1
  Mn  Mn33  1  0.667251  0.583652  0.750560  1
  Mn  Mn34  1  0.665777  0.750749  0.248071  1
  Cr  Cr35  1  0.002455  0.418957  0.249509  1
  O  O36  1  0.094878  0.023727  0.637310  1
  O  O37  1  0.070315  0.213550  0.135596  1
  O  O38  1  0.264064  0.118150  0.863387  1
  O  O39  1  0.404502  0.047674  0.635941  1
  O  O40  1  0.094599  0.381355  0.637990  1
  O  O41  1  0.243010  0.309303  0.363848  1
  O  O42  1  0.238944  0.452149  0.862585  1
  O  O43  1  0.097821  0.521034  0.138100  1
  O  O44  1  0.572112  0.143697  0.862275  1
  O  O45  1  0.429273  0.214594  0.138609  1
  O  O46  1  0.069130  0.715403  0.635894  1
  O  O47  1  0.427618  0.359230  0.638559  1
  O  O48  1  0.760912  0.049484  0.638124  1
  O  O49  1  0.574814  0.286033  0.362817  1
  O  O50  1  0.263898  0.619216  0.364796  1
  O  O51  1  0.906318  0.119468  0.862467  1
  O  O52  1  0.405048  0.547979  0.136705  1
  O  O53  1  0.763184  0.190007  0.138059  1
  O  O54  1  0.238603  0.808995  0.861558  1
  O  O55  1  0.596066  0.453067  0.864613  1
  O  O56  1  0.095253  0.878734  0.138661  1
  O  O57  1  0.737896  0.381622  0.636987  1
  O  O58  1  0.428457  0.713707  0.637809  1
  O  O59  1  0.240780  0.952182  0.362019  1
  O  O60  1  0.573583  0.642872  0.361831  1
  O  O61  1  0.932901  0.282538  0.364542  1
  O  O62  1  0.572088  0.786277  0.862007  1
  O  O63  1  0.426911  0.858837  0.137463  1
  O  O64  1  0.905902  0.476378  0.862920  1
  O  O65  1  0.758782  0.549521  0.136393  1
  O  O66  1  0.761249  0.690950  0.638449  1
  O  O67  1  0.904945  0.617493  0.360871  1
  O  O68  1  0.598013  0.952318  0.363585  1
  O  O69  1  0.737658  0.881867  0.135571  1
  O  O70  1  0.929046  0.786532  0.863976  1
  O  O71  1  0.907279  0.974748  0.362667  1
