# generated using pymatgen
data_SrLiNb2O6F
_symmetry_space_group_name_H-M   'P 1'
_cell_length_a   3.87468048
_cell_length_b   10.79997406
_cell_length_c   3.87468048
_cell_angle_alpha   79.66613082
_cell_angle_beta   90.00000000
_cell_angle_gamma   100.33386918
_symmetry_Int_Tables_number   1
_chemical_formula_structural   SrLiNb2O6F
_chemical_formula_sum   'Sr1 Li1 Nb2 O6 F1'
_cell_volume   156.83737627
_cell_formula_units_Z   1
loop_
 _symmetry_equiv_pos_site_id
 _symmetry_equiv_pos_as_xyz
  1  'x, y, z'
loop_
 _atom_site_type_symbol
 _atom_site_label
 _atom_site_symmetry_multiplicity
 _atom_site_fract_x
 _atom_site_fract_y
 _atom_site_fract_z
 _atom_site_occupancy
  Sr  Sr0  1  0.000000  0.000000  0.000000  1
  Li  Li1  1  0.250000  0.500000  0.250000  1
  Nb  Nb2  1  0.617827  0.235654  0.382173  1
  Nb  Nb3  1  0.382173  0.764346  0.617827  1
  O  O4  1  0.704138  0.408277  0.295862  1
  O  O5  1  0.092945  0.185890  0.407055  1
  O  O6  1  0.407055  0.814110  0.092945  1
  O  O7  1  0.295862  0.591723  0.704138  1
  O  O8  1  0.591824  0.183648  0.908176  1
  O  O9  1  0.908176  0.816352  0.591824  1
  F  F10  1  0.500000  0.000000  0.500000  1
