# generated using pymatgen
data_Li3Mn2(SiO4)2
_symmetry_space_group_name_H-M   'P 1'
_cell_length_a   6.68814822
_cell_length_b   10.61572756
_cell_length_c   5.10222667
_cell_angle_alpha   90.00000000
_cell_angle_beta   90.16442506
_cell_angle_gamma   90.00000000
_symmetry_Int_Tables_number   1
_chemical_formula_structural   Li3Mn2(SiO4)2
_chemical_formula_sum   'Li6 Mn4 Si4 O16'
_cell_volume   362.25435398
_cell_formula_units_Z   2
loop_
 _symmetry_equiv_pos_site_id
 _symmetry_equiv_pos_as_xyz
  1  'x, y, z'
loop_
 _atom_site_type_symbol
 _atom_site_label
 _atom_site_symmetry_multiplicity
 _atom_site_fract_x
 _atom_site_fract_y
 _atom_site_fract_z
 _atom_site_occupancy
  Li  Li0  1  0.006033  0.840907  0.685033  1
  Li  Li1  1  0.493967  0.340907  0.814967  1
  Li  Li2  1  0.497734  0.658786  0.184280  1
  Li  Li3  1  0.734011  0.423223  0.205231  1
  Li  Li4  1  0.765989  0.923223  0.294769  1
  Li  Li5  1  0.002266  0.158786  0.315720  1
  Mn  Mn6  1  0.003161  0.340532  0.802297  1
  Mn  Mn7  1  0.496839  0.840532  0.697703  1
  Mn  Mn8  1  0.487785  0.157390  0.320603  1
  Mn  Mn9  1  0.012215  0.657390  0.179397  1
  Si  Si10  1  0.245328  0.910787  0.182877  1
  Si  Si11  1  0.254672  0.410787  0.317123  1
  Si  Si12  1  0.751463  0.591346  0.688940  1
  Si  Si13  1  0.748537  0.091346  0.811060  1
  O  O14  1  0.044175  0.346110  0.201841  1
  O  O15  1  0.040908  0.841862  0.297264  1
  O  O16  1  0.246427  0.888833  0.863377  1
  O  O17  1  0.240011  0.059900  0.254751  1
  O  O18  1  0.253573  0.388833  0.636623  1
  O  O19  1  0.259989  0.559900  0.245249  1
  O  O20  1  0.459092  0.341862  0.202736  1
  O  O21  1  0.455825  0.846110  0.298159  1
  O  O22  1  0.549235  0.165874  0.703415  1
  O  O23  1  0.555346  0.665802  0.803684  1
  O  O24  1  0.748785  0.443933  0.801542  1
  O  O25  1  0.753771  0.591454  0.364079  1
  O  O26  1  0.751215  0.943933  0.698458  1
  O  O27  1  0.746229  0.091454  0.135921  1
  O  O28  1  0.944654  0.165802  0.696316  1
  O  O29  1  0.950765  0.665874  0.796585  1
