# generated using pymatgen
data_Sn2N2O
_symmetry_space_group_name_H-M   'P 1'
_cell_length_a   8.83747864
_cell_length_b   8.84701626
_cell_length_c   8.86281214
_cell_angle_alpha   109.56122412
_cell_angle_beta   109.48669929
_cell_angle_gamma   109.45200340
_symmetry_Int_Tables_number   1
_chemical_formula_structural   Sn2N2O
_chemical_formula_sum   'Sn16 N16 O8'
_cell_volume   532.85779482
_cell_formula_units_Z   8
loop_
 _symmetry_equiv_pos_site_id
 _symmetry_equiv_pos_as_xyz
  1  'x, y, z'
loop_
 _atom_site_type_symbol
 _atom_site_label
 _atom_site_symmetry_multiplicity
 _atom_site_fract_x
 _atom_site_fract_y
 _atom_site_fract_z
 _atom_site_occupancy
  Sn  Sn0  1  0.962955  0.248186  0.223311  1
  Sn  Sn1  1  0.506416  0.005341  0.997061  1
  Sn  Sn2  1  0.781018  0.029635  0.754365  1
  Sn  Sn3  1  0.712935  0.463171  0.250242  1
  Sn  Sn4  1  0.758464  0.291173  0.537104  1
  Sn  Sn5  1  0.749186  0.776895  0.029256  1
  Sn  Sn6  1  0.999941  0.502885  0.991777  1
  Sn  Sn7  1  0.003867  0.991565  0.505159  1
  Sn  Sn8  1  0.504005  0.509211  0.510574  1
  Sn  Sn9  1  0.465162  0.249856  0.721723  1
  Sn  Sn10  1  0.533973  0.749938  0.285543  1
  Sn  Sn11  1  0.264199  0.723712  0.473065  1
  Sn  Sn12  1  0.248111  0.217143  0.955806  1
  Sn  Sn13  1  0.273888  0.526068  0.735815  1
  Sn  Sn14  1  0.217966  0.954601  0.250447  1
  Sn  Sn15  1  0.028230  0.745915  0.778552  1
  N  N16  1  0.735759  0.228011  0.275289  1
  N  N17  1  0.763239  0.724951  0.263035  1
  N  N18  1  0.725586  0.257775  0.762470  1
  N  N19  1  0.761176  0.540412  0.531651  1
  N  N20  1  0.222987  0.455374  0.450470  1
  N  N21  1  0.504935  0.239176  0.968963  1
  N  N22  1  0.271835  0.723827  0.222886  1
  N  N23  1  0.995579  0.961959  0.740306  1
  N  N24  1  0.962210  0.737857  0.999049  1
  N  N25  1  0.538351  0.535541  0.772428  1
  N  N26  1  0.220234  0.268503  0.727025  1
  N  N27  1  0.545286  0.775388  0.542541  1
  N  N28  1  0.038322  0.495385  0.763091  1
  N  N29  1  0.741845  0.997231  0.967554  1
  N  N30  1  0.272222  0.777517  0.735142  1
  N  N31  1  0.236809  0.961138  0.502543  1
  O  O32  1  0.767958  0.037757  0.486312  1
  O  O33  1  0.952892  0.501825  0.221702  1
  O  O34  1  0.282112  0.015049  0.058755  1
  O  O35  1  0.453590  0.223967  0.445372  1
  O  O36  1  0.439379  0.453295  0.221753  1
  O  O37  1  0.050798  0.281162  0.013506  1
  O  O38  1  0.010707  0.047959  0.283414  1
  O  O39  1  0.495873  0.773647  0.044943  1
