# generated using pymatgen
data_Li4TiCrO6
_symmetry_space_group_name_H-M   'P 1'
_cell_length_a   5.06763027
_cell_length_b   5.06763091
_cell_length_c   19.62501212
_cell_angle_alpha   85.07116085
_cell_angle_beta   94.92883612
_cell_angle_gamma   59.85655148
_symmetry_Int_Tables_number   1
_chemical_formula_structural   Li4TiCrO6
_chemical_formula_sum   'Li16 Ti4 Cr4 O24'
_cell_volume   429.32250818
_cell_formula_units_Z   4
loop_
 _symmetry_equiv_pos_site_id
 _symmetry_equiv_pos_as_xyz
  1  'x, y, z'
loop_
 _atom_site_type_symbol
 _atom_site_label
 _atom_site_symmetry_multiplicity
 _atom_site_fract_x
 _atom_site_fract_y
 _atom_site_fract_z
 _atom_site_occupancy
  Li  Li0  1  0.004044  0.502258  0.500054  1
  Li  Li1  1  0.251672  0.248200  0.874989  1
  Li  Li2  1  0.160607  0.661447  0.749715  1
  Li  Li3  1  0.999654  0.501760  0.999981  1
  Li  Li4  1  0.248200  0.251672  0.375011  1
  Li  Li5  1  0.502258  0.004044  0.749946  1
  Li  Li6  1  0.152279  0.669200  0.249662  1
  Li  Li7  1  0.501760  0.999654  0.250019  1
  Li  Li8  1  0.331663  0.845271  0.999694  1
  Li  Li9  1  0.661447  0.160607  0.500285  1
  Li  Li10  1  0.336302  0.837162  0.499772  1
  Li  Li11  1  0.669200  0.152279  0.000338  1
  Li  Li12  1  0.837162  0.336302  0.750228  1
  Li  Li13  1  0.748969  0.748969  0.625000  1
  Li  Li14  1  0.845271  0.331663  0.250306  1
  Li  Li15  1  0.750719  0.750719  0.125000  1
  Ti  Ti16  1  0.083775  0.083775  0.625000  1
  Ti  Ti17  1  0.416813  0.416813  0.125000  1
  Ti  Ti18  1  0.580787  0.586563  0.874929  1
  Ti  Ti19  1  0.586563  0.580787  0.375071  1
  Cr  Cr20  1  0.084679  0.084679  0.125000  1
  Cr  Cr21  1  0.415825  0.415825  0.625000  1
  Cr  Cr22  1  0.919442  0.913356  0.875162  1
  Cr  Cr23  1  0.913356  0.919442  0.374838  1
  O  O24  1  0.146190  0.356148  0.682481  1
  O  O25  1  0.356148  0.146190  0.567519  1
  O  O26  1  0.144206  0.353570  0.182483  1
  O  O27  1  0.279671  0.573972  0.931293  1
  O  O28  1  0.075592  0.779235  0.569140  1
  O  O29  1  0.353570  0.144206  0.067517  1
  O  O30  1  0.214096  0.931428  0.817801  1
  O  O31  1  0.283534  0.571201  0.430919  1
  O  O32  1  0.067947  0.788049  0.068515  1
  O  O33  1  0.571201  0.283534  0.819081  1
  O  O34  1  0.432374  0.711904  0.681639  1
  O  O35  1  0.205984  0.932335  0.319266  1
  O  O36  1  0.779235  0.075592  0.680860  1
  O  O37  1  0.573972  0.279671  0.318707  1
  O  O38  1  0.424175  0.720553  0.181122  1
  O  O39  1  0.932335  0.205984  0.930734  1
  O  O40  1  0.711904  0.432374  0.568361  1
  O  O41  1  0.788049  0.067947  0.181485  1
  O  O42  1  0.642386  0.853882  0.932970  1
  O  O43  1  0.931428  0.214096  0.432199  1
  O  O44  1  0.720553  0.424175  0.068878  1
  O  O45  1  0.857087  0.652034  0.817866  1
  O  O46  1  0.652034  0.857087  0.432134  1
  O  O47  1  0.853882  0.642386  0.317030  1
