# generated using pymatgen
data_Mn6VSi5HO19
_symmetry_space_group_name_H-M   'P 1'
_cell_length_a   6.80805289
_cell_length_b   29.33707795
_cell_length_c   7.67206179
_cell_angle_alpha   90.00000000
_cell_angle_beta   95.73974463
_cell_angle_gamma   90.00000000
_symmetry_Int_Tables_number   1
_chemical_formula_structural   Mn6VSi5HO19
_chemical_formula_sum   'Mn24 V4 Si20 H4 O76'
_cell_volume   1524.64603113
_cell_formula_units_Z   4
loop_
 _symmetry_equiv_pos_site_id
 _symmetry_equiv_pos_as_xyz
  1  'x, y, z'
loop_
 _atom_site_type_symbol
 _atom_site_label
 _atom_site_symmetry_multiplicity
 _atom_site_fract_x
 _atom_site_fract_y
 _atom_site_fract_z
 _atom_site_occupancy
  Mn  Mn0  1  0.130601  0.522254  0.345101  1
  Mn  Mn1  1  0.630601  0.977746  0.845101  1
  Mn  Mn2  1  0.869399  0.477746  0.654899  1
  Mn  Mn3  1  0.369399  0.022254  0.154899  1
  Mn  Mn4  1  0.819080  0.816898  0.474206  1
  Mn  Mn5  1  0.319080  0.683102  0.974206  1
  Mn  Mn6  1  0.180920  0.183102  0.525794  1
  Mn  Mn7  1  0.680920  0.316898  0.025794  1
  Mn  Mn8  1  0.043817  0.636799  0.277318  1
  Mn  Mn9  1  0.543817  0.863201  0.777318  1
  Mn  Mn10  1  0.956183  0.363200  0.722682  1
  Mn  Mn11  1  0.456183  0.136799  0.222682  1
  Mn  Mn12  1  0.832890  0.586929  0.581023  1
  Mn  Mn13  1  0.332890  0.913071  0.081023  1
  Mn  Mn14  1  0.167110  0.413071  0.418977  1
  Mn  Mn15  1  0.667110  0.086929  0.918977  1
  Mn  Mn16  1  0.356532  0.576937  0.060496  1
  Mn  Mn17  1  0.856532  0.923063  0.560496  1
  Mn  Mn18  1  0.643468  0.423063  0.939504  1
  Mn  Mn19  1  0.143468  0.076937  0.439504  1
  Mn  Mn20  1  0.029064  0.753043  0.189806  1
  Mn  Mn21  1  0.529064  0.746957  0.689806  1
  Mn  Mn22  1  0.970936  0.246957  0.810194  1
  Mn  Mn23  1  0.470936  0.253043  0.310194  1
  V  V24  1  0.009816  0.713418  0.618930  1
  V  V25  1  0.509816  0.786582  0.118930  1
  V  V26  1  0.990184  0.286582  0.381070  1
  V  V27  1  0.490184  0.213418  0.881070  1
  Si  Si28  1  0.806193  0.666699  0.910942  1
  Si  Si29  1  0.306193  0.833301  0.410942  1
  Si  Si30  1  0.193807  0.333301  0.089058  1
  Si  Si31  1  0.693807  0.166699  0.589058  1
  Si  Si32  1  0.857626  0.562734  0.985226  1
  Si  Si33  1  0.357626  0.937266  0.485226  1
  Si  Si34  1  0.142374  0.437266  0.014774  1
  Si  Si35  1  0.642374  0.062734  0.514774  1
  Si  Si36  1  0.636009  0.512286  0.270472  1
  Si  Si37  1  0.136009  0.987714  0.770472  1
  Si  Si38  1  0.363991  0.487714  0.729528  1
  Si  Si39  1  0.863991  0.012286  0.229528  1
  Si  Si40  1  0.682685  0.406144  0.334308  1
  Si  Si41  1  0.182685  0.093856  0.834308  1
  Si  Si42  1  0.317315  0.593856  0.665692  1
  Si  Si43  1  0.817315  0.906144  0.165692  1
  Si  Si44  1  0.462893  0.354507  0.612823  1
  Si  Si45  1  0.962893  0.145493  0.112823  1
  Si  Si46  1  0.537107  0.645493  0.387177  1
  Si  Si47  1  0.037107  0.854507  0.887177  1
  H  H48  1  0.539877  0.281966  0.655357  1
  H  H49  1  0.039877  0.218034  0.155357  1
  H  H50  1  0.460123  0.718034  0.344643  1
  H  H51  1  0.960123  0.781966  0.844643  1
  O  O52  1  0.846437  0.758385  0.649528  1
  O  O53  1  0.346437  0.741615  0.149528  1
  O  O54  1  0.153563  0.241615  0.350472  1
  O  O55  1  0.653563  0.258385  0.850472  1
  O  O56  1  0.045832  0.702737  0.405140  1
  O  O57  1  0.545832  0.797263  0.905140  1
  O  O58  1  0.954168  0.297263  0.594860  1
  O  O59  1  0.454168  0.202737  0.094860  1
  O  O60  1  0.233722  0.724003  0.738019  1
  O  O61  1  0.733722  0.775997  0.238018  1
  O  O62  1  0.766278  0.275997  0.261982  1
  O  O63  1  0.266278  0.224003  0.761981  1
  O  O64  1  0.892344  0.664075  0.711936  1
  O  O65  1  0.392344  0.835925  0.211936  1
  O  O66  1  0.107656  0.335925  0.288064  1
  O  O67  1  0.607656  0.164075  0.788064  1
  O  O68  1  0.990159  0.685100  0.048574  1
  O  O69  1  0.490159  0.814900  0.548574  1
  O  O70  1  0.009841  0.314900  0.951426  1
  O  O71  1  0.509841  0.185100  0.451426  1
  O  O72  1  0.610436  0.698079  0.898265  1
  O  O73  1  0.110436  0.801921  0.398265  1
  O  O74  1  0.389564  0.301921  0.101735  1
  O  O75  1  0.889564  0.198079  0.601735  1
  O  O76  1  0.748298  0.613263  0.953412  1
  O  O77  1  0.248298  0.886737  0.453412  1
  O  O78  1  0.251702  0.386737  0.046588  1
  O  O79  1  0.751702  0.113263  0.546588  1
  O  O80  1  0.053110  0.570025  0.125856  1
  O  O81  1  0.553110  0.929975  0.625856  1
  O  O82  1  0.946890  0.429975  0.874144  1
  O  O83  1  0.446890  0.070025  0.374144  1
  O  O84  1  0.898094  0.542564  0.796090  1
  O  O85  1  0.398094  0.957436  0.296090  1
  O  O86  1  0.101906  0.457436  0.203910  1
  O  O87  1  0.601906  0.042564  0.703910  1
  O  O88  1  0.697598  0.530003  0.076290  1
  O  O89  1  0.197598  0.969997  0.576290  1
  O  O90  1  0.302402  0.469997  0.923710  1
  O  O91  1  0.802402  0.030003  0.423710  1
  O  O92  1  0.425675  0.536701  0.286243  1
  O  O93  1  0.925675  0.963299  0.786243  1
  O  O94  1  0.574325  0.463299  0.713757  1
  O  O95  1  0.074325  0.036701  0.213757  1
  O  O96  1  0.813080  0.522832  0.425226  1
  O  O97  1  0.313080  0.977168  0.925226  1
  O  O98  1  0.186920  0.477168  0.574774  1
  O  O99  1  0.686920  0.022832  0.074774  1
  O  O100  1  0.606441  0.456510  0.255047  1
  O  O101  1  0.106441  0.043490  0.755047  1
  O  O102  1  0.393559  0.543490  0.744953  1
  O  O103  1  0.893559  0.956510  0.244953  1
  O  O104  1  0.867760  0.409690  0.486574  1
  O  O105  1  0.367760  0.090310  0.986574  1
  O  O106  1  0.132240  0.590310  0.513426  1
  O  O107  1  0.632240  0.909690  0.013426  1
  O  O108  1  0.718038  0.379593  0.154949  1
  O  O109  1  0.218038  0.120407  0.654949  1
  O  O110  1  0.281962  0.620407  0.845051  1
  O  O111  1  0.781962  0.879593  0.345051  1
  O  O112  1  0.496188  0.383840  0.430541  1
  O  O113  1  0.996188  0.116160  0.930541  1
  O  O114  1  0.503812  0.616160  0.569459  1
  O  O115  1  0.003813  0.883840  0.069459  1
  O  O116  1  0.246498  0.371958  0.650313  1
  O  O117  1  0.746498  0.128042  0.150313  1
  O  O118  1  0.753502  0.628042  0.349687  1
  O  O119  1  0.253502  0.871958  0.849687  1
  O  O120  1  0.635083  0.360924  0.776851  1
  O  O121  1  0.135083  0.139076  0.276851  1
  O  O122  1  0.364917  0.639076  0.223149  1
  O  O123  1  0.864917  0.860924  0.723149  1
  O  O124  1  0.477051  0.299402  0.552718  1
  O  O125  1  0.977051  0.200598  0.052718  1
  O  O126  1  0.522949  0.700598  0.447282  1
  O  O127  1  0.022949  0.799402  0.947282  1
