# generated using pymatgen
data_Al6H16C5(Cl2O)6
_symmetry_space_group_name_H-M   'P 1'
_cell_length_a   8.98979188
_cell_length_b   10.16350667
_cell_length_c   19.21834029
_cell_angle_alpha   99.46154925
_cell_angle_beta   91.62276309
_cell_angle_gamma   112.25437362
_symmetry_Int_Tables_number   1
_chemical_formula_structural   Al6H16C5(Cl2O)6
_chemical_formula_sum   'Al12 H32 C10 Cl24 O12'
_cell_volume   1595.12327044
_cell_formula_units_Z   2
loop_
 _symmetry_equiv_pos_site_id
 _symmetry_equiv_pos_as_xyz
  1  'x, y, z'
loop_
 _atom_site_type_symbol
 _atom_site_label
 _atom_site_symmetry_multiplicity
 _atom_site_fract_x
 _atom_site_fract_y
 _atom_site_fract_z
 _atom_site_occupancy
  Al  Al0  1  0.122180  0.787596  0.966071  1
  Al  Al1  1  0.030840  0.583828  0.802408  1
  Al  Al2  1  0.203311  0.951310  0.344710  1
  Al  Al3  1  0.378698  0.678002  0.888258  1
  Al  Al4  1  0.575102  0.987275  0.343227  1
  Al  Al5  1  0.525401  0.724927  0.629955  1
  Al  Al6  1  0.474599  0.275073  0.370045  1
  Al  Al7  1  0.424898  0.012725  0.656773  1
  Al  Al8  1  0.621302  0.321998  0.111742  1
  Al  Al9  1  0.796689  0.048690  0.655290  1
  Al  Al10  1  0.969160  0.416172  0.197592  1
  Al  Al11  1  0.877820  0.212404  0.033929  1
  H  H12  1  0.061671  0.916763  0.826428  1
  H  H13  1  0.216647  0.669081  0.359361  1
  H  H14  1  0.118621  0.319091  0.820483  1
  H  H15  1  0.168582  0.386823  0.739492  1
  H  H16  1  0.338885  0.772696  0.440819  1
  H  H17  1  0.327352  0.803881  0.076649  1
  H  H18  1  0.110216  0.228272  0.409813  1
  H  H19  1  0.128870  0.236755  0.192544  1
  H  H20  1  0.076707  0.123885  0.106548  1
  H  H21  1  0.292956  0.615518  0.051271  1
  H  H22  1  0.122123  0.112464  0.469380  1
  H  H23  1  0.428859  0.711096  0.366364  1
  H  H24  1  0.326503  0.407467  0.804403  1
  H  H25  1  0.275306  0.290905  0.478764  1
  H  H26  1  0.482275  0.754167  0.038586  1
  H  H27  1  0.517725  0.245833  0.961414  1
  H  H28  1  0.724694  0.709095  0.521236  1
  H  H29  1  0.673497  0.592533  0.195597  1
  H  H30  1  0.571141  0.288904  0.633636  1
  H  H31  1  0.877877  0.887536  0.530620  1
  H  H32  1  0.707044  0.384482  0.948729  1
  H  H33  1  0.923293  0.876115  0.893452  1
  H  H34  1  0.871130  0.763245  0.807456  1
  H  H35  1  0.889784  0.771728  0.590187  1
  H  H36  1  0.672648  0.196119  0.923351  1
  H  H37  1  0.661115  0.227304  0.559181  1
  H  H38  1  0.831418  0.613177  0.260508  1
  H  H39  1  0.881379  0.680909  0.179517  1
  H  H40  1  0.783353  0.330919  0.640639  1
  H  H41  1  0.938329  0.083237  0.173572  1
  H  H42  1  0.438281  0.845540  0.729347  1
  H  H43  1  0.561719  0.154460  0.270653  1
  C  C44  1  0.028761  0.169422  0.152024  1
  C  C45  1  0.203888  0.404114  0.796324  1
  C  C46  1  0.334764  0.750447  0.383096  1
  C  C47  1  0.351492  0.723319  0.038448  1
  C  C48  1  0.191513  0.196930  0.440917  1
  C  C49  1  0.808487  0.803070  0.559083  1
  C  C50  1  0.648509  0.276681  0.961552  1
  C  C51  1  0.665236  0.249553  0.616904  1
  C  C52  1  0.796112  0.595886  0.203676  1
  C  C53  1  0.971239  0.830578  0.847976  1
  Cl  Cl54  1  0.160934  0.955780  0.236080  1
  Cl  Cl55  1  0.066575  0.645822  0.701911  1
  Cl  Cl56  1  0.278291  0.958408  0.559800  1
  Cl  Cl57  1  0.060558  0.322792  0.972861  1
  Cl  Cl58  1  0.003165  0.176279  0.610994  1
  Cl  Cl59  1  0.189925  0.591609  0.196536  1
  Cl  Cl60  1  0.458858  0.868980  0.842275  1
  Cl  Cl61  1  0.368437  0.598873  0.538458  1
  Cl  Cl62  1  0.224260  0.016090  0.997212  1
  Cl  Cl63  1  0.425427  0.397950  0.300164  1
  Cl  Cl64  1  0.549856  0.592130  0.910483  1
  Cl  Cl65  1  0.351098  0.117681  0.745137  1
  Cl  Cl66  1  0.648902  0.882319  0.254863  1
  Cl  Cl67  1  0.450144  0.407870  0.089517  1
  Cl  Cl68  1  0.574573  0.602050  0.699836  1
  Cl  Cl69  1  0.775740  0.983910  0.002788  1
  Cl  Cl70  1  0.631563  0.401127  0.461542  1
  Cl  Cl71  1  0.541142  0.131020  0.157725  1
  Cl  Cl72  1  0.810075  0.408391  0.803464  1
  Cl  Cl73  1  0.996835  0.823721  0.389006  1
  Cl  Cl74  1  0.939442  0.677208  0.027139  1
  Cl  Cl75  1  0.721709  0.041592  0.440200  1
  Cl  Cl76  1  0.933425  0.354178  0.298089  1
  Cl  Cl77  1  0.839066  0.044220  0.763920  1
  O  O78  1  0.049334  0.737582  0.871723  1
  O  O79  1  0.284885  0.721752  0.966752  1
  O  O80  1  0.203508  0.545567  0.830951  1
  O  O81  1  0.364853  0.886209  0.356670  1
  O  O82  1  0.452190  0.854606  0.678377  1
  O  O83  1  0.287996  0.140722  0.392539  1
  O  O84  1  0.712004  0.859278  0.607461  1
  O  O85  1  0.547810  0.145394  0.321623  1
  O  O86  1  0.635147  0.113791  0.643330  1
  O  O87  1  0.796492  0.454433  0.169049  1
  O  O88  1  0.715115  0.278248  0.033248  1
  O  O89  1  0.950666  0.262418  0.128277  1
