# generated using pymatgen
data_Li3V3(BO5)2
_symmetry_space_group_name_H-M   'P 1'
_cell_length_a   9.43392813
_cell_length_b   12.06467373
_cell_length_c   2.99295924
_cell_angle_alpha   90.01283956
_cell_angle_beta   89.86972452
_cell_angle_gamma   89.15432383
_symmetry_Int_Tables_number   1
_chemical_formula_structural   Li3V3(BO5)2
_chemical_formula_sum   'Li6 V6 B4 O20'
_cell_volume   340.61243794
_cell_formula_units_Z   2
loop_
 _symmetry_equiv_pos_site_id
 _symmetry_equiv_pos_as_xyz
  1  'x, y, z'
loop_
 _atom_site_type_symbol
 _atom_site_label
 _atom_site_symmetry_multiplicity
 _atom_site_fract_x
 _atom_site_fract_y
 _atom_site_fract_z
 _atom_site_occupancy
  Li  Li0  1  0.007984  0.003116  0.000408  1
  Li  Li1  1  0.998441  0.275845  0.999964  1
  Li  Li2  1  0.499802  0.496493  0.000000  1
  Li  Li3  1  0.505654  0.012627  0.500103  1
  Li  Li4  1  0.504846  0.210779  0.999942  1
  Li  Li5  1  0.000139  0.721810  0.000202  1
  V  V6  1  0.995629  0.498993  0.500160  1
  V  V7  1  0.243869  0.113812  0.499061  1
  V  V8  1  0.262451  0.611964  0.499906  1
  V  V9  1  0.504368  0.786772  0.999608  1
  V  V10  1  0.735533  0.380038  0.500598  1
  V  V11  1  0.770731  0.897828  0.493718  1
  B  B12  1  0.231315  0.858731  0.499898  1
  B  B13  1  0.263612  0.361744  0.499880  1
  B  B14  1  0.728735  0.632632  0.500245  1
  B  B15  1  0.762616  0.141858  0.499724  1
  O  O16  1  0.122234  0.145487  0.000364  1
  O  O17  1  0.120366  0.570225  0.000046  1
  O  O18  1  0.117292  0.365442  0.499880  1
  O  O19  1  0.161777  0.757913  0.500161  1
  O  O20  1  0.158756  0.957043  0.500332  1
  O  O21  1  0.341061  0.461273  0.499745  1
  O  O22  1  0.335255  0.261801  0.499888  1
  O  O23  1  0.382671  0.854101  0.499122  1
  O  O24  1  0.367616  0.073139  0.000246  1
  O  O25  1  0.385467  0.651531  0.999458  1
  O  O26  1  0.624596  0.353422  0.999822  1
  O  O27  1  0.625449  0.919994  0.995128  1
  O  O28  1  0.620917  0.142010  0.499223  1
  O  O29  1  0.651018  0.736183  0.499911  1
  O  O30  1  0.650928  0.537912  0.499772  1
  O  O31  1  0.846835  0.042530  0.504396  1
  O  O32  1  0.840806  0.240405  0.499932  1
  O  O33  1  0.873834  0.637227  0.500750  1
  O  O34  1  0.877442  0.430686  0.000331  1
  O  O35  1  0.879957  0.856636  0.008072  1
