# generated using pymatgen
data_LiCr(PO3)4
_symmetry_space_group_name_H-M   'P 1'
_cell_length_a   7.64657457
_cell_length_b   12.97676248
_cell_length_c   9.44060927
_cell_angle_alpha   90.00000000
_cell_angle_beta   82.25780467
_cell_angle_gamma   90.00000000
_symmetry_Int_Tables_number   1
_chemical_formula_structural   LiCr(PO3)4
_chemical_formula_sum   'Li4 Cr4 P16 O48'
_cell_volume   928.23135722
_cell_formula_units_Z   4
loop_
 _symmetry_equiv_pos_site_id
 _symmetry_equiv_pos_as_xyz
  1  'x, y, z'
loop_
 _atom_site_type_symbol
 _atom_site_label
 _atom_site_symmetry_multiplicity
 _atom_site_fract_x
 _atom_site_fract_y
 _atom_site_fract_z
 _atom_site_occupancy
  Li  Li0  1  0.902164  0.285023  0.418489  1
  Li  Li1  1  0.597836  0.785023  0.081511  1
  Li  Li2  1  0.402164  0.214977  0.918489  1
  Li  Li3  1  0.097836  0.714977  0.581511  1
  Cr  Cr4  1  0.902822  0.208981  0.000878  1
  Cr  Cr5  1  0.597178  0.708981  0.499122  1
  Cr  Cr6  1  0.402822  0.291019  0.500878  1
  Cr  Cr7  1  0.097178  0.791019  0.999122  1
  P  P8  1  0.088915  0.607049  0.265175  1
  P  P9  1  0.103948  0.137072  0.710709  1
  P  P10  1  0.210125  0.915443  0.722062  1
  P  P11  1  0.281101  0.888493  0.240711  1
  P  P12  1  0.218899  0.388493  0.259289  1
  P  P13  1  0.289875  0.415443  0.777938  1
  P  P14  1  0.396052  0.637071  0.789291  1
  P  P15  1  0.411085  0.107049  0.234825  1
  P  P16  1  0.588915  0.892951  0.765175  1
  P  P17  1  0.603948  0.362928  0.210709  1
  P  P18  1  0.710125  0.584557  0.222063  1
  P  P19  1  0.781101  0.611507  0.740711  1
  P  P20  1  0.718899  0.111507  0.759289  1
  P  P21  1  0.789875  0.084557  0.277937  1
  P  P22  1  0.896052  0.862929  0.289291  1
  P  P23  1  0.911085  0.392951  0.734825  1
  O  O24  1  0.092136  0.861216  0.332785  1
  O  O25  1  0.071568  0.896014  0.851015  1
  O  O26  1  0.107682  0.440236  0.718097  1
  O  O27  1  0.069962  0.324473  0.220965  1
  O  O28  1  0.112467  0.677847  0.137517  1
  O  O29  1  0.101297  0.144205  0.871707  1
  O  O30  1  0.131172  0.642933  0.405078  1
  O  O31  1  0.256006  0.883486  0.082558  1
  O  O32  1  0.204995  0.506375  0.212380  1
  O  O33  1  0.175101  0.027510  0.654878  1
  O  O34  1  0.206027  0.219318  0.624430  1
  O  O35  1  0.274798  0.340842  0.897412  1
  O  O36  1  0.225202  0.840842  0.602588  1
  O  O37  1  0.295005  0.006375  0.287620  1
  O  O38  1  0.293973  0.719318  0.875570  1
  O  O39  1  0.243994  0.383486  0.417442  1
  O  O40  1  0.324899  0.527510  0.845122  1
  O  O41  1  0.368828  0.142933  0.094922  1
  O  O42  1  0.398703  0.644205  0.628293  1
  O  O43  1  0.387533  0.177847  0.362483  1
  O  O44  1  0.430038  0.824473  0.279035  1
  O  O45  1  0.392318  0.940236  0.781903  1
  O  O46  1  0.407864  0.361216  0.167215  1
  O  O47  1  0.428432  0.396014  0.648985  1
  O  O48  1  0.571568  0.603986  0.351015  1
  O  O49  1  0.592136  0.638784  0.832785  1
  O  O50  1  0.607682  0.059764  0.218097  1
  O  O51  1  0.569962  0.175527  0.720965  1
  O  O52  1  0.612467  0.822153  0.637517  1
  O  O53  1  0.601297  0.355795  0.371707  1
  O  O54  1  0.631172  0.857067  0.905078  1
  O  O55  1  0.675101  0.472490  0.154878  1
  O  O56  1  0.756006  0.616514  0.582558  1
  O  O57  1  0.706027  0.280682  0.124430  1
  O  O58  1  0.704995  0.993625  0.712380  1
  O  O59  1  0.774798  0.159158  0.397412  1
  O  O60  1  0.725202  0.659158  0.102588  1
  O  O61  1  0.793973  0.780682  0.375570  1
  O  O62  1  0.824899  0.972490  0.345122  1
  O  O63  1  0.795005  0.493625  0.787620  1
  O  O64  1  0.743994  0.116514  0.917442  1
  O  O65  1  0.868828  0.357067  0.594922  1
  O  O66  1  0.898703  0.855795  0.128293  1
  O  O67  1  0.887533  0.322153  0.862483  1
  O  O68  1  0.930038  0.675527  0.779035  1
  O  O69  1  0.892318  0.559764  0.281903  1
  O  O70  1  0.928432  0.103986  0.148985  1
  O  O71  1  0.907864  0.138784  0.667215  1
