# generated using pymatgen
data_Li4Cr3CoO8
_symmetry_space_group_name_H-M   'P 1'
_cell_length_a   5.10333828
_cell_length_b   5.85724723
_cell_length_c   10.15010675
_cell_angle_alpha   90.13544576
_cell_angle_beta   80.49898164
_cell_angle_gamma   73.31776947
_symmetry_Int_Tables_number   1
_chemical_formula_structural   Li4Cr3CoO8
_chemical_formula_sum   'Li8 Cr6 Co2 O16'
_cell_volume   286.24797690
_cell_formula_units_Z   2
loop_
 _symmetry_equiv_pos_site_id
 _symmetry_equiv_pos_as_xyz
  1  'x, y, z'
loop_
 _atom_site_type_symbol
 _atom_site_label
 _atom_site_symmetry_multiplicity
 _atom_site_fract_x
 _atom_site_fract_y
 _atom_site_fract_z
 _atom_site_occupancy
  Li  Li0  1  0.995774  0.003308  0.999561  1
  Li  Li1  1  0.000514  0.001826  0.497305  1
  Li  Li2  1  0.999998  0.250007  0.249993  1
  Li  Li3  1  0.999995  0.250004  0.750007  1
  Li  Li4  1  0.999492  0.498172  0.002702  1
  Li  Li5  1  0.004224  0.496709  0.500441  1
  Li  Li6  1  0.999997  0.749999  0.249995  1
  Li  Li7  1  0.999996  0.750003  0.749999  1
  Cr  Cr8  1  0.500054  0.126332  0.877009  1
  Cr  Cr9  1  0.499947  0.373675  0.622999  1
  Cr  Cr10  1  0.500229  0.622718  0.372711  1
  Cr  Cr11  1  0.499608  0.624212  0.877216  1
  Cr  Cr12  1  0.499776  0.877267  0.127282  1
  Cr  Cr13  1  0.500388  0.875788  0.622788  1
  Co  Co14  1  0.500272  0.125495  0.373320  1
  Co  Co15  1  0.499729  0.374507  0.126670  1
  O  O16  1  0.276715  0.186040  0.063292  1
  O  O17  1  0.276211  0.180915  0.555137  1
  O  O18  1  0.718672  0.077234  0.192546  1
  O  O19  1  0.727284  0.068568  0.689547  1
  O  O20  1  0.281339  0.422779  0.307423  1
  O  O21  1  0.723291  0.313982  0.436721  1
  O  O22  1  0.272712  0.431437  0.810456  1
  O  O23  1  0.723783  0.319101  0.944880  1
  O  O24  1  0.275542  0.677013  0.064177  1
  O  O25  1  0.723287  0.564363  0.187904  1
  O  O26  1  0.272645  0.681169  0.558915  1
  O  O27  1  0.726727  0.567752  0.689127  1
  O  O28  1  0.276708  0.935609  0.312084  1
  O  O29  1  0.724464  0.822957  0.435823  1
  O  O30  1  0.273265  0.932247  0.810881  1
  O  O31  1  0.727362  0.818815  0.941086  1
