# generated using pymatgen
data_Li4V7(PO4)6
_symmetry_space_group_name_H-M   'P 1'
_cell_length_a   8.91268461
_cell_length_b   8.91268461
_cell_length_c   6.70780173
_cell_angle_alpha   79.96582603
_cell_angle_beta   100.03417397
_cell_angle_gamma   74.17005797
_symmetry_Int_Tables_number   1
_chemical_formula_structural   Li4V7(PO4)6
_chemical_formula_sum   'Li4 V7 P6 O24'
_cell_volume   490.76644122
_cell_formula_units_Z   1
loop_
 _symmetry_equiv_pos_site_id
 _symmetry_equiv_pos_as_xyz
  1  'x, y, z'
loop_
 _atom_site_type_symbol
 _atom_site_label
 _atom_site_symmetry_multiplicity
 _atom_site_fract_x
 _atom_site_fract_y
 _atom_site_fract_z
 _atom_site_occupancy
  Li  Li0  1  0.004042  0.995958  0.491750  1
  Li  Li1  1  0.369319  0.630681  0.588460  1
  Li  Li2  1  0.673526  0.546939  0.490146  1
  Li  Li3  1  0.453061  0.326474  0.490146  1
  V  V4  1  0.643080  0.992770  0.193885  1
  V  V5  1  0.007230  0.356920  0.193885  1
  V  V6  1  0.003692  0.996308  0.997583  1
  V  V7  1  0.326635  0.316610  0.004923  1
  V  V8  1  0.683390  0.673365  0.004923  1
  V  V9  1  0.362532  0.998023  0.814150  1
  V  V10  1  0.001977  0.637468  0.814150  1
  P  P11  1  0.720364  0.907604  0.698040  1
  P  P12  1  0.092396  0.279636  0.698040  1
  P  P13  1  0.336131  0.663869  0.088994  1
  P  P14  1  0.674835  0.325165  0.916717  1
  P  P15  1  0.283573  0.078415  0.308466  1
  P  P16  1  0.921585  0.716427  0.308466  1
  O  O17  1  0.050068  0.647174  0.511182  1
  O  O18  1  0.352826  0.949932  0.511182  1
  O  O19  1  0.059477  0.369673  0.877735  1
  O  O20  1  0.630327  0.940523  0.877735  1
  O  O21  1  0.206675  0.793325  0.137852  1
  O  O22  1  0.430688  0.743386  0.944803  1
  O  O23  1  0.256614  0.569312  0.944803  1
  O  O24  1  0.103924  0.096776  0.755035  1
  O  O25  1  0.903224  0.896076  0.755035  1
  O  O26  1  0.731062  0.727137  0.699615  1
  O  O27  1  0.272863  0.268938  0.699615  1
  O  O28  1  0.449603  0.550397  0.292850  1
  O  O29  1  0.560107  0.439893  0.712012  1
  O  O30  1  0.282031  0.255858  0.314531  1
  O  O31  1  0.744142  0.717969  0.314531  1
  O  O32  1  0.099080  0.099428  0.240690  1
  O  O33  1  0.900572  0.900920  0.240690  1
  O  O34  1  0.802710  0.197290  0.864844  1
  O  O35  1  0.376568  0.045565  0.132176  1
  O  O36  1  0.954435  0.623432  0.132176  1
  O  O37  1  0.755243  0.422676  0.052581  1
  O  O38  1  0.577324  0.244757  0.052581  1
  O  O39  1  0.636883  0.034885  0.496915  1
  O  O40  1  0.965115  0.363117  0.496915  1
