# generated using pymatgen
data_FeOF
_symmetry_space_group_name_H-M   'P 1'
_cell_length_a   9.63839171
_cell_length_b   14.39802185
_cell_length_c   3.14268683
_cell_angle_alpha   90.00000000
_cell_angle_beta   90.00000000
_cell_angle_gamma   90.15620409
_symmetry_Int_Tables_number   1
_chemical_formula_structural   FeOF
_chemical_formula_sum   'Fe12 O12 F12'
_cell_volume   436.12089264
_cell_formula_units_Z   12
loop_
 _symmetry_equiv_pos_site_id
 _symmetry_equiv_pos_as_xyz
  1  'x, y, z'
loop_
 _atom_site_type_symbol
 _atom_site_label
 _atom_site_symmetry_multiplicity
 _atom_site_fract_x
 _atom_site_fract_y
 _atom_site_fract_z
 _atom_site_occupancy
  Fe  Fe0  1  0.000074  0.999184  0.000000  1
  Fe  Fe1  1  0.013252  0.326262  0.000000  1
  Fe  Fe2  1  0.006321  0.671662  0.000000  1
  Fe  Fe3  1  0.226142  0.158329  0.500000  1
  Fe  Fe4  1  0.276600  0.503424  0.500000  1
  Fe  Fe5  1  0.224592  0.835239  0.500000  1
  Fe  Fe6  1  0.497957  0.341005  0.000000  1
  Fe  Fe7  1  0.517087  0.997930  0.000000  1
  Fe  Fe8  1  0.506534  0.659996  0.000000  1
  Fe  Fe9  1  0.750523  0.148083  0.500000  1
  Fe  Fe10  1  0.729523  0.498217  0.500000  1
  Fe  Fe11  1  0.757335  0.852582  0.500000  1
  O  O12  1  0.099092  0.270910  0.500000  1
  O  O13  1  0.094448  0.937092  0.500000  1
  O  O14  1  0.147930  0.099864  0.000000  1
  O  O15  1  0.150896  0.768801  0.000000  1
  O  O16  1  0.346086  0.570231  0.000000  1
  O  O17  1  0.400195  0.394380  0.500000  1
  O  O18  1  0.592301  0.934002  0.500000  1
  O  O19  1  0.601293  0.604822  0.500000  1
  O  O20  1  0.651616  0.102336  0.000000  1
  O  O21  1  0.657229  0.431928  0.000000  1
  O  O22  1  0.851723  0.899610  0.000000  1
  O  O23  1  0.905306  0.063084  0.500000  1
  F  F24  1  0.094536  0.594189  0.500000  1
  F  F25  1  0.148974  0.438676  0.000000  1
  F  F26  1  0.348867  0.225522  0.000000  1
  F  F27  1  0.343836  0.901285  0.000000  1
  F  F28  1  0.397975  0.064627  0.500000  1
  F  F29  1  0.407260  0.737076  0.500000  1
  F  F30  1  0.598913  0.266476  0.500000  1
  F  F31  1  0.656247  0.771206  0.000000  1
  F  F32  1  0.846885  0.235711  0.000000  1
  F  F33  1  0.853447  0.565355  0.000000  1
  F  F34  1  0.907785  0.401003  0.500000  1
  F  F35  1  0.891223  0.729902  0.500000  1
