# generated using pymatgen
data_P2H6N2O5
_symmetry_space_group_name_H-M   'P 1'
_cell_length_a   16.35097178
_cell_length_b   8.49051427
_cell_length_c   5.26014601
_cell_angle_alpha   90.03031748
_cell_angle_beta   89.98514508
_cell_angle_gamma   90.92956850
_symmetry_Int_Tables_number   1
_chemical_formula_structural   P2H6N2O5
_chemical_formula_sum   'P8 H24 N8 O20'
_cell_volume   730.16015592
_cell_formula_units_Z   4
loop_
 _symmetry_equiv_pos_site_id
 _symmetry_equiv_pos_as_xyz
  1  'x, y, z'
loop_
 _atom_site_type_symbol
 _atom_site_label
 _atom_site_symmetry_multiplicity
 _atom_site_fract_x
 _atom_site_fract_y
 _atom_site_fract_z
 _atom_site_occupancy
  P  P0  1  0.361671  0.615805  0.798600  1
  P  P1  1  0.638366  0.383830  0.798173  1
  P  P2  1  0.858884  0.888021  0.206796  1
  P  P3  1  0.141089  0.112432  0.205681  1
  P  P4  1  0.409519  0.283560  0.003177  1
  P  P5  1  0.591137  0.716700  0.003492  1
  P  P6  1  0.905681  0.223167  0.998509  1
  P  P7  1  0.094051  0.777153  0.997662  1
  H  H8  1  0.607375  0.730781  0.271019  1
  H  H9  1  0.392992  0.268725  0.270259  1
  H  H10  1  0.110997  0.766759  0.729850  1
  H  H11  1  0.889189  0.233408  0.730344  1
  H  H12  1  0.388802  0.532033  0.196560  1
  H  H13  1  0.611546  0.467313  0.196124  1
  H  H14  1  0.897308  0.969506  0.813893  1
  H  H15  1  0.102686  0.030791  0.812711  1
  H  H16  1  0.275483  0.224694  0.947266  1
  H  H17  1  0.725591  0.773917  0.949979  1
  H  H18  1  0.770825  0.270982  0.046892  1
  H  H19  1  0.228775  0.729229  0.047319  1
  H  H20  1  0.153283  0.385445  0.825282  1
  H  H21  1  0.847295  0.614123  0.825698  1
  H  H22  1  0.652170  0.116496  0.177743  1
  H  H23  1  0.347872  0.884123  0.176941  1
  H  H24  1  0.246166  0.495830  0.631457  1
  H  H25  1  0.753409  0.504466  0.632054  1
  H  H26  1  0.742779  0.005783  0.367248  1
  H  H27  1  0.256730  0.994620  0.366536  1
  H  H28  1  0.121191  0.503296  0.604138  1
  H  H29  1  0.878789  0.496412  0.603990  1
  H  H30  1  0.618528  0.990469  0.384820  1
  H  H31  1  0.381411  0.008292  0.387518  1
  N  N32  1  0.444657  0.649467  0.571293  1
  N  N33  1  0.555606  0.348733  0.570502  1
  N  N34  1  0.942913  0.860151  0.429506  1
  N  N35  1  0.057110  0.141109  0.428394  1
  N  N36  1  0.388644  0.485900  0.015974  1
  N  N37  1  0.611467  0.513716  0.015735  1
  N  N38  1  0.888781  0.018620  0.990438  1
  N  N39  1  0.111190  0.981750  0.989304  1
  O  O40  1  0.330137  0.760712  0.927826  1
  O  O41  1  0.669884  0.238952  0.927857  1
  O  O42  1  0.828030  0.741241  0.076048  1
  O  O43  1  0.172479  0.258646  0.074439  1
  O  O44  1  0.308033  0.532218  0.594820  1
  O  O45  1  0.691850  0.467998  0.594493  1
  O  O46  1  0.804124  0.970545  0.404393  1
  O  O47  1  0.195483  0.029692  0.403925  1
  O  O48  1  0.329940  0.200445  0.873069  1
  O  O49  1  0.671295  0.798937  0.875313  1
  O  O50  1  0.824965  0.297777  0.125581  1
  O  O51  1  0.174616  0.702470  0.125693  1
  O  O52  1  0.517872  0.223127  0.583605  1
  O  O53  1  0.479579  0.777785  0.576198  1
  O  O54  1  0.018710  0.263890  0.405325  1
  O  O55  1  0.981244  0.737319  0.406962  1
  O  O56  1  0.165801  0.437271  0.659635  1
  O  O57  1  0.834413  0.562880  0.659927  1
  O  O58  1  0.662871  0.063677  0.343499  1
  O  O59  1  0.336714  0.936812  0.342515  1
