# generated using pymatgen
data_FeSb3(PO4)6
_symmetry_space_group_name_H-M   'P 1'
_cell_length_a   8.90051638
_cell_length_b   8.90051569
_cell_length_c   8.90051597
_cell_angle_alpha   58.02513527
_cell_angle_beta   58.02513773
_cell_angle_gamma   58.02513829
_symmetry_Int_Tables_number   1
_chemical_formula_structural   FeSb3(PO4)6
_chemical_formula_sum   'Fe1 Sb3 P6 O24'
_cell_volume   475.99213568
_cell_formula_units_Z   1
loop_
 _symmetry_equiv_pos_site_id
 _symmetry_equiv_pos_as_xyz
  1  'x, y, z'
loop_
 _atom_site_type_symbol
 _atom_site_label
 _atom_site_symmetry_multiplicity
 _atom_site_fract_x
 _atom_site_fract_y
 _atom_site_fract_z
 _atom_site_occupancy
  Fe  Fe0  1  0.857657  0.857657  0.857657  1
  Sb  Sb1  1  0.143306  0.143306  0.143306  1
  Sb  Sb2  1  0.356512  0.356512  0.356512  1
  Sb  Sb3  1  0.643618  0.643618  0.643618  1
  P  P4  1  0.037477  0.750931  0.465980  1
  P  P5  1  0.465980  0.037477  0.750931  1
  P  P6  1  0.750931  0.465980  0.037477  1
  P  P7  1  0.246652  0.541898  0.961496  1
  P  P8  1  0.541898  0.961496  0.246652  1
  P  P9  1  0.961496  0.246652  0.541898  1
  O  O10  1  0.133482  0.277667  0.511741  1
  O  O11  1  0.277667  0.511741  0.133482  1
  O  O12  1  0.059713  0.923889  0.279628  1
  O  O13  1  0.511741  0.133482  0.277667  1
  O  O14  1  0.218971  0.575572  0.438949  1
  O  O15  1  0.010733  0.776653  0.633184  1
  O  O16  1  0.279628  0.059713  0.923889  1
  O  O17  1  0.438949  0.218971  0.575572  1
  O  O18  1  0.575572  0.438949  0.218971  1
  O  O19  1  0.228323  0.364135  0.986421  1
  O  O20  1  0.077222  0.716208  0.940161  1
  O  O21  1  0.364135  0.986421  0.228323  1
  O  O22  1  0.633184  0.010733  0.776653  1
  O  O23  1  0.923889  0.279628  0.059713  1
  O  O24  1  0.776653  0.633184  0.010733  1
  O  O25  1  0.427098  0.556179  0.782345  1
  O  O26  1  0.556179  0.782345  0.427098  1
  O  O27  1  0.716208  0.940161  0.077222  1
  O  O28  1  0.986421  0.228323  0.364135  1
  O  O29  1  0.782345  0.427098  0.556179  1
  O  O30  1  0.483898  0.867665  0.724637  1
  O  O31  1  0.940161  0.077222  0.716208  1
  O  O32  1  0.724637  0.483898  0.867665  1
  O  O33  1  0.867665  0.724637  0.483898  1
