# generated using pymatgen
data_Cr5O12
_symmetry_space_group_name_H-M   'P 1'
_cell_length_a   12.53554798
_cell_length_b   9.05956112
_cell_length_c   8.98481534
_cell_angle_alpha   89.99982624
_cell_angle_beta   90.00074848
_cell_angle_gamma   90.00088139
_symmetry_Int_Tables_number   1
_chemical_formula_structural   Cr5O12
_chemical_formula_sum   'Cr20 O48'
_cell_volume   1020.37459812
_cell_formula_units_Z   4
loop_
 _symmetry_equiv_pos_site_id
 _symmetry_equiv_pos_as_xyz
  1  'x, y, z'
loop_
 _atom_site_type_symbol
 _atom_site_label
 _atom_site_symmetry_multiplicity
 _atom_site_fract_x
 _atom_site_fract_y
 _atom_site_fract_z
 _atom_site_occupancy
  Cr  Cr0  1  0.999995  0.463187  0.249996  1
  Cr  Cr1  1  0.999997  0.536791  0.750005  1
  Cr  Cr2  1  0.119596  0.249182  0.968050  1
  Cr  Cr3  1  0.119584  0.750805  0.468035  1
  Cr  Cr4  1  0.145238  0.104150  0.606062  1
  Cr  Cr5  1  0.145255  0.895858  0.106052  1
  Cr  Cr6  1  0.354772  0.395835  0.106069  1
  Cr  Cr7  1  0.354767  0.604150  0.606053  1
  Cr  Cr8  1  0.380412  0.250817  0.468042  1
  Cr  Cr9  1  0.380412  0.749193  0.968024  1
  Cr  Cr10  1  0.500000  0.036796  0.749992  1
  Cr  Cr11  1  0.499997  0.963215  0.249998  1
  Cr  Cr12  1  0.619589  0.250802  0.031955  1
  Cr  Cr13  1  0.619596  0.749189  0.531947  1
  Cr  Cr14  1  0.645250  0.395836  0.393930  1
  Cr  Cr15  1  0.645225  0.604161  0.893934  1
  Cr  Cr16  1  0.854768  0.104163  0.893949  1
  Cr  Cr17  1  0.854753  0.895847  0.393947  1
  Cr  Cr18  1  0.880402  0.249184  0.531963  1
  Cr  Cr19  1  0.880409  0.750823  0.031953  1
  O  O20  1  0.023964  0.158578  0.557401  1
  O  O21  1  0.023974  0.841415  0.057401  1
  O  O22  1  0.074231  0.569092  0.359356  1
  O  O23  1  0.074234  0.430902  0.859359  1
  O  O24  1  0.081966  0.355216  0.153222  1
  O  O25  1  0.081972  0.644783  0.653222  1
  O  O26  1  0.158838  0.078460  0.094109  1
  O  O27  1  0.158827  0.921531  0.594111  1
  O  O28  1  0.168918  0.150402  0.781711  1
  O  O29  1  0.168920  0.849593  0.281695  1
  O  O30  1  0.231572  0.181411  0.488742  1
  O  O31  1  0.231574  0.818593  0.988732  1
  O  O32  1  0.268439  0.318589  0.988748  1
  O  O33  1  0.268429  0.681418  0.488737  1
  O  O34  1  0.331084  0.650414  0.781699  1
  O  O35  1  0.331090  0.349591  0.281703  1
  O  O36  1  0.341173  0.421550  0.594099  1
  O  O37  1  0.341175  0.578459  0.094108  1
  O  O38  1  0.418024  0.144786  0.653219  1
  O  O39  1  0.418024  0.855226  0.153221  1
  O  O40  1  0.425764  0.069104  0.359363  1
  O  O41  1  0.425761  0.930903  0.859356  1
  O  O42  1  0.476035  0.658589  0.557391  1
  O  O43  1  0.476040  0.341413  0.057403  1
  O  O44  1  0.523976  0.341409  0.442598  1
  O  O45  1  0.523962  0.658588  0.942601  1
  O  O46  1  0.574237  0.069104  0.140642  1
  O  O47  1  0.574234  0.930893  0.640637  1
  O  O48  1  0.581974  0.144777  0.846772  1
  O  O49  1  0.581969  0.855224  0.346776  1
  O  O50  1  0.658824  0.421545  0.905890  1
  O  O51  1  0.658836  0.578445  0.405888  1
  O  O52  1  0.668930  0.349581  0.218291  1
  O  O53  1  0.668907  0.650410  0.718296  1
  O  O54  1  0.731568  0.318586  0.511268  1
  O  O55  1  0.731562  0.681419  0.011256  1
  O  O56  1  0.768440  0.181417  0.011277  1
  O  O57  1  0.768430  0.818585  0.511270  1
  O  O58  1  0.831076  0.150415  0.718306  1
  O  O59  1  0.831077  0.849586  0.218302  1
  O  O60  1  0.841160  0.078448  0.405897  1
  O  O61  1  0.841164  0.921553  0.905895  1
  O  O62  1  0.918025  0.355217  0.346779  1
  O  O63  1  0.918020  0.644787  0.846785  1
  O  O64  1  0.925761  0.430903  0.640645  1
  O  O65  1  0.925758  0.569105  0.140637  1
  O  O66  1  0.976041  0.158594  0.942614  1
  O  O67  1  0.976027  0.841411  0.442610  1
