# generated using pymatgen
data_Li2VPO4F
_symmetry_space_group_name_H-M   'P 1'
_cell_length_a   5.16959905
_cell_length_b   13.16305146
_cell_length_c   11.50344188
_cell_angle_alpha   90.00000000
_cell_angle_beta   90.00000000
_cell_angle_gamma   90.00000000
_symmetry_Int_Tables_number   1
_chemical_formula_structural   Li2VPO4F
_chemical_formula_sum   'Li16 V8 P8 O32 F8'
_cell_volume   782.78274272
_cell_formula_units_Z   8
loop_
 _symmetry_equiv_pos_site_id
 _symmetry_equiv_pos_as_xyz
  1  'x, y, z'
loop_
 _atom_site_type_symbol
 _atom_site_label
 _atom_site_symmetry_multiplicity
 _atom_site_fract_x
 _atom_site_fract_y
 _atom_site_fract_z
 _atom_site_occupancy
  Li  Li0  1  0.216053  0.243188  0.176310  1
  Li  Li1  1  0.216053  0.756812  0.676310  1
  Li  Li2  1  0.231327  0.633021  0.410308  1
  Li  Li3  1  0.231327  0.366979  0.910308  1
  Li  Li4  1  0.268673  0.133021  0.410308  1
  Li  Li5  1  0.268673  0.866979  0.910308  1
  Li  Li6  1  0.283947  0.256812  0.676310  1
  Li  Li7  1  0.283947  0.743188  0.176310  1
  Li  Li8  1  0.716053  0.256812  0.823690  1
  Li  Li9  1  0.716053  0.743188  0.323690  1
  Li  Li10  1  0.731327  0.133021  0.089692  1
  Li  Li11  1  0.731327  0.866979  0.589692  1
  Li  Li12  1  0.768673  0.633021  0.089692  1
  Li  Li13  1  0.768673  0.366979  0.589692  1
  Li  Li14  1  0.783947  0.756812  0.823690  1
  Li  Li15  1  0.783947  0.243188  0.323690  1
  V  V16  1  0.220542  0.512510  0.171398  1
  V  V17  1  0.220542  0.487490  0.671398  1
  V  V18  1  0.279458  0.012510  0.171398  1
  V  V19  1  0.279458  0.987490  0.671398  1
  V  V20  1  0.720542  0.012510  0.328602  1
  V  V21  1  0.720542  0.987490  0.828602  1
  V  V22  1  0.779458  0.512510  0.328602  1
  V  V23  1  0.779458  0.487490  0.828602  1
  P  P24  1  0.206204  0.869503  0.414551  1
  P  P25  1  0.206204  0.130497  0.914551  1
  P  P26  1  0.293796  0.369503  0.414551  1
  P  P27  1  0.293796  0.630497  0.914551  1
  P  P28  1  0.706204  0.369503  0.085449  1
  P  P29  1  0.706204  0.630497  0.585449  1
  P  P30  1  0.793796  0.130497  0.585449  1
  P  P31  1  0.793796  0.869503  0.085449  1
  O  O32  1  0.096535  0.123529  0.593980  1
  O  O33  1  0.096535  0.876471  0.093980  1
  O  O34  1  0.177511  0.466640  0.354830  1
  O  O35  1  0.177511  0.533360  0.854830  1
  O  O36  1  0.186715  0.273844  0.354519  1
  O  O37  1  0.186715  0.726156  0.854519  1
  O  O38  1  0.208851  0.629870  0.043777  1
  O  O39  1  0.208851  0.370130  0.543777  1
  O  O40  1  0.291149  0.129870  0.043777  1
  O  O41  1  0.291149  0.870130  0.543777  1
  O  O42  1  0.313285  0.226156  0.854519  1
  O  O43  1  0.313285  0.773844  0.354519  1
  O  O44  1  0.322489  0.966640  0.354830  1
  O  O45  1  0.322489  0.033360  0.854830  1
  O  O46  1  0.403465  0.376471  0.093980  1
  O  O47  1  0.403465  0.623529  0.593980  1
  O  O48  1  0.596535  0.623529  0.906020  1
  O  O49  1  0.596535  0.376471  0.406020  1
  O  O50  1  0.677511  0.033360  0.645170  1
  O  O51  1  0.677511  0.966640  0.145170  1
  O  O52  1  0.686715  0.226156  0.645481  1
  O  O53  1  0.686715  0.773844  0.145481  1
  O  O54  1  0.708851  0.129870  0.456223  1
  O  O55  1  0.708851  0.870130  0.956223  1
  O  O56  1  0.791149  0.370130  0.956223  1
  O  O57  1  0.791149  0.629870  0.456223  1
  O  O58  1  0.813285  0.273844  0.145481  1
  O  O59  1  0.813285  0.726156  0.645481  1
  O  O60  1  0.822489  0.466640  0.145170  1
  O  O61  1  0.822489  0.533360  0.645170  1
  O  O62  1  0.903465  0.123529  0.906020  1
  O  O63  1  0.903465  0.876471  0.406020  1
  F  F64  1  0.000000  0.104138  0.250000  1
  F  F65  1  0.000000  0.632382  0.250000  1
  F  F66  1  0.000000  0.367618  0.750000  1
  F  F67  1  0.000000  0.895862  0.750000  1
  F  F68  1  0.500000  0.132382  0.250000  1
  F  F69  1  0.500000  0.604138  0.250000  1
  F  F70  1  0.500000  0.395862  0.750000  1
  F  F71  1  0.500000  0.867618  0.750000  1
