# generated using pymatgen
data_Li2Cr(SiO3)2
_symmetry_space_group_name_H-M   'P 1'
_cell_length_a   10.28575130
_cell_length_b   10.12839031
_cell_length_c   7.02806618
_cell_angle_alpha   90.00000000
_cell_angle_beta   90.00000000
_cell_angle_gamma   90.00000000
_symmetry_Int_Tables_number   1
_chemical_formula_structural   Li2Cr(SiO3)2
_chemical_formula_sum   'Li12 Cr6 Si12 O36'
_cell_volume   732.17060800
_cell_formula_units_Z   6
loop_
 _symmetry_equiv_pos_site_id
 _symmetry_equiv_pos_as_xyz
  1  'x, y, z'
loop_
 _atom_site_type_symbol
 _atom_site_label
 _atom_site_symmetry_multiplicity
 _atom_site_fract_x
 _atom_site_fract_y
 _atom_site_fract_z
 _atom_site_occupancy
  Li  Li0  1  0.000000  0.503056  0.494861  1
  Li  Li1  1  0.000000  0.735754  0.733292  1
  Li  Li2  1  0.207464  0.456953  0.299048  1
  Li  Li3  1  0.232496  0.507422  0.769681  1
  Li  Li4  1  0.267504  0.007422  0.230319  1
  Li  Li5  1  0.292536  0.956953  0.700952  1
  Li  Li6  1  0.500000  0.235754  0.266708  1
  Li  Li7  1  0.500000  0.003056  0.505139  1
  Li  Li8  1  0.707464  0.956953  0.700952  1
  Li  Li9  1  0.732496  0.007422  0.230319  1
  Li  Li10  1  0.767504  0.507422  0.769681  1
  Li  Li11  1  0.792536  0.456953  0.299048  1
  Cr  Cr12  1  0.000000  0.999640  0.985434  1
  Cr  Cr13  1  0.000000  0.244445  0.248448  1
  Cr  Cr14  1  0.000000  0.252747  0.738997  1
  Cr  Cr15  1  0.500000  0.499640  0.014566  1
  Cr  Cr16  1  0.500000  0.752747  0.261003  1
  Cr  Cr17  1  0.500000  0.744445  0.751552  1
  Si  Si18  1  0.000000  0.545267  0.988799  1
  Si  Si19  1  0.000000  0.949144  0.510426  1
  Si  Si20  1  0.229368  0.760857  0.017099  1
  Si  Si21  1  0.225304  0.736825  0.474120  1
  Si  Si22  1  0.274696  0.236825  0.525880  1
  Si  Si23  1  0.270632  0.260857  0.982901  1
  Si  Si24  1  0.500000  0.449144  0.489574  1
  Si  Si25  1  0.500000  0.045267  0.011201  1
  Si  Si26  1  0.729368  0.260857  0.982901  1
  Si  Si27  1  0.725303  0.236825  0.525880  1
  Si  Si28  1  0.774697  0.736825  0.474120  1
  Si  Si29  1  0.770632  0.760857  0.017099  1
  O  O30  1  0.000000  0.000033  0.293374  1
  O  O31  1  0.000000  0.489015  0.201317  1
  O  O32  1  0.000000  0.053961  0.688396  1
  O  O33  1  0.000000  0.447126  0.805751  1
  O  O34  1  0.121909  0.846619  0.566710  1
  O  O35  1  0.123721  0.648739  0.935362  1
  O  O36  1  0.127480  0.202839  0.029887  1
  O  O37  1  0.132279  0.288958  0.458646  1
  O  O38  1  0.181454  0.588550  0.523246  1
  O  O39  1  0.194697  0.908466  0.944734  1
  O  O40  1  0.216982  0.769679  0.247544  1
  O  O41  1  0.283018  0.269679  0.752456  1
  O  O42  1  0.305303  0.408466  0.055266  1
  O  O43  1  0.318546  0.088550  0.476754  1
  O  O44  1  0.367721  0.788958  0.541354  1
  O  O45  1  0.372520  0.702839  0.970113  1
  O  O46  1  0.376279  0.148739  0.064638  1
  O  O47  1  0.378091  0.346618  0.433290  1
  O  O48  1  0.500000  0.500033  0.706626  1
  O  O49  1  0.500000  0.553961  0.311604  1
  O  O50  1  0.500000  0.989015  0.798683  1
  O  O51  1  0.500000  0.947126  0.194249  1
  O  O52  1  0.621909  0.346618  0.433290  1
  O  O53  1  0.623721  0.148739  0.064638  1
  O  O54  1  0.627480  0.702839  0.970113  1
  O  O55  1  0.632279  0.788958  0.541354  1
  O  O56  1  0.681454  0.088550  0.476754  1
  O  O57  1  0.694697  0.408466  0.055266  1
  O  O58  1  0.716982  0.269679  0.752456  1
  O  O59  1  0.783018  0.769679  0.247544  1
  O  O60  1  0.805303  0.908466  0.944734  1
  O  O61  1  0.818546  0.588550  0.523246  1
  O  O62  1  0.867721  0.288958  0.458646  1
  O  O63  1  0.872520  0.202839  0.029887  1
  O  O64  1  0.876279  0.648739  0.935362  1
  O  O65  1  0.878091  0.846619  0.566710  1
