# generated using pymatgen
data_LiTi(Si2O5)2
_symmetry_space_group_name_H-M   'P 1'
_cell_length_a   11.47429491
_cell_length_b   5.26673819
_cell_length_c   8.01722492
_cell_angle_alpha   90.00000000
_cell_angle_beta   70.29500683
_cell_angle_gamma   90.00000000
_symmetry_Int_Tables_number   1
_chemical_formula_structural   LiTi(Si2O5)2
_chemical_formula_sum   'Li2 Ti2 Si8 O20'
_cell_volume   456.12616880
_cell_formula_units_Z   2
loop_
 _symmetry_equiv_pos_site_id
 _symmetry_equiv_pos_as_xyz
  1  'x, y, z'
loop_
 _atom_site_type_symbol
 _atom_site_label
 _atom_site_symmetry_multiplicity
 _atom_site_fract_x
 _atom_site_fract_y
 _atom_site_fract_z
 _atom_site_occupancy
  Li  Li0  1  0.250000  0.254441  0.750000  1
  Li  Li1  1  0.750000  0.745559  0.250000  1
  Ti  Ti2  1  0.250000  0.752336  0.750000  1
  Ti  Ti3  1  0.750000  0.247664  0.250000  1
  Si  Si4  1  0.000006  0.463827  0.700817  1
  Si  Si5  1  0.151138  0.038111  0.147596  1
  Si  Si6  1  0.348862  0.038111  0.352404  1
  Si  Si7  1  0.499994  0.463827  0.799183  1
  Si  Si8  1  0.500006  0.536173  0.200817  1
  Si  Si9  1  0.651138  0.961889  0.647596  1
  Si  Si10  1  0.848862  0.961889  0.852404  1
  Si  Si11  1  -0.000006  0.536173  0.299183  1
  O  O12  1  0.000000  0.500000  0.500000  1
  O  O13  1  0.138318  0.507429  0.710246  1
  O  O14  1  0.217996  -0.000216  0.935327  1
  O  O15  1  0.042017  0.826031  0.229244  1
  O  O16  1  0.096612  0.328100  0.174444  1
  O  O17  1  0.282004  -0.000216  0.564673  1
  O  O18  1  0.361682  0.507429  0.789754  1
  O  O19  1  0.250000  0.003400  0.250000  1
  O  O20  1  0.403388  0.328100  0.325556  1
  O  O21  1  0.542017  0.173969  0.729244  1
  O  O22  1  0.457983  0.826031  0.270756  1
  O  O23  1  0.596612  0.671900  0.674444  1
  O  O24  1  0.500000  0.500000  0.000000  1
  O  O25  1  0.750000  0.996600  0.750000  1
  O  O26  1  0.638318  0.492571  0.210246  1
  O  O27  1  0.717996  0.000216  0.435327  1
  O  O28  1  0.903388  0.671900  0.825556  1
  O  O29  1  0.957983  0.173969  0.770756  1
  O  O30  1  0.782004  0.000216  0.064673  1
  O  O31  1  0.861682  0.492571  0.289754  1
