# generated using pymatgen
data_LiBSbO3
_symmetry_space_group_name_H-M   'P 1'
_cell_length_a   6.34804628
_cell_length_b   5.14389020
_cell_length_c   5.74370163
_cell_angle_alpha   63.22306823
_cell_angle_beta   100.57787877
_cell_angle_gamma   97.62902598
_symmetry_Int_Tables_number   1
_chemical_formula_structural   LiBSbO3
_chemical_formula_sum   'Li2 B2 Sb2 O6'
_cell_volume   164.32763745
_cell_formula_units_Z   2
loop_
 _symmetry_equiv_pos_site_id
 _symmetry_equiv_pos_as_xyz
  1  'x, y, z'
loop_
 _atom_site_type_symbol
 _atom_site_label
 _atom_site_symmetry_multiplicity
 _atom_site_fract_x
 _atom_site_fract_y
 _atom_site_fract_z
 _atom_site_occupancy
  Li  Li0  1  0.653508  0.723427  0.401905  1
  Li  Li1  1  0.346492  0.276573  0.598095  1
  B  B2  1  0.733130  0.025294  0.810620  1
  B  B3  1  0.266870  0.974706  0.189380  1
  Sb  Sb4  1  0.761645  0.462799  0.007461  1
  Sb  Sb5  1  0.238355  0.537201  0.992539  1
  O  O6  1  0.773324  0.867312  0.081022  1
  O  O7  1  0.727436  0.861164  0.671028  1
  O  O8  1  0.687268  0.316778  0.691299  1
  O  O9  1  0.312732  0.683222  0.308701  1
  O  O10  1  0.272564  0.138836  0.328972  1
  O  O11  1  0.226676  0.132688  0.918978  1
