# generated using pymatgen
data_Li2TiNi2O5
_symmetry_space_group_name_H-M   'P 1'
_cell_length_a   5.02486614
_cell_length_b   7.83726813
_cell_length_c   5.07763274
_cell_angle_alpha   95.88528780
_cell_angle_beta   108.65628508
_cell_angle_gamma   71.30214578
_symmetry_Int_Tables_number   1
_chemical_formula_structural   Li2TiNi2O5
_chemical_formula_sum   'Li4 Ti2 Ni4 O10'
_cell_volume   179.45716852
_cell_formula_units_Z   2
loop_
 _symmetry_equiv_pos_site_id
 _symmetry_equiv_pos_as_xyz
  1  'x, y, z'
loop_
 _atom_site_type_symbol
 _atom_site_label
 _atom_site_symmetry_multiplicity
 _atom_site_fract_x
 _atom_site_fract_y
 _atom_site_fract_z
 _atom_site_occupancy
  Li  Li0  1  0.902189  0.195604  0.499995  1
  Li  Li1  1  0.099178  0.801609  0.499986  1
  Li  Li2  1  0.600819  0.798400  0.000014  1
  Li  Li3  1  0.797813  0.404395  0.000006  1
  Ti  Ti4  1  0.703144  0.593673  0.500003  1
  Ti  Ti5  1  0.996862  0.006312  0.999996  1
  Ni  Ni6  1  0.301041  0.397891  0.500002  1
  Ni  Ni7  1  0.501823  0.996366  0.500001  1
  Ni  Ni8  1  0.198167  0.603641  -0.000002  1
  Ni  Ni9  1  0.398964  0.202101  0.000000  1
  O  O10  1  0.850000  0.800004  0.750001  1
  O  O11  1  0.659647  0.188017  0.756881  1
  O  O12  1  0.462566  0.596758  0.734181  1
  O  O13  1  0.940638  0.596763  0.265823  1
  O  O14  1  0.040352  0.411982  0.743123  1
  O  O15  1  0.237436  0.003243  0.765817  1
  O  O16  1  0.349997  0.800003  0.249997  1
  O  O17  1  0.759366  0.003236  0.234182  1
  O  O18  1  0.547643  0.411987  0.256875  1
  O  O19  1  0.152356  0.188015  0.243119  1
