# generated using pymatgen
data_Mn5Nb(PO4)6
_symmetry_space_group_name_H-M   'P 1'
_cell_length_a   8.72608708
_cell_length_b   8.71629993
_cell_length_c   8.71630004
_cell_angle_alpha   59.99999831
_cell_angle_beta   60.03708912
_cell_angle_gamma   60.03709529
_symmetry_Int_Tables_number   1
_chemical_formula_structural   Mn5Nb(PO4)6
_chemical_formula_sum   'Mn5 Nb1 P6 O24'
_cell_volume   469.04243475
_cell_formula_units_Z   1
loop_
 _symmetry_equiv_pos_site_id
 _symmetry_equiv_pos_as_xyz
  1  'x, y, z'
loop_
 _atom_site_type_symbol
 _atom_site_label
 _atom_site_symmetry_multiplicity
 _atom_site_fract_x
 _atom_site_fract_y
 _atom_site_fract_z
 _atom_site_occupancy
  Mn  Mn0  1  0.015349  0.994884  0.994884  1
  Mn  Mn1  1  0.066317  0.644561  0.644561  1
  Mn  Mn2  1  0.500989  0.499670  0.499670  1
  Mn  Mn3  1  0.440109  0.853297  0.853297  1
  Mn  Mn4  1  0.933744  0.355418  0.355418  1
  Nb  Nb5  1  0.568113  0.143962  0.143962  1
  P  P6  1  0.244415  0.252162  0.549041  1
  P  P7  1  0.244415  0.954381  0.252162  1
  P  P8  1  0.244415  0.549041  0.954381  1
  P  P9  1  0.752042  0.460746  0.043344  1
  P  P10  1  0.752042  0.043344  0.743867  1
  P  P11  1  0.752042  0.743867  0.460746  1
  O  O12  1  0.067956  0.111560  0.309592  1
  O  O13  1  0.067956  0.510892  0.111560  1
  O  O14  1  0.067956  0.309592  0.510892  1
  O  O15  1  0.236863  0.085029  0.737357  1
  O  O16  1  0.422013  0.186181  0.384454  1
  O  O17  1  0.274412  0.408766  0.553811  1
  O  O18  1  0.236863  0.940750  0.085029  1
  O  O19  1  0.274412  0.763011  0.408766  1
  O  O20  1  0.569959  0.614069  0.010501  1
  O  O21  1  0.274412  0.553811  0.763011  1
  O  O22  1  0.759029  0.263800  0.065457  1
  O  O23  1  0.569959  0.010501  0.805472  1
  O  O24  1  0.422013  0.007352  0.186181  1
  O  O25  1  0.236863  0.737357  0.940750  1
  O  O26  1  0.733469  0.439599  0.239857  1
  O  O27  1  0.422013  0.384454  0.007352  1
  O  O28  1  0.733469  0.239857  0.587074  1
  O  O29  1  0.759029  0.065457  0.911714  1
  O  O30  1  0.733469  0.587074  0.439599  1
  O  O31  1  0.569959  0.805472  0.614069  1
  O  O32  1  0.759029  0.911714  0.263800  1
  O  O33  1  0.931634  0.691877  0.487074  1
  O  O34  1  0.931634  0.487074  0.889414  1
  O  O35  1  0.931634  0.889414  0.691877  1
