# generated using pymatgen
data_Li2CoP2O7
_symmetry_space_group_name_H-M   'P 1'
_cell_length_a   7.57393544
_cell_length_b   9.75476177
_cell_length_c   15.10952930
_cell_angle_alpha   90.00000000
_cell_angle_beta   90.00000000
_cell_angle_gamma   90.00000000
_symmetry_Int_Tables_number   1
_chemical_formula_structural   Li2CoP2O7
_chemical_formula_sum   'Li16 Co8 P16 O56'
_cell_volume   1116.32127490
_cell_formula_units_Z   8
loop_
 _symmetry_equiv_pos_site_id
 _symmetry_equiv_pos_as_xyz
  1  'x, y, z'
loop_
 _atom_site_type_symbol
 _atom_site_label
 _atom_site_symmetry_multiplicity
 _atom_site_fract_x
 _atom_site_fract_y
 _atom_site_fract_z
 _atom_site_occupancy
  Li  Li0  1  0.163887  0.775314  0.190836  1
  Li  Li1  1  0.163887  0.724686  0.690836  1
  Li  Li2  1  0.241676  0.282379  0.238784  1
  Li  Li3  1  0.241676  0.217621  0.738784  1
  Li  Li4  1  0.300031  0.728814  0.489617  1
  Li  Li5  1  0.300031  0.771186  0.989617  1
  Li  Li6  1  0.401681  0.246601  0.448814  1
  Li  Li7  1  0.401681  0.253399  0.948814  1
  Li  Li8  1  0.663887  0.275314  0.309164  1
  Li  Li9  1  0.663887  0.224686  0.809164  1
  Li  Li10  1  0.741676  0.782379  0.261216  1
  Li  Li11  1  0.741676  0.717621  0.761216  1
  Li  Li12  1  0.800031  0.228814  0.010383  1
  Li  Li13  1  0.800031  0.271186  0.510383  1
  Li  Li14  1  0.901681  0.746601  0.051186  1
  Li  Li15  1  0.901681  0.753399  0.551186  1
  Co  Co16  1  0.008320  0.007563  0.362638  1
  Co  Co17  1  0.008320  0.492437  0.862638  1
  Co  Co18  1  0.040087  0.502410  0.382100  1
  Co  Co19  1  0.040087  0.997590  0.882100  1
  Co  Co20  1  0.508320  0.507563  0.137362  1
  Co  Co21  1  0.508320  0.992437  0.637362  1
  Co  Co22  1  0.540087  0.002410  0.117900  1
  Co  Co23  1  0.540087  0.497590  0.617900  1
  P  P24  1  0.143339  0.468344  0.049646  1
  P  P25  1  0.143339  0.031656  0.549646  1
  P  P26  1  0.174849  0.054972  0.065698  1
  P  P27  1  0.174849  0.445028  0.565698  1
  P  P28  1  0.384682  0.564631  0.312622  1
  P  P29  1  0.384682  0.935369  0.812622  1
  P  P30  1  0.389241  0.975624  0.303822  1
  P  P31  1  0.389241  0.524376  0.803822  1
  P  P32  1  0.643339  0.531656  0.950354  1
  P  P33  1  0.643339  0.968344  0.450354  1
  P  P34  1  0.674849  0.554972  0.434302  1
  P  P35  1  0.674849  0.945028  0.934302  1
  P  P36  1  0.884682  0.064631  0.187378  1
  P  P37  1  0.884682  0.435369  0.687378  1
  P  P38  1  0.889241  0.475624  0.196178  1
  P  P39  1  0.889241  0.024376  0.696178  1
  O  O40  1  0.081276  0.115611  0.155322  1
  O  O41  1  0.081276  0.384389  0.655322  1
  O  O42  1  0.059313  0.390498  0.489985  1
  O  O43  1  0.059313  0.109502  0.989985  1
  O  O44  1  0.132067  0.103976  0.459312  1
  O  O45  1  0.132067  0.396024  0.959312  1
  O  O46  1  0.140714  0.624505  0.042709  1
  O  O47  1  0.140714  0.875495  0.542709  1
  O  O48  1  0.184824  0.899569  0.075701  1
  O  O49  1  0.184824  0.600431  0.575701  1
  O  O50  1  0.203249  0.911665  0.298041  1
  O  O51  1  0.203249  0.588335  0.798041  1
  O  O52  1  0.249809  0.628194  0.377223  1
  O  O53  1  0.249809  0.871806  0.877223  1
  O  O54  1  0.294058  0.094754  0.604276  1
  O  O55  1  0.294058  0.405246  0.104276  1
  O  O56  1  0.357430  0.123817  0.063886  1
  O  O57  1  0.357430  0.376183  0.563886  1
  O  O58  1  0.379656  0.090941  0.814677  1
  O  O59  1  0.379656  0.409059  0.314677  1
  O  O60  1  0.392023  0.131446  0.301937  1
  O  O61  1  0.392023  0.368554  0.801937  1
  O  O62  1  0.370066  0.629167  0.219994  1
  O  O63  1  0.370066  0.870833  0.719994  1
  O  O64  1  0.512834  0.910079  0.234197  1
  O  O65  1  0.512834  0.589921  0.734197  1
  O  O66  1  0.461536  0.921245  0.399878  1
  O  O67  1  0.461536  0.578755  0.899878  1
  O  O68  1  0.581276  0.615611  0.344678  1
  O  O69  1  0.581276  0.884389  0.844678  1
  O  O70  1  0.559313  0.609502  0.510015  1
  O  O71  1  0.559313  0.890498  0.010015  1
  O  O72  1  0.632067  0.603976  0.040688  1
  O  O73  1  0.632067  0.896024  0.540688  1
  O  O74  1  0.640714  0.124505  0.457291  1
  O  O75  1  0.640714  0.375495  0.957291  1
  O  O76  1  0.684824  0.399569  0.424299  1
  O  O77  1  0.684824  0.100431  0.924299  1
  O  O78  1  0.703249  0.411665  0.201959  1
  O  O79  1  0.703249  0.088335  0.701959  1
  O  O80  1  0.749809  0.128194  0.122777  1
  O  O81  1  0.749809  0.371806  0.622777  1
  O  O82  1  0.794058  0.594754  0.895724  1
  O  O83  1  0.794058  0.905246  0.395724  1
  O  O84  1  0.857430  0.623817  0.436114  1
  O  O85  1  0.857430  0.876183  0.936114  1
  O  O86  1  0.879656  0.590941  0.685323  1
  O  O87  1  0.879656  0.909059  0.185323  1
  O  O88  1  0.892023  0.631446  0.198063  1
  O  O89  1  0.892023  0.868554  0.698063  1
  O  O90  1  0.870066  0.129167  0.280006  1
  O  O91  1  0.870066  0.370833  0.780006  1
  O  O92  1  0.012834  0.410079  0.265803  1
  O  O93  1  0.012834  0.089921  0.765803  1
  O  O94  1  0.961536  0.421245  0.100122  1
  O  O95  1  0.961536  0.078755  0.600122  1
