# generated using pymatgen
data_FeH10S2NO11
_symmetry_space_group_name_H-M   'P 1'
_cell_length_a   11.16580538
_cell_length_b   11.93349657
_cell_length_c   10.02034679
_cell_angle_alpha   90.00000000
_cell_angle_beta   95.28454758
_cell_angle_gamma   90.00000000
_symmetry_Int_Tables_number   1
_chemical_formula_structural   FeH10S2NO11
_chemical_formula_sum   'Fe4 H40 S8 N4 O44'
_cell_volume   1329.50705975
_cell_formula_units_Z   4
loop_
 _symmetry_equiv_pos_site_id
 _symmetry_equiv_pos_as_xyz
  1  'x, y, z'
loop_
 _atom_site_type_symbol
 _atom_site_label
 _atom_site_symmetry_multiplicity
 _atom_site_fract_x
 _atom_site_fract_y
 _atom_site_fract_z
 _atom_site_occupancy
  Fe  Fe0  1  0.165381  0.368661  0.038094  1
  Fe  Fe1  1  0.834619  0.868661  0.461906  1
  Fe  Fe2  1  0.834619  0.631339  0.961906  1
  Fe  Fe3  1  0.165381  0.131339  0.538094  1
  H  H4  1  0.188822  0.511535  0.421831  1
  H  H5  1  0.811178  0.011535  0.078169  1
  H  H6  1  0.811178  0.488465  0.578169  1
  H  H7  1  0.188822  0.988465  0.921831  1
  H  H8  1  0.417142  0.548343  0.766324  1
  H  H9  1  0.582858  0.048343  0.733676  1
  H  H10  1  0.582858  0.451657  0.233676  1
  H  H11  1  0.417142  0.951657  0.266324  1
  H  H12  1  0.313785  0.427646  0.473270  1
  H  H13  1  0.686215  0.927646  0.026730  1
  H  H14  1  0.686215  0.572354  0.526730  1
  H  H15  1  0.313785  0.072354  0.973270  1
  H  H16  1  0.210487  0.474191  0.589392  1
  H  H17  1  0.789513  0.974191  0.910608  1
  H  H18  1  0.789513  0.525809  0.410608  1
  H  H19  1  0.210487  0.025809  0.089392  1
  H  H20  1  0.314229  0.520293  0.976572  1
  H  H21  1  0.685771  0.020293  0.523428  1
  H  H22  1  0.685771  0.479706  0.023428  1
  H  H23  1  0.314229  0.979707  0.476572  1
  H  H24  1  0.345982  0.502101  0.042561  1
  H  H25  1  0.654018  0.002101  0.457439  1
  H  H26  1  0.654018  0.497899  0.957439  1
  H  H27  1  0.345982  0.997899  0.542561  1
  H  H28  1  0.901642  0.205923  0.921846  1
  H  H29  1  0.098358  0.705923  0.578154  1
  H  H30  1  0.098358  0.794077  0.078154  1
  H  H31  1  0.901642  0.294077  0.421846  1
  H  H32  1  0.036452  0.214799  0.122772  1
  H  H33  1  0.963548  0.714799  0.377228  1
  H  H34  1  0.963548  0.785201  0.877228  1
  H  H35  1  0.036452  0.285201  0.622772  1
  H  H36  1  0.842924  0.235368  0.926426  1
  H  H37  1  0.157076  0.735368  0.573574  1
  H  H38  1  0.157076  0.764632  0.073574  1
  H  H39  1  0.842924  0.264632  0.426426  1
  H  H40  1  0.525546  0.283951  0.700769  1
  H  H41  1  0.474454  0.783951  0.799231  1
  H  H42  1  0.474454  0.716049  0.299231  1
  H  H43  1  0.525546  0.216049  0.200769  1
  S  S44  1  0.989351  0.467584  0.779415  1
  S  S45  1  0.010649  0.967584  0.720585  1
  S  S46  1  0.010649  0.532416  0.220585  1
  S  S47  1  0.989351  0.032416  0.279415  1
  S  S48  1  0.357512  0.239015  0.775788  1
  S  S49  1  0.642488  0.739015  0.724212  1
  S  S50  1  0.642488  0.760985  0.224212  1
  S  S51  1  0.357512  0.260985  0.275788  1
  N  N52  1  0.239765  0.471934  0.496491  1
  N  N53  1  0.760235  0.971934  0.003509  1
  N  N54  1  0.760235  0.528066  0.503509  1
  N  N55  1  0.239765  0.028066  0.996491  1
  O  O56  1  0.035412  0.533658  0.672397  1
  O  O57  1  0.964588  0.033658  0.827603  1
  O  O58  1  0.964588  0.466342  0.327603  1
  O  O59  1  0.035412  0.966342  0.172397  1
  O  O60  1  0.954242  0.354128  0.733804  1
  O  O61  1  0.045758  0.854128  0.766196  1
  O  O62  1  0.045758  0.645872  0.266196  1
  O  O63  1  0.954242  0.145872  0.233804  1
  O  O64  1  0.876141  0.523706  0.823733  1
  O  O65  1  0.123859  0.023706  0.676267  1
  O  O66  1  0.123859  0.476293  0.176267  1
  O  O67  1  0.876141  0.976294  0.323733  1
  O  O68  1  0.082812  0.465356  0.898843  1
  O  O69  1  0.917188  0.965356  0.601157  1
  O  O70  1  0.917188  0.534644  0.101157  1
  O  O71  1  0.082812  0.034644  0.398843  1
  O  O72  1  0.462804  0.324122  0.744669  1
  O  O73  1  0.537196  0.824122  0.755331  1
  O  O74  1  0.537196  0.675878  0.255331  1
  O  O75  1  0.462804  0.175878  0.244669  1
  O  O76  1  0.267712  0.313261  0.824451  1
  O  O77  1  0.732288  0.813261  0.675549  1
  O  O78  1  0.732288  0.686739  0.175549  1
  O  O79  1  0.267712  0.186739  0.324451  1
  O  O80  1  0.320315  0.186633  0.642012  1
  O  O81  1  0.679685  0.686633  0.857988  1
  O  O82  1  0.679685  0.813367  0.357988  1
  O  O83  1  0.320315  0.313367  0.142012  1
  O  O84  1  0.408775  0.155564  0.869875  1
  O  O85  1  0.591225  0.655564  0.630125  1
  O  O86  1  0.591225  0.844436  0.130125  1
  O  O87  1  0.408775  0.344436  0.369875  1
  O  O88  1  0.081369  0.240694  0.047484  1
  O  O89  1  0.918631  0.740694  0.452516  1
  O  O90  1  0.918631  0.759306  0.952516  1
  O  O91  1  0.081369  0.259306  0.547484  1
  O  O92  1  0.369689  0.734869  0.936906  1
  O  O93  1  0.630311  0.234869  0.563094  1
  O  O94  1  0.630311  0.265131  0.063094  1
  O  O95  1  0.369689  0.765131  0.436906  1
  O  O96  1  0.651841  0.298833  0.472031  1
  O  O97  1  0.348159  0.798833  0.027969  1
  O  O98  1  0.348159  0.701167  0.527969  1
  O  O99  1  0.651841  0.201167  0.972031  1
