# generated using pymatgen
data_Li2FeCo3O8
_symmetry_space_group_name_H-M   'P 1'
_cell_length_a   8.17818438
_cell_length_b   8.17448196
_cell_length_c   8.17110203
_cell_angle_alpha   89.91939321
_cell_angle_beta   89.98948433
_cell_angle_gamma   90.05144009
_symmetry_Int_Tables_number   1
_chemical_formula_structural   Li2FeCo3O8
_chemical_formula_sum   'Li8 Fe4 Co12 O32'
_cell_volume   546.25718034
_cell_formula_units_Z   4
loop_
 _symmetry_equiv_pos_site_id
 _symmetry_equiv_pos_as_xyz
  1  'x, y, z'
loop_
 _atom_site_type_symbol
 _atom_site_label
 _atom_site_symmetry_multiplicity
 _atom_site_fract_x
 _atom_site_fract_y
 _atom_site_fract_z
 _atom_site_occupancy
  Li  Li0  1  0.998272  0.997789  0.998698  1
  Li  Li1  1  0.252291  0.251772  0.251092  1
  Li  Li2  1  0.247408  0.746393  0.752326  1
  Li  Li3  1  0.501932  0.003048  0.497677  1
  Li  Li4  1  0.497411  0.502811  0.002619  1
  Li  Li5  1  0.752268  0.247761  0.747758  1
  Li  Li6  1  0.748601  0.751219  0.246342  1
  Li  Li7  1  0.002731  0.498649  0.502469  1
  Fe  Fe8  1  0.124727  0.873753  0.372623  1
  Fe  Fe9  1  0.376136  0.127026  0.876053  1
  Fe  Fe10  1  0.624723  0.622676  0.626637  1
  Fe  Fe11  1  0.875649  0.378911  0.122495  1
  Co  Co12  1  0.122994  0.128688  0.625564  1
  Co  Co13  1  0.124180  0.378852  0.872788  1
  Co  Co14  1  0.127749  0.624128  0.121792  1
  Co  Co15  1  0.371628  0.374889  0.621626  1
  Co  Co16  1  0.375647  0.621899  0.372652  1
  Co  Co17  1  0.377802  0.872148  0.125170  1
  Co  Co18  1  0.621815  0.371608  0.374299  1
  Co  Co19  1  0.624897  0.121564  0.128737  1
  Co  Co20  1  0.627796  0.875067  0.878239  1
  Co  Co21  1  0.871219  0.126666  0.376170  1
  Co  Co22  1  0.874441  0.876915  0.628546  1
  Co  Co23  1  0.878279  0.627908  0.875387  1
  O  O24  1  0.107167  0.120993  0.394636  1
  O  O25  1  0.105913  0.894208  0.621694  1
  O  O26  1  0.111317  0.609552  0.888655  1
  O  O27  1  0.127967  0.143314  0.855144  1
  O  O28  1  0.120810  0.389120  0.104735  1
  O  O29  1  0.138165  0.360856  0.639394  1
  O  O30  1  0.145050  0.629525  0.359592  1
  O  O31  1  0.145713  0.860493  0.128304  1
  O  O32  1  0.352646  0.139451  0.628900  1
  O  O33  1  0.355350  0.370465  0.858333  1
  O  O34  1  0.362780  0.640359  0.141215  1
  O  O35  1  0.379118  0.610376  0.602572  1
  O  O36  1  0.372204  0.857081  0.356822  1
  O  O37  1  0.390421  0.388496  0.387413  1
  O  O38  1  0.389780  0.103532  0.120635  1
  O  O39  1  0.394480  0.877840  0.893569  1
  O  O40  1  0.608611  0.379417  0.605216  1
  O  O41  1  0.605727  0.605881  0.378331  1
  O  O42  1  0.610611  0.887913  0.110002  1
  O  O43  1  0.630631  0.357704  0.145524  1
  O  O44  1  0.620589  0.104623  0.891461  1
  O  O45  1  0.638465  0.139605  0.361892  1
  O  O46  1  0.644527  0.872365  0.644123  1
  O  O47  1  0.640947  0.645445  0.869811  1
  O  O48  1  0.854903  0.354878  0.374025  1
  O  O49  1  0.859750  0.128782  0.149039  1
  O  O50  1  0.860118  0.862298  0.861038  1
  O  O51  1  0.878339  0.893895  0.393874  1
  O  O52  1  0.871018  0.648051  0.638864  1
  O  O53  1  0.889523  0.110504  0.609538  1
  O  O54  1  0.894180  0.391307  0.877699  1
  O  O55  1  0.892582  0.619670  0.110333  1
