# generated using pymatgen
data_VOF
_symmetry_space_group_name_H-M   'P 1'
_cell_length_a   4.71854555
_cell_length_b   4.73010049
_cell_length_c   9.38948383
_cell_angle_alpha   90.00000000
_cell_angle_beta   89.87052682
_cell_angle_gamma   90.00000000
_symmetry_Int_Tables_number   1
_chemical_formula_structural   VOF
_chemical_formula_sum   'V6 O6 F6'
_cell_volume   209.56518162
_cell_formula_units_Z   6
loop_
 _symmetry_equiv_pos_site_id
 _symmetry_equiv_pos_as_xyz
  1  'x, y, z'
loop_
 _atom_site_type_symbol
 _atom_site_label
 _atom_site_symmetry_multiplicity
 _atom_site_fract_x
 _atom_site_fract_y
 _atom_site_fract_z
 _atom_site_occupancy
  V  V0  1  0.970419  0.963995  0.000013  1
  V  V1  1  0.027893  0.021725  0.332395  1
  V  V2  1  0.038224  0.012313  0.667152  1
  V  V3  1  0.529581  0.463995  0.166654  1
  V  V4  1  0.472107  0.521725  0.834271  1
  V  V5  1  0.461776  0.512313  0.499515  1
  O  O6  1  0.195609  0.816990  0.498741  1
  O  O7  1  0.186027  0.810047  0.835266  1
  O  O8  1  0.313973  0.310047  0.331401  1
  O  O9  1  0.304391  0.316990  0.667925  1
  O  O10  1  0.683340  0.673478  0.000289  1
  O  O11  1  0.816660  0.173478  0.166377  1
  F  F12  1  0.208414  0.784963  0.166456  1
  F  F13  1  0.291586  0.284963  0.000211  1
  F  F14  1  0.711419  0.697835  0.333891  1
  F  F15  1  0.694873  0.718656  0.666313  1
  F  F16  1  0.788581  0.197835  0.832775  1
  F  F17  1  0.805127  0.218656  0.500354  1
