# generated using pymatgen
data_LiCoPO4
_symmetry_space_group_name_H-M   'P 1'
_cell_length_a   4.90923415
_cell_length_b   5.39887513
_cell_length_c   6.80952979
_cell_angle_alpha   77.70999812
_cell_angle_beta   90.00000000
_cell_angle_gamma   62.95736267
_symmetry_Int_Tables_number   1
_chemical_formula_structural   LiCoPO4
_chemical_formula_sum   'Li2 Co2 P2 O8'
_cell_volume   156.09155821
_cell_formula_units_Z   2
loop_
 _symmetry_equiv_pos_site_id
 _symmetry_equiv_pos_as_xyz
  1  'x, y, z'
loop_
 _atom_site_type_symbol
 _atom_site_label
 _atom_site_symmetry_multiplicity
 _atom_site_fract_x
 _atom_site_fract_y
 _atom_site_fract_z
 _atom_site_occupancy
  Li  Li0  1  0.946536  0.000000  0.500000  1
  Li  Li1  1  0.947564  0.000000  0.000000  1
  Co  Co2  1  0.643170  0.730112  0.738269  1
  Co  Co3  1  0.373283  0.269888  0.261731  1
  P  P4  1  0.692325  0.637103  0.234021  1
  P  P5  1  0.329427  0.362897  0.765979  1
  O  O6  1  0.276974  0.674107  0.674393  1
  O  O7  1  0.693216  0.845150  0.363726  1
  O  O8  1  0.770370  0.726460  0.019021  1
  O  O9  1  0.370969  0.650745  0.231483  1
  O  O10  1  0.021716  0.349255  0.768517  1
  O  O11  1  0.496829  0.273540  0.980979  1
  O  O12  1  0.538367  0.154850  0.636274  1
  O  O13  1  0.951079  0.325893  0.325607  1
