# generated using pymatgen
data_Hf2N2O
_symmetry_space_group_name_H-M   'P 1'
_cell_length_a   6.42994180
_cell_length_b   6.42987356
_cell_length_c   15.73057215
_cell_angle_alpha   90.00016726
_cell_angle_beta   89.99919894
_cell_angle_gamma   120.00049258
_symmetry_Int_Tables_number   1
_chemical_formula_structural   Hf2N2O
_chemical_formula_sum   'Hf16 N16 O8'
_cell_volume   563.22570873
_cell_formula_units_Z   8
loop_
 _symmetry_equiv_pos_site_id
 _symmetry_equiv_pos_as_xyz
  1  'x, y, z'
loop_
 _atom_site_type_symbol
 _atom_site_label
 _atom_site_symmetry_multiplicity
 _atom_site_fract_x
 _atom_site_fract_y
 _atom_site_fract_z
 _atom_site_occupancy
  Hf  Hf0  1  0.166646  0.833349  0.955395  1
  Hf  Hf1  1  0.166685  0.833311  0.331756  1
  Hf  Hf2  1  0.000000  0.500000  0.500000  1
  Hf  Hf3  1  0.332786  0.667217  0.165514  1
  Hf  Hf4  1  0.165525  0.332781  0.834489  1
  Hf  Hf5  1  0.667215  0.834472  0.834489  1
  Hf  Hf6  1  0.499989  0.500016  0.627595  1
  Hf  Hf7  1  0.000000  0.000000  0.500000  1
  Hf  Hf8  1  0.500011  0.499984  0.372405  1
  Hf  Hf9  1  0.500000  0.500000  0.000000  1
  Hf  Hf10  1  0.834475  0.667219  0.165511  1
  Hf  Hf11  1  0.332785  0.165528  0.165511  1
  Hf  Hf12  1  0.667214  0.332783  0.834486  1
  Hf  Hf13  1  0.500000  0.000000  0.500000  1
  Hf  Hf14  1  0.833315  0.166689  0.668244  1
  Hf  Hf15  1  0.833354  0.166651  0.044605  1
  N  N16  1  0.166682  0.833320  0.087095  1
  N  N17  1  0.322790  0.677211  0.417082  1
  N  N18  1  0.344186  0.655815  0.913086  1
  N  N19  1  0.145532  0.322770  0.582926  1
  N  N20  1  0.677229  0.854466  0.582925  1
  N  N21  1  0.655824  0.811581  0.086918  1
  N  N22  1  0.188416  0.344173  0.086918  1
  N  N23  1  0.499988  0.500013  0.759523  1
  N  N24  1  0.500012  0.499987  0.240477  1
  N  N25  1  0.344176  0.188419  0.913082  1
  N  N26  1  0.811584  0.655827  0.913082  1
  N  N27  1  0.322771  0.145534  0.417075  1
  N  N28  1  0.854468  0.677230  0.417074  1
  N  N29  1  0.655814  0.344185  0.086914  1
  N  N30  1  0.677210  0.322789  0.582918  1
  N  N31  1  0.833318  0.166680  0.912905  1
  O  O32  1  0.026552  0.973431  0.241537  1
  O  O33  1  0.166667  0.833329  0.560498  1
  O  O34  1  0.026548  0.553065  0.241533  1
  O  O35  1  0.446928  0.973432  0.241533  1
  O  O36  1  0.553072  0.026568  0.758467  1
  O  O37  1  0.973452  0.446935  0.758467  1
  O  O38  1  0.833333  0.166671  0.439502  1
  O  O39  1  0.973448  0.026569  0.758463  1
