# generated using pymatgen
data_V3CrSn2(PO4)6
_symmetry_space_group_name_H-M   'P 1'
_cell_length_a   8.99529610
_cell_length_b   8.60382147
_cell_length_c   8.60382182
_cell_angle_alpha   60.00000285
_cell_angle_beta   61.42948129
_cell_angle_gamma   61.42947792
_symmetry_Int_Tables_number   1
_chemical_formula_structural   V3CrSn2(PO4)6
_chemical_formula_sum   'V3 Cr1 Sn2 P6 O24'
_cell_volume   480.76903554
_cell_formula_units_Z   1
loop_
 _symmetry_equiv_pos_site_id
 _symmetry_equiv_pos_as_xyz
  1  'x, y, z'
loop_
 _atom_site_type_symbol
 _atom_site_label
 _atom_site_symmetry_multiplicity
 _atom_site_fract_x
 _atom_site_fract_y
 _atom_site_fract_z
 _atom_site_occupancy
  V  V0  1  0.056284  0.647905  0.647905  1
  V  V1  1  0.441027  0.852991  0.852991  1
  V  V2  1  0.944167  0.351944  0.351944  1
  Cr  Cr3  1  0.558851  0.147050  0.147050  1
  Sn  Sn4  1  0.994109  0.001964  0.001964  1
  Sn  Sn5  1  0.497333  0.500889  0.500889  1
  P  P6  1  0.251971  0.249768  0.534330  1
  P  P7  1  0.251971  0.963932  0.249768  1
  P  P8  1  0.251971  0.534330  0.963932  1
  P  P9  1  0.749633  0.463844  0.036620  1
  P  P10  1  0.749633  0.036620  0.749904  1
  P  P11  1  0.749633  0.749904  0.463844  1
  O  O12  1  0.078737  0.129541  0.283390  1
  O  O13  1  0.078737  0.508332  0.129541  1
  O  O14  1  0.078737  0.283390  0.508332  1
  O  O15  1  0.265756  0.076364  0.720154  1
  O  O16  1  0.421317  0.221766  0.370448  1
  O  O17  1  0.231300  0.424837  0.564563  1
  O  O18  1  0.265756  0.937724  0.076364  1
  O  O19  1  0.231300  0.779299  0.424837  1
  O  O20  1  0.578663  0.629052  0.008902  1
  O  O21  1  0.231300  0.564563  0.779299  1
  O  O22  1  0.738134  0.279653  0.058702  1
  O  O23  1  0.578663  0.008902  0.783384  1
  O  O24  1  0.421317  0.986469  0.221766  1
  O  O25  1  0.265756  0.720154  0.937724  1
  O  O26  1  0.765897  0.438372  0.220619  1
  O  O27  1  0.421317  0.370448  0.986469  1
  O  O28  1  0.765897  0.220619  0.575112  1
  O  O29  1  0.738134  0.058702  0.923511  1
  O  O30  1  0.765897  0.575112  0.438372  1
  O  O31  1  0.578663  0.783384  0.629052  1
  O  O32  1  0.738134  0.923511  0.279653  1
  O  O33  1  0.921334  0.712764  0.494246  1
  O  O34  1  0.921334  0.494246  0.871654  1
  O  O35  1  0.921334  0.871654  0.712764  1
