# generated using pymatgen
data_BaSrI4
_symmetry_space_group_name_H-M   'P 1'
_cell_length_a   8.80656990
_cell_length_b   8.23986226
_cell_length_c   18.03913310
_cell_angle_alpha   90.00000000
_cell_angle_beta   108.14572496
_cell_angle_gamma   90.00000000
_symmetry_Int_Tables_number   1
_chemical_formula_structural   BaSrI4
_chemical_formula_sum   'Ba4 Sr4 I16'
_cell_volume   1243.90803867
_cell_formula_units_Z   4
loop_
 _symmetry_equiv_pos_site_id
 _symmetry_equiv_pos_as_xyz
  1  'x, y, z'
loop_
 _atom_site_type_symbol
 _atom_site_label
 _atom_site_symmetry_multiplicity
 _atom_site_fract_x
 _atom_site_fract_y
 _atom_site_fract_z
 _atom_site_occupancy
  Ba  Ba0  1  0.280637  0.949341  0.845366  1
  Ba  Ba1  1  0.280637  0.550659  0.345366  1
  Ba  Ba2  1  0.719363  0.449341  0.654634  1
  Ba  Ba3  1  0.719363  0.050659  0.154634  1
  Sr  Sr4  1  0.197346  0.657352  0.602533  1
  Sr  Sr5  1  0.197346  0.842648  0.102533  1
  Sr  Sr6  1  0.802654  0.157352  0.897467  1
  Sr  Sr7  1  0.802654  0.342648  0.397467  1
  I  I8  1  0.957356  0.815430  0.682643  1
  I  I9  1  0.957356  0.684570  0.182643  1
  I  I10  1  0.029614  0.302269  0.580307  1
  I  I11  1  0.029614  0.197731  0.080307  1
  I  I12  1  0.481180  0.651116  0.768214  1
  I  I13  1  0.475268  0.740344  0.526339  1
  I  I14  1  0.481180  0.848884  0.268214  1
  I  I15  1  0.524732  0.240344  0.973661  1
  I  I16  1  0.475268  0.759656  0.026339  1
  I  I17  1  0.518820  0.151116  0.731786  1
  I  I18  1  0.524732  0.259656  0.473661  1
  I  I19  1  0.518820  0.348884  0.231786  1
  I  I20  1  0.970387  0.802269  0.919693  1
  I  I21  1  0.970387  0.697731  0.419693  1
  I  I22  1  0.042644  0.315430  0.817357  1
  I  I23  1  0.042644  0.184570  0.317357  1
