# generated using pymatgen
data_LiVFe(P2O7)2
_symmetry_space_group_name_H-M   'P 1'
_cell_length_a   13.70531698
_cell_length_b   8.09056266
_cell_length_c   7.16116941
_cell_angle_alpha   90.06274075
_cell_angle_beta   97.24073333
_cell_angle_gamma   89.82000449
_symmetry_Int_Tables_number   1
_chemical_formula_structural   LiVFe(P2O7)2
_chemical_formula_sum   'Li3 V3 Fe3 P12 O42'
_cell_volume   787.72073214
_cell_formula_units_Z   3
loop_
 _symmetry_equiv_pos_site_id
 _symmetry_equiv_pos_as_xyz
  1  'x, y, z'
loop_
 _atom_site_type_symbol
 _atom_site_label
 _atom_site_symmetry_multiplicity
 _atom_site_fract_x
 _atom_site_fract_y
 _atom_site_fract_z
 _atom_site_occupancy
  Li  Li0  1  0.166346  0.864041  0.839690  1
  Li  Li1  1  0.500411  0.864142  0.174105  1
  Li  Li2  1  0.832205  0.361236  0.160413  1
  V  V3  1  0.162777  0.494363  0.882271  1
  V  V4  1  0.494867  0.495210  0.217691  1
  V  V5  1  0.829167  0.507032  0.556779  1
  Fe  Fe6  1  0.170598  0.010016  0.438607  1
  Fe  Fe7  1  0.505904  0.008381  0.769218  1
  Fe  Fe8  1  0.837989  0.994040  0.113957  1
  P  P9  1  0.043754  0.779311  0.130534  1
  P  P10  1  0.041431  0.677673  0.521519  1
  P  P11  1  0.288795  0.284303  0.204134  1
  P  P12  1  0.294033  0.179204  0.816257  1
  P  P13  1  0.375610  0.780535  0.463687  1
  P  P14  1  0.374868  0.679040  0.854212  1
  P  P15  1  0.626672  0.181066  0.150620  1
  P  P16  1  0.624107  0.285658  0.538183  1
  P  P17  1  0.706522  0.681657  0.183990  1
  P  P18  1  0.709873  0.781780  0.794672  1
  P  P19  1  0.959099  0.177638  0.479652  1
  P  P20  1  0.955882  0.284083  0.867732  1
  O  O21  1  0.052987  0.647789  0.303561  1
  O  O22  1  0.106475  0.932021  0.186340  1
  O  O23  1  0.068019  0.179395  0.461526  1
  O  O24  1  0.084150  0.846910  0.579670  1
  O  O25  1  0.098273  0.536932  0.628870  1
  O  O26  1  0.227609  0.436396  0.131899  1
  O  O27  1  0.064938  0.332061  0.916381  1
  O  O28  1  0.283214  0.148795  0.037359  1
  O  O29  1  0.086561  0.685400  0.971609  1
  O  O30  1  0.254541  0.192512  0.366712  1
  O  O31  1  0.267857  0.823577  0.411824  1
  O  O32  1  0.231359  0.040446  0.718328  1
  O  O33  1  0.247955  0.350844  0.767856  1
  O  O34  1  0.262925  0.674868  0.868968  1
  O  O35  1  0.397734  0.334668  0.250985  1
  O  O36  1  0.418113  0.686546  0.303981  1
  O  O37  1  0.386377  0.648638  0.636429  1
  O  O38  1  0.439947  0.931935  0.519005  1
  O  O39  1  0.401700  0.177201  0.791655  1
  O  O40  1  0.566706  0.040575  0.051656  1
  O  O41  1  0.580151  0.351745  0.101186  1
  O  O42  1  0.418909  0.847878  0.912479  1
  O  O43  1  0.430193  0.537588  0.962171  1
  O  O44  1  0.595353  0.673307  0.203539  1
  O  O45  1  0.561422  0.436309  0.465434  1
  O  O46  1  0.617463  0.149781  0.370874  1
  O  O47  1  0.589674  0.193391  0.700523  1
  O  O48  1  0.601825  0.825363  0.743671  1
  O  O49  1  0.735259  0.184616  0.125043  1
  O  O50  1  0.746941  0.851195  0.238393  1
  O  O51  1  0.765931  0.539457  0.287222  1
  O  O52  1  0.732491  0.339146  0.582129  1
  O  O53  1  0.747805  0.680985  0.636991  1
  O  O54  1  0.917401  0.200091  0.033639  1
  O  O55  1  0.718333  0.646233  0.967221  1
  O  O56  1  0.935700  0.818604  0.075551  1
  O  O57  1  0.773352  0.930425  0.859468  1
  O  O58  1  0.900557  0.040206  0.375341  1
  O  O59  1  0.910080  0.348092  0.428318  1
  O  O60  1  0.930356  0.665272  0.537367  1
  O  O61  1  0.893425  0.438127  0.805365  1
  O  O62  1  0.948366  0.150229  0.702163  1
