# generated using pymatgen
data_LiVBO4
_symmetry_space_group_name_H-M   'P 1'
_cell_length_a   10.10121556
_cell_length_b   6.06722117
_cell_length_c   4.38560594
_cell_angle_alpha   90.01644126
_cell_angle_beta   90.00389523
_cell_angle_gamma   90.00164607
_symmetry_Int_Tables_number   1
_chemical_formula_structural   LiVBO4
_chemical_formula_sum   'Li4 V4 B4 O16'
_cell_volume   268.77758842
_cell_formula_units_Z   4
loop_
 _symmetry_equiv_pos_site_id
 _symmetry_equiv_pos_as_xyz
  1  'x, y, z'
loop_
 _atom_site_type_symbol
 _atom_site_label
 _atom_site_symmetry_multiplicity
 _atom_site_fract_x
 _atom_site_fract_y
 _atom_site_fract_z
 _atom_site_occupancy
  Li  Li0  1  0.223459  0.750014  0.480510  1
  Li  Li1  1  0.276465  0.249927  0.980491  1
  Li  Li2  1  0.723535  0.750072  0.019510  1
  Li  Li3  1  0.776539  0.249988  0.519487  1
  V  V4  1  0.000005  0.000007  0.999991  1
  V  V5  1  0.000004  0.500011  0.000006  1
  V  V6  1  0.499999  0.999997  0.499988  1
  V  V7  1  0.500003  0.499986  0.499990  1
  B  B8  1  0.082783  0.250068  0.406742  1
  B  B9  1  0.417178  0.750060  0.906690  1
  B  B10  1  0.582818  0.249933  0.093315  1
  B  B11  1  0.917216  0.749927  0.593257  1
  O  O12  1  0.061133  0.749940  0.747223  1
  O  O13  1  0.074631  0.250025  0.735107  1
  O  O14  1  0.142166  0.451702  0.271112  1
  O  O15  1  0.142158  0.048376  0.270989  1
  O  O16  1  0.357816  0.548368  0.770886  1
  O  O17  1  0.357806  0.951685  0.771018  1
  O  O18  1  0.425345  0.750020  0.235054  1
  O  O19  1  0.438873  0.249923  0.247234  1
  O  O20  1  0.561121  0.750074  0.752772  1
  O  O21  1  0.574649  0.249971  0.764947  1
  O  O22  1  0.642186  0.048311  0.228991  1
  O  O23  1  0.642177  0.451632  0.229118  1
  O  O24  1  0.857843  0.548302  0.728893  1
  O  O25  1  0.857843  0.951628  0.729011  1
  O  O26  1  0.925374  0.749984  0.264891  1
  O  O27  1  0.938874  0.250066  0.252775  1
