# generated using pymatgen
data_TbPrO4
_symmetry_space_group_name_H-M   'P 1'
_cell_length_a   7.99533360
_cell_length_b   5.55149562
_cell_length_c   7.96245525
_cell_angle_alpha   90.00000000
_cell_angle_beta   85.48776587
_cell_angle_gamma   90.00000000
_symmetry_Int_Tables_number   1
_chemical_formula_structural   TbPrO4
_chemical_formula_sum   'Tb4 Pr4 O16'
_cell_volume   352.32660109
_cell_formula_units_Z   4
loop_
 _symmetry_equiv_pos_site_id
 _symmetry_equiv_pos_as_xyz
  1  'x, y, z'
loop_
 _atom_site_type_symbol
 _atom_site_label
 _atom_site_symmetry_multiplicity
 _atom_site_fract_x
 _atom_site_fract_y
 _atom_site_fract_z
 _atom_site_occupancy
  Tb  Tb0  1  0.373571  0.747644  0.612278  1
  Tb  Tb1  1  0.373571  0.752356  0.112278  1
  Tb  Tb2  1  0.626429  0.247644  0.887722  1
  Tb  Tb3  1  0.626429  0.252356  0.387722  1
  Pr  Pr4  1  0.124492  0.248174  0.866029  1
  Pr  Pr5  1  0.124492  0.251826  0.366029  1
  Pr  Pr6  1  0.875508  0.748174  0.633971  1
  Pr  Pr7  1  0.875508  0.751826  0.133971  1
  O  O8  1  0.135394  0.989674  0.615751  1
  O  O9  1  0.135394  0.510326  0.115751  1
  O  O10  1  0.137008  0.505455  0.614709  1
  O  O11  1  0.137008  0.994545  0.114709  1
  O  O12  1  0.388394  0.500580  0.862888  1
  O  O13  1  0.395527  0.988237  0.856863  1
  O  O14  1  0.388394  0.999420  0.362888  1
  O  O15  1  0.395527  0.511763  0.356863  1
  O  O16  1  0.604473  0.488237  0.643137  1
  O  O17  1  0.611606  0.000580  0.637112  1
  O  O18  1  0.604473  0.011763  0.143137  1
  O  O19  1  0.611606  0.499420  0.137112  1
  O  O20  1  0.862992  0.005455  0.885291  1
  O  O21  1  0.862992  0.494545  0.385291  1
  O  O22  1  0.864606  0.489674  0.884249  1
  O  O23  1  0.864606  0.010326  0.384249  1
