# generated using pymatgen
data_Li3CoPCO7
_symmetry_space_group_name_H-M   'P 1'
_cell_length_a   8.64973892
_cell_length_b   9.66695933
_cell_length_c   6.37032213
_cell_angle_alpha   90.00000000
_cell_angle_beta   90.00000000
_cell_angle_gamma   84.73789221
_symmetry_Int_Tables_number   1
_chemical_formula_structural   Li3CoPCO7
_chemical_formula_sum   'Li12 Co4 P4 C4 O28'
_cell_volume   530.42027074
_cell_formula_units_Z   4
loop_
 _symmetry_equiv_pos_site_id
 _symmetry_equiv_pos_as_xyz
  1  'x, y, z'
loop_
 _atom_site_type_symbol
 _atom_site_label
 _atom_site_symmetry_multiplicity
 _atom_site_fract_x
 _atom_site_fract_y
 _atom_site_fract_z
 _atom_site_occupancy
  Li  Li0  1  0.113055  0.394653  0.241602  1
  Li  Li1  1  0.113055  0.894653  0.258398  1
  Li  Li2  1  0.281220  0.127244  0.507031  1
  Li  Li3  1  0.281220  0.627244  0.992969  1
  Li  Li4  1  0.360877  0.387489  0.749710  1
  Li  Li5  1  0.360877  0.887489  0.750290  1
  Li  Li6  1  0.639123  0.112511  0.250290  1
  Li  Li7  1  0.639123  0.612511  0.249710  1
  Li  Li8  1  0.718780  0.372756  0.492969  1
  Li  Li9  1  0.718780  0.872756  0.007031  1
  Li  Li10  1  0.886945  0.105347  0.758398  1
  Li  Li11  1  0.886945  0.605347  0.741602  1
  Co  Co12  1  0.260488  0.128246  0.003193  1
  Co  Co13  1  0.260488  0.628246  0.496807  1
  Co  Co14  1  0.739512  0.371754  0.996807  1
  Co  Co15  1  0.739512  0.871754  0.503193  1
  P  P16  1  0.406856  0.363596  0.237773  1
  P  P17  1  0.406856  0.863596  0.262227  1
  P  P18  1  0.593144  0.136404  0.762227  1
  P  P19  1  0.593144  0.636404  0.737773  1
  C  C20  1  0.047773  0.348150  0.754338  1
  C  C21  1  0.047773  0.848150  0.745662  1
  C  C22  1  0.952227  0.151850  0.245662  1
  C  C23  1  0.952227  0.651850  0.254338  1
  O  O24  1  0.064402  0.476560  0.730364  1
  O  O25  1  0.092532  0.193858  0.218124  1
  O  O26  1  0.064402  0.976560  0.769636  1
  O  O27  1  0.166114  0.254699  0.748091  1
  O  O28  1  0.092532  0.693858  0.281876  1
  O  O29  1  0.166114  0.754699  0.751909  1
  O  O30  1  0.305828  0.422271  0.052727  1
  O  O31  1  0.315411  0.417073  0.438109  1
  O  O32  1  0.315411  0.917073  0.061891  1
  O  O33  1  0.305828  0.922271  0.447273  1
  O  O34  1  0.425728  0.093039  0.761334  1
  O  O35  1  0.413366  0.200989  0.233868  1
  O  O36  1  0.425728  0.593039  0.738666  1
  O  O37  1  0.413366  0.700989  0.266132  1
  O  O38  1  0.586634  0.299011  0.766132  1
  O  O39  1  0.574272  0.406961  0.238666  1
  O  O40  1  0.586634  0.799011  0.733868  1
  O  O41  1  0.574272  0.906961  0.261334  1
  O  O42  1  0.694172  0.077729  0.947273  1
  O  O43  1  0.684589  0.082927  0.561891  1
  O  O44  1  0.694172  0.577729  0.552727  1
  O  O45  1  0.684589  0.582927  0.938109  1
  O  O46  1  0.833886  0.245301  0.251909  1
  O  O47  1  0.907468  0.306142  0.781876  1
  O  O48  1  0.833886  0.745301  0.248091  1
  O  O49  1  0.935598  0.023440  0.269637  1
  O  O50  1  0.907468  0.806142  0.718124  1
  O  O51  1  0.935598  0.523440  0.230363  1
