# generated using pymatgen
data_Li2AlCoO4
_symmetry_space_group_name_H-M   'P 1'
_cell_length_a   6.35302926
_cell_length_b   10.84847977
_cell_length_c   5.12573747
_cell_angle_alpha   90.00000000
_cell_angle_beta   89.98801065
_cell_angle_gamma   90.00000000
_symmetry_Int_Tables_number   1
_chemical_formula_structural   Li2AlCoO4
_chemical_formula_sum   'Li8 Al4 Co4 O16'
_cell_volume   353.26945484
_cell_formula_units_Z   4
loop_
 _symmetry_equiv_pos_site_id
 _symmetry_equiv_pos_as_xyz
  1  'x, y, z'
loop_
 _atom_site_type_symbol
 _atom_site_label
 _atom_site_symmetry_multiplicity
 _atom_site_fract_x
 _atom_site_fract_y
 _atom_site_fract_z
 _atom_site_occupancy
  Li  Li0  1  0.009737  0.834529  0.689916  1
  Li  Li1  1  0.242627  0.078606  0.705680  1
  Li  Li2  1  0.257373  0.578606  0.794320  1
  Li  Li3  1  0.490263  0.334529  0.810084  1
  Li  Li4  1  0.509737  0.665471  0.189916  1
  Li  Li5  1  0.742627  0.421394  0.205680  1
  Li  Li6  1  0.757373  0.921394  0.294320  1
  Li  Li7  1  0.990263  0.165471  0.310084  1
  Al  Al8  1  0.241934  0.411400  0.312613  1
  Al  Al9  1  0.258066  0.911400  0.187387  1
  Al  Al10  1  0.741934  0.088600  0.812613  1
  Al  Al11  1  0.758066  0.588600  0.687387  1
  Co  Co12  1  0.008492  0.666573  0.183477  1
  Co  Co13  1  0.491508  0.166573  0.316523  1
  Co  Co14  1  0.508492  0.833427  0.683477  1
  Co  Co15  1  0.991508  0.333427  0.816523  1
  O  O16  1  0.017295  0.335068  0.184932  1
  O  O17  1  0.025789  0.831059  0.288249  1
  O  O18  1  0.252973  0.067395  0.291877  1
  O  O19  1  0.229544  0.407673  0.659989  1
  O  O20  1  0.270456  0.907673  0.840011  1
  O  O21  1  0.247027  0.567395  0.208123  1
  O  O22  1  0.474211  0.331059  0.211751  1
  O  O23  1  0.482705  0.835068  0.315068  1
  O  O24  1  0.517295  0.164932  0.684932  1
  O  O25  1  0.525789  0.668941  0.788249  1
  O  O26  1  0.752973  0.432605  0.791877  1
  O  O27  1  0.729544  0.092327  0.159989  1
  O  O28  1  0.770456  0.592327  0.340011  1
  O  O29  1  0.747027  0.932605  0.708123  1
  O  O30  1  0.974211  0.168941  0.711751  1
  O  O31  1  0.982705  0.664932  0.815068  1
