# generated using pymatgen
data_Li5MnP2(O4F)2
_symmetry_space_group_name_H-M   'P 1'
_cell_length_a   9.99411824
_cell_length_b   9.99405703
_cell_length_c   6.56721667
_cell_angle_alpha   89.99995611
_cell_angle_beta   90.00016728
_cell_angle_gamma   120.00034882
_symmetry_Int_Tables_number   1
_chemical_formula_structural   Li5MnP2(O4F)2
_chemical_formula_sum   'Li15 Mn3 P6 O24 F6'
_cell_volume   568.06333216
_cell_formula_units_Z   3
loop_
 _symmetry_equiv_pos_site_id
 _symmetry_equiv_pos_as_xyz
  1  'x, y, z'
loop_
 _atom_site_type_symbol
 _atom_site_label
 _atom_site_symmetry_multiplicity
 _atom_site_fract_x
 _atom_site_fract_y
 _atom_site_fract_z
 _atom_site_occupancy
  Li  Li0  1  0.166220  0.833841  0.501843  1
  Li  Li1  1  0.333342  0.666698  0.560214  1
  Li  Li2  1  0.333327  0.666723  0.944846  1
  Li  Li3  1  0.000012  0.000024  0.449062  1
  Li  Li4  1  0.999996  0.000043  0.065633  1
  Li  Li5  1  0.166193  0.332361  0.501832  1
  Li  Li6  1  0.667652  0.833851  0.501809  1
  Li  Li7  1  0.464935  0.481755  0.734958  1
  Li  Li8  1  0.320302  0.135724  0.273591  1
  Li  Li9  1  0.815427  0.679722  0.273602  1
  Li  Li10  1  0.666665  0.333311  0.983950  1
  Li  Li11  1  0.666681  0.333334  0.490100  1
  Li  Li12  1  0.518230  0.983167  0.734985  1
  Li  Li13  1  0.016854  0.535073  0.734972  1
  Li  Li14  1  0.864304  0.184540  0.273580  1
  Mn  Mn15  1  0.166726  0.833708  0.003843  1
  Mn  Mn16  1  0.166236  0.333037  0.003938  1
  Mn  Mn17  1  0.667024  0.833212  0.003973  1
  P  P18  1  0.034984  0.525007  0.260220  1
  P  P19  1  0.489992  0.965004  0.260212  1
  P  P20  1  0.298243  0.142633  0.749623  1
  P  P21  1  0.475010  0.509985  0.260236  1
  P  P22  1  0.844360  0.701724  0.749587  1
  P  P23  1  0.857359  0.155604  0.749589  1
  O  O24  1  0.016511  0.739304  0.772104  1
  O  O25  1  0.118456  0.628334  0.068096  1
  O  O26  1  0.112716  0.614743  0.454216  1
  O  O27  1  0.318364  0.929257  0.235290  1
  O  O28  1  0.070722  0.389103  0.235375  1
  O  O29  1  0.502032  0.887315  0.454177  1
  O  O30  1  0.509877  0.881495  0.068099  1
  O  O31  1  0.260668  0.277210  0.772177  1
  O  O32  1  0.371651  0.490156  0.068099  1
  O  O33  1  0.385275  0.497987  0.454198  1
  O  O34  1  0.223414  0.053369  0.554701  1
  O  O35  1  0.213961  0.038930  0.941014  1
  O  O36  1  0.610917  0.681611  0.235373  1
  O  O37  1  0.722816  0.983445  0.772162  1
  O  O38  1  0.537263  0.397799  0.255860  1
  O  O39  1  0.473374  0.206908  0.757811  1
  O  O40  1  0.824941  0.785958  0.941044  1
  O  O41  1  0.829953  0.776596  0.554681  1
  O  O42  1  0.733510  0.526583  0.757741  1
  O  O43  1  0.602188  0.139465  0.255818  1
  O  O44  1  0.860515  0.462736  0.255868  1
  O  O45  1  0.793076  0.266461  0.757781  1
  O  O46  1  0.946647  0.170055  0.554699  1
  O  O47  1  0.961058  0.175076  0.941047  1
  F  F48  1  0.025919  0.846613  0.241037  1
  F  F49  1  0.308177  0.819878  0.769713  1
  F  F50  1  0.180142  0.488343  0.769680  1
  F  F51  1  0.153396  0.179337  0.241023  1
  F  F52  1  0.511681  0.691796  0.769649  1
  F  F53  1  0.820707  0.974056  0.240993  1
