# generated using pymatgen
data_Dy(ClO4)3
_symmetry_space_group_name_H-M   'P 1'
_cell_length_a   9.28715177
_cell_length_b   9.28713354
_cell_length_c   5.73330454
_cell_angle_alpha   90.00000000
_cell_angle_beta   90.00000000
_cell_angle_gamma   119.99974929
_symmetry_Int_Tables_number   1
_chemical_formula_structural   Dy(ClO4)3
_chemical_formula_sum   'Dy2 Cl6 O24'
_cell_volume   428.25355148
_cell_formula_units_Z   2
loop_
 _symmetry_equiv_pos_site_id
 _symmetry_equiv_pos_as_xyz
  1  'x, y, z'
loop_
 _atom_site_type_symbol
 _atom_site_label
 _atom_site_symmetry_multiplicity
 _atom_site_fract_x
 _atom_site_fract_y
 _atom_site_fract_z
 _atom_site_occupancy
  Dy  Dy0  1  0.333359  0.666675  0.750000  1
  Dy  Dy1  1  0.666685  0.333324  0.250000  1
  Cl  Cl2  1  0.090698  0.708214  0.250000  1
  Cl  Cl3  1  0.291789  0.382482  0.250000  1
  Cl  Cl4  1  0.617521  0.909307  0.250000  1
  Cl  Cl5  1  0.382484  0.090695  0.750000  1
  Cl  Cl6  1  0.708216  0.617518  0.750000  1
  Cl  Cl7  1  0.909313  0.291791  0.750000  1
  O  O8  1  0.019974  0.812410  0.250000  1
  O  O9  1  0.034584  0.469678  0.750000  1
  O  O10  1  0.197242  0.741974  0.043713  1
  O  O11  1  0.197242  0.741974  0.456287  1
  O  O12  1  0.435101  0.965420  0.750000  1
  O  O13  1  0.258027  0.455267  0.456286  1
  O  O14  1  0.258027  0.455267  0.043714  1
  O  O15  1  0.187587  0.207560  0.250000  1
  O  O16  1  0.544737  0.802760  0.043716  1
  O  O17  1  0.544737  0.802760  0.456284  1
  O  O18  1  0.207561  0.019972  0.750000  1
  O  O19  1  0.469678  0.435094  0.250000  1
  O  O20  1  0.530325  0.564904  0.750000  1
  O  O21  1  0.792442  0.980030  0.250000  1
  O  O22  1  0.455267  0.197240  0.543713  1
  O  O23  1  0.455267  0.197240  0.956287  1
  O  O24  1  0.812413  0.792440  0.750000  1
  O  O25  1  0.741973  0.544733  0.543713  1
  O  O26  1  0.741973  0.544733  0.956287  1
  O  O27  1  0.564901  0.034578  0.250000  1
  O  O28  1  0.802762  0.258026  0.956285  1
  O  O29  1  0.802762  0.258026  0.543715  1
  O  O30  1  0.965422  0.530323  0.250000  1
  O  O31  1  0.980028  0.187586  0.750000  1
