# generated using pymatgen
data_LiFe4(PO4)3
_symmetry_space_group_name_H-M   'P 1'
_cell_length_a   13.65894245
_cell_length_b   8.35782501
_cell_length_c   10.11223581
_cell_angle_alpha   90.00000000
_cell_angle_beta   90.00000000
_cell_angle_gamma   90.00000000
_symmetry_Int_Tables_number   1
_chemical_formula_structural   LiFe4(PO4)3
_chemical_formula_sum   'Li4 Fe16 P12 O48'
_cell_volume   1154.40324173
_cell_formula_units_Z   4
loop_
 _symmetry_equiv_pos_site_id
 _symmetry_equiv_pos_as_xyz
  1  'x, y, z'
loop_
 _atom_site_type_symbol
 _atom_site_label
 _atom_site_symmetry_multiplicity
 _atom_site_fract_x
 _atom_site_fract_y
 _atom_site_fract_z
 _atom_site_occupancy
  Li  Li0  1  0.250000  0.750000  0.698872  1
  Li  Li1  1  0.250000  0.750000  0.198872  1
  Li  Li2  1  0.750000  0.250000  0.301128  1
  Li  Li3  1  0.750000  0.250000  0.801128  1
  Fe  Fe4  1  0.046743  0.113487  0.197427  1
  Fe  Fe5  1  0.046743  0.386513  0.697427  1
  Fe  Fe6  1  0.148677  0.423783  0.996219  1
  Fe  Fe7  1  0.148677  0.076217  0.496219  1
  Fe  Fe8  1  0.351323  0.423783  0.496219  1
  Fe  Fe9  1  0.351323  0.076217  0.996219  1
  Fe  Fe10  1  0.453257  0.113487  0.697427  1
  Fe  Fe11  1  0.453257  0.386513  0.197427  1
  Fe  Fe12  1  0.546743  0.886513  0.302573  1
  Fe  Fe13  1  0.546743  0.613487  0.802573  1
  Fe  Fe14  1  0.648677  0.576217  0.503781  1
  Fe  Fe15  1  0.648677  0.923783  0.003781  1
  Fe  Fe16  1  0.851323  0.576217  0.003781  1
  Fe  Fe17  1  0.851323  0.923783  0.503781  1
  Fe  Fe18  1  0.953257  0.613487  0.302573  1
  Fe  Fe19  1  0.953257  0.886513  0.802573  1
  P  P20  1  0.069939  0.739051  0.567845  1
  P  P21  1  0.069939  0.760949  0.067845  1
  P  P22  1  0.250000  0.250000  0.250877  1
  P  P23  1  0.250000  0.250000  0.750877  1
  P  P24  1  0.430061  0.739051  0.067845  1
  P  P25  1  0.430061  0.760949  0.567845  1
  P  P26  1  0.569939  0.239051  0.432155  1
  P  P27  1  0.569939  0.260949  0.932155  1
  P  P28  1  0.750000  0.750000  0.249123  1
  P  P29  1  0.750000  0.750000  0.749123  1
  P  P30  1  0.930061  0.239051  0.932155  1
  P  P31  1  0.930061  0.260949  0.432155  1
  O  O32  1  0.025640  0.161606  0.395987  1
  O  O33  1  0.025640  0.338394  0.895987  1
  O  O34  1  0.059650  0.663702  0.430773  1
  O  O35  1  0.059650  0.836298  0.930773  1
  O  O36  1  0.089615  0.884488  0.178052  1
  O  O37  1  0.089615  0.615512  0.678052  1
  O  O38  1  0.157797  0.641688  0.074524  1
  O  O39  1  0.157797  0.858312  0.574524  1
  O  O40  1  0.158452  0.275503  0.158319  1
  O  O41  1  0.158452  0.224497  0.658319  1
  O  O42  1  0.232152  0.099172  0.334515  1
  O  O43  1  0.232152  0.400828  0.834515  1
  O  O44  1  0.267848  0.099172  0.834515  1
  O  O45  1  0.267848  0.400828  0.334515  1
  O  O46  1  0.341548  0.275503  0.658319  1
  O  O47  1  0.341548  0.224497  0.158319  1
  O  O48  1  0.342203  0.858312  0.074524  1
  O  O49  1  0.342203  0.641688  0.574524  1
  O  O50  1  0.410385  0.884488  0.678052  1
  O  O51  1  0.410385  0.615512  0.178052  1
  O  O52  1  0.440350  0.836298  0.430773  1
  O  O53  1  0.440350  0.663702  0.930773  1
  O  O54  1  0.474361  0.338394  0.395987  1
  O  O55  1  0.474361  0.161606  0.895987  1
  O  O56  1  0.525639  0.661606  0.604013  1
  O  O57  1  0.525639  0.838394  0.104013  1
  O  O58  1  0.559650  0.163702  0.569227  1
  O  O59  1  0.559650  0.336298  0.069227  1
  O  O60  1  0.589615  0.115512  0.321948  1
  O  O61  1  0.589615  0.384488  0.821948  1
  O  O62  1  0.657797  0.141688  0.925476  1
  O  O63  1  0.657797  0.358312  0.425476  1
  O  O64  1  0.658452  0.724497  0.341681  1
  O  O65  1  0.658452  0.775503  0.841681  1
  O  O66  1  0.732152  0.599172  0.665485  1
  O  O67  1  0.732152  0.900828  0.165485  1
  O  O68  1  0.767848  0.599172  0.165485  1
  O  O69  1  0.767848  0.900828  0.665485  1
  O  O70  1  0.841548  0.724497  0.841681  1
  O  O71  1  0.841548  0.775503  0.341681  1
  O  O72  1  0.842203  0.141688  0.425476  1
  O  O73  1  0.842203  0.358312  0.925476  1
  O  O74  1  0.910385  0.115512  0.821948  1
  O  O75  1  0.910385  0.384488  0.321948  1
  O  O76  1  0.940350  0.163702  0.069227  1
  O  O77  1  0.940350  0.336298  0.569227  1
  O  O78  1  0.974361  0.661606  0.104013  1
  O  O79  1  0.974361  0.838394  0.604013  1
