# generated using pymatgen
data_BaTi8O16
_symmetry_space_group_name_H-M   'P 1'
_cell_length_a   5.95756032
_cell_length_b   10.47242212
_cell_length_c   10.81789469
_cell_angle_alpha   93.51255511
_cell_angle_beta   105.98327436
_cell_angle_gamma   73.47459722
_symmetry_Int_Tables_number   1
_chemical_formula_structural   BaTi8O16
_chemical_formula_sum   'Ba2 Ti16 O32'
_cell_volume   621.93043911
_cell_formula_units_Z   2
loop_
 _symmetry_equiv_pos_site_id
 _symmetry_equiv_pos_as_xyz
  1  'x, y, z'
loop_
 _atom_site_type_symbol
 _atom_site_label
 _atom_site_symmetry_multiplicity
 _atom_site_fract_x
 _atom_site_fract_y
 _atom_site_fract_z
 _atom_site_occupancy
  Ba  Ba0  1  0.480654  0.500000  0.500000  1
  Ba  Ba1  1  0.729337  0.000000  0.000000  1
  Ti  Ti2  1  0.008636  0.150612  0.670592  1
  Ti  Ti3  1  0.503444  0.155129  0.659425  1
  Ti  Ti4  1  0.239823  0.349995  0.828083  1
  Ti  Ti5  1  0.747904  0.343578  0.841597  1
  Ti  Ti6  1  0.340006  0.678161  0.855766  1
  Ti  Ti7  1  0.843091  0.662614  0.850413  1
  Ti  Ti8  1  0.087617  0.178288  0.355297  1
  Ti  Ti9  1  0.595179  0.162996  0.350945  1
  Ti  Ti10  1  0.407231  0.837004  0.649055  1
  Ti  Ti11  1  0.910610  0.821712  0.644703  1
  Ti  Ti12  1  0.162400  0.321839  0.144234  1
  Ti  Ti13  1  0.655293  0.337386  0.149587  1
  Ti  Ti14  1  0.249884  0.656422  0.158403  1
  Ti  Ti15  1  0.761736  0.650005  0.171917  1
  Ti  Ti16  1  0.488655  0.849388  0.329408  1
  Ti  Ti17  1  0.999147  0.844871  0.340575  1
  O  O18  1  0.325095  0.150266  0.793160  1
  O  O19  1  0.817799  0.149444  0.795715  1
  O  O20  1  0.072604  0.324472  0.958871  1
  O  O21  1  0.567688  0.316700  0.960308  1
  O  O22  1  0.681415  0.183526  0.539658  1
  O  O23  1  0.178307  0.175729  0.541096  1
  O  O24  1  0.430933  0.350959  0.704153  1
  O  O25  1  0.924702  0.349361  0.707210  1
  O  O26  1  0.159441  0.540734  0.848399  1
  O  O27  1  0.647654  0.539758  0.843797  1
  O  O28  1  0.398892  0.040732  0.347991  1
  O  O29  1  0.907016  0.039965  0.344055  1
  O  O30  1  0.015162  0.802289  0.840026  1
  O  O31  1  0.522233  0.806126  0.841106  1
  O  O32  1  0.272840  0.303011  0.340396  1
  O  O33  1  0.762396  0.305896  0.340825  1
  O  O34  1  0.235455  0.696989  0.659604  1
  O  O35  1  0.727467  0.694104  0.659175  1
  O  O36  1  0.487251  0.193874  0.158894  1
  O  O37  1  0.977425  0.197711  0.159974  1
  O  O38  1  0.091633  0.959268  0.652009  1
  O  O39  1  0.602926  0.960035  0.655945  1
  O  O40  1  0.343615  0.460242  0.156203  1
  O  O41  1  0.851775  0.459266  0.151601  1
  O  O42  1  0.566853  0.650639  0.292790  1
  O  O43  1  0.077739  0.649041  0.295847  1
  O  O44  1  0.325284  0.816474  0.460342  1
  O  O45  1  0.812940  0.824271  0.458904  1
  O  O46  1  0.924079  0.683300  0.039692  1
  O  O47  1  0.438205  0.675527  0.041129  1
  O  O48  1  0.171527  0.850556  0.204285  1
  O  O49  1  0.682199  0.849734  0.206840  1
