# generated using pymatgen
data_La2Bi2O7
_symmetry_space_group_name_H-M   'P 1'
_cell_length_a   8.44202568
_cell_length_b   14.31471826
_cell_length_c   5.96037355
_cell_angle_alpha   90.00000000
_cell_angle_beta   90.00000000
_cell_angle_gamma   98.58261739
_symmetry_Int_Tables_number   1
_chemical_formula_structural   La2Bi2O7
_chemical_formula_sum   'La8 Bi8 O28'
_cell_volume   712.21670848
_cell_formula_units_Z   4
loop_
 _symmetry_equiv_pos_site_id
 _symmetry_equiv_pos_as_xyz
  1  'x, y, z'
loop_
 _atom_site_type_symbol
 _atom_site_label
 _atom_site_symmetry_multiplicity
 _atom_site_fract_x
 _atom_site_fract_y
 _atom_site_fract_z
 _atom_site_occupancy
  La  La0  1  0.236814  0.921317  0.773618  1
  La  La1  1  0.142869  0.564870  0.333087  1
  La  La2  1  0.284537  0.124676  0.251410  1
  La  La3  1  0.354536  0.389019  0.782519  1
  La  La4  1  0.645464  0.610981  0.282519  1
  La  La5  1  0.715463  0.875324  0.751410  1
  La  La6  1  0.857131  0.435130  0.833087  1
  La  La7  1  0.763186  0.078683  0.273618  1
  Bi  Bi8  1  0.077931  0.317823  0.268770  1
  Bi  Bi9  1  0.026496  0.118274  0.767457  1
  Bi  Bi10  1  0.413542  0.675218  0.779995  1
  Bi  Bi11  1  0.467793  0.877425  0.266628  1
  Bi  Bi12  1  0.532207  0.122575  0.766628  1
  Bi  Bi13  1  0.586458  0.324782  0.279995  1
  Bi  Bi14  1  0.973503  0.881726  0.267457  1
  Bi  Bi15  1  0.922069  0.682177  0.768770  1
  O  O16  1  0.008316  0.180382  0.397926  1
  O  O17  1  0.071730  0.410039  0.551477  1
  O  O18  1  0.168424  0.678593  0.656586  1
  O  O19  1  0.224731  0.884727  0.396721  1
  O  O20  1  0.134380  0.438131  0.056439  1
  O  O21  1  0.080241  0.018179  0.052962  1
  O  O22  1  0.159810  0.247327  0.985266  1
  O  O23  1  0.372105  0.615927  0.101078  1
  O  O24  1  0.422176  0.819304  0.900870  1
  O  O25  1  0.322994  0.308051  0.415519  1
  O  O26  1  0.267932  0.078767  0.628188  1
  O  O27  1  0.401897  0.547038  0.581538  1
  O  O28  1  0.562379  0.981980  0.559182  1
  O  O29  1  0.516499  0.748087  0.491109  1
  O  O30  1  0.483501  0.251913  0.991109  1
  O  O31  1  0.437621  0.018020  0.059182  1
  O  O32  1  0.598103  0.452962  0.081538  1
  O  O33  1  0.732068  0.921233  0.128188  1
  O  O34  1  0.677006  0.691949  0.915519  1
  O  O35  1  0.577824  0.180696  0.400870  1
  O  O36  1  0.627894  0.384073  0.601078  1
  O  O37  1  0.840190  0.752673  0.485266  1
  O  O38  1  0.919759  0.981821  0.552962  1
  O  O39  1  0.865620  0.561869  0.556439  1
  O  O40  1  0.775269  0.115273  0.896721  1
  O  O41  1  0.831576  0.321407  0.156586  1
  O  O42  1  0.928270  0.589961  0.051477  1
  O  O43  1  0.991684  0.819618  0.897926  1
