# generated using pymatgen
data_LiP4WO12
_symmetry_space_group_name_H-M   'P 1'
_cell_length_a   7.67211864
_cell_length_b   9.20970343
_cell_length_c   14.49815206
_cell_angle_alpha   90.00000000
_cell_angle_beta   98.23791896
_cell_angle_gamma   90.00000000
_symmetry_Int_Tables_number   1
_chemical_formula_structural   LiP4WO12
_chemical_formula_sum   'Li4 P16 W4 O48'
_cell_volume   1013.83927371
_cell_formula_units_Z   4
loop_
 _symmetry_equiv_pos_site_id
 _symmetry_equiv_pos_as_xyz
  1  'x, y, z'
loop_
 _atom_site_type_symbol
 _atom_site_label
 _atom_site_symmetry_multiplicity
 _atom_site_fract_x
 _atom_site_fract_y
 _atom_site_fract_z
 _atom_site_occupancy
  Li  Li0  1  0.017735  0.582634  0.927407  1
  Li  Li1  1  0.482265  0.082634  0.572593  1
  Li  Li2  1  0.517735  0.917366  0.427407  1
  Li  Li3  1  0.982265  0.417366  0.072593  1
  P  P4  1  0.074473  0.278763  0.426063  1
  P  P5  1  0.117831  0.057412  0.773329  1
  P  P6  1  0.201015  0.241213  0.950515  1
  P  P7  1  0.235631  0.052675  0.308272  1
  P  P8  1  0.298985  0.741213  0.549485  1
  P  P9  1  0.382169  0.557412  0.726671  1
  P  P10  1  0.264369  0.552675  0.191728  1
  P  P11  1  0.574473  0.221238  0.926064  1
  P  P12  1  0.425527  0.778763  0.073937  1
  P  P13  1  0.735631  0.447325  0.808272  1
  P  P14  1  0.617831  0.442588  0.273329  1
  P  P15  1  0.701015  0.258787  0.450515  1
  P  P16  1  0.764369  0.947325  0.691728  1
  P  P17  1  0.798985  0.758787  0.049485  1
  P  P18  1  0.882169  0.942588  0.226671  1
  P  P19  1  0.925527  0.721237  0.573936  1
  W  W20  1  0.008257  0.632151  0.356613  1
  W  W21  1  0.508257  0.867849  0.856613  1
  W  W22  1  0.491743  0.132151  0.143387  1
  W  W23  1  0.991743  0.367849  0.643387  1
  O  O24  1  0.086751  0.372131  0.956246  1
  O  O25  1  0.102044  0.130911  0.873170  1
  O  O26  1  0.053252  0.044842  0.237496  1
  O  O27  1  0.131241  0.305216  0.528590  1
  O  O28  1  0.106389  0.164286  0.694785  1
  O  O29  1  0.123830  0.788672  0.592974  1
  O  O30  1  0.089760  0.405905  0.363174  1
  O  O31  1  0.226713  0.458258  0.720871  1
  O  O32  1  0.184155  0.144552  0.397283  1
  O  O33  1  0.144914  0.647432  0.238990  1
  O  O34  1  0.273287  0.958258  0.779129  1
  O  O35  1  0.300387  0.909587  0.345068  1
  O  O36  1  0.244402  0.656039  0.461388  1
  O  O37  1  0.376170  0.288672  0.907026  1
  O  O38  1  0.393611  0.664286  0.805215  1
  O  O39  1  0.368759  0.805216  0.971410  1
  O  O40  1  0.255598  0.156039  0.038612  1
  O  O41  1  0.199613  0.409587  0.154932  1
  O  O42  1  0.397956  0.630911  0.626830  1
  O  O43  1  0.355086  0.147432  0.261010  1
  O  O44  1  0.413249  0.872131  0.543754  1
  O  O45  1  0.315845  0.644552  0.102717  1
  O  O46  1  0.553252  0.455158  0.737496  1
  O  O47  1  0.410240  0.905905  0.136826  1
  O  O48  1  0.589760  0.094095  0.863174  1
  O  O49  1  0.446748  0.544842  0.262504  1
  O  O50  1  0.684155  0.355448  0.897283  1
  O  O51  1  0.586751  0.127869  0.456246  1
  O  O52  1  0.644914  0.852568  0.738990  1
  O  O53  1  0.602044  0.369089  0.373170  1
  O  O54  1  0.800387  0.590413  0.845068  1
  O  O55  1  0.744402  0.843961  0.961388  1
  O  O56  1  0.631241  0.194784  0.028590  1
  O  O57  1  0.606389  0.335714  0.194785  1
  O  O58  1  0.623830  0.711328  0.092974  1
  O  O59  1  0.755598  0.343961  0.538612  1
  O  O60  1  0.699613  0.090413  0.654932  1
  O  O61  1  0.726713  0.041742  0.220871  1
  O  O62  1  0.855086  0.352568  0.761010  1
  O  O63  1  0.815845  0.855448  0.602717  1
  O  O64  1  0.773287  0.541742  0.279129  1
  O  O65  1  0.910240  0.594095  0.636826  1
  O  O66  1  0.876170  0.211328  0.407026  1
  O  O67  1  0.893611  0.835714  0.305215  1
  O  O68  1  0.868759  0.694784  0.471410  1
  O  O69  1  0.946748  0.955158  0.762504  1
  O  O70  1  0.897956  0.869089  0.126830  1
  O  O71  1  0.913249  0.627869  0.043754  1
