# generated using pymatgen
data_HoBO3
_symmetry_space_group_name_H-M   'P 1'
_cell_length_a   4.10644735
_cell_length_b   3.92808806
_cell_length_c   8.61853902
_cell_angle_alpha   90.00019582
_cell_angle_beta   90.00001658
_cell_angle_gamma   121.51349675
_symmetry_Int_Tables_number   1
_chemical_formula_structural   HoBO3
_chemical_formula_sum   'Ho2 B2 O6'
_cell_volume   118.51797025
_cell_formula_units_Z   2
loop_
 _symmetry_equiv_pos_site_id
 _symmetry_equiv_pos_as_xyz
  1  'x, y, z'
loop_
 _atom_site_type_symbol
 _atom_site_label
 _atom_site_symmetry_multiplicity
 _atom_site_fract_x
 _atom_site_fract_y
 _atom_site_fract_z
 _atom_site_occupancy
  Ho  Ho0  1  0.053749  0.000006  0.000000  1
  Ho  Ho1  1  0.053737  -0.000003  0.499999  1
  B  B2  1  0.501321  0.742469  0.249993  1
  B  B3  1  0.758870  0.257547  0.750008  1
  O  O4  1  0.333209  0.659191  0.103049  1
  O  O5  1  0.333205  0.659190  0.396956  1
  O  O6  1  0.893097  0.930364  0.250003  1
  O  O7  1  0.674012  0.340829  0.603048  1
  O  O8  1  0.674021  0.340828  0.896945  1
  O  O9  1  0.962778  0.069676  0.749998  1
