# generated using pymatgen
data_VH8C2NO3
_symmetry_space_group_name_H-M   'P 1'
_cell_length_a   11.01602842
_cell_length_b   14.51481015
_cell_length_c   7.55348929
_cell_angle_alpha   100.30127015
_cell_angle_beta   91.59881272
_cell_angle_gamma   90.12053289
_symmetry_Int_Tables_number   1
_chemical_formula_structural   VH8C2NO3
_chemical_formula_sum   'V8 H64 C16 N8 O24'
_cell_volume   1187.80795735
_cell_formula_units_Z   8
loop_
 _symmetry_equiv_pos_site_id
 _symmetry_equiv_pos_as_xyz
  1  'x, y, z'
loop_
 _atom_site_type_symbol
 _atom_site_label
 _atom_site_symmetry_multiplicity
 _atom_site_fract_x
 _atom_site_fract_y
 _atom_site_fract_z
 _atom_site_occupancy
  V  V0  1  0.088062  0.825960  0.662660  1
  V  V1  1  0.911938  0.174040  0.337340  1
  V  V2  1  0.402164  0.832468  0.690479  1
  V  V3  1  0.597836  0.167532  0.309521  1
  V  V4  1  0.587199  0.675061  0.817330  1
  V  V5  1  0.412801  0.324939  0.182670  1
  V  V6  1  0.902921  0.693620  0.858182  1
  V  V7  1  0.097079  0.306380  0.141818  1
  H  H8  1  0.546483  0.846821  0.134857  1
  H  H9  1  0.453517  0.153179  0.865143  1
  H  H10  1  0.516420  0.906322  0.340569  1
  H  H11  1  0.483580  0.093678  0.659431  1
  H  H12  1  0.547282  0.966547  0.172376  1
  H  H13  1  0.452718  0.033453  0.827624  1
  H  H14  1  0.938990  0.623031  0.255806  1
  H  H15  1  0.061010  0.376969  0.744194  1
  H  H16  1  0.960973  0.510394  0.294620  1
  H  H17  1  0.039027  0.489606  0.705380  1
  H  H18  1  0.945162  0.598238  0.470117  1
  H  H19  1  0.054838  0.401762  0.529883  1
  H  H20  1  0.015242  0.867031  0.088643  1
  H  H21  1  0.984758  0.132969  0.911357  1
  H  H22  1  0.007445  0.952917  0.274385  1
  H  H23  1  0.992555  0.047083  0.725615  1
  H  H24  1  0.039882  0.840185  0.296847  1
  H  H25  1  0.960118  0.159815  0.703153  1
  H  H26  1  0.467190  0.661318  0.408436  1
  H  H27  1  0.532810  0.338682  0.591564  1
  H  H28  1  0.436057  0.561207  0.256370  1
  H  H29  1  0.563943  0.438793  0.743630  1
  H  H30  1  0.483631  0.661420  0.183370  1
  H  H31  1  0.516369  0.338580  0.816630  1
  H  H32  1  0.751979  0.891789  0.153531  1
  H  H33  1  0.248021  0.108211  0.846469  1
  H  H34  1  0.727372  0.975845  0.350084  1
  H  H35  1  0.272628  0.024155  0.649916  1
  H  H36  1  0.813697  0.828548  0.447316  1
  H  H37  1  0.186303  0.171452  0.552684  1
  H  H38  1  0.659705  0.846290  0.509758  1
  H  H39  1  0.340295  0.153710  0.490242  1
  H  H40  1  0.696546  0.762302  0.316806  1
  H  H41  1  0.303454  0.237698  0.683194  1
  H  H42  1  0.741610  0.626058  0.395985  1
  H  H43  1  0.258390  0.373942  0.604015  1
  H  H44  1  0.752994  0.550340  0.185435  1
  H  H45  1  0.247006  0.449660  0.814565  1
  H  H46  1  0.648404  0.466735  0.407509  1
  H  H47  1  0.351596  0.533265  0.592491  1
  H  H48  1  0.772268  0.497786  0.563383  1
  H  H49  1  0.227732  0.502214  0.436617  1
  H  H50  1  0.792558  0.414829  0.360552  1
  H  H51  1  0.207442  0.585171  0.639448  1
  H  H52  1  0.227728  0.920666  0.334840  1
  H  H53  1  0.772272  0.079334  0.665161  1
  H  H54  1  0.225142  0.851196  0.116173  1
  H  H55  1  0.774858  0.148804  0.883827  1
  H  H56  1  0.150787  0.058538  0.203693  1
  H  H57  1  0.849213  0.941462  0.796307  1
  H  H58  1  0.293191  0.019642  0.111427  1
  H  H59  1  0.706809  0.980358  0.888573  1
  H  H60  1  0.155322  0.990301  0.983431  1
  H  H61  1  0.844678  0.009699  0.016569  1
  H  H62  1  0.253713  0.653059  0.378344  1
  H  H63  1  0.746287  0.346941  0.621656  1
  H  H64  1  0.308801  0.744140  0.277005  1
  H  H65  1  0.691199  0.255860  0.722995  1
  H  H66  1  0.160586  0.650694  0.054640  1
  H  H67  1  0.839414  0.349306  0.945360  1
  H  H68  1  0.232139  0.545045  0.085460  1
  H  H69  1  0.767861  0.454955  0.914540  1
  H  H70  1  0.309478  0.626279  0.974701  1
  H  H71  1  0.690522  0.373721  0.025299  1
  C  C72  1  0.701463  0.905739  0.278747  1
  C  C73  1  0.298537  0.094261  0.721253  1
  C  C74  1  0.720054  0.831445  0.395084  1
  C  C75  1  0.279946  0.168555  0.604916  1
  C  C76  1  0.781490  0.560451  0.327968  1
  C  C77  1  0.218510  0.439549  0.672032  1
  C  C78  1  0.746811  0.479749  0.419800  1
  C  C79  1  0.253189  0.520251  0.580200  1
  C  C80  1  0.184836  0.912494  0.200141  1
  C  C81  1  0.815164  0.087506  0.799859  1
  C  C82  1  0.197236  0.000509  0.119512  1
  C  C83  1  0.802764  0.999491  0.880488  1
  C  C84  1  0.303885  0.667663  0.263109  1
  C  C85  1  0.696115  0.332337  0.736891  1
  C  C86  1  0.247997  0.619752  0.084073  1
  C  C87  1  0.752003  0.380248  0.915927  1
  N  N88  1  0.569093  0.907179  0.227338  1
  N  N89  1  0.430907  0.092821  0.772662  1
  N  N90  1  0.916547  0.574354  0.337363  1
  N  N91  1  0.083453  0.425646  0.662637  1
  N  N92  1  0.052375  0.891431  0.216295  1
  N  N93  1  0.947625  0.108569  0.783705  1
  N  N94  1  0.432153  0.635068  0.280202  1
  N  N95  1  0.567847  0.364932  0.719798  1
  O  O96  1  0.049787  0.762358  0.461490  1
  O  O97  1  0.950213  0.237642  0.538510  1
  O  O98  1  0.070553  0.938984  0.650641  1
  O  O99  1  0.929447  0.061016  0.349359  1
  O  O100  1  0.244576  0.802806  0.724540  1
  O  O101  1  0.755424  0.197194  0.275460  1
  O  O102  1  0.988096  0.800046  0.839921  1
  O  O103  1  0.011904  0.199954  0.160079  1
  O  O104  1  0.412720  0.880296  0.505413  1
  O  O105  1  0.587280  0.119704  0.494587  1
  O  O106  1  0.455581  0.908784  0.866336  1
  O  O107  1  0.544419  0.091216  0.133664  1
  O  O108  1  0.492860  0.723581  0.653185  1
  O  O109  1  0.507140  0.276419  0.346815  1
  O  O110  1  0.567899  0.559373  0.777948  1
  O  O111  1  0.432101  0.440627  0.222053  1
  O  O112  1  0.544117  0.719257  0.028605  1
  O  O113  1  0.455883  0.280743  0.971395  1
  O  O114  1  0.744898  0.704374  0.787784  1
  O  O115  1  0.255102  0.295626  0.212216  1
  O  O116  1  0.964706  0.599230  0.728497  1
  O  O117  1  0.035294  0.400770  0.271503  1
  O  O118  1  0.912798  0.684206  0.073550  1
  O  O119  1  0.087202  0.315794  0.926450  1
