# generated using pymatgen
data_Li2VOF3
_symmetry_space_group_name_H-M   'P 1'
_cell_length_a   5.97398807
_cell_length_b   5.97888081
_cell_length_c   6.07732852
_cell_angle_alpha   120.54619927
_cell_angle_beta   90.00000000
_cell_angle_gamma   60.86830377
_symmetry_Int_Tables_number   1
_chemical_formula_structural   Li2VOF3
_chemical_formula_sum   'Li4 V2 O2 F6'
_cell_volume   154.21142649
_cell_formula_units_Z   2
loop_
 _symmetry_equiv_pos_site_id
 _symmetry_equiv_pos_as_xyz
  1  'x, y, z'
loop_
 _atom_site_type_symbol
 _atom_site_label
 _atom_site_symmetry_multiplicity
 _atom_site_fract_x
 _atom_site_fract_y
 _atom_site_fract_z
 _atom_site_occupancy
  Li  Li0  1  0.500000  0.000000  0.500000  1
  Li  Li1  1  0.000000  0.000000  0.500000  1
  Li  Li2  1  0.095356  0.252472  0.126236  1
  Li  Li3  1  0.904644  0.747528  0.873764  1
  V  V4  1  0.500000  0.500000  0.500000  1
  V  V5  1  0.500000  0.500000  0.000000  1
  O  O6  1  0.301618  0.489146  0.744573  1
  O  O7  1  0.698382  0.510854  0.255427  1
  F  F8  1  0.742732  0.025500  0.750485  1
  F  F9  1  0.742732  0.025500  0.275015  1
  F  F10  1  0.749428  0.491165  0.745583  1
  F  F11  1  0.250572  0.508835  0.254417  1
  F  F12  1  0.257268  0.974500  0.724985  1
  F  F13  1  0.257268  0.974500  0.249515  1
