# generated using pymatgen
data_LiCuPO4
_symmetry_space_group_name_H-M   'P 1'
_cell_length_a   7.59471863
_cell_length_b   8.03024970
_cell_length_c   5.65704384
_cell_angle_alpha   90.00000000
_cell_angle_beta   90.00000000
_cell_angle_gamma   90.00000000
_symmetry_Int_Tables_number   1
_chemical_formula_structural   LiCuPO4
_chemical_formula_sum   'Li4 Cu4 P4 O16'
_cell_volume   345.00888765
_cell_formula_units_Z   4
loop_
 _symmetry_equiv_pos_site_id
 _symmetry_equiv_pos_as_xyz
  1  'x, y, z'
loop_
 _atom_site_type_symbol
 _atom_site_label
 _atom_site_symmetry_multiplicity
 _atom_site_fract_x
 _atom_site_fract_y
 _atom_site_fract_z
 _atom_site_occupancy
  Li  Li0  1  0.949561  0.768688  0.714673  1
  Li  Li1  1  0.550439  0.268688  0.214673  1
  Li  Li2  1  0.449561  0.731312  0.714673  1
  Li  Li3  1  0.050439  0.231312  0.214673  1
  Cu  Cu4  1  0.220060  0.578658  0.218953  1
  Cu  Cu5  1  0.279940  0.078658  0.718953  1
  Cu  Cu6  1  0.720060  0.921342  0.218953  1
  Cu  Cu7  1  0.779940  0.421342  0.718953  1
  P  P8  1  0.190607  0.449379  0.723923  1
  P  P9  1  0.309393  0.949379  0.223923  1
  P  P10  1  0.690607  0.050621  0.723923  1
  P  P11  1  0.809393  0.550621  0.223923  1
  O  O12  1  0.008372  0.534596  0.685746  1
  O  O13  1  0.288289  0.429760  0.485107  1
  O  O14  1  0.168822  0.276873  0.848463  1
  O  O15  1  0.299886  0.570410  0.884135  1
  O  O16  1  0.200114  0.070410  0.384135  1
  O  O17  1  0.331178  0.776873  0.348463  1
  O  O18  1  0.211711  0.929760  0.985107  1
  O  O19  1  0.491628  0.034596  0.185746  1
  O  O20  1  0.508372  0.965404  0.685746  1
  O  O21  1  0.788289  0.070240  0.485107  1
  O  O22  1  0.668822  0.223127  0.848463  1
  O  O23  1  0.799886  0.929590  0.884135  1
  O  O24  1  0.700114  0.429590  0.384135  1
  O  O25  1  0.831178  0.723127  0.348463  1
  O  O26  1  0.711711  0.570240  0.985107  1
  O  O27  1  0.991628  0.465404  0.185746  1
