# generated using pymatgen
data_NaLi5Mn2P2(CO7)2
_symmetry_space_group_name_H-M   'P 1'
_cell_length_a   8.64415354
_cell_length_b   6.67204865
_cell_length_c   9.99528401
_cell_angle_alpha   90.00000000
_cell_angle_beta   87.64463540
_cell_angle_gamma   90.00000000
_symmetry_Int_Tables_number   1
_chemical_formula_structural   NaLi5Mn2P2(CO7)2
_chemical_formula_sum   'Na2 Li10 Mn4 P4 C4 O28'
_cell_volume   575.98310744
_cell_formula_units_Z   2
loop_
 _symmetry_equiv_pos_site_id
 _symmetry_equiv_pos_as_xyz
  1  'x, y, z'
loop_
 _atom_site_type_symbol
 _atom_site_label
 _atom_site_symmetry_multiplicity
 _atom_site_fract_x
 _atom_site_fract_y
 _atom_site_fract_z
 _atom_site_occupancy
  Na  Na0  1  0.247097  0.998978  0.627842  1
  Na  Na1  1  0.247097  0.501022  0.127842  1
  Li  Li2  1  0.085063  0.256963  0.872428  1
  Li  Li3  1  0.085063  0.243037  0.372428  1
  Li  Li4  1  0.270716  0.472670  0.615784  1
  Li  Li5  1  0.270716  0.027330  0.115784  1
  Li  Li6  1  0.734058  0.526894  0.885424  1
  Li  Li7  1  0.736175  0.974452  0.883686  1
  Li  Li8  1  0.736175  0.525548  0.383686  1
  Li  Li9  1  0.734058  0.973106  0.385424  1
  Li  Li10  1  0.911378  0.738422  0.628442  1
  Li  Li11  1  0.911378  0.761578  0.128442  1
  Mn  Mn12  1  0.354812  0.752641  0.886605  1
  Mn  Mn13  1  0.354812  0.747359  0.386605  1
  Mn  Mn14  1  0.649957  0.247763  0.610649  1
  Mn  Mn15  1  0.649957  0.252237  0.110649  1
  P  P16  1  0.409922  0.255419  0.852245  1
  P  P17  1  0.409922  0.244581  0.352245  1
  P  P18  1  0.595142  0.743643  0.642217  1
  P  P19  1  0.595142  0.756357  0.142217  1
  C  C20  1  0.038465  0.748412  0.865275  1
  C  C21  1  0.038465  0.751588  0.365275  1
  C  C22  1  0.958095  0.259547  0.639608  1
  C  C23  1  0.958095  0.240453  0.139608  1
  O  O24  1  0.100898  0.284858  0.672298  1
  O  O25  1  0.100898  0.215142  0.172298  1
  O  O26  1  0.078934  0.746126  0.988871  1
  O  O27  1  0.078934  0.753874  0.488871  1
  O  O28  1  0.143897  0.750589  0.768725  1
  O  O29  1  0.143897  0.749411  0.268725  1
  O  O30  1  0.310245  0.070315  0.897557  1
  O  O31  1  0.314988  0.438565  0.904414  1
  O  O32  1  0.314988  0.061435  0.404414  1
  O  O33  1  0.310245  0.429685  0.397557  1
  O  O34  1  0.423167  0.263930  0.695958  1
  O  O35  1  0.426861  0.728536  0.593806  1
  O  O36  1  0.423167  0.236070  0.195958  1
  O  O37  1  0.426861  0.771464  0.093806  1
  O  O38  1  0.577314  0.247567  0.903387  1
  O  O39  1  0.584471  0.748937  0.799168  1
  O  O40  1  0.577314  0.252433  0.403387  1
  O  O41  1  0.584471  0.751063  0.299168  1
  O  O42  1  0.698438  0.565258  0.592661  1
  O  O43  1  0.683405  0.931155  0.587861  1
  O  O44  1  0.683405  0.568845  0.087861  1
  O  O45  1  0.698438  0.934742  0.092661  1
  O  O46  1  0.851653  0.243969  0.735150  1
  O  O47  1  0.851653  0.256031  0.235150  1
  O  O48  1  0.921313  0.248909  0.515275  1
  O  O49  1  0.921313  0.251091  0.015275  1
  O  O50  1  0.893534  0.748635  0.834663  1
  O  O51  1  0.893534  0.751365  0.334663  1
