# generated using pymatgen
data_K4P4H7(RuO9)2
_symmetry_space_group_name_H-M   'P 1'
_cell_length_a   9.23039293
_cell_length_b   9.41316244
_cell_length_c   10.46300793
_cell_angle_alpha   90.00000000
_cell_angle_beta   90.60404337
_cell_angle_gamma   90.00000000
_symmetry_Int_Tables_number   1
_chemical_formula_structural   K4P4H7(RuO9)2
_chemical_formula_sum   'K8 P8 H14 Ru4 O36'
_cell_volume   909.05081689
_cell_formula_units_Z   2
loop_
 _symmetry_equiv_pos_site_id
 _symmetry_equiv_pos_as_xyz
  1  'x, y, z'
loop_
 _atom_site_type_symbol
 _atom_site_label
 _atom_site_symmetry_multiplicity
 _atom_site_fract_x
 _atom_site_fract_y
 _atom_site_fract_z
 _atom_site_occupancy
  K  K0  1  0.137920  0.774361  0.347798  1
  K  K1  1  0.155689  0.622411  0.781378  1
  K  K2  1  0.344311  0.122411  0.718622  1
  K  K3  1  0.362080  0.274361  0.152202  1
  K  K4  1  0.637920  0.725639  0.847798  1
  K  K5  1  0.655689  0.877589  0.281378  1
  K  K6  1  0.844311  0.377589  0.218622  1
  K  K7  1  0.862080  0.225639  0.652202  1
  P  P8  1  0.102195  0.285572  0.922894  1
  P  P9  1  0.218008  0.367235  0.462601  1
  P  P10  1  0.281992  0.867235  0.037399  1
  P  P11  1  0.397805  0.785572  0.577106  1
  P  P12  1  0.602195  0.214428  0.422894  1
  P  P13  1  0.718008  0.132765  0.962601  1
  P  P14  1  0.781992  0.632765  0.537399  1
  P  P15  1  0.897805  0.714428  0.077106  1
  H  H16  1  0.000000  0.500000  0.500000  1
  H  H17  1  0.077099  0.898173  0.631132  1
  H  H18  1  0.096524  0.126648  0.366681  1
  H  H19  1  0.112405  0.628258  0.100931  1
  H  H20  1  0.387595  0.128258  0.399069  1
  H  H21  1  0.403476  0.626648  0.133319  1
  H  H22  1  0.422901  0.398173  0.868868  1
  H  H23  1  0.500000  0.000000  0.000000  1
  H  H24  1  0.577099  0.601827  0.131132  1
  H  H25  1  0.596524  0.373352  0.866681  1
  H  H26  1  0.612405  0.871742  0.600931  1
  H  H27  1  0.887595  0.371742  0.899069  1
  H  H28  1  0.903476  0.873352  0.633319  1
  H  H29  1  0.922901  0.101827  0.368868  1
  Ru  Ru30  1  0.999300  0.963803  0.893203  1
  Ru  Ru31  1  0.000700  0.036197  0.106797  1
  Ru  Ru32  1  0.500700  0.463803  0.606797  1
  Ru  Ru33  1  0.499300  0.536197  0.393203  1
  O  O34  1  0.014699  0.067321  0.331482  1
  O  O35  1  0.009705  0.593409  0.120306  1
  O  O36  1  0.050790  0.388198  0.468138  1
  O  O37  1  0.066838  0.239685  0.062656  1
  O  O38  1  0.073433  0.157591  0.830741  1
  O  O39  1  0.212622  0.896151  0.901907  1
  O  O40  1  0.215215  0.978774  0.131876  1
  O  O41  1  0.242871  0.213244  0.418310  1
  O  O42  1  0.252421  0.347463  0.910772  1
  O  O43  1  0.247579  0.847463  0.589228  1
  O  O44  1  0.257129  0.713244  0.081690  1
  O  O45  1  0.287378  0.396151  0.598093  1
  O  O46  1  0.284785  0.478774  0.368124  1
  O  O47  1  0.426567  0.657591  0.669259  1
  O  O48  1  0.433162  0.739685  0.437344  1
  O  O49  1  0.449210  0.888198  0.031862  1
  O  O50  1  0.490295  0.093409  0.379694  1
  O  O51  1  0.485301  0.567321  0.168518  1
  O  O52  1  0.514699  0.432679  0.831482  1
  O  O53  1  0.509705  0.906591  0.620306  1
  O  O54  1  0.550790  0.111802  0.968138  1
  O  O55  1  0.566838  0.260315  0.562656  1
  O  O56  1  0.573433  0.342409  0.330741  1
  O  O57  1  0.715215  0.521226  0.631876  1
  O  O58  1  0.712622  0.603849  0.401907  1
  O  O59  1  0.742871  0.286756  0.918310  1
  O  O60  1  0.752421  0.152537  0.410772  1
  O  O61  1  0.747579  0.652537  0.089228  1
  O  O62  1  0.757129  0.786756  0.581690  1
  O  O63  1  0.784785  0.021226  0.868124  1
  O  O64  1  0.787378  0.103849  0.098093  1
  O  O65  1  0.926567  0.842409  0.169259  1
  O  O66  1  0.933162  0.760315  0.937344  1
  O  O67  1  0.949210  0.611802  0.531862  1
  O  O68  1  0.990295  0.406591  0.879694  1
  O  O69  1  0.985301  0.932679  0.668518  1
