# generated using pymatgen
data_LiBi(PO3)4
_symmetry_space_group_name_H-M   'P 1'
_cell_length_a   10.05926553
_cell_length_b   13.48094547
_cell_length_c   7.26790065
_cell_angle_alpha   90.00000000
_cell_angle_beta   89.30866054
_cell_angle_gamma   90.00000000
_symmetry_Int_Tables_number   1
_chemical_formula_structural   LiBi(PO3)4
_chemical_formula_sum   'Li4 Bi4 P16 O48'
_cell_volume   985.51670510
_cell_formula_units_Z   4
loop_
 _symmetry_equiv_pos_site_id
 _symmetry_equiv_pos_as_xyz
  1  'x, y, z'
loop_
 _atom_site_type_symbol
 _atom_site_label
 _atom_site_symmetry_multiplicity
 _atom_site_fract_x
 _atom_site_fract_y
 _atom_site_fract_z
 _atom_site_occupancy
  Li  Li0  1  0.045441  0.210319  0.050992  1
  Li  Li1  1  0.454559  0.710319  0.449008  1
  Li  Li2  1  0.545441  0.289681  0.550992  1
  Li  Li3  1  0.954559  0.789681  0.949008  1
  Bi  Bi4  1  0.072862  0.778033  0.481435  1
  Bi  Bi5  1  0.427138  0.278033  0.018565  1
  Bi  Bi6  1  0.572862  0.721967  0.981435  1
  Bi  Bi7  1  0.927138  0.221967  0.518565  1
  P  P8  1  0.201483  0.372106  0.358502  1
  P  P9  1  0.196577  0.589876  0.280377  1
  P  P10  1  0.238119  0.122876  0.618892  1
  P  P11  1  0.230515  0.909490  0.737604  1
  P  P12  1  0.269485  0.409490  0.762396  1
  P  P13  1  0.261881  0.622876  0.881108  1
  P  P14  1  0.303423  0.089876  0.219623  1
  P  P15  1  0.298517  0.872106  0.141498  1
  P  P16  1  0.701483  0.127894  0.858502  1
  P  P17  1  0.696577  0.910124  0.780377  1
  P  P18  1  0.738119  0.377124  0.118892  1
  P  P19  1  0.730515  0.590510  0.237604  1
  P  P20  1  0.769485  0.090510  0.262396  1
  P  P21  1  0.761881  0.877124  0.381108  1
  P  P22  1  0.803423  0.410124  0.719623  1
  P  P23  1  0.798517  0.627894  0.641498  1
  O  O24  1  0.070680  0.651366  0.263871  1
  O  O25  1  0.080429  0.899674  0.752763  1
  O  O26  1  0.096677  0.151131  0.675435  1
  O  O27  1  0.099385  0.293748  0.312027  1
  O  O28  1  0.142895  0.477453  0.296922  1
  O  O29  1  0.153456  0.696457  0.856914  1
  O  O30  1  0.158333  0.857788  0.210622  1
  O  O31  1  0.195188  0.381665  0.577093  1
  O  O32  1  0.210109  0.348704  0.917785  1
  O  O33  1  0.221125  0.522664  0.776934  1
  O  O34  1  0.222865  0.084229  0.410069  1
  O  O35  1  0.210817  0.122248  0.071287  1
  O  O36  1  0.289183  0.622248  0.428713  1
  O  O37  1  0.277135  0.584229  0.089931  1
  O  O38  1  0.278875  0.022664  0.723066  1
  O  O39  1  0.289891  0.848704  0.582215  1
  O  O40  1  0.304812  0.881665  0.922907  1
  O  O41  1  0.341667  0.357788  0.289378  1
  O  O42  1  0.346544  0.196457  0.643086  1
  O  O43  1  0.357105  0.977453  0.203078  1
  O  O44  1  0.400615  0.793748  0.187973  1
  O  O45  1  0.403323  0.651131  0.824565  1
  O  O46  1  0.419571  0.399674  0.747237  1
  O  O47  1  0.429320  0.151366  0.236129  1
  O  O48  1  0.570680  0.848634  0.763871  1
  O  O49  1  0.580429  0.600326  0.252763  1
  O  O50  1  0.596677  0.348869  0.175435  1
  O  O51  1  0.599385  0.206252  0.812027  1
  O  O52  1  0.642895  0.022547  0.796922  1
  O  O53  1  0.653456  0.803543  0.356914  1
  O  O54  1  0.658333  0.642212  0.710622  1
  O  O55  1  0.695188  0.118335  0.077093  1
  O  O56  1  0.710109  0.151296  0.417785  1
  O  O57  1  0.721125  0.977336  0.276934  1
  O  O58  1  0.722866  0.415771  0.910069  1
  O  O59  1  0.710817  0.377752  0.571287  1
  O  O60  1  0.789183  0.877752  0.928713  1
  O  O61  1  0.777134  0.915771  0.589931  1
  O  O62  1  0.778875  0.477336  0.223066  1
  O  O63  1  0.789891  0.651296  0.082215  1
  O  O64  1  0.804812  0.618335  0.422907  1
  O  O65  1  0.841667  0.142212  0.789378  1
  O  O66  1  0.846544  0.303543  0.143086  1
  O  O67  1  0.857105  0.522547  0.703078  1
  O  O68  1  0.900615  0.706252  0.687973  1
  O  O69  1  0.903323  0.848869  0.324565  1
  O  O70  1  0.919571  0.100326  0.247237  1
  O  O71  1  0.929320  0.348634  0.736129  1
