# generated using pymatgen
data_Li24Ti5Cr7O36
_symmetry_space_group_name_H-M   'P 1'
_cell_length_a   5.07581497
_cell_length_b   13.35391030
_cell_length_c   9.80184088
_cell_angle_alpha   97.13600291
_cell_angle_beta   95.07569918
_cell_angle_gamma   100.84012335
_symmetry_Int_Tables_number   1
_chemical_formula_structural   Li24Ti5Cr7O36
_chemical_formula_sum   'Li24 Ti5 Cr7 O36'
_cell_volume   643.20081858
_cell_formula_units_Z   1
loop_
 _symmetry_equiv_pos_site_id
 _symmetry_equiv_pos_as_xyz
  1  'x, y, z'
loop_
 _atom_site_type_symbol
 _atom_site_label
 _atom_site_symmetry_multiplicity
 _atom_site_fract_x
 _atom_site_fract_y
 _atom_site_fract_z
 _atom_site_occupancy
  Li  Li0  1  0.832649  0.166575  0.000043  1
  Li  Li1  1  0.946791  0.384632  0.999623  1
  Li  Li2  1  0.001787  0.750303  0.249136  1
  Li  Li3  1  0.666167  0.082950  0.249796  1
  Li  Li4  1  0.954484  0.889447  0.503467  1
  Li  Li5  1  0.620248  0.221948  0.499453  1
  Li  Li6  1  0.829091  0.666383  0.500598  1
  Li  Li7  1  0.499398  0.999803  0.499768  1
  Li  Li8  1  0.715295  0.445306  0.498997  1
  Li  Li9  1  0.666097  0.582260  0.749959  1
  Li  Li10  1  0.493489  0.501620  0.999881  1
  Li  Li11  1  0.718897  0.948321  0.999286  1
  Li  Li12  1  0.387310  0.281622  0.001977  1
  Li  Li13  1  0.617064  0.719819  0.000908  1
  Li  Li14  1  0.280253  0.051735  0.998675  1
  Li  Li15  1  0.334133  0.417134  0.250342  1
  Li  Li16  1  0.290056  0.554984  0.500156  1
  Li  Li17  1  0.166793  0.333335  0.500064  1
  Li  Li18  1  0.376950  0.777726  0.498105  1
  Li  Li19  1  0.047117  0.111263  0.500270  1
  Li  Li20  1  0.334285  0.917657  0.749808  1
  Li  Li21  1  0.170299  0.832320  0.000146  1
  Li  Li22  1  0.000826  0.250756  0.750211  1
  Li  Li23  1  0.052600  0.613716  0.000453  1
  Ti  Ti24  1  0.892248  0.527556  0.253267  1
  Ti  Ti25  1  0.776026  0.806733  0.749621  1
  Ti  Ti26  1  0.443638  0.139439  0.750244  1
  Ti  Ti27  1  0.222140  0.193179  0.249681  1
  Ti  Ti28  1  0.221800  0.692270  0.750184  1
  Cr  Cr29  1  0.891808  0.029829  0.750114  1
  Cr  Cr30  1  0.774370  0.305212  0.249691  1
  Cr  Cr31  1  0.557563  0.364647  0.750408  1
  Cr  Cr32  1  0.555692  0.864987  0.248564  1
  Cr  Cr33  1  0.449091  0.641242  0.249884  1
  Cr  Cr34  1  0.107529  0.468237  0.749541  1
  Cr  Cr35  1  0.107766  0.968625  0.249789  1
  O  O36  1  -0.000223  0.068966  0.138019  1
  O  O37  1  0.927462  0.215184  0.364853  1
  O  O38  1  0.998432  0.568485  0.637803  1
  O  O39  1  0.864256  0.358336  0.638583  1
  O  O40  1  0.740959  0.117304  0.635402  1
  O  O41  1  0.666233  0.402360  0.137051  1
  O  O42  1  0.930791  0.715283  0.866244  1
  O  O43  1  0.801520  0.474216  0.861935  1
  O  O44  1  0.595720  0.048702  0.865531  1
  O  O45  1  0.864844  0.859227  0.138101  1
  O  O46  1  0.728420  0.618799  0.135272  1
  O  O47  1  0.524921  0.189466  0.137319  1
  O  O48  1  0.666549  0.264225  0.862150  1
  O  O49  1  0.802585  0.973205  0.362379  1
  O  O50  1  0.600373  0.548203  0.366292  1
  O  O51  1  0.482104  0.310040  0.362621  1
  O  O52  1  0.661795  0.761498  0.358914  1
  O  O53  1  0.332242  0.093813  0.363115  1
  O  O54  1  0.664402  0.906281  0.637636  1
  O  O55  1  0.334961  0.239655  0.637244  1
  O  O56  1  0.523545  0.689753  0.635999  1
  O  O57  1  0.408450  0.449537  0.636320  1
  O  O58  1  0.189858  0.023455  0.636564  1
  O  O59  1  0.334285  0.740698  0.138072  1
  O  O60  1  0.477515  0.809595  0.863621  1
  O  O61  1  0.257297  0.383354  0.864251  1
  O  O62  1  0.138753  0.142804  0.862378  1
  O  O63  1  0.406910  0.949525  0.135328  1
  O  O64  1  0.191469  0.524914  0.137477  1
  O  O65  1  0.067897  0.285166  0.134985  1
  O  O66  1  0.332722  0.593058  0.862030  1
  O  O67  1  0.257750  0.883716  0.363810  1
  O  O68  1  0.148556  0.644235  0.362123  1
  O  O69  1  0.003379  0.427703  0.363022  1
  O  O70  1  0.068217  0.784045  0.633477  1
  O  O71  1  0.003304  0.931615  0.861964  1
