# generated using pymatgen
data_Li9Cr5(SiO8)2
_symmetry_space_group_name_H-M   'P 1'
_cell_length_a   5.06861881
_cell_length_b   11.54926441
_cell_length_c   5.05063045
_cell_angle_alpha   90.00000422
_cell_angle_beta   70.71546465
_cell_angle_gamma   90.00000120
_symmetry_Int_Tables_number   1
_chemical_formula_structural   Li9Cr5(SiO8)2
_chemical_formula_sum   'Li9 Cr5 Si2 O16'
_cell_volume   279.06861091
_cell_formula_units_Z   1
loop_
 _symmetry_equiv_pos_site_id
 _symmetry_equiv_pos_as_xyz
  1  'x, y, z'
loop_
 _atom_site_type_symbol
 _atom_site_label
 _atom_site_symmetry_multiplicity
 _atom_site_fract_x
 _atom_site_fract_y
 _atom_site_fract_z
 _atom_site_occupancy
  Li  Li0  1  0.000000  0.992485  0.000000  1
  Li  Li1  1  0.000000  0.251080  0.000000  1
  Li  Li2  1  0.000000  0.117613  0.500000  1
  Li  Li3  1  1.000000  0.498920  0.000000  1
  Li  Li4  1  0.000000  0.375000  0.500000  1
  Li  Li5  1  0.000000  0.757515  0.000000  1
  Li  Li6  1  0.000000  0.632387  0.500000  1
  Li  Li7  1  0.500000  0.875000  0.000000  1
  Li  Li8  1  0.000000  0.875000  0.500000  1
  Cr  Cr9  1  0.500000  0.115733  1.000000  1
  Cr  Cr10  1  0.500000  0.375000  0.000000  1
  Cr  Cr11  1  0.500000  0.245068  0.500000  1
  Cr  Cr12  1  0.500000  0.634267  0.000000  1
  Cr  Cr13  1  0.500000  0.504932  0.500000  1
  Si  Si14  1  0.500000  0.992016  0.500000  1
  Si  Si15  1  0.500000  0.757984  0.500000  1
  O  O16  1  0.287706  0.000412  0.277708  1
  O  O17  1  0.271563  0.247260  0.241078  1
  O  O18  1  0.718637  0.109833  0.269669  1
  O  O19  1  0.727603  0.375000  0.260949  1
  O  O20  1  0.281363  0.109833  0.730331  1
  O  O21  1  0.271563  0.502740  0.241078  1
  O  O22  1  0.712294  0.000412  0.722292  1
  O  O23  1  0.272397  0.375000  0.739051  1
  O  O24  1  0.287706  0.749588  0.277708  1
  O  O25  1  0.718637  0.640167  0.269669  1
  O  O26  1  0.728437  0.247260  0.758922  1
  O  O27  1  0.728437  0.502740  0.758922  1
  O  O28  1  0.281363  0.640167  0.730331  1
  O  O29  1  0.714048  0.875000  0.293450  1
  O  O30  1  0.712294  0.749588  0.722292  1
  O  O31  1  0.285952  0.875000  0.706550  1
