# generated using pymatgen
data_Na2TbO3
_symmetry_space_group_name_H-M   'P 1'
_cell_length_a   8.40923621
_cell_length_b   7.22604617
_cell_length_c   27.34971685
_cell_angle_alpha   92.83644551
_cell_angle_beta   108.31756327
_cell_angle_gamma   125.60974325
_symmetry_Int_Tables_number   1
_chemical_formula_structural   Na2TbO3
_chemical_formula_sum   'Na32 Tb16 O48'
_cell_volume   1223.10756007
_cell_formula_units_Z   16
loop_
 _symmetry_equiv_pos_site_id
 _symmetry_equiv_pos_as_xyz
  1  'x, y, z'
loop_
 _atom_site_type_symbol
 _atom_site_label
 _atom_site_symmetry_multiplicity
 _atom_site_fract_x
 _atom_site_fract_y
 _atom_site_fract_z
 _atom_site_occupancy
  Tb  Tb0  1  0.041449  0.928686  0.814520  1
  Tb  Tb1  1  0.079114  0.936325  0.560320  1
  Tb  Tb2  1  0.106700  0.960491  0.312945  1
  Tb  Tb3  1  0.022591  0.880644  0.066737  1
  Tb  Tb4  1  0.197400  0.734513  0.190691  1
  Tb  Tb5  1  0.440151  0.546737  0.812641  1
  Tb  Tb6  1  0.423288  0.564743  0.558537  1
  Tb  Tb7  1  0.414506  0.577263  0.307948  1
  Tb  Tb8  1  0.585494  0.422737  0.942052  1
  Tb  Tb9  1  0.576712  0.435257  0.691463  1
  Tb  Tb10  1  0.559849  0.453263  0.437359  1
  Tb  Tb11  1  0.893300  0.039509  0.937055  1
  Tb  Tb12  1  0.802600  0.265487  0.059309  1
  Tb  Tb13  1  0.920886  0.063675  0.689680  1
  Tb  Tb14  1  0.958551  0.071314  0.435480  1
  Tb  Tb15  1  0.977409  0.119356  0.183263  1
  Na  Na16  1  0.063893  0.554975  0.993697  1
  Na  Na17  1  0.299231  0.872135  0.937853  1
  Na  Na18  1  0.233854  0.739062  0.686092  1
  Na  Na19  1  0.481596  -0.025688  0.862675  1
  Na  Na20  1  0.168627  0.430593  0.879145  1
  Na  Na21  1  0.210657  0.744367  0.439733  1
  Na  Na22  1  0.500000  0.000000  0.625000  1
  Na  Na23  1  0.151458  0.395223  0.620031  1
  Na  Na24  1  0.518404  0.025688  0.387325  1
  Na  Na25  1  0.154291  0.410835  0.372096  1
  Na  Na26  1  0.591553  0.795957  -0.008205  1
  Na  Na27  1  0.500000  0.000000  0.125000  1
  Na  Na28  1  0.265829  0.425606  0.125420  1
  Na  Na29  1  0.621926  0.868833  0.743762  1
  Na  Na30  1  0.367012  0.093451  0.759990  1
  Na  Na31  1  0.632988  0.906549  0.490010  1
  Na  Na32  1  0.378074  0.131167  0.506238  1
  Na  Na33  1  0.423901  0.615357  0.058136  1
  Na  Na34  1  0.655740  0.839168  0.231094  1
  Na  Na35  1  0.408447  0.204043  0.258205  1
  Na  Na36  1  0.845709  0.589165  0.877904  1
  Na  Na37  1  0.344260  0.160832  0.018906  1
  Na  Na38  1  0.848542  0.604777  0.629969  1
  Na  Na39  1  0.576099  0.384643  0.191864  1
  Na  Na40  1  0.789343  0.255633  0.810267  1
  Na  Na41  1  0.831373  0.569407  0.370855  1
  Na  Na42  1  0.766146  0.260938  0.563908  1
  Na  Na43  1  0.734171  0.574394  0.124580  1
  Na  Na44  1  0.013612  0.516291  0.754010  1
  Na  Na45  1  0.700769  0.127865  0.312147  1
  Na  Na46  1  -0.013612  0.483709  0.495990  1
  Na  Na47  1  0.936107  0.445025  0.256303  1
  O  O48  1  0.109612  0.697133  0.849000  1
  O  O49  1  0.107783  0.681643  0.595289  1
  O  O50  1  0.378266  0.778961  0.775503  1
  O  O51  1  0.048084  0.226473  0.778763  1
  O  O52  1  0.124457  0.686747  0.346720  1
  O  O53  1  0.393111  0.833373  0.532407  1
  O  O54  1  0.284016  0.380008  0.962760  1
  O  O55  1  0.063493  0.227575  0.526106  1
  O  O56  1  0.128871  0.649956  0.097419  1
  O  O57  1  0.337892  0.830808  0.291886  1
  O  O58  1  0.282651  0.357145  0.704697  1
  O  O59  1  0.068011  0.234647  0.277686  1
  O  O60  1  0.221152  0.152414  0.929121  1
  O  O61  1  0.440022  0.915213  0.025871  1
  O  O62  1  0.326711  0.446860  0.465368  1
  O  O63  1  0.543208  0.691450  0.902317  1
  O  O64  1  0.002930  0.187973  0.028170  1
  O  O65  1  0.199196  0.121229  0.669854  1
  O  O66  1  0.414882  0.241270  0.847060  1
  O  O67  1  0.306380  0.502662  0.214875  1
  O  O68  1  0.559964  0.726032  0.652633  1
  O  O69  1  0.807511  0.912457  0.843771  1
  O  O70  1  0.192489  0.087543  0.406229  1
  O  O71  1  0.440036  0.273968  0.597367  1
  O  O72  1  0.585118  0.758730  0.402940  1
  O  O73  1  0.800804  0.878771  0.580146  1
  O  O74  1  0.172084  0.027016  0.162324  1
  O  O75  1  0.456792  0.308550  0.347683  1
  O  O76  1  0.673289  0.553140  0.784632  1
  O  O77  1  0.625107  0.781389  0.147477  1
  O  O78  1  0.778848  0.847586  0.320879  1
  O  O79  1  0.931989  0.765353  0.972314  1
  O  O80  1  0.374893  0.218611  0.102523  1
  O  O81  1  0.717348  0.642855  0.545303  1
  O  O82  1  0.662108  0.169192  0.958114  1
  O  O83  1  0.827916  0.972984  0.087677  1
  O  O84  1  0.936507  0.772425  0.723894  1
  O  O85  1  0.715984  0.619992  0.287240  1
  O  O86  1  0.606889  0.166627  0.717593  1
  O  O87  1  0.875543  0.313253  0.903280  1
  O  O88  1  0.951916  0.773527  0.471237  1
  O  O89  1  0.693620  0.497338  0.035125  1
  O  O90  1  0.621734  0.221039  0.474497  1
  O  O91  1  0.892217  0.318357  0.654711  1
  O  O92  1  -0.002930  0.812027  0.221830  1
  O  O93  1  0.559979  0.084787  0.224129  1
  O  O94  1  0.890388  0.302867  0.401000  1
  O  O95  1  0.871129  0.350044  0.152581  1
