# generated using pymatgen
data_Li6VCrP2(CO7)2
_symmetry_space_group_name_H-M   'P 1'
_cell_length_a   8.56425730
_cell_length_b   4.99675421
_cell_length_c   6.53157815
_cell_angle_alpha   90.00000000
_cell_angle_beta   90.00000000
_cell_angle_gamma   85.37058442
_symmetry_Int_Tables_number   1
_chemical_formula_structural   Li6VCrP2(CO7)2
_chemical_formula_sum   'Li6 V1 Cr1 P2 C2 O14'
_cell_volume   278.59713789
_cell_formula_units_Z   1
loop_
 _symmetry_equiv_pos_site_id
 _symmetry_equiv_pos_as_xyz
  1  'x, y, z'
loop_
 _atom_site_type_symbol
 _atom_site_label
 _atom_site_symmetry_multiplicity
 _atom_site_fract_x
 _atom_site_fract_y
 _atom_site_fract_z
 _atom_site_occupancy
  Li  Li0  1  0.090899  0.760801  0.250000  1
  Li  Li1  1  0.275155  0.247265  0.024424  1
  Li  Li2  1  0.275155  0.247265  0.475576  1
  Li  Li3  1  0.724875  0.753079  0.529408  1
  Li  Li4  1  0.724875  0.753079  0.970592  1
  Li  Li5  1  0.905418  0.240983  0.750000  1
  V  V6  1  0.670324  0.207169  0.250000  1
  Cr  Cr7  1  0.335907  0.784160  0.750000  1
  P  P8  1  0.412835  0.717128  0.250000  1
  P  P9  1  0.590521  0.281092  0.750000  1
  C  C10  1  0.031225  0.705965  0.750000  1
  C  C11  1  0.964689  0.298896  0.250000  1
  O  O12  1  0.064610  0.952866  0.750000  1
  O  O13  1  0.110896  0.354029  0.250000  1
  O  O14  1  0.145640  0.515653  0.750000  1
  O  O15  1  0.311308  0.824302  0.063540  1
  O  O16  1  0.311308  0.824302  0.436460  1
  O  O17  1  0.421542  0.188631  0.750000  1
  O  O18  1  0.429003  0.404244  0.250000  1
  O  O19  1  0.579150  0.594059  0.750000  1
  O  O20  1  0.578017  0.818376  0.250000  1
  O  O21  1  0.690398  0.169708  0.933908  1
  O  O22  1  0.690398  0.169708  0.566092  1
  O  O23  1  0.853425  0.492319  0.250000  1
  O  O24  1  0.887295  0.640990  0.750000  1
  O  O25  1  0.925132  0.053928  0.250000  1
