# generated using pymatgen
data_FeSn3(PO4)6
_symmetry_space_group_name_H-M   'P 1'
_cell_length_a   9.04291257
_cell_length_b   9.04291349
_cell_length_c   9.04291282
_cell_angle_alpha   58.25472386
_cell_angle_beta   58.25472016
_cell_angle_gamma   58.25472551
_symmetry_Int_Tables_number   1
_chemical_formula_structural   FeSn3(PO4)6
_chemical_formula_sum   'Fe1 Sn3 P6 O24'
_cell_volume   501.98496917
_cell_formula_units_Z   1
loop_
 _symmetry_equiv_pos_site_id
 _symmetry_equiv_pos_as_xyz
  1  'x, y, z'
loop_
 _atom_site_type_symbol
 _atom_site_label
 _atom_site_symmetry_multiplicity
 _atom_site_fract_x
 _atom_site_fract_y
 _atom_site_fract_z
 _atom_site_occupancy
  Fe  Fe0  1  0.855690  0.855690  0.855690  1
  Sn  Sn1  1  0.144436  0.144436  0.144436  1
  Sn  Sn2  1  0.355939  0.355939  0.355939  1
  Sn  Sn3  1  0.643051  0.643051  0.643051  1
  P  P4  1  0.038677  0.747140  0.465425  1
  P  P5  1  0.465425  0.038677  0.747140  1
  P  P6  1  0.747140  0.465425  0.038677  1
  P  P7  1  0.244707  0.543392  0.962918  1
  P  P8  1  0.543392  0.962918  0.244707  1
  P  P9  1  0.962918  0.244707  0.543392  1
  O  O10  1  0.131152  0.270109  0.517477  1
  O  O11  1  0.270109  0.517477  0.131152  1
  O  O12  1  0.061163  0.919856  0.289787  1
  O  O13  1  0.517477  0.131152  0.270109  1
  O  O14  1  0.216192  0.576786  0.444180  1
  O  O15  1  0.005257  0.778152  0.633796  1
  O  O16  1  0.289787  0.061163  0.919856  1
  O  O17  1  0.444180  0.216192  0.576786  1
  O  O18  1  0.576786  0.444180  0.216192  1
  O  O19  1  0.219741  0.374788  0.987187  1
  O  O20  1  0.072294  0.716469  0.937881  1
  O  O21  1  0.374788  0.987187  0.219741  1
  O  O22  1  0.633796  0.005257  0.778152  1
  O  O23  1  0.919856  0.289787  0.061163  1
  O  O24  1  0.778152  0.633796  0.005257  1
  O  O25  1  0.409992  0.574363  0.780863  1
  O  O26  1  0.574363  0.780863  0.409992  1
  O  O27  1  0.716469  0.937881  0.072294  1
  O  O28  1  0.987187  0.219741  0.374788  1
  O  O29  1  0.780863  0.409992  0.574363  1
  O  O30  1  0.489576  0.872848  0.718714  1
  O  O31  1  0.937881  0.072294  0.716469  1
  O  O32  1  0.718714  0.489576  0.872848  1
  O  O33  1  0.872848  0.718714  0.489576  1
