# generated using pymatgen
data_CaCuSiH2O5
_symmetry_space_group_name_H-M   'P 1'
_cell_length_a   5.09815975
_cell_length_b   16.32184533
_cell_length_c   5.41040467
_cell_angle_alpha   90.00000000
_cell_angle_beta   103.06399357
_cell_angle_gamma   90.00000000
_symmetry_Int_Tables_number   1
_chemical_formula_structural   CaCuSiH2O5
_chemical_formula_sum   'Ca4 Cu4 Si4 H8 O20'
_cell_volume   438.55504262
_cell_formula_units_Z   4
loop_
 _symmetry_equiv_pos_site_id
 _symmetry_equiv_pos_as_xyz
  1  'x, y, z'
loop_
 _atom_site_type_symbol
 _atom_site_label
 _atom_site_symmetry_multiplicity
 _atom_site_fract_x
 _atom_site_fract_y
 _atom_site_fract_z
 _atom_site_occupancy
  Ca  Ca0  1  0.651723  0.323696  0.844131  1
  Ca  Ca1  1  0.348277  0.823696  0.655869  1
  Ca  Ca2  1  0.348277  0.676304  0.155869  1
  Ca  Ca3  1  0.651723  0.176304  0.344131  1
  Cu  Cu4  1  0.000000  0.500000  0.000000  1
  Cu  Cu5  1  0.000000  0.000000  0.500000  1
  Cu  Cu6  1  0.500000  0.500000  0.500000  1
  Cu  Cu7  1  0.500000  0.000000  0.000000  1
  Si  Si8  1  0.981021  0.389455  0.468946  1
  Si  Si9  1  0.018979  0.889455  0.031054  1
  Si  Si10  1  0.018979  0.610545  0.531054  1
  Si  Si11  1  0.981021  0.110545  0.968946  1
  H  H12  1  0.333063  0.173529  0.750813  1
  H  H13  1  0.666937  0.673529  0.749187  1
  H  H14  1  0.666937  0.826471  0.249187  1
  H  H15  1  0.333063  0.326471  0.250813  1
  H  H16  1  0.171187  0.244811  0.572215  1
  H  H17  1  0.828813  0.744811  0.927785  1
  H  H18  1  0.828813  0.755189  0.427785  1
  H  H19  1  0.171187  0.255189  0.072215  1
  O  O20  1  0.900078  0.295116  0.524884  1
  O  O21  1  0.099922  0.795116  0.975116  1
  O  O22  1  0.099922  0.704884  0.475116  1
  O  O23  1  0.900078  0.204884  0.024884  1
  O  O24  1  0.848005  0.413967  0.172008  1
  O  O25  1  0.151995  0.913967  0.327992  1
  O  O26  1  0.151995  0.586033  0.827992  1
  O  O27  1  0.848005  0.086033  0.672008  1
  O  O28  1  0.312799  0.396872  0.535972  1
  O  O29  1  0.687201  0.896872  0.964028  1
  O  O30  1  0.687201  0.603128  0.464028  1
  O  O31  1  0.312799  0.103128  0.035972  1
  O  O32  1  0.842637  0.445349  0.667660  1
  O  O33  1  0.157363  0.945349  0.832340  1
  O  O34  1  0.157363  0.554651  0.332340  1
  O  O35  1  0.842637  0.054651  0.167660  1
  O  O36  1  0.350631  0.287096  0.116585  1
  O  O37  1  0.649369  0.787096  0.383415  1
  O  O38  1  0.649369  0.712904  0.883415  1
  O  O39  1  0.350631  0.212904  0.616585  1
