# generated using pymatgen
data_LiFe3OF5
_symmetry_space_group_name_H-M   'P 1'
_cell_length_a   6.27619224
_cell_length_b   6.24976434
_cell_length_c   6.18370011
_cell_angle_alpha   91.54331559
_cell_angle_beta   91.42005085
_cell_angle_gamma   91.82180964
_symmetry_Int_Tables_number   1
_chemical_formula_structural   LiFe3OF5
_chemical_formula_sum   'Li2 Fe6 O2 F10'
_cell_volume   242.26357498
_cell_formula_units_Z   2
loop_
 _symmetry_equiv_pos_site_id
 _symmetry_equiv_pos_as_xyz
  1  'x, y, z'
loop_
 _atom_site_type_symbol
 _atom_site_label
 _atom_site_symmetry_multiplicity
 _atom_site_fract_x
 _atom_site_fract_y
 _atom_site_fract_z
 _atom_site_occupancy
  Li  Li0  1  0.499473  0.507606  0.492614  1
  Li  Li1  1  0.013038  0.014833  0.002477  1
  Fe  Fe2  1  0.442158  0.912455  0.727798  1
  Fe  Fe3  1  0.239998  0.547408  0.060425  1
  Fe  Fe4  1  0.075891  0.267421  0.588281  1
  Fe  Fe5  1  0.903457  0.760613  0.436357  1
  Fe  Fe6  1  0.763813  0.423323  0.932966  1
  Fe  Fe7  1  0.565004  0.053077  0.257129  1
  O  O8  1  0.063709  0.324989  0.907756  1
  O  O9  1  0.595794  0.822205  0.463972  1
  F  F10  1  0.094474  0.913160  0.687891  1
  F  F11  1  0.311484  0.895552  0.065033  1
  F  F12  1  0.176860  0.558292  0.397304  1
  F  F13  1  0.479479  0.581818  0.826296  1
  F  F14  1  0.542712  0.382380  0.186134  1
  F  F15  1  0.397762  0.200714  0.545454  1
  F  F16  1  0.911095  0.705971  0.089165  1
  F  F17  1  0.799767  0.457133  0.582265  1
  F  F18  1  0.678345  0.072116  0.932176  1
  F  F19  1  0.945688  0.098933  0.318505  1
