# generated using pymatgen
data_Li6V3P8O29
_symmetry_space_group_name_H-M   'P 1'
_cell_length_a   9.83837473
_cell_length_b   9.81656474
_cell_length_c   14.03662729
_cell_angle_alpha   89.54656676
_cell_angle_beta   90.11139512
_cell_angle_gamma   59.86689120
_symmetry_Int_Tables_number   1
_chemical_formula_structural   Li6V3P8O29
_chemical_formula_sum   'Li12 V6 P16 O58'
_cell_volume   1172.38013278
_cell_formula_units_Z   2
loop_
 _symmetry_equiv_pos_site_id
 _symmetry_equiv_pos_as_xyz
  1  'x, y, z'
loop_
 _atom_site_type_symbol
 _atom_site_label
 _atom_site_symmetry_multiplicity
 _atom_site_fract_x
 _atom_site_fract_y
 _atom_site_fract_z
 _atom_site_occupancy
  Li  Li0  1  0.896360  0.759344  0.062197  1
  Li  Li1  1  0.765147  0.901695  0.561163  1
  Li  Li2  1  0.905006  0.329486  0.557254  1
  Li  Li3  1  0.765849  0.327667  0.056935  1
  Li  Li4  1  0.331931  0.901772  0.060609  1
  Li  Li5  1  0.682994  0.230475  0.437763  1
  Li  Li6  1  0.343752  0.757840  0.562059  1
  Li  Li7  1  0.324185  0.339233  0.607996  1
  Li  Li8  1  0.336884  0.339424  0.108337  1
  Li  Li9  1  0.086559  0.229716  0.939245  1
  Li  Li10  1  0.980437  0.969018  0.997197  1
  Li  Li11  1  0.050646  0.969220  0.498551  1
  V  V12  1  0.560764  0.441136  0.247888  1
  V  V13  1  0.432888  0.565002  0.757365  1
  V  V14  1  0.566472  0.998974  0.749526  1
  V  V15  1  0.438727  0.998569  0.249725  1
  V  V16  1  0.001717  0.564886  0.256008  1
  V  V17  1  0.998315  0.440256  0.747525  1
  P  P18  1  0.913491  0.772695  0.843465  1
  P  P19  1  0.772575  0.915686  0.343995  1
  P  P20  1  0.914547  0.309539  0.343039  1
  P  P21  1  0.669779  0.666080  0.129407  1
  P  P22  1  0.663545  0.665272  0.629961  1
  P  P23  1  0.777152  0.308333  0.843026  1
  P  P24  1  0.680281  0.229570  0.658778  1
  P  P25  1  0.313137  0.915731  0.844804  1
  P  P26  1  0.692550  0.088152  0.158862  1
  P  P27  1  0.313089  0.773934  0.344579  1
  P  P28  1  0.214180  0.697434  0.161329  1
  P  P29  1  0.337605  0.329637  0.367959  1
  P  P30  1  0.332982  0.330683  0.868295  1
  P  P31  1  0.088134  0.697519  0.660776  1
  P  P32  1  0.220614  0.087177  0.659303  1
  P  P33  1  0.090920  0.228073  0.159434  1
  O  O34  1  0.990442  0.803870  0.580964  1
  O  O35  1  0.914603  0.751099  0.337129  1
  O  O36  1  0.799722  0.988312  0.081374  1
  O  O37  1  0.745699  0.914320  0.826064  1
  O  O38  1  0.911363  0.618503  0.829718  1
  O  O39  1  0.816423  0.666607  0.173961  1
  O  O40  1  0.912139  0.466920  0.331855  1
  O  O41  1  0.997483  0.237616  0.071591  1
  O  O42  1  0.920213  0.333002  0.835617  1
  O  O43  1  0.668811  0.813543  0.664365  1
  O  O44  1  0.620033  0.910399  0.327491  1
  O  O45  1  0.815826  0.514514  0.672326  1
  O  O46  1  0.678951  0.658818  0.023598  1
  O  O47  1  0.663345  0.654267  0.524228  1
  O  O48  1  0.668174  0.516266  0.171136  1
  O  O49  1  0.468137  0.913048  0.827275  1
  O  O50  1  0.517149  0.815336  0.165650  1
  O  O51  1  0.747177  0.333458  0.334493  1
  O  O52  1  0.789361  0.203724  0.750394  1
  O  O53  1  0.763932  0.238196  0.570763  1
  O  O54  1  0.790790  0.218602  0.932998  1
  O  O55  1  0.622381  0.466272  0.832292  1
  O  O56  1  0.517334  0.665312  0.674948  1
  O  O57  1  0.657627  0.260569  0.152973  1
  O  O58  1  0.467506  0.614738  0.330905  1
  O  O59  1  0.340817  0.911811  0.328347  1
  O  O60  1  0.784186  0.021077  0.259043  1
  O  O61  1  0.768300  0.998411  0.435329  1
  O  O62  1  0.214729  0.987217  0.581188  1
  O  O63  1  0.658080  0.084231  0.654751  1
  O  O64  1  0.516687  0.377547  0.671852  1
  O  O65  1  0.336810  0.750399  0.838490  1
  O  O66  1  0.487435  0.328094  0.326913  1
  O  O67  1  0.368043  0.532167  0.168266  1
  O  O68  1  0.207434  0.800853  0.080285  1
  O  O69  1  0.235772  0.784504  0.438116  1
  O  O70  1  0.195563  0.786858  0.260165  1
  O  O71  1  0.257721  0.665778  0.658671  1
  O  O72  1  0.477837  0.190652  0.823082  1
  O  O73  1  0.531020  0.096220  0.165303  1
  O  O74  1  0.328643  0.482953  0.827277  1
  O  O75  1  0.327354  0.329254  0.974603  1
  O  O76  1  0.344097  0.325598  0.474360  1
  O  O77  1  0.189169  0.480411  0.327148  1
  O  O78  1  0.375515  0.093929  0.666628  1
  O  O79  1  0.335432  0.186003  0.322818  1
  O  O80  1  0.075521  0.666418  0.158855  1
  O  O81  1  0.018557  0.786106  0.760800  1
  O  O82  1  0.976628  0.785011  0.937900  1
  O  O83  1  0.096707  0.533753  0.666795  1
  O  O84  1  0.182990  0.331527  0.825916  1
  O  O85  1  0.106925  0.376278  0.172322  1
  O  O86  1  0.257838  0.083110  0.155541  1
  O  O87  1  0.231254  0.998495  0.935510  1
  O  O88  1  0.195921  0.020484  0.758988  1
  O  O89  1  0.083278  0.259348  0.652686  1
  O  O90  1  0.989200  0.221449  0.433858  1
  O  O91  1  0.008508  0.203472  0.251627  1
