# generated using pymatgen
data_Na3CrPCO7
_symmetry_space_group_name_H-M   'P 1'
_cell_length_a   9.16395334
_cell_length_b   6.66118174
_cell_length_c   5.30382022
_cell_angle_alpha   90.00000000
_cell_angle_beta   87.97202223
_cell_angle_gamma   90.00000000
_symmetry_Int_Tables_number   1
_chemical_formula_structural   Na3CrPCO7
_chemical_formula_sum   'Na6 Cr2 P2 C2 O14'
_cell_volume   323.55703617
_cell_formula_units_Z   2
loop_
 _symmetry_equiv_pos_site_id
 _symmetry_equiv_pos_as_xyz
  1  'x, y, z'
loop_
 _atom_site_type_symbol
 _atom_site_label
 _atom_site_symmetry_multiplicity
 _atom_site_fract_x
 _atom_site_fract_y
 _atom_site_fract_z
 _atom_site_occupancy
  Na  Na0  1  0.083902  0.250000  0.771660  1
  Na  Na1  1  0.263357  0.003261  0.246278  1
  Na  Na2  1  0.263357  0.496739  0.246278  1
  Na  Na3  1  0.736643  0.503261  0.753722  1
  Na  Na4  1  0.736643  0.996739  0.753722  1
  Na  Na5  1  0.916098  0.750000  0.228340  1
  Cr  Cr6  1  0.354412  0.750000  0.769602  1
  Cr  Cr7  1  0.645588  0.250000  0.230398  1
  P  P8  1  0.417595  0.250000  0.692904  1
  P  P9  1  0.582405  0.750000  0.307096  1
  C  C10  1  0.056172  0.750000  0.720855  1
  C  C11  1  0.943828  0.250000  0.279145  1
  O  O12  1  0.084788  0.250000  0.252107  1
  O  O13  1  0.135084  0.750000  0.922706  1
  O  O14  1  0.120426  0.750000  0.498973  1
  O  O15  1  0.323265  0.063830  0.773590  1
  O  O16  1  0.323265  0.436170  0.773590  1
  O  O17  1  0.436917  0.250000  0.398063  1
  O  O18  1  0.431653  0.750000  0.188459  1
  O  O19  1  0.568347  0.250000  0.811541  1
  O  O20  1  0.563083  0.750000  0.601937  1
  O  O21  1  0.676735  0.563830  0.226410  1
  O  O22  1  0.676735  0.936170  0.226410  1
  O  O23  1  0.879574  0.250000  0.501027  1
  O  O24  1  0.864916  0.250000  0.077294  1
  O  O25  1  0.915212  0.750000  0.747893  1
