# generated using pymatgen
data_CoH17S2N5ClO4
_symmetry_space_group_name_H-M   'P 1'
_cell_length_a   13.52081046
_cell_length_b   8.36685030
_cell_length_c   10.37744257
_cell_angle_alpha   90.00000000
_cell_angle_beta   90.00000000
_cell_angle_gamma   90.00000000
_symmetry_Int_Tables_number   1
_chemical_formula_structural   CoH17S2N5ClO4
_chemical_formula_sum   'Co4 H68 S8 N20 Cl4 O16'
_cell_volume   1173.96476406
_cell_formula_units_Z   4
loop_
 _symmetry_equiv_pos_site_id
 _symmetry_equiv_pos_as_xyz
  1  'x, y, z'
loop_
 _atom_site_type_symbol
 _atom_site_label
 _atom_site_symmetry_multiplicity
 _atom_site_fract_x
 _atom_site_fract_y
 _atom_site_fract_z
 _atom_site_occupancy
  Co  Co0  1  0.664696  0.250000  0.245553  1
  Co  Co1  1  0.164696  0.250000  0.254447  1
  Co  Co2  1  0.335304  0.750000  0.754447  1
  Co  Co3  1  0.835304  0.750000  0.745553  1
  H  H4  1  0.593803  0.150944  0.464802  1
  H  H5  1  0.093803  0.349056  0.035198  1
  H  H6  1  0.406197  0.650944  0.535198  1
  H  H7  1  0.906197  0.849056  0.964802  1
  H  H8  1  0.406197  0.849056  0.535198  1
  H  H9  1  0.906197  0.650944  0.964802  1
  H  H10  1  0.593803  0.349056  0.464802  1
  H  H11  1  0.093803  0.150944  0.035198  1
  H  H12  1  0.697007  0.250000  0.487632  1
  H  H13  1  0.197007  0.250000  0.012368  1
  H  H14  1  0.302993  0.750000  0.512368  1
  H  H15  1  0.802993  0.750000  0.987632  1
  H  H16  1  0.583479  0.971929  0.167079  1
  H  H17  1  0.083479  0.528071  0.332921  1
  H  H18  1  0.416521  0.471929  0.832921  1
  H  H19  1  0.916521  0.028071  0.667079  1
  H  H20  1  0.416521  0.028071  0.832921  1
  H  H21  1  0.916521  0.471929  0.667079  1
  H  H22  1  0.583479  0.528071  0.167079  1
  H  H23  1  0.083479  0.971929  0.332921  1
  H  H24  1  0.511928  0.046590  0.282203  1
  H  H25  1  0.011928  0.453410  0.217797  1
  H  H26  1  0.488072  0.546590  0.717797  1
  H  H27  1  0.988072  0.953410  0.782203  1
  H  H28  1  0.488072  0.953410  0.717797  1
  H  H29  1  0.988072  0.546590  0.782203  1
  H  H30  1  0.511928  0.453410  0.282203  1
  H  H31  1  0.011928  0.046590  0.217797  1
  H  H32  1  0.506899  0.117701  0.134656  1
  H  H33  1  0.006899  0.382299  0.365344  1
  H  H34  1  0.493101  0.617701  0.865344  1
  H  H35  1  0.993101  0.882299  0.634656  1
  H  H36  1  0.493101  0.882299  0.865344  1
  H  H37  1  0.993101  0.617701  0.634656  1
  H  H38  1  0.506899  0.382299  0.134656  1
  H  H39  1  0.006899  0.117701  0.365344  1
  H  H40  1  0.730638  0.962495  0.310348  1
  H  H41  1  0.230638  0.537505  0.189652  1
  H  H42  1  0.269362  0.462495  0.689652  1
  H  H43  1  0.769362  0.037505  0.810348  1
  H  H44  1  0.269362  0.037505  0.689652  1
  H  H45  1  0.769362  0.462495  0.810348  1
  H  H46  1  0.730638  0.537505  0.310348  1
  H  H47  1  0.230638  0.962495  0.189652  1
  H  H48  1  0.811099  0.041282  0.208338  1
  H  H49  1  0.311099  0.458718  0.291662  1
  H  H50  1  0.188901  0.541282  0.791662  1
  H  H51  1  0.688901  0.958718  0.708338  1
  H  H52  1  0.188901  0.958718  0.791662  1
  H  H53  1  0.688901  0.541282  0.708338  1
  H  H54  1  0.811099  0.458718  0.208338  1
  H  H55  1  0.311099  0.041282  0.291662  1
  H  H56  1  0.810259  0.099519  0.361018  1
  H  H57  1  0.310259  0.400481  0.138982  1
  H  H58  1  0.189741  0.599519  0.638982  1
  H  H59  1  0.689741  0.900481  0.861018  1
  H  H60  1  0.189741  0.900481  0.638982  1
  H  H61  1  0.689741  0.599519  0.861018  1
  H  H62  1  0.810259  0.400481  0.361018  1
  H  H63  1  0.310259  0.099519  0.138982  1
  H  H64  1  0.588787  0.250000  0.825202  1
  H  H65  1  0.088787  0.250000  0.674798  1
  H  H66  1  0.411213  0.750000  0.174798  1
  H  H67  1  0.911213  0.750000  0.325202  1
  H  H68  1  0.511735  0.250000  0.715475  1
  H  H69  1  0.011735  0.250000  0.784525  1
  H  H70  1  0.488265  0.750000  0.284525  1
  H  H71  1  0.988265  0.750000  0.215475  1
  S  S72  1  0.702733  0.250000  0.030644  1
  S  S73  1  0.202733  0.250000  0.469356  1
  S  S74  1  0.297267  0.750000  0.969356  1
  S  S75  1  0.797267  0.750000  0.530644  1
  S  S76  1  0.855959  0.250000  0.001470  1
  S  S77  1  0.355959  0.250000  0.498530  1
  S  S78  1  0.144041  0.750000  0.998530  1
  S  S79  1  0.644041  0.750000  0.501470  1
  N  N80  1  0.632373  0.250000  0.435296  1
  N  N81  1  0.132373  0.250000  0.064704  1
  N  N82  1  0.367627  0.750000  0.564704  1
  N  N83  1  0.867627  0.750000  0.935296  1
  N  N84  1  0.554783  0.076351  0.204258  1
  N  N85  1  0.054783  0.423649  0.295742  1
  N  N86  1  0.445217  0.576351  0.795742  1
  N  N87  1  0.945217  0.923649  0.704258  1
  N  N88  1  0.445217  0.923649  0.795742  1
  N  N89  1  0.945217  0.576351  0.704258  1
  N  N90  1  0.554783  0.423649  0.204258  1
  N  N91  1  0.054783  0.076351  0.295742  1
  N  N92  1  0.765517  0.066733  0.284712  1
  N  N93  1  0.265517  0.433267  0.215288  1
  N  N94  1  0.234483  0.566733  0.715288  1
  N  N95  1  0.734483  0.933267  0.784712  1
  N  N96  1  0.234483  0.933267  0.715288  1
  N  N97  1  0.734483  0.566733  0.784712  1
  N  N98  1  0.765517  0.433267  0.284712  1
  N  N99  1  0.265517  0.066733  0.215288  1
  Cl  Cl100  1  0.897247  0.250000  0.512919  1
  Cl  Cl101  1  0.397247  0.250000  0.987081  1
  Cl  Cl102  1  0.102753  0.750000  0.487081  1
  Cl  Cl103  1  0.602753  0.750000  0.012919  1
  O  O104  1  0.861838  0.250000  0.858713  1
  O  O105  1  0.361838  0.250000  0.641287  1
  O  O106  1  0.138162  0.750000  0.141287  1
  O  O107  1  0.638162  0.750000  0.358713  1
  O  O108  1  0.898064  0.103221  0.058480  1
  O  O109  1  0.398064  0.396779  0.441520  1
  O  O110  1  0.101936  0.603221  0.941520  1
  O  O111  1  0.601936  0.896779  0.558480  1
  O  O112  1  0.101936  0.896779  0.941520  1
  O  O113  1  0.601936  0.603221  0.558480  1
  O  O114  1  0.898064  0.396779  0.058480  1
  O  O115  1  0.398064  0.103221  0.441520  1
  O  O116  1  0.583123  0.250000  0.731503  1
  O  O117  1  0.083123  0.250000  0.768497  1
  O  O118  1  0.416877  0.750000  0.268497  1
  O  O119  1  0.916877  0.750000  0.231503  1
