# generated using pymatgen
data_Li3Co3NiO8
_symmetry_space_group_name_H-M   'P 1'
_cell_length_a   5.85754834
_cell_length_b   5.77054772
_cell_length_c   5.89830079
_cell_angle_alpha   60.89682644
_cell_angle_beta   90.00000411
_cell_angle_gamma   120.50000292
_symmetry_Int_Tables_number   1
_chemical_formula_structural   Li3Co3NiO8
_chemical_formula_sum   'Li3 Co3 Ni1 O8'
_cell_volume   141.79618254
_cell_formula_units_Z   1
loop_
 _symmetry_equiv_pos_site_id
 _symmetry_equiv_pos_as_xyz
  1  'x, y, z'
loop_
 _atom_site_type_symbol
 _atom_site_label
 _atom_site_symmetry_multiplicity
 _atom_site_fract_x
 _atom_site_fract_y
 _atom_site_fract_z
 _atom_site_occupancy
  Li  Li0  1  0.000000  0.500000  0.500000  1
  Li  Li1  1  0.500000  0.000000  0.500000  1
  Li  Li2  1  0.500000  0.500000  0.500000  1
  Co  Co3  1  0.000000  0.500000  0.000000  1
  Co  Co4  1  0.500000  0.000000  0.000000  1
  Co  Co5  1  0.500000  0.500000  0.000000  1
  Ni  Ni6  1  0.000000  0.000000  0.000000  1
  O  O7  1  0.281740  0.023983  0.212109  1
  O  O8  1  0.269874  0.539749  0.219624  1
  O  O9  1  0.742243  0.023983  0.212109  1
  O  O10  1  0.752285  0.504568  0.227400  1
  O  O11  1  0.247715  0.495432  0.772600  1
  O  O12  1  0.257757  0.976017  0.787891  1
  O  O13  1  0.730126  0.460251  0.780376  1
  O  O14  1  0.718260  0.976017  0.787891  1
