# generated using pymatgen
data_Ca7Si6H4CO23
_symmetry_space_group_name_H-M   'P 1'
_cell_length_a   9.47463257
_cell_length_b   9.47463257
_cell_length_c   6.70551116
_cell_angle_alpha   75.25843828
_cell_angle_beta   104.74156172
_cell_angle_gamma   72.04371739
_symmetry_Int_Tables_number   1
_chemical_formula_structural   Ca7Si6H4CO23
_chemical_formula_sum   'Ca7 Si6 H4 C1 O23'
_cell_volume   516.24746948
_cell_formula_units_Z   1
loop_
 _symmetry_equiv_pos_site_id
 _symmetry_equiv_pos_as_xyz
  1  'x, y, z'
loop_
 _atom_site_type_symbol
 _atom_site_label
 _atom_site_symmetry_multiplicity
 _atom_site_fract_x
 _atom_site_fract_y
 _atom_site_fract_z
 _atom_site_occupancy
  Ca  Ca0  1  0.999456  0.000544  0.464073  1
  Ca  Ca1  1  0.059186  0.670425  0.997231  1
  Ca  Ca2  1  0.329575  0.940814  0.997231  1
  Ca  Ca3  1  0.739094  0.758975  0.484370  1
  Ca  Ca4  1  0.241025  0.260906  0.484370  1
  Ca  Ca5  1  0.626849  0.082430  0.975202  1
  Ca  Ca6  1  0.917570  0.373151  0.975202  1
  Si  Si7  1  0.613651  0.178231  0.421872  1
  Si  Si8  1  0.821769  0.386349  0.421872  1
  Si  Si9  1  0.311694  0.335896  0.982082  1
  Si  Si10  1  0.664104  0.688306  0.982082  1
  Si  Si11  1  0.159866  0.629378  0.553903  1
  Si  Si12  1  0.370622  0.840134  0.553903  1
  H  H13  1  0.315473  0.684527  0.287907  1
  H  H14  1  0.427789  0.572211  0.197559  1
  H  H15  1  0.656265  0.343735  0.701349  1
  H  H16  1  0.568803  0.431197  0.840307  1
  C  C17  1  0.002160  0.997840  0.000174  1
  O  O18  1  0.728918  0.028467  0.382487  1
  O  O19  1  0.971533  0.271082  0.382487  1
  O  O20  1  0.719817  0.280183  0.503215  1
  O  O21  1  0.481887  0.299082  0.172437  1
  O  O22  1  0.700918  0.518113  0.172437  1
  O  O23  1  0.526550  0.148392  0.595947  1
  O  O24  1  0.851608  0.473450  0.595947  1
  O  O25  1  0.337430  0.191505  0.886468  1
  O  O26  1  0.808495  0.662570  0.886468  1
  O  O27  1  0.167627  0.378526  0.075393  1
  O  O28  1  0.621474  0.832373  0.075393  1
  O  O29  1  0.296175  0.496651  0.792520  1
  O  O30  1  0.503349  0.703825  0.792520  1
  O  O31  1  0.128557  0.546374  0.375477  1
  O  O32  1  0.453626  0.871443  0.375477  1
  O  O33  1  0.010481  0.734489  0.603198  1
  O  O34  1  0.265511  0.989519  0.603198  1
  O  O35  1  0.243963  0.756037  0.464123  1
  O  O36  1  0.903369  0.949563  0.069239  1
  O  O37  1  0.050437  0.096631  0.069239  1
  O  O38  1  0.062695  0.937305  0.870763  1
  O  O39  1  0.331587  0.668413  0.151205  1
  O  O40  1  0.660440  0.339560  0.853471  1
