# generated using pymatgen
data_Li5Co3(NiO5)2
_symmetry_space_group_name_H-M   'P 1'
_cell_length_a   4.89464035
_cell_length_b   5.01438213
_cell_length_c   7.55013629
_cell_angle_alpha   106.51936093
_cell_angle_beta   102.65287562
_cell_angle_gamma   101.60641576
_symmetry_Int_Tables_number   1
_chemical_formula_structural   Li5Co3(NiO5)2
_chemical_formula_sum   'Li5 Co3 Ni2 O10'
_cell_volume   166.32661815
_cell_formula_units_Z   1
loop_
 _symmetry_equiv_pos_site_id
 _symmetry_equiv_pos_as_xyz
  1  'x, y, z'
loop_
 _atom_site_type_symbol
 _atom_site_label
 _atom_site_symmetry_multiplicity
 _atom_site_fract_x
 _atom_site_fract_y
 _atom_site_fract_z
 _atom_site_occupancy
  Li  Li0  1  0.209187  0.922120  0.414533  1
  Li  Li1  1  0.389112  0.284155  0.776572  1
  Li  Li2  1  0.500000  0.500000  0.500000  1
  Li  Li3  1  0.610888  0.715845  0.223428  1
  Li  Li4  1  0.790813  0.077880  0.585467  1
  Co  Co5  1  0.000000  0.500000  0.000000  1
  Co  Co6  1  0.700170  0.897547  0.900048  1
  Co  Co7  1  0.299830  0.102453  0.099952  1
  Ni  Ni8  1  0.100618  0.695422  0.693267  1
  Ni  Ni9  1  0.899382  0.304578  0.306733  1
  O  O10  1  0.039715  0.121410  0.871662  1
  O  O11  1  0.332368  0.728502  0.949682  1
  O  O12  1  0.132245  0.305543  0.542264  1
  O  O13  1  0.229634  0.459473  0.229267  1
  O  O14  1  0.446530  0.897726  0.667689  1
  O  O15  1  0.553470  0.102274  0.332311  1
  O  O16  1  0.770366  0.540527  0.770733  1
  O  O17  1  0.867755  0.694457  0.457736  1
  O  O18  1  0.667632  0.271498  0.050318  1
  O  O19  1  0.960285  0.878590  0.128338  1
