# generated using pymatgen
data_Li2Bi2B2O7
_symmetry_space_group_name_H-M   'P 1'
_cell_length_a   8.81425924
_cell_length_b   8.60232390
_cell_length_c   7.77646278
_cell_angle_alpha   89.48537941
_cell_angle_beta   90.00000000
_cell_angle_gamma   120.81838720
_symmetry_Int_Tables_number   1
_chemical_formula_structural   Li2Bi2B2O7
_chemical_formula_sum   'Li6 Bi6 B6 O21'
_cell_volume   506.34873588
_cell_formula_units_Z   3
loop_
 _symmetry_equiv_pos_site_id
 _symmetry_equiv_pos_as_xyz
  1  'x, y, z'
loop_
 _atom_site_type_symbol
 _atom_site_label
 _atom_site_symmetry_multiplicity
 _atom_site_fract_x
 _atom_site_fract_y
 _atom_site_fract_z
 _atom_site_occupancy
  Li  Li0  1  0.328968  0.663441  0.274120  1
  Li  Li1  1  0.989424  0.005452  0.254297  1
  Li  Li2  1  0.983973  0.994548  0.745703  1
  Li  Li3  1  0.344599  0.659458  0.808279  1
  Li  Li4  1  0.665527  0.336559  0.725880  1
  Li  Li5  1  0.685140  0.340542  0.191721  1
  Bi  Bi6  1  0.062256  0.683202  0.994400  1
  Bi  Bi7  1  0.989611  0.729668  0.496646  1
  Bi  Bi8  1  0.379054  0.316798  0.005600  1
  Bi  Bi9  1  0.259943  0.270332  0.503354  1
  Bi  Bi10  1  0.691387  0.000000  0.500000  1
  Bi  Bi11  1  0.595009  0.000000  0.000000  1
  B  B12  1  0.001996  0.340119  0.741176  1
  B  B13  1  0.348076  0.994201  0.698937  1
  B  B14  1  0.662482  0.669263  0.761402  1
  B  B15  1  0.661877  0.659881  0.258824  1
  B  B16  1  0.353876  0.005799  0.301063  1
  B  B17  1  0.993219  0.330737  0.238598  1
  O  O18  1  0.172200  0.903476  0.758937  1
  O  O19  1  0.087239  0.518833  0.800013  1
  O  O20  1  0.258064  0.835938  0.373644  1
  O  O21  1  0.100932  0.255218  0.745354  1
  O  O22  1  0.165411  0.401869  0.292930  1
  O  O23  1  0.453614  0.917056  0.717693  1
  O  O24  1  0.332397  0.757960  0.041499  1
  O  O25  1  0.015585  0.000000  0.500000  1
  O  O26  1  0.487781  0.552006  0.813683  1
  O  O27  1  0.574342  0.740966  0.322639  1
  O  O28  1  0.268722  0.096524  0.241063  1
  O  O29  1  0.568405  0.481166  0.199987  1
  O  O30  1  0.422126  0.164062  0.626356  1
  O  O31  1  0.731465  0.855666  0.763106  1
  O  O32  1  0.845714  0.744782  0.254646  1
  O  O33  1  0.763542  0.598131  0.707070  1
  O  O34  1  0.536558  0.082944  0.282307  1
  O  O35  1  0.574438  0.242040  0.958501  1
  O  O36  1  0.935775  0.447994  0.186317  1
  O  O37  1  0.833377  0.259034  0.677361  1
  O  O38  1  0.875798  0.144334  0.236894  1
