# generated using pymatgen
data_Li4Mn3Fe(BO3)4
_symmetry_space_group_name_H-M   'P 1'
_cell_length_a   6.25005509
_cell_length_b   8.07214450
_cell_length_c   5.17509638
_cell_angle_alpha   88.80720920
_cell_angle_beta   87.69620477
_cell_angle_gamma   78.39409968
_symmetry_Int_Tables_number   1
_chemical_formula_structural   Li4Mn3Fe(BO3)4
_chemical_formula_sum   'Li4 Mn3 Fe1 B4 O12'
_cell_volume   255.52413981
_cell_formula_units_Z   1
loop_
 _symmetry_equiv_pos_site_id
 _symmetry_equiv_pos_as_xyz
  1  'x, y, z'
loop_
 _atom_site_type_symbol
 _atom_site_label
 _atom_site_symmetry_multiplicity
 _atom_site_fract_x
 _atom_site_fract_y
 _atom_site_fract_z
 _atom_site_occupancy
  Li  Li0  1  0.521776  0.150568  0.916568  1
  Li  Li1  1  0.019833  0.651486  0.415190  1
  Li  Li2  1  0.979080  0.347070  0.583829  1
  Li  Li3  1  0.482025  0.849476  0.085133  1
  Mn  Mn4  1  0.256180  0.509545  0.903690  1
  Mn  Mn5  1  0.743916  0.491014  0.095488  1
  Mn  Mn6  1  0.242277  0.989558  0.595330  1
  Fe  Fe7  1  0.754510  0.011685  0.411176  1
  B  B8  1  0.092980  0.166775  0.097726  1
  B  B9  1  0.407902  0.331220  0.399807  1
  B  B10  1  0.594780  0.668406  0.597589  1
  B  B11  1  0.903147  0.834209  0.903318  1
  O  O12  1  0.254936  0.042075  0.989869  1
  O  O13  1  0.010797  0.313316  0.957212  1
  O  O14  1  0.019653  0.150611  0.355372  1
  O  O15  1  0.495517  0.184781  0.539212  1
  O  O16  1  0.246354  0.454821  0.509561  1
  O  O17  1  0.478988  0.347865  0.142129  1
  O  O18  1  0.521065  0.652862  0.855319  1
  O  O19  1  0.755743  0.542396  0.490947  1
  O  O20  1  0.510356  0.813479  0.455957  1
  O  O21  1  0.971050  0.849945  0.642083  1
  O  O22  1  0.990164  0.687453  0.040939  1
  O  O23  1  0.746970  0.959382  0.016556  1
