# generated using pymatgen
data_Mg(NO3)2
_symmetry_space_group_name_H-M   'P 1'
_cell_length_a   7.53533763
_cell_length_b   15.32750275
_cell_length_c   7.46552242
_cell_angle_alpha   90.00000000
_cell_angle_beta   90.00000000
_cell_angle_gamma   90.00000000
_symmetry_Int_Tables_number   1
_chemical_formula_structural   Mg(NO3)2
_chemical_formula_sum   'Mg8 N16 O48'
_cell_volume   862.25222347
_cell_formula_units_Z   8
loop_
 _symmetry_equiv_pos_site_id
 _symmetry_equiv_pos_as_xyz
  1  'x, y, z'
loop_
 _atom_site_type_symbol
 _atom_site_label
 _atom_site_symmetry_multiplicity
 _atom_site_fract_x
 _atom_site_fract_y
 _atom_site_fract_z
 _atom_site_occupancy
  Mg  Mg0  1  0.019667  0.377737  0.787844  1
  Mg  Mg1  1  0.026114  0.873586  0.755613  1
  Mg  Mg2  1  0.473886  0.873586  0.255613  1
  Mg  Mg3  1  0.480333  0.377737  0.287845  1
  Mg  Mg4  1  0.519667  0.622263  0.787844  1
  Mg  Mg5  1  0.526114  0.126414  0.755613  1
  Mg  Mg6  1  0.973886  0.126414  0.255613  1
  Mg  Mg7  1  0.980333  0.622263  0.287845  1
  N  N8  1  0.138338  0.785690  0.093631  1
  N  N9  1  0.159793  0.293518  0.129596  1
  N  N10  1  0.170039  0.551704  0.937525  1
  N  N11  1  0.176697  0.047004  0.920397  1
  N  N12  1  0.323303  0.047004  0.420397  1
  N  N13  1  0.329961  0.551704  0.437525  1
  N  N14  1  0.340207  0.293518  0.629596  1
  N  N15  1  0.361662  0.785690  0.593631  1
  N  N16  1  0.638338  0.214310  0.093631  1
  N  N17  1  0.659793  0.706482  0.129596  1
  N  N18  1  0.670039  0.448296  0.937525  1
  N  N19  1  0.676697  0.952996  0.920397  1
  N  N20  1  0.823303  0.952996  0.420397  1
  N  N21  1  0.829961  0.448296  0.437525  1
  N  N22  1  0.840207  0.706482  0.629596  1
  N  N23  1  0.861662  0.214310  0.593631  1
  O  O24  1  0.041838  0.771843  0.958520  1
  O  O25  1  0.051180  0.050163  0.031530  1
  O  O26  1  0.039358  0.556495  0.042636  1
  O  O27  1  0.041545  0.236947  0.101056  1
  O  O28  1  0.140006  0.733849  0.224762  1
  O  O29  1  0.157476  0.364507  0.043433  1
  O  O30  1  0.172159  0.495288  0.814134  1
  O  O31  1  0.179927  0.986743  0.804484  1
  O  O32  1  0.235064  0.853382  0.096713  1
  O  O33  1  0.200935  0.603659  0.454301  1
  O  O34  1  0.200754  0.103133  0.423408  1
  O  O35  1  0.218952  0.280153  0.742288  1
  O  O36  1  0.281048  0.280153  0.242288  1
  O  O37  1  0.299246  0.103133  0.923408  1
  O  O38  1  0.299065  0.603659  0.954301  1
  O  O39  1  0.264936  0.853382  0.596713  1
  O  O40  1  0.320073  0.986743  0.304484  1
  O  O41  1  0.327841  0.495288  0.314134  1
  O  O42  1  0.342524  0.364507  0.543433  1
  O  O43  1  0.359994  0.733849  0.724762  1
  O  O44  1  0.458455  0.236947  0.601056  1
  O  O45  1  0.460642  0.556495  0.542636  1
  O  O46  1  0.448820  0.050163  0.531530  1
  O  O47  1  0.458162  0.771843  0.458520  1
  O  O48  1  0.541838  0.228157  0.958520  1
  O  O49  1  0.551180  0.949837  0.031530  1
  O  O50  1  0.539358  0.443505  0.042636  1
  O  O51  1  0.541545  0.763053  0.101056  1
  O  O52  1  0.640006  0.266151  0.224762  1
  O  O53  1  0.657476  0.635493  0.043433  1
  O  O54  1  0.672159  0.504712  0.814134  1
  O  O55  1  0.679927  0.013257  0.804484  1
  O  O56  1  0.735064  0.146618  0.096713  1
  O  O57  1  0.700935  0.396341  0.454301  1
  O  O58  1  0.700754  0.896867  0.423408  1
  O  O59  1  0.718952  0.719847  0.742288  1
  O  O60  1  0.781048  0.719847  0.242288  1
  O  O61  1  0.799246  0.896867  0.923408  1
  O  O62  1  0.799065  0.396341  0.954301  1
  O  O63  1  0.764936  0.146618  0.596713  1
  O  O64  1  0.820073  0.013257  0.304484  1
  O  O65  1  0.827841  0.504712  0.314134  1
  O  O66  1  0.842524  0.635493  0.543433  1
  O  O67  1  0.859994  0.266151  0.724762  1
  O  O68  1  0.958455  0.763053  0.601056  1
  O  O69  1  0.960642  0.443505  0.542636  1
  O  O70  1  0.948820  0.949837  0.531530  1
  O  O71  1  0.958162  0.228157  0.458520  1
