# generated using pymatgen
data_V12PbO30
_symmetry_space_group_name_H-M   'P 1'
_cell_length_a   8.13168940
_cell_length_b   7.34633929
_cell_length_c   10.29579862
_cell_angle_alpha   90.02892769
_cell_angle_beta   108.68226794
_cell_angle_gamma   76.96492143
_symmetry_Int_Tables_number   1
_chemical_formula_structural   V12PbO30
_chemical_formula_sum   'V12 Pb1 O30'
_cell_volume   565.91338032
_cell_formula_units_Z   1
loop_
 _symmetry_equiv_pos_site_id
 _symmetry_equiv_pos_as_xyz
  1  'x, y, z'
loop_
 _atom_site_type_symbol
 _atom_site_label
 _atom_site_symmetry_multiplicity
 _atom_site_fract_x
 _atom_site_fract_y
 _atom_site_fract_z
 _atom_site_occupancy
  V  V0  1  0.329752  0.167685  0.903075  1
  V  V1  1  0.327356  0.668064  0.900838  1
  V  V2  1  0.430416  0.142391  0.593775  1
  V  V3  1  0.429600  0.642705  0.592794  1
  V  V4  1  0.223588  0.444987  0.112400  1
  V  V5  1  0.228209  0.941844  0.113169  1
  V  V6  1  0.769234  0.057866  0.885987  1
  V  V7  1  0.758960  0.560110  0.880765  1
  V  V8  1  0.566260  0.859082  0.404577  1
  V  V9  1  0.566686  0.357546  0.404517  1
  V  V10  1  0.672786  0.330586  0.102242  1
  V  V11  1  0.673831  0.832704  0.102051  1
  Pb  Pb12  1  0.001292  0.504324  0.602597  1
  O  O13  1  0.132080  0.227292  0.783868  1
  O  O14  1  0.128062  0.704136  0.780276  1
  O  O15  1  0.376070  0.398624  0.949060  1
  O  O16  1  0.371418  0.914243  0.945745  1
  O  O17  1  0.213875  0.202460  0.536648  1
  O  O18  1  0.212647  0.690178  0.535014  1
  O  O19  1  0.001062  0.999765  0.001770  1
  O  O20  1  0.001872  0.499495  0.004551  1
  O  O21  1  0.218611  0.445480  0.269571  1
  O  O22  1  0.219970  0.944784  0.268894  1
  O  O23  1  0.476857  0.131109  0.779193  1
  O  O24  1  0.478673  0.630196  0.776100  1
  O  O25  1  0.489955  0.376437  0.572780  1
  O  O26  1  0.486720  0.879384  0.571256  1
  O  O27  1  0.269236  0.684540  0.075891  1
  O  O28  1  0.268605  0.181228  0.075143  1
  O  O29  1  0.733591  0.309727  0.929643  1
  O  O30  1  0.733582  0.823416  0.929648  1
  O  O31  1  0.510988  0.121980  0.424571  1
  O  O32  1  0.511037  0.622443  0.425160  1
  O  O33  1  0.526148  0.369731  0.220100  1
  O  O34  1  0.525323  0.867469  0.219627  1
  O  O35  1  0.784048  0.053984  0.732315  1
  O  O36  1  0.783437  0.554231  0.724766  1
  O  O37  1  0.784076  0.306803  0.465486  1
  O  O38  1  0.784089  0.801029  0.465613  1
  O  O39  1  0.628260  0.092480  0.056848  1
  O  O40  1  0.628224  0.593221  0.049312  1
  O  O41  1  0.868059  0.285487  0.216199  1
  O  O42  1  0.868655  0.780452  0.216468  1
