# generated using pymatgen
data_Li5Mn2P2(CO7)2
_symmetry_space_group_name_H-M   'P 1'
_cell_length_a   8.51274243
_cell_length_b   10.10881067
_cell_length_c   6.43606915
_cell_angle_alpha   90.00000000
_cell_angle_beta   90.00000000
_cell_angle_gamma   86.04100894
_symmetry_Int_Tables_number   1
_chemical_formula_structural   Li5Mn2P2(CO7)2
_chemical_formula_sum   'Li10 Mn4 P4 C4 O28'
_cell_volume   552.52593952
_cell_formula_units_Z   2
loop_
 _symmetry_equiv_pos_site_id
 _symmetry_equiv_pos_as_xyz
  1  'x, y, z'
loop_
 _atom_site_type_symbol
 _atom_site_label
 _atom_site_symmetry_multiplicity
 _atom_site_fract_x
 _atom_site_fract_y
 _atom_site_fract_z
 _atom_site_occupancy
  Li  Li0  1  0.095038  0.884065  0.250000  1
  Li  Li1  1  0.254040  0.136553  0.016885  1
  Li  Li2  1  0.254040  0.136553  0.483115  1
  Li  Li3  1  0.258381  0.619783  0.023059  1
  Li  Li4  1  0.258381  0.619783  0.476941  1
  Li  Li5  1  0.745960  0.363447  0.516885  1
  Li  Li6  1  0.745960  0.363447  0.983115  1
  Li  Li7  1  0.741619  0.880217  0.523059  1
  Li  Li8  1  0.741619  0.880217  0.976941  1
  Li  Li9  1  0.904962  0.615935  0.750000  1
  Mn  Mn10  1  0.342369  0.394918  0.750000  1
  Mn  Mn11  1  0.335770  0.896272  0.750000  1
  Mn  Mn12  1  0.657631  0.105082  0.250000  1
  Mn  Mn13  1  0.664230  0.603728  0.250000  1
  P  P14  1  0.417709  0.362128  0.250000  1
  P  P15  1  0.414678  0.860335  0.250000  1
  P  P16  1  0.582291  0.137872  0.750000  1
  P  P17  1  0.585322  0.639665  0.750000  1
  C  C18  1  0.041377  0.361470  0.750000  1
  C  C19  1  0.040826  0.851703  0.750000  1
  C  C20  1  0.958623  0.138530  0.250000  1
  C  C21  1  0.959174  0.648297  0.250000  1
  O  O22  1  0.079774  0.483224  0.750000  1
  O  O23  1  0.101470  0.169609  0.250000  1
  O  O24  1  0.076370  0.971625  0.750000  1
  O  O25  1  0.159360  0.268785  0.750000  1
  O  O26  1  0.103608  0.684425  0.250000  1
  O  O27  1  0.156146  0.756125  0.750000  1
  O  O28  1  0.325727  0.419367  0.059378  1
  O  O29  1  0.325727  0.419367  0.440622  1
  O  O30  1  0.312230  0.913667  0.063994  1
  O  O31  1  0.312230  0.913667  0.436006  1
  O  O32  1  0.410061  0.094122  0.750000  1
  O  O33  1  0.425554  0.207689  0.250000  1
  O  O34  1  0.418399  0.588270  0.750000  1
  O  O35  1  0.431277  0.706198  0.250000  1
  O  O36  1  0.574446  0.292311  0.750000  1
  O  O37  1  0.589939  0.405878  0.250000  1
  O  O38  1  0.568723  0.793802  0.750000  1
  O  O39  1  0.581601  0.911730  0.250000  1
  O  O40  1  0.674273  0.080633  0.940622  1
  O  O41  1  0.674273  0.080633  0.559378  1
  O  O42  1  0.687770  0.586333  0.563994  1
  O  O43  1  0.687770  0.586333  0.936006  1
  O  O44  1  0.840640  0.231215  0.250000  1
  O  O45  1  0.898530  0.330391  0.750000  1
  O  O46  1  0.843854  0.743875  0.250000  1
  O  O47  1  0.920226  0.016776  0.250000  1
  O  O48  1  0.896392  0.815575  0.750000  1
  O  O49  1  0.923630  0.528375  0.250000  1
