# generated using pymatgen
data_Er(Bi3O5)4
_symmetry_space_group_name_H-M   'P 1'
_cell_length_a   8.95059443
_cell_length_b   8.95180184
_cell_length_c   8.94779722
_cell_angle_alpha   109.44133919
_cell_angle_beta   109.46378655
_cell_angle_gamma   109.47657393
_symmetry_Int_Tables_number   1
_chemical_formula_structural   Er(Bi3O5)4
_chemical_formula_sum   'Er1 Bi12 O20'
_cell_volume   552.11270601
_cell_formula_units_Z   1
loop_
 _symmetry_equiv_pos_site_id
 _symmetry_equiv_pos_as_xyz
  1  'x, y, z'
loop_
 _atom_site_type_symbol
 _atom_site_label
 _atom_site_symmetry_multiplicity
 _atom_site_fract_x
 _atom_site_fract_y
 _atom_site_fract_z
 _atom_site_occupancy
  Er  Er0  1  -0.000009  -0.000174  0.000260  1
  Bi  Bi1  1  0.168873  0.858194  0.674716  1
  Bi  Bi2  1  0.141923  0.310690  0.816550  1
  Bi  Bi3  1  0.183498  0.494148  0.325444  1
  Bi  Bi4  1  0.310539  0.816608  0.141883  1
  Bi  Bi5  1  0.505845  0.689355  0.831271  1
  Bi  Bi6  1  0.325308  0.183446  0.493989  1
  Bi  Bi7  1  0.689381  0.831203  0.505872  1
  Bi  Bi8  1  0.494030  0.325365  0.183499  1
  Bi  Bi9  1  0.674835  0.168877  0.858220  1
  Bi  Bi10  1  0.831231  0.505911  0.689408  1
  Bi  Bi11  1  0.858222  0.674865  0.168760  1
  Bi  Bi12  1  0.816579  0.141881  0.310569  1
  O  O13  1  0.115298  0.756044  0.378867  1
  O  O14  1  0.263541  0.640744  0.884656  1
  O  O15  1  -0.000072  -0.000049  0.643327  1
  O  O16  1  -0.000062  0.643281  -0.000058  1
  O  O17  1  0.243972  0.359463  0.622888  1
  O  O18  1  0.377200  0.736491  0.621385  1
  O  O19  1  -0.000026  -0.000151  0.240412  1
  O  O20  1  0.999746  0.240655  -0.000216  1
  O  O21  1  0.359135  0.622643  0.244099  1
  O  O22  1  0.378689  0.115125  0.755972  1
  O  O23  1  0.356810  0.356778  0.356718  1
  O  O24  1  0.240467  0.999737  0.999766  1
  O  O25  1  0.621507  0.377408  0.736462  1
  O  O26  1  0.640722  0.884606  0.263507  1
  O  O27  1  0.759178  0.759209  0.759094  1
  O  O28  1  0.736539  0.621234  0.377302  1
  O  O29  1  0.622719  0.244019  0.359289  1
  O  O30  1  0.884835  0.263538  0.640851  1
  O  O31  1  0.756164  0.378749  0.115240  1
  O  O32  1  0.643382  0.000108  0.000001  1
