# generated using pymatgen
data_LiFeSiO4
_symmetry_space_group_name_H-M   'P 1'
_cell_length_a   5.74289802
_cell_length_b   5.74280554
_cell_length_c   8.07443669
_cell_angle_alpha   90.00011898
_cell_angle_beta   90.00198738
_cell_angle_gamma   89.99996568
_symmetry_Int_Tables_number   1
_chemical_formula_structural   LiFeSiO4
_chemical_formula_sum   'Li4 Fe4 Si4 O16'
_cell_volume   266.29772027
_cell_formula_units_Z   4
loop_
 _symmetry_equiv_pos_site_id
 _symmetry_equiv_pos_as_xyz
  1  'x, y, z'
loop_
 _atom_site_type_symbol
 _atom_site_label
 _atom_site_symmetry_multiplicity
 _atom_site_fract_x
 _atom_site_fract_y
 _atom_site_fract_z
 _atom_site_occupancy
  Li  Li0  1  0.999999  0.221385  0.000001  1
  Li  Li1  1  0.999998  0.778611  0.499999  1
  Li  Li2  1  0.221392  0.000000  0.250001  1
  Li  Li3  1  0.778605  -0.000001  0.749999  1
  Fe  Fe4  1  0.224891  0.500003  0.250002  1
  Fe  Fe5  1  0.499998  0.224912  0.999997  1
  Fe  Fe6  1  0.500001  0.775089  0.500002  1
  Fe  Fe7  1  0.775119  0.500004  0.749997  1
  Si  Si8  1  0.256340  0.256333  0.625006  1
  Si  Si9  1  0.256344  0.743663  0.875002  1
  Si  Si10  1  0.743660  0.256333  0.374994  1
  Si  Si11  1  0.743657  0.743663  0.124998  1
  O  O12  1  0.982746  0.258077  0.260509  1
  O  O13  1  0.982746  0.741927  0.239486  1
  O  O14  1  0.258087  0.982755  0.989487  1
  O  O15  1  0.258075  0.017244  0.510509  1
  O  O16  1  0.259001  0.494522  0.501317  1
  O  O17  1  0.259015  0.505469  0.998684  1
  O  O18  1  0.505477  0.259012  0.251306  1
  O  O19  1  0.505472  0.740994  0.248682  1
  O  O20  1  0.494523  0.259013  0.748693  1
  O  O21  1  0.494528  0.740993  0.751318  1
  O  O22  1  0.740997  0.494522  0.498685  1
  O  O23  1  0.740985  0.505472  0.001314  1
  O  O24  1  0.741922  0.017246  0.489492  1
  O  O25  1  0.741912  0.982754  0.010512  1
  O  O26  1  0.017255  0.258075  0.739490  1
  O  O27  1  0.017253  0.741929  0.760515  1
