# generated using pymatgen
data_NaAl(H2N)4
_symmetry_space_group_name_H-M   'P 1'
_cell_length_a   7.92430032
_cell_length_b   7.32103817
_cell_length_c   11.15450514
_cell_angle_alpha   90.00000000
_cell_angle_beta   104.03642809
_cell_angle_gamma   90.00000000
_symmetry_Int_Tables_number   1
_chemical_formula_structural   NaAl(H2N)4
_chemical_formula_sum   'Na4 Al4 H32 N16'
_cell_volume   627.79678382
_cell_formula_units_Z   4
loop_
 _symmetry_equiv_pos_site_id
 _symmetry_equiv_pos_as_xyz
  1  'x, y, z'
loop_
 _atom_site_type_symbol
 _atom_site_label
 _atom_site_symmetry_multiplicity
 _atom_site_fract_x
 _atom_site_fract_y
 _atom_site_fract_z
 _atom_site_occupancy
  Na  Na0  1  0.752023  0.206908  0.765474  1
  Na  Na1  1  0.247977  0.706908  0.734526  1
  Na  Na2  1  0.247977  0.793092  0.234526  1
  Na  Na3  1  0.752023  0.293092  0.265474  1
  Al  Al4  1  0.419702  0.981493  0.606380  1
  Al  Al5  1  0.580298  0.481493  0.893620  1
  Al  Al6  1  0.580298  0.018507  0.393620  1
  Al  Al7  1  0.419702  0.518507  0.106380  1
  H  H8  1  0.237699  0.066193  0.373137  1
  H  H9  1  0.762301  0.566193  0.126863  1
  H  H10  1  0.762301  0.933807  0.626863  1
  H  H11  1  0.237699  0.433807  0.873137  1
  H  H12  1  0.328151  0.363405  0.354591  1
  H  H13  1  0.671849  0.863405  0.145409  1
  H  H14  1  0.671849  0.636595  0.645409  1
  H  H15  1  0.328151  0.136595  0.854591  1
  H  H16  1  0.982515  0.646596  0.018548  1
  H  H17  1  0.017485  0.146596  0.481452  1
  H  H18  1  0.017485  0.353404  0.981452  1
  H  H19  1  0.982515  0.853404  0.518548  1
  H  H20  1  0.910906  0.079542  0.062893  1
  H  H21  1  0.089094  0.579542  0.437107  1
  H  H22  1  0.089094  0.920458  0.937107  1
  H  H23  1  0.910906  0.420458  0.562893  1
  H  H24  1  0.322845  0.720339  0.058849  1
  H  H25  1  0.677155  0.220339  0.441151  1
  H  H26  1  0.677155  0.279661  0.941151  1
  H  H27  1  0.322845  0.779661  0.558849  1
  H  H28  1  0.064486  0.338335  0.048259  1
  H  H29  1  0.935514  0.838335  0.451741  1
  H  H30  1  0.935514  0.661665  0.951741  1
  H  H31  1  0.064486  0.161665  0.548259  1
  H  H32  1  0.426262  0.143363  0.006916  1
  H  H33  1  0.573738  0.643363  0.493084  1
  H  H34  1  0.573738  0.856637  0.993084  1
  H  H35  1  0.426262  0.356637  0.506916  1
  H  H36  1  0.211362  0.164735  0.961912  1
  H  H37  1  0.788638  0.664735  0.538088  1
  H  H38  1  0.788638  0.835265  0.038088  1
  H  H39  1  0.211362  0.335265  0.461912  1
  N  N40  1  0.646218  0.895137  0.563380  1
  N  N41  1  0.353782  0.395137  0.936620  1
  N  N42  1  0.353782  0.104863  0.436620  1
  N  N43  1  0.646218  0.604863  0.063380  1
  N  N44  1  0.672766  0.802333  0.060845  1
  N  N45  1  0.327234  0.302333  0.439155  1
  N  N46  1  0.327234  0.197667  0.939155  1
  N  N47  1  0.672766  0.697667  0.560845  1
  N  N48  1  0.073695  0.443888  0.725800  1
  N  N49  1  0.926305  0.943888  0.774200  1
  N  N50  1  0.926305  0.556112  0.274200  1
  N  N51  1  0.073695  0.056112  0.225800  1
  N  N52  1  0.937861  0.118513  0.162732  1
  N  N53  1  0.062139  0.618513  0.337268  1
  N  N54  1  0.062139  0.881487  0.837268  1
  N  N55  1  0.937861  0.381487  0.662732  1
