# generated using pymatgen
data_Li3Mn2Fe(BO3)3
_symmetry_space_group_name_H-M   'P 1'
_cell_length_a   8.25024308
_cell_length_b   14.31506261
_cell_length_c   3.16968186
_cell_angle_alpha   90.00000000
_cell_angle_beta   90.00000000
_cell_angle_gamma   90.04609885
_symmetry_Int_Tables_number   1
_chemical_formula_structural   Li3Mn2Fe(BO3)3
_chemical_formula_sum   'Li6 Mn4 Fe2 B6 O18'
_cell_volume   374.34801147
_cell_formula_units_Z   2
loop_
 _symmetry_equiv_pos_site_id
 _symmetry_equiv_pos_as_xyz
  1  'x, y, z'
loop_
 _atom_site_type_symbol
 _atom_site_label
 _atom_site_symmetry_multiplicity
 _atom_site_fract_x
 _atom_site_fract_y
 _atom_site_fract_z
 _atom_site_occupancy
  Li  Li0  1  0.292954  0.989998  0.500000  1
  Li  Li1  1  0.340701  0.358543  0.500000  1
  Li  Li2  1  0.366829  0.651488  0.500000  1
  Li  Li3  1  0.793046  0.492944  0.500000  1
  Li  Li4  1  0.841362  0.856816  0.500000  1
  Li  Li5  1  0.867122  0.150308  0.500000  1
  Mn  Mn6  1  0.134105  0.506581  0.000000  1
  Mn  Mn7  1  0.191569  0.179716  0.000000  1
  Mn  Mn8  1  0.634462  0.005356  0.000000  1
  Mn  Mn9  1  0.673793  0.314565  0.000000  1
  Fe  Fe10  1  0.175304  0.816618  0.000000  1
  Fe  Fe11  1  0.687220  0.679431  0.000000  1
  B  B12  1  0.999451  0.668308  0.500000  1
  B  B13  1  0.999438  0.998860  0.000000  1
  B  B14  1  -0.000051  0.333479  0.500000  1
  B  B15  1  0.499944  0.166411  0.500000  1
  B  B16  1  0.501529  0.500285  0.000000  1
  B  B17  1  0.499039  0.832146  0.500000  1
  O  O18  1  0.009859  0.430141  0.500000  1
  O  O19  1  0.018300  0.764805  0.500000  1
  O  O20  1  0.137145  0.611157  0.500000  1
  O  O21  1  0.140558  0.279978  0.500000  1
  O  O22  1  0.153740  0.958430  0.000000  1
  O  O23  1  0.347368  0.124584  0.500000  1
  O  O24  1  0.346797  0.790492  0.500000  1
  O  O25  1  0.364411  0.443536  0.000000  1
  O  O26  1  0.485375  0.597489  0.000000  1
  O  O27  1  0.511384  0.929118  0.500000  1
  O  O28  1  0.513385  0.263357  0.500000  1
  O  O29  1  0.638571  0.111117  0.500000  1
  O  O30  1  0.638379  0.777631  0.500000  1
  O  O31  1  0.655472  0.460619  0.000000  1
  O  O32  1  0.845649  0.628283  0.500000  1
  O  O33  1  0.849717  0.289690  0.500000  1
  O  O34  1  0.863095  0.941927  0.000000  1
  O  O35  1  0.982979  0.095795  0.000000  1
