# generated using pymatgen
data_LiSiBiO4
_symmetry_space_group_name_H-M   'P 1'
_cell_length_a   22.33826944
_cell_length_b   8.85058355
_cell_length_c   5.28222144
_cell_angle_alpha   90.00000000
_cell_angle_beta   90.00000000
_cell_angle_gamma   90.00000000
_symmetry_Int_Tables_number   1
_chemical_formula_structural   LiSiBiO4
_chemical_formula_sum   'Li12 Si12 Bi12 O48'
_cell_volume   1044.33067543
_cell_formula_units_Z   12
loop_
 _symmetry_equiv_pos_site_id
 _symmetry_equiv_pos_as_xyz
  1  'x, y, z'
loop_
 _atom_site_type_symbol
 _atom_site_label
 _atom_site_symmetry_multiplicity
 _atom_site_fract_x
 _atom_site_fract_y
 _atom_site_fract_z
 _atom_site_occupancy
  Li  Li0  1  0.086767  0.579319  0.022037  1
  Li  Li1  1  0.081260  0.074095  0.497636  1
  Li  Li2  1  0.249653  0.921645  0.990866  1
  Li  Li3  1  0.250347  0.421645  0.490866  1
  Li  Li4  1  0.418740  0.574095  0.997636  1
  Li  Li5  1  0.413233  0.079319  0.522037  1
  Li  Li6  1  0.586767  0.920681  0.022037  1
  Li  Li7  1  0.581260  0.425905  0.497636  1
  Li  Li8  1  0.749653  0.578355  0.990866  1
  Li  Li9  1  0.750347  0.078355  0.490866  1
  Li  Li10  1  0.918740  0.925905  0.997636  1
  Li  Li11  1  0.913233  0.420681  0.522037  1
  Si  Si12  1  0.077424  0.918049  0.993777  1
  Si  Si13  1  0.091140  0.414637  0.529241  1
  Si  Si14  1  0.243974  0.580525  0.994878  1
  Si  Si15  1  0.256026  0.080525  0.494878  1
  Si  Si16  1  0.408860  0.914637  0.029241  1
  Si  Si17  1  0.422576  0.418049  0.493777  1
  Si  Si18  1  0.577424  0.581951  0.993777  1
  Si  Si19  1  0.591140  0.085363  0.529241  1
  Si  Si20  1  0.743974  0.919475  0.994878  1
  Si  Si21  1  0.756026  0.419475  0.494878  1
  Si  Si22  1  0.908860  0.585363  0.029241  1
  Si  Si23  1  0.922576  0.081951  0.493777  1
  Bi  Bi24  1  0.004574  0.219795  0.042109  1
  Bi  Bi25  1  0.995426  0.780205  0.542109  1
  Bi  Bi26  1  0.165833  0.728279  0.495647  1
  Bi  Bi27  1  0.167284  0.282847  0.967875  1
  Bi  Bi28  1  0.332716  0.782847  0.467875  1
  Bi  Bi29  1  0.334167  0.228279  0.995647  1
  Bi  Bi30  1  0.504574  0.280205  0.042109  1
  Bi  Bi31  1  0.495426  0.719795  0.542109  1
  Bi  Bi32  1  0.665833  0.771721  0.495647  1
  Bi  Bi33  1  0.667284  0.217153  0.967875  1
  Bi  Bi34  1  0.832716  0.717153  0.467875  1
  Bi  Bi35  1  0.834167  0.271721  0.995647  1
  O  O36  1  0.994219  0.062955  0.416383  1
  O  O37  1  0.005781  0.937045  0.916383  1
  O  O38  1  0.066501  0.574910  0.649216  1
  O  O39  1  0.074121  0.265660  0.707727  1
  O  O40  1  0.069802  0.390507  0.233174  1
  O  O41  1  0.084494  0.776285  0.191945  1
  O  O42  1  0.109645  0.894160  0.713334  1
  O  O43  1  0.098987  0.077517  0.127133  1
  O  O44  1  0.164784  0.416824  0.561449  1
  O  O45  1  0.172496  0.551126  0.052076  1
  O  O46  1  0.227443  0.925775  0.360775  1
  O  O47  1  0.252219  0.226727  0.301217  1
  O  O48  1  0.226543  0.106832  0.777509  1
  O  O49  1  0.247781  0.726727  0.801217  1
  O  O50  1  0.273457  0.606832  0.277509  1
  O  O51  1  0.272557  0.425775  0.860775  1
  O  O52  1  0.327504  0.051126  0.552076  1
  O  O53  1  0.335216  0.916824  0.061449  1
  O  O54  1  0.401013  0.577517  0.627133  1
  O  O55  1  0.390355  0.394160  0.213334  1
  O  O56  1  0.415506  0.276285  0.691945  1
  O  O57  1  0.430198  0.890507  0.733174  1
  O  O58  1  0.425879  0.765660  0.207727  1
  O  O59  1  0.433499  0.074910  0.149216  1
  O  O60  1  0.494219  0.437045  0.416383  1
  O  O61  1  0.505781  0.562955  0.916383  1
  O  O62  1  0.566501  0.925090  0.649216  1
  O  O63  1  0.574121  0.234340  0.707727  1
  O  O64  1  0.569802  0.109493  0.233174  1
  O  O65  1  0.584494  0.723715  0.191945  1
  O  O66  1  0.609645  0.605840  0.713334  1
  O  O67  1  0.598987  0.422483  0.127133  1
  O  O68  1  0.664784  0.083176  0.561449  1
  O  O69  1  0.672496  0.948874  0.052076  1
  O  O70  1  0.727443  0.574225  0.360775  1
  O  O71  1  0.726543  0.393168  0.777509  1
  O  O72  1  0.752219  0.273273  0.301217  1
  O  O73  1  0.773457  0.893168  0.277509  1
  O  O74  1  0.747781  0.773273  0.801217  1
  O  O75  1  0.772557  0.074225  0.860775  1
  O  O76  1  0.827504  0.448874  0.552076  1
  O  O77  1  0.835216  0.583176  0.061449  1
  O  O78  1  0.901013  0.922483  0.627133  1
  O  O79  1  0.890355  0.105840  0.213334  1
  O  O80  1  0.915506  0.223715  0.691945  1
  O  O81  1  0.930198  0.609493  0.733174  1
  O  O82  1  0.925879  0.734340  0.207727  1
  O  O83  1  0.933499  0.425090  0.149216  1
