# generated using pymatgen
data_Li2Fe3NiO8
_symmetry_space_group_name_H-M   'P 1'
_cell_length_a   8.34714709
_cell_length_b   8.38287452
_cell_length_c   8.36915028
_cell_angle_alpha   89.87034313
_cell_angle_beta   90.05923263
_cell_angle_gamma   90.15849795
_symmetry_Int_Tables_number   1
_chemical_formula_structural   Li2Fe3NiO8
_chemical_formula_sum   'Li8 Fe12 Ni4 O32'
_cell_volume   585.61122877
_cell_formula_units_Z   4
loop_
 _symmetry_equiv_pos_site_id
 _symmetry_equiv_pos_as_xyz
  1  'x, y, z'
loop_
 _atom_site_type_symbol
 _atom_site_label
 _atom_site_symmetry_multiplicity
 _atom_site_fract_x
 _atom_site_fract_y
 _atom_site_fract_z
 _atom_site_occupancy
  Li  Li0  1  0.001070  0.001729  0.001965  1
  Li  Li1  1  0.247788  0.248044  0.248344  1
  Li  Li2  1  0.253497  0.752598  0.746870  1
  Li  Li3  1  0.496746  0.997320  0.503432  1
  Li  Li4  1  0.501690  0.496846  -0.000610  1
  Li  Li5  1  0.749095  0.252822  0.752123  1
  Li  Li6  1  0.752190  0.748336  0.251142  1
  Li  Li7  1  0.998359  0.502245  0.497740  1
  Fe  Fe8  1  0.127199  0.122840  0.625075  1
  Fe  Fe9  1  0.124882  0.373466  0.877300  1
  Fe  Fe10  1  0.123712  0.625628  0.125853  1
  Fe  Fe11  1  0.377238  0.375342  0.627065  1
  Fe  Fe12  1  0.374996  0.627079  0.377332  1
  Fe  Fe13  1  0.371910  0.878197  0.124980  1
  Fe  Fe14  1  0.627025  0.376468  0.374827  1
  Fe  Fe15  1  0.624342  0.127032  0.123086  1
  Fe  Fe16  1  0.623174  0.875151  0.873282  1
  Fe  Fe17  1  0.876034  0.123672  0.373841  1
  Fe  Fe18  1  0.874968  0.871953  0.621643  1
  Fe  Fe19  1  0.873489  0.623276  0.874258  1
  Ni  Ni20  1  0.124455  0.874818  0.374359  1
  Ni  Ni21  1  0.375254  0.125597  0.875347  1
  Ni  Ni22  1  0.625166  0.624329  0.625062  1
  Ni  Ni23  1  0.876077  0.375103  0.126218  1
  O  O24  1  0.117630  0.101202  0.384420  1
  O  O25  1  0.115273  0.881338  0.601086  1
  O  O26  1  0.115328  0.614088  0.884778  1
  O  O27  1  0.148094  0.132507  0.865410  1
  O  O28  1  0.103928  0.385176  0.118378  1
  O  O29  1  0.136468  0.364248  0.635276  1
  O  O30  1  0.134392  0.648811  0.367334  1
  O  O31  1  0.131672  0.866230  0.147884  1
  O  O32  1  0.368426  0.134112  0.648264  1
  O  O33  1  0.365428  0.351851  0.868205  1
  O  O34  1  0.362632  0.636190  0.134844  1
  O  O35  1  0.397643  0.615902  0.618434  1
  O  O36  1  0.351515  0.868346  0.365233  1
  O  O37  1  0.385610  0.385460  0.385752  1
  O  O38  1  0.384525  0.119405  0.102041  1
  O  O39  1  0.381704  0.899675  0.884516  1
  O  O40  1  0.617939  0.397830  0.615669  1
  O  O41  1  0.615560  0.617480  0.398275  1
  O  O42  1  0.612802  0.885992  0.114663  1
  O  O43  1  0.648416  0.367944  0.135143  1
  O  O44  1  0.601741  0.115612  0.881976  1
  O  O45  1  0.634730  0.136167  0.365057  1
  O  O46  1  0.634527  0.850272  0.631851  1
  O  O47  1  0.632123  0.634644  0.851358  1
  O  O48  1  0.867821  0.364937  0.352946  1
  O  O49  1  0.865462  0.148491  0.133565  1
  O  O50  1  0.864150  0.864029  0.862782  1
  O  O51  1  0.896976  0.883447  0.381866  1
  O  O52  1  0.852467  0.631000  0.634976  1
  O  O53  1  0.885241  0.113844  0.613613  1
  O  O54  1  0.885434  0.382014  0.898436  1
  O  O55  1  0.883983  0.602005  0.115572  1
