# generated using pymatgen
data_Co6O5F7
_symmetry_space_group_name_H-M   'P 1'
_cell_length_a   7.02024905
_cell_length_b   5.57117533
_cell_length_c   5.57144876
_cell_angle_alpha   73.66050621
_cell_angle_beta   73.43250336
_cell_angle_gamma   73.15607803
_symmetry_Int_Tables_number   1
_chemical_formula_structural   Co6O5F7
_chemical_formula_sum   'Co6 O5 F7'
_cell_volume   195.15256966
_cell_formula_units_Z   1
loop_
 _symmetry_equiv_pos_site_id
 _symmetry_equiv_pos_as_xyz
  1  'x, y, z'
loop_
 _atom_site_type_symbol
 _atom_site_label
 _atom_site_symmetry_multiplicity
 _atom_site_fract_x
 _atom_site_fract_y
 _atom_site_fract_z
 _atom_site_occupancy
  Co  Co0  1  0.841677  0.673456  0.706353  1
  Co  Co1  1  0.320535  0.685091  0.609587  1
  Co  Co2  1  0.662290  0.363214  0.317585  1
  Co  Co3  1  0.164987  0.312687  0.329320  1
  Co  Co4  1  0.500527  0.988882  0.005922  1
  Co  Co5  1  0.004336  0.993025  0.013064  1
  O  O6  1  0.947623  0.247825  0.248102  1
  O  O7  1  0.377790  0.417071  0.419676  1
  O  O8  1  0.044733  0.760337  0.771268  1
  O  O9  1  0.339720  0.959351  0.337533  1
  O  O10  1  0.659572  0.660733  0.032110  1
  F  F11  1  0.339614  0.344869  0.957537  1
  F  F12  1  0.660371  0.037412  0.655052  1
  F  F13  1  0.635786  0.573763  0.576400  1
  F  F14  1  0.313005  0.889023  0.891078  1
  F  F15  1  0.690233  0.101344  0.104321  1
  F  F16  1  0.998200  0.300666  0.706358  1
  F  F17  1  0.999000  0.691250  0.318738  1
