# generated using pymatgen
data_Er2Sb2O7
_symmetry_space_group_name_H-M   'P 1'
_cell_length_a   7.51700002
_cell_length_b   7.51718245
_cell_length_c   18.42524164
_cell_angle_alpha   89.98934321
_cell_angle_beta   90.00946214
_cell_angle_gamma   120.00615598
_symmetry_Int_Tables_number   1
_chemical_formula_structural   Er2Sb2O7
_chemical_formula_sum   'Er12 Sb12 O42'
_cell_volume   901.60542105
_cell_formula_units_Z   6
loop_
 _symmetry_equiv_pos_site_id
 _symmetry_equiv_pos_as_xyz
  1  'x, y, z'
loop_
 _atom_site_type_symbol
 _atom_site_label
 _atom_site_symmetry_multiplicity
 _atom_site_fract_x
 _atom_site_fract_y
 _atom_site_fract_z
 _atom_site_occupancy
  Er  Er0  1  0.000027  0.834511  0.666722  1
  Er  Er1  1  0.000602  0.834820  0.166728  1
  Er  Er2  1  0.175485  0.675970  0.011179  1
  Er  Er3  1  0.166160  0.166176  0.999999  1
  Er  Er4  1  0.500439  0.824156  0.677954  1
  Er  Er5  1  0.165016  0.165080  0.500006  1
  Er  Er6  1  0.323747  0.499439  0.344491  1
  Er  Er7  1  0.499369  0.323656  0.655532  1
  Er  Er8  1  0.676196  0.175741  0.988787  1
  Er  Er9  1  0.824184  0.500546  0.322059  1
  Er  Er10  1  0.834906  0.000608  0.833294  1
  Er  Er11  1  0.834462  0.999835  0.333296  1
  Sb  Sb12  1  0.999611  0.326099  0.166602  1
  Sb  Sb13  1  0.999701  0.304696  0.666386  1
  Sb  Sb14  1  0.169295  0.670326  0.501640  1
  Sb  Sb15  1  0.500969  0.830788  0.168344  1
  Sb  Sb16  1  0.329853  0.498984  0.834947  1
  Sb  Sb17  1  0.304815  0.999867  0.333606  1
  Sb  Sb18  1  0.673067  0.672973  0.500051  1
  Sb  Sb19  1  0.326318  0.999853  0.833472  1
  Sb  Sb20  1  0.695397  0.695728  0.000090  1
  Sb  Sb21  1  0.498914  0.329782  0.165060  1
  Sb  Sb22  1  0.670329  0.169261  0.498361  1
  Sb  Sb23  1  0.830897  0.501086  0.831687  1
  O  O24  1  0.018776  0.851626  0.284026  1
  O  O25  1  0.993258  0.800402  0.802140  1
  O  O26  1  0.114478  0.664790  0.393758  1
  O  O27  1  0.040210  0.418680  0.814065  1
  O  O28  1  0.324651  0.988221  0.958075  1
  O  O29  1  0.228819  0.684301  0.607581  1
  O  O30  1  0.011730  0.336273  0.291238  1
  O  O31  1  0.200382  0.671636  0.138535  1
  O  O32  1  0.378763  0.959881  0.480410  1
  O  O33  1  0.455245  0.771813  0.274371  1
  O  O34  1  0.471509  0.799544  0.805251  1
  O  O35  1  0.335052  0.449467  0.727106  1
  O  O36  1  0.148423  0.166817  0.617248  1
  O  O37  1  0.328131  0.528536  0.471905  1
  O  O38  1  0.199566  0.193302  0.135622  1
  O  O39  1  0.166833  0.148497  0.382764  1
  O  O40  1  0.316243  0.544296  0.941027  1
  O  O41  1  0.193249  0.199686  0.864484  1
  O  O42  1  0.550825  0.885683  0.060470  1
  O  O43  1  0.580671  0.621210  0.147367  1
  O  O44  1  0.806904  0.006619  0.468940  1
  O  O45  1  0.663413  0.675250  0.624656  1
  O  O46  1  0.449377  0.334881  0.272903  1
  O  O47  1  0.621347  0.580881  0.852568  1
  O  O48  1  0.336205  0.011568  0.708601  1
  O  O49  1  0.833084  0.981670  0.950562  1
  O  O50  1  0.544001  0.315945  0.058978  1
  O  O51  1  0.675215  0.663493  0.375190  1
  O  O52  1  0.528498  0.328046  0.528125  1
  O  O53  1  0.418598  0.040123  0.185918  1
  O  O54  1  0.684421  0.228898  0.392428  1
  O  O55  1  0.671872  0.200493  0.861509  1
  O  O56  1  0.885731  0.550809  0.939529  1
  O  O57  1  0.981720  0.833251  0.049460  1
  O  O58  1  0.799448  0.471635  0.194777  1
  O  O59  1  0.006698  0.806960  0.531072  1
  O  O60  1  0.771820  0.455369  0.725641  1
  O  O61  1  0.664953  0.114488  0.606255  1
  O  O62  1  0.959919  0.378710  0.519604  1
  O  O63  1  0.800288  0.992991  0.197900  1
  O  O64  1  0.988369  0.324634  0.041790  1
  O  O65  1  0.851542  0.018640  0.715988  1
