# generated using pymatgen
data_Li2Mn3O4F3
_symmetry_space_group_name_H-M   'P 1'
_cell_length_a   6.51801763
_cell_length_b   6.39263337
_cell_length_c   8.02856507
_cell_angle_alpha   103.86247105
_cell_angle_beta   113.35925198
_cell_angle_gamma   102.15012780
_symmetry_Int_Tables_number   1
_chemical_formula_structural   Li2Mn3O4F3
_chemical_formula_sum   'Li4 Mn6 O8 F6'
_cell_volume   280.10636013
_cell_formula_units_Z   2
loop_
 _symmetry_equiv_pos_site_id
 _symmetry_equiv_pos_as_xyz
  1  'x, y, z'
loop_
 _atom_site_type_symbol
 _atom_site_label
 _atom_site_symmetry_multiplicity
 _atom_site_fract_x
 _atom_site_fract_y
 _atom_site_fract_z
 _atom_site_occupancy
  Li  Li0  1  0.304597  0.700805  0.461811  1
  Li  Li1  1  0.333059  0.800513  0.072241  1
  Li  Li2  1  0.647215  0.147072  0.919143  1
  Li  Li3  1  0.702710  0.350978  0.525610  1
  Mn  Mn4  1  0.215379  0.234405  0.648404  1
  Mn  Mn5  1  0.062672  0.060949  0.219992  1
  Mn  Mn6  1  0.662933  0.638354  0.928615  1
  Mn  Mn7  1  0.338433  0.359293  0.064420  1
  Mn  Mn8  1  0.938179  0.921327  0.790101  1
  Mn  Mn9  1  0.773698  0.779269  0.360084  1
  O  O10  1  0.118433  0.947026  0.432722  1
  O  O11  1  0.331960  0.516062  0.867403  1
  O  O12  1  0.004827  0.184107  0.016502  1
  O  O13  1  0.274193  0.095947  0.844876  1
  O  O14  1  0.433443  0.640506  0.264133  1
  O  O15  1  0.713302  0.896461  0.139916  1
  O  O16  1  0.983679  0.759603  0.983097  1
  O  O17  1  0.862264  0.676073  0.571128  1
  F  F18  1  0.158679  0.381418  0.451920  1
  F  F19  1  0.576110  0.841628  0.728085  1
  F  F20  1  0.601367  0.349793  0.728513  1
  F  F21  1  0.412334  0.164409  0.268944  1
  F  F22  1  0.707313  0.435618  0.129649  1
  F  F23  1  0.843220  0.118385  0.582690  1
