# generated using pymatgen
data_SmH2ClO2
_symmetry_space_group_name_H-M   'P 1'
_cell_length_a   12.81033626
_cell_length_b   3.78642605
_cell_length_c   6.33068642
_cell_angle_alpha   90.00000000
_cell_angle_beta   90.00000000
_cell_angle_gamma   90.00000000
_symmetry_Int_Tables_number   1
_chemical_formula_structural   SmH2ClO2
_chemical_formula_sum   'Sm4 H8 Cl4 O8'
_cell_volume   307.07241962
_cell_formula_units_Z   4
loop_
 _symmetry_equiv_pos_site_id
 _symmetry_equiv_pos_as_xyz
  1  'x, y, z'
loop_
 _atom_site_type_symbol
 _atom_site_label
 _atom_site_symmetry_multiplicity
 _atom_site_fract_x
 _atom_site_fract_y
 _atom_site_fract_z
 _atom_site_occupancy
  Sm  Sm0  1  0.061270  0.750000  0.248452  1
  Sm  Sm1  1  0.438730  0.250000  0.748452  1
  Sm  Sm2  1  0.561270  0.750000  0.251548  1
  Sm  Sm3  1  0.938730  0.250000  0.751548  1
  H  H4  1  0.112261  0.750000  0.693306  1
  H  H5  1  0.150337  0.250000  0.941250  1
  H  H6  1  0.349663  0.750000  0.441250  1
  H  H7  1  0.387739  0.250000  0.193306  1
  H  H8  1  0.612261  0.750000  0.806694  1
  H  H9  1  0.650337  0.250000  0.558750  1
  H  H10  1  0.849663  0.750000  0.058750  1
  H  H11  1  0.887739  0.250000  0.306694  1
  Cl  Cl12  1  0.219104  0.250000  0.410966  1
  Cl  Cl13  1  0.280896  0.750000  0.910966  1
  Cl  Cl14  1  0.719104  0.250000  0.089034  1
  Cl  Cl15  1  0.780896  0.750000  0.589034  1
  O  O16  1  0.042545  0.750000  0.631588  1
  O  O17  1  0.080100  0.250000  0.001845  1
  O  O18  1  0.419900  0.750000  0.501845  1
  O  O19  1  0.457455  0.250000  0.131588  1
  O  O20  1  0.542545  0.750000  0.868412  1
  O  O21  1  0.580100  0.250000  0.498155  1
  O  O22  1  0.919900  0.750000  0.998155  1
  O  O23  1  0.957455  0.250000  0.368412  1
