# generated using pymatgen
data_Li2Fe2Si2O9
_symmetry_space_group_name_H-M   'P 1'
_cell_length_a   14.27181838
_cell_length_b   8.51799863
_cell_length_c   5.17122742
_cell_angle_alpha   89.99883716
_cell_angle_beta   89.99805064
_cell_angle_gamma   89.99556980
_symmetry_Int_Tables_number   1
_chemical_formula_structural   Li2Fe2Si2O9
_chemical_formula_sum   'Li8 Fe8 Si8 O36'
_cell_volume   628.65230485
_cell_formula_units_Z   4
loop_
 _symmetry_equiv_pos_site_id
 _symmetry_equiv_pos_as_xyz
  1  'x, y, z'
loop_
 _atom_site_type_symbol
 _atom_site_label
 _atom_site_symmetry_multiplicity
 _atom_site_fract_x
 _atom_site_fract_y
 _atom_site_fract_z
 _atom_site_occupancy
  Li  Li0  1  0.158320  0.046287  0.624599  1
  Li  Li1  1  0.158327  0.453747  0.124621  1
  Li  Li2  1  0.341681  0.546050  0.124565  1
  Li  Li3  1  0.341679  0.953954  0.624603  1
  Li  Li4  1  0.658388  0.046089  0.375518  1
  Li  Li5  1  0.658380  0.453862  0.875439  1
  Li  Li6  1  0.841623  0.546191  0.875445  1
  Li  Li7  1  0.841618  0.953839  0.375442  1
  Fe  Fe8  1  0.169400  0.654559  0.620115  1
  Fe  Fe9  1  0.169373  0.845474  0.120132  1
  Fe  Fe10  1  0.330609  0.154434  0.120201  1
  Fe  Fe11  1  0.330609  0.345509  0.620188  1
  Fe  Fe12  1  0.669389  0.654475  0.379794  1
  Fe  Fe13  1  0.669396  0.845526  0.879792  1
  Fe  Fe14  1  0.830590  0.154482  0.879789  1
  Fe  Fe15  1  0.830588  0.345531  0.379770  1
  Si  Si16  1  0.028335  0.154760  0.213369  1
  Si  Si17  1  0.028337  0.345294  0.713380  1
  Si  Si18  1  0.471641  0.654743  0.713385  1
  Si  Si19  1  0.471648  0.845210  0.213390  1
  Si  Si20  1  0.528303  0.154774  0.786588  1
  Si  Si21  1  0.528303  0.345212  0.286586  1
  Si  Si22  1  0.971712  0.654775  0.286609  1
  Si  Si23  1  0.971716  0.845253  0.786605  1
  O  O24  1  0.067725  0.275658  0.437788  1
  O  O25  1  0.067739  0.224377  0.937763  1
  O  O26  1  0.077436  0.512294  0.776697  1
  O  O27  1  0.077433  0.987760  0.276706  1
  O  O28  1  0.087436  0.655149  0.291256  1
  O  O29  1  0.087433  0.844914  0.791232  1
  O  O30  1  0.232811  0.822574  0.445221  1
  O  O31  1  0.232813  0.677433  0.945155  1
  O  O32  1  0.250010  0.999953  0.965048  1
  O  O33  1  0.250002  0.500012  0.465016  1
  O  O34  1  0.267218  0.177373  0.445273  1
  O  O35  1  0.267228  0.322595  0.945242  1
  O  O36  1  0.412581  0.155122  0.791246  1
  O  O37  1  0.412579  0.344859  0.291235  1
  O  O38  1  0.422591  0.012253  0.276714  1
  O  O39  1  0.422571  0.487712  0.776699  1
  O  O40  1  0.432237  0.724342  0.437826  1
  O  O41  1  0.432239  0.775606  0.937830  1
  O  O42  1  0.567765  0.224384  0.062121  1
  O  O43  1  0.567769  0.275604  0.562112  1
  O  O44  1  0.577365  0.512258  0.223295  1
  O  O45  1  0.577358  0.987725  0.723294  1
  O  O46  1  0.587328  0.655092  0.708756  1
  O  O47  1  0.587334  0.844865  0.208767  1
  O  O48  1  0.732733  0.677384  0.054880  1
  O  O49  1  0.732726  0.822604  0.554855  1
  O  O50  1  0.749990  0.999990  0.034924  1
  O  O51  1  0.749982  0.499995  0.534886  1
  O  O52  1  0.767267  0.177387  0.554927  1
  O  O53  1  0.767255  0.322595  0.054866  1
  O  O54  1  0.912652  0.155097  0.208746  1
  O  O55  1  0.912654  0.344933  0.708766  1
  O  O56  1  0.922624  0.012255  0.723307  1
  O  O57  1  0.922635  0.487773  0.223292  1
  O  O58  1  0.932259  0.724404  0.562158  1
  O  O59  1  0.932260  0.775636  0.062177  1
