# generated using pymatgen
data_Ba3CaZrWO9
_symmetry_space_group_name_H-M   'P 1'
_cell_length_a   6.03735647
_cell_length_b   6.02655869
_cell_length_c   55.07520243
_cell_angle_alpha   60.50278903
_cell_angle_beta   60.45263392
_cell_angle_gamma   60.07239459
_symmetry_Int_Tables_number   1
_chemical_formula_structural   Ba3CaZrWO9
_chemical_formula_sum   'Ba18 Ca6 Zr6 W6 O54'
_cell_volume   1427.89405770
_cell_formula_units_Z   6
loop_
 _symmetry_equiv_pos_site_id
 _symmetry_equiv_pos_as_xyz
  1  'x, y, z'
loop_
 _atom_site_type_symbol
 _atom_site_label
 _atom_site_symmetry_multiplicity
 _atom_site_fract_x
 _atom_site_fract_y
 _atom_site_fract_z
 _atom_site_occupancy
  Ba  Ba0  1  0.242020  0.241966  0.030545  1
  Ba  Ba1  1  0.250729  0.250050  0.138797  1
  Ba  Ba2  1  0.250601  0.250168  0.249840  1
  Ba  Ba3  1  0.750130  0.750324  0.083389  1
  Ba  Ba4  1  0.261717  0.262594  0.356987  1
  Ba  Ba5  1  0.749400  0.748849  0.194720  1
  Ba  Ba6  1  0.760913  0.761035  0.301879  1
  Ba  Ba7  1  0.252222  0.251688  0.471580  1
  Ba  Ba8  1  0.749204  0.750524  0.416572  1
  Ba  Ba9  1  0.240556  0.239621  0.586734  1
  Ba  Ba10  1  0.254512  0.252907  0.693297  1
  Ba  Ba11  1  0.737092  0.735410  0.532510  1
  Ba  Ba12  1  0.746375  0.745582  0.640268  1
  Ba  Ba13  1  0.255258  0.256420  0.803509  1
  Ba  Ba14  1  0.755611  0.755248  0.748221  1
  Ba  Ba15  1  0.252527  0.251646  0.916039  1
  Ba  Ba16  1  0.748246  0.748855  0.861597  1
  Ba  Ba17  1  0.743534  0.743026  0.974456  1
  Ca  Ca18  1  0.013509  0.012063  0.995806  1
  Ca  Ca19  1  0.004834  0.004323  0.109624  1
  Ca  Ca20  1  0.989741  0.990602  0.336532  1
  Ca  Ca21  1  0.996497  0.995789  0.223509  1
  Ca  Ca22  1  0.990671  0.991199  0.447416  1
  Ca  Ca23  1  0.011632  0.011914  0.885024  1
  Zr  Zr24  1  0.506995  0.506575  0.053339  1
  Zr  Zr25  1  0.499936  0.500372  0.166624  1
  Zr  Zr26  1  0.491366  0.493013  0.280332  1
  Zr  Zr27  1  0.996755  0.001258  0.666738  1
  Zr  Zr28  1  0.989860  0.984030  0.560274  1
  Zr  Zr29  1  0.009854  0.007718  0.774970  1
  W  W30  1  0.481149  0.481604  0.395052  1
  W  W31  1  0.481982  0.480281  0.506431  1
  W  W32  1  0.492743  0.492140  0.613674  1
  W  W33  1  0.506379  0.505979  0.720192  1
  W  W34  1  0.517320  0.517561  0.827475  1
  W  W35  1  0.518850  0.518426  0.938255  1
  O  O36  1  0.267296  0.265975  0.078829  1
  O  O37  1  0.281172  0.754895  0.023152  1
  O  O38  1  0.755330  0.280941  0.023082  1
  O  O39  1  0.266688  0.756343  0.078929  1
  O  O40  1  0.756865  0.266076  0.078884  1
  O  O41  1  0.755773  0.755335  0.023046  1
  O  O42  1  0.257541  0.257678  0.193844  1
  O  O43  1  0.260894  0.743180  0.139242  1
  O  O44  1  0.742514  0.262792  0.139048  1
  O  O45  1  0.257782  0.740935  0.193775  1
  O  O46  1  0.740473  0.257966  0.193807  1
  O  O47  1  0.742353  0.743732  0.139139  1
  O  O48  1  0.243401  0.244819  0.310532  1
  O  O49  1  0.243491  0.733556  0.254369  1
  O  O50  1  0.243737  0.717666  0.310462  1
  O  O51  1  0.733125  0.242804  0.254520  1
  O  O52  1  0.716042  0.244673  0.310553  1
  O  O53  1  0.733186  0.733539  0.254475  1
  O  O54  1  0.245653  0.245037  0.424055  1
  O  O55  1  0.235287  0.702379  0.373298  1
  O  O56  1  0.245940  0.692635  0.424060  1
  O  O57  1  0.702497  0.234434  0.373376  1
  O  O58  1  0.692442  0.245655  0.424070  1
  O  O59  1  0.702717  0.702444  0.373348  1
  O  O60  1  0.235469  0.698497  0.485304  1
  O  O61  1  0.234890  0.237473  0.535011  1
  O  O62  1  0.698651  0.234418  0.485281  1
  O  O63  1  0.235044  0.712364  0.535033  1
  O  O64  1  0.698755  0.699742  0.485269  1
  O  O65  1  0.708199  0.238473  0.535040  1
  O  O66  1  0.228726  0.741070  0.587708  1
  O  O67  1  0.247801  0.248971  0.640282  1
  O  O68  1  0.735092  0.239199  0.587990  1
  O  O69  1  0.247540  0.741139  0.640215  1
  O  O70  1  0.750421  0.242237  0.640560  1
  O  O71  1  0.734684  0.734366  0.587887  1
  O  O72  1  0.263898  0.745306  0.693932  1
  O  O73  1  0.271902  0.272849  0.743467  1
  O  O74  1  0.271927  0.763678  0.743461  1
  O  O75  1  0.750122  0.258467  0.693758  1
  O  O76  1  0.760866  0.275311  0.743141  1
  O  O77  1  0.750234  0.747822  0.693778  1
  O  O78  1  0.279941  0.771453  0.797443  1
  O  O79  1  0.296491  0.294493  0.847952  1
  O  O80  1  0.770870  0.281549  0.797345  1
  O  O81  1  0.296427  0.776672  0.847982  1
  O  O82  1  0.776342  0.294949  0.848126  1
  O  O83  1  0.770888  0.771362  0.797359  1
  O  O84  1  0.295308  0.294932  0.960696  1
  O  O85  1  0.303108  0.752401  0.910158  1
  O  O86  1  0.295393  0.763812  0.960651  1
  O  O87  1  0.752468  0.302756  0.910184  1
  O  O88  1  0.762835  0.295250  0.960730  1
  O  O89  1  0.752788  0.752740  0.910155  1
