# generated using pymatgen
data_Li4V7(PO4)6
_symmetry_space_group_name_H-M   'P 1'
_cell_length_a   9.04226689
_cell_length_b   9.04226689
_cell_length_c   6.65955135
_cell_angle_alpha   81.57108063
_cell_angle_beta   98.42891937
_cell_angle_gamma   75.38880648
_symmetry_Int_Tables_number   1
_chemical_formula_structural   Li4V7(PO4)6
_chemical_formula_sum   'Li4 V7 P6 O24'
_cell_volume   511.52861983
_cell_formula_units_Z   1
loop_
 _symmetry_equiv_pos_site_id
 _symmetry_equiv_pos_as_xyz
  1  'x, y, z'
loop_
 _atom_site_type_symbol
 _atom_site_label
 _atom_site_symmetry_multiplicity
 _atom_site_fract_x
 _atom_site_fract_y
 _atom_site_fract_z
 _atom_site_occupancy
  Li  Li0  1  0.242876  0.757124  0.489213  1
  Li  Li1  1  0.451307  0.242226  0.530402  1
  Li  Li2  1  0.757774  0.548693  0.530402  1
  Li  Li3  1  0.937921  0.062079  0.549210  1
  V  V4  1  0.029237  0.361352  0.191776  1
  V  V5  1  0.638648  0.970763  0.191776  1
  V  V6  1  0.382599  0.375686  0.997422  1
  V  V7  1  0.624314  0.617401  0.997422  1
  V  V8  1  0.001866  0.998134  0.001114  1
  V  V9  1  0.354467  0.018271  0.809416  1
  V  V10  1  0.981729  0.645533  0.809416  1
  P  P11  1  0.711728  0.901357  0.711398  1
  P  P12  1  0.098643  0.288272  0.711398  1
  P  P13  1  0.313287  0.686713  0.041363  1
  P  P14  1  0.697441  0.302559  0.965774  1
  P  P15  1  0.282957  0.088121  0.283679  1
  P  P16  1  0.911879  0.717043  0.283679  1
  O  O17  1  0.393755  0.778968  0.895231  1
  O  O18  1  0.221032  0.606245  0.895231  1
  O  O19  1  0.212233  0.787767  0.164350  1
  O  O20  1  0.036843  0.389607  0.865701  1
  O  O21  1  0.610393  0.963157  0.865701  1
  O  O22  1  0.889765  0.897540  0.766512  1
  O  O23  1  0.102460  0.110235  0.766512  1
  O  O24  1  0.279133  0.277053  0.727761  1
  O  O25  1  0.722947  0.720867  0.727761  1
  O  O26  1  0.450365  0.549635  0.179493  1
  O  O27  1  0.563272  0.436728  0.812233  1
  O  O28  1  0.887976  0.896206  0.214500  1
  O  O29  1  0.103794  0.112024  0.214500  1
  O  O30  1  0.738406  0.704856  0.278838  1
  O  O31  1  0.295144  0.261594  0.278838  1
  O  O32  1  0.332372  0.982209  0.498444  1
  O  O33  1  0.017791  0.667628  0.498444  1
  O  O34  1  0.803066  0.196934  0.855181  1
  O  O35  1  0.385074  0.020356  0.134142  1
  O  O36  1  0.979644  0.614926  0.134142  1
  O  O37  1  0.608521  0.213496  0.102690  1
  O  O38  1  0.786504  0.391479  0.102690  1
  O  O39  1  0.645594  0.009750  0.500286  1
  O  O40  1  0.990250  0.354406  0.500286  1
