# generated using pymatgen
data_Co2O3F
_symmetry_space_group_name_H-M   'P 1'
_cell_length_a   4.40209299
_cell_length_b   9.25118840
_cell_length_c   5.91010851
_cell_angle_alpha   71.40000572
_cell_angle_beta   90.11875842
_cell_angle_gamma   89.13146092
_symmetry_Int_Tables_number   1
_chemical_formula_structural   Co2O3F
_chemical_formula_sum   'Co8 O12 F4'
_cell_volume   228.08304320
_cell_formula_units_Z   4
loop_
 _symmetry_equiv_pos_site_id
 _symmetry_equiv_pos_as_xyz
  1  'x, y, z'
loop_
 _atom_site_type_symbol
 _atom_site_label
 _atom_site_symmetry_multiplicity
 _atom_site_fract_x
 _atom_site_fract_y
 _atom_site_fract_z
 _atom_site_occupancy
  Co  Co0  1  0.467379  0.238048  0.629287  1
  Co  Co1  1  0.520216  0.264400  0.119346  1
  Co  Co2  1  0.511679  0.745013  0.383912  1
  Co  Co3  1  0.532783  0.755014  0.864308  1
  Co  Co4  1  0.987953  0.994447  0.503215  1
  Co  Co5  1  0.008972  0.499715  0.747636  1
  Co  Co6  1  0.965069  0.004362  0.997437  1
  Co  Co7  1  0.006165  0.501119  0.252763  1
  O  O8  1  0.802622  0.896554  0.304009  1
  O  O9  1  0.808968  0.406503  0.047261  1
  O  O10  1  0.801475  0.900112  0.795994  1
  O  O11  1  0.675497  0.156066  0.923901  1
  O  O12  1  0.703181  0.653413  0.172902  1
  O  O13  1  0.685088  0.150967  0.422312  1
  O  O14  1  0.704200  0.652749  0.672809  1
  O  O15  1  0.301800  0.346145  0.827434  1
  O  O16  1  0.303445  0.346310  0.326981  1
  O  O17  1  0.317261  0.844183  0.577713  1
  O  O18  1  0.202154  0.597116  0.451900  1
  O  O19  1  0.181609  0.094494  0.701913  1
  F  F20  1  0.782876  0.389963  0.555030  1
  F  F21  1  0.309997  0.850632  0.075735  1
  F  F22  1  0.221633  0.608626  0.946381  1
  F  F23  1  0.197975  0.104048  0.199824  1
