# generated using pymatgen
data_LiFe4(BO3)4
_symmetry_space_group_name_H-M   'P 1'
_cell_length_a   5.31654630
_cell_length_b   9.01030492
_cell_length_c   11.43948696
_cell_angle_alpha   113.47291466
_cell_angle_beta   77.23557896
_cell_angle_gamma   89.79004657
_symmetry_Int_Tables_number   1
_chemical_formula_structural   LiFe4(BO3)4
_chemical_formula_sum   'Li2 Fe8 B8 O24'
_cell_volume   487.64384181
_cell_formula_units_Z   2
loop_
 _symmetry_equiv_pos_site_id
 _symmetry_equiv_pos_as_xyz
  1  'x, y, z'
loop_
 _atom_site_type_symbol
 _atom_site_label
 _atom_site_symmetry_multiplicity
 _atom_site_fract_x
 _atom_site_fract_y
 _atom_site_fract_z
 _atom_site_occupancy
  Li  Li0  1  0.601461  0.056135  0.111944  1
  Li  Li1  1  0.423257  0.929916  0.846463  1
  Fe  Fe2  1  0.398865  0.275337  0.869512  1
  Fe  Fe3  1  0.097682  0.232448  0.120678  1
  Fe  Fe4  1  0.847287  0.144485  0.621483  1
  Fe  Fe5  1  0.656345  0.355319  0.370542  1
  Fe  Fe6  1  0.339205  0.640335  0.621945  1
  Fe  Fe7  1  0.151589  0.852746  0.371162  1
  Fe  Fe8  1  0.911131  0.769059  0.874277  1
  Fe  Fe9  1  0.600314  0.724502  0.125138  1
  B  B10  1  0.649683  0.013688  0.367357  1
  B  B11  1  0.889492  0.103207  0.871561  1
  B  B12  1  0.142427  0.518850  0.374486  1
  B  B13  1  0.405639  0.607984  0.873614  1
  B  B14  1  0.852644  0.479335  0.619929  1
  B  B15  1  0.598516  0.389997  0.119994  1
  B  B16  1  0.347525  0.985199  0.627236  1
  B  B17  1  0.112722  0.893925  0.123663  1
  O  O18  1  0.132392  0.130760  0.900361  1
  O  O19  1  0.467771  0.128617  0.668072  1
  O  O20  1  0.246919  0.012642  0.103546  1
  O  O21  1  0.574298  0.142759  0.346820  1
  O  O22  1  0.854187  0.016866  0.426999  1
  O  O23  1  0.784346  0.199531  0.820063  1
  O  O24  1  0.300490  0.468068  0.861261  1
  O  O25  1  0.027544  0.375353  0.328786  1
  O  O26  1  0.691814  0.284977  0.168701  1
  O  O27  1  0.638074  0.479295  0.566962  1
  O  O28  1  0.942665  0.342809  0.625200  1
  O  O29  1  0.395679  0.340340  0.058760  1
  O  O30  1  0.604230  0.658928  0.936640  1
  O  O31  1  0.359828  0.518163  0.425771  1
  O  O32  1  0.314146  0.709095  0.820923  1
  O  O33  1  0.968988  0.622743  0.665897  1
  O  O34  1  0.699822  0.531104  0.133581  1
  O  O35  1  0.213355  0.793791  0.174275  1
  O  O36  1  0.144386  0.981043  0.567441  1
  O  O37  1  0.421752  0.856647  0.650032  1
  O  O38  1  0.051891  0.656378  0.371084  1
  O  O39  1  0.754106  0.985287  0.895991  1
  O  O40  1  0.530745  0.869617  0.326696  1
  O  O41  1  0.871633  0.864539  0.091229  1
