# generated using pymatgen
data_Li6Cr(BO3)3
_symmetry_space_group_name_H-M   'P 1'
_cell_length_a   6.98738934
_cell_length_b   16.60805076
_cell_length_c   6.49899442
_cell_angle_alpha   90.00000000
_cell_angle_beta   103.73976717
_cell_angle_gamma   90.00000000
_symmetry_Int_Tables_number   1
_chemical_formula_structural   Li6Cr(BO3)3
_chemical_formula_sum   'Li24 Cr4 B12 O36'
_cell_volume   732.60679394
_cell_formula_units_Z   4
loop_
 _symmetry_equiv_pos_site_id
 _symmetry_equiv_pos_as_xyz
  1  'x, y, z'
loop_
 _atom_site_type_symbol
 _atom_site_label
 _atom_site_symmetry_multiplicity
 _atom_site_fract_x
 _atom_site_fract_y
 _atom_site_fract_z
 _atom_site_occupancy
  Li  Li0  1  0.069774  0.993177  0.675385  1
  Li  Li1  1  0.138214  0.554360  0.599797  1
  Li  Li2  1  0.069774  0.506823  0.175385  1
  Li  Li3  1  0.312617  0.461325  0.949979  1
  Li  Li4  1  0.138214  0.945640  0.099797  1
  Li  Li5  1  0.274447  0.701963  0.622344  1
  Li  Li6  1  0.312617  0.038675  0.449979  1
  Li  Li7  1  0.400842  0.290670  0.949243  1
  Li  Li8  1  0.457422  0.956237  0.835833  1
  Li  Li9  1  0.274447  0.798037  0.122344  1
  Li  Li10  1  0.400842  0.209330  0.449243  1
  Li  Li11  1  0.457422  0.543763  0.335833  1
  Li  Li12  1  0.542578  0.456237  0.664167  1
  Li  Li13  1  0.599158  0.790670  0.550757  1
  Li  Li14  1  0.725553  0.201963  0.877656  1
  Li  Li15  1  0.542578  0.043763  0.164167  1
  Li  Li16  1  0.599158  0.709330  0.050757  1
  Li  Li17  1  0.687383  0.961325  0.550021  1
  Li  Li18  1  0.725553  0.298037  0.377656  1
  Li  Li19  1  0.861786  0.054360  0.900203  1
  Li  Li20  1  0.687383  0.538675  0.050021  1
  Li  Li21  1  0.930226  0.493177  0.824615  1
  Li  Li22  1  0.861786  0.445640  0.400203  1
  Li  Li23  1  0.930226  0.006823  0.324615  1
  Cr  Cr24  1  0.055409  0.193700  0.667804  1
  Cr  Cr25  1  0.055409  0.306300  0.167804  1
  Cr  Cr26  1  0.944591  0.693700  0.832196  1
  Cr  Cr27  1  0.944591  0.806300  0.332196  1
  B  B28  1  0.081216  0.362630  0.649542  1
  B  B29  1  0.081216  0.137370  0.149542  1
  B  B30  1  0.278042  0.872050  0.494021  1
  B  B31  1  0.424807  0.111449  0.808620  1
  B  B32  1  0.278042  0.627950  0.994022  1
  B  B33  1  0.424807  0.388551  0.308620  1
  B  B34  1  0.575193  0.611449  0.691380  1
  B  B35  1  0.721958  0.372050  0.005978  1
  B  B36  1  0.575193  0.888551  0.191380  1
  B  B37  1  0.721958  0.127950  0.505978  1
  B  B38  1  0.918784  0.862630  0.850458  1
  B  B39  1  0.918784  0.637370  0.350458  1
  O  O40  1  0.994220  0.664445  0.555822  1
  O  O41  1  0.105135  0.582596  0.949383  1
  O  O42  1  0.107482  0.443437  0.685936  1
  O  O43  1  0.109250  0.304973  0.809847  1
  O  O44  1  0.994220  0.835555  0.055822  1
  O  O45  1  0.105135  0.917404  0.449383  1
  O  O46  1  0.245622  0.708416  0.931436  1
  O  O47  1  0.107482  0.056563  0.185936  1
  O  O48  1  0.109250  0.195027  0.309847  1
  O  O49  1  0.299179  0.048638  0.741991  1
  O  O50  1  0.245622  0.791584  0.431436  1
  O  O51  1  0.299179  0.451362  0.241991  1
  O  O52  1  0.359015  0.190540  0.755296  1
  O  O53  1  0.386947  0.596988  0.572094  1
  O  O54  1  0.538098  0.400437  0.917799  1
  O  O55  1  0.461902  0.900437  0.582201  1
  O  O56  1  0.359015  0.309460  0.255296  1
  O  O57  1  0.613053  0.096988  0.927906  1
  O  O58  1  0.386947  0.903012  0.072094  1
  O  O59  1  0.640985  0.690540  0.744704  1
  O  O60  1  0.538098  0.099563  0.417799  1
  O  O61  1  0.461902  0.599563  0.082201  1
  O  O62  1  0.613053  0.403012  0.427906  1
  O  O63  1  0.640985  0.809460  0.244704  1
  O  O64  1  0.700821  0.548638  0.758009  1
  O  O65  1  0.754378  0.208416  0.568564  1
  O  O66  1  0.700821  0.951362  0.258009  1
  O  O67  1  0.890750  0.804973  0.690153  1
  O  O68  1  0.892518  0.943437  0.814064  1
  O  O69  1  0.754378  0.291584  0.068564  1
  O  O70  1  0.894865  0.082596  0.550617  1
  O  O71  1  0.005780  0.164445  0.944178  1
  O  O72  1  0.890750  0.695027  0.190153  1
  O  O73  1  0.892518  0.556563  0.314064  1
  O  O74  1  0.894865  0.417404  0.050617  1
  O  O75  1  0.005780  0.335555  0.444178  1
