# generated using pymatgen
data_Ga10Si2O19
_symmetry_space_group_name_H-M   'P 1'
_cell_length_a   15.88607418
_cell_length_b   7.93695653
_cell_length_c   15.88607418
_cell_angle_alpha   90.00000000
_cell_angle_beta   157.55601382
_cell_angle_gamma   90.00000000
_symmetry_Int_Tables_number   1
_chemical_formula_structural   Ga10Si2O19
_chemical_formula_sum   'Ga20 Si4 O38'
_cell_volume   764.71638379
_cell_formula_units_Z   2
loop_
 _symmetry_equiv_pos_site_id
 _symmetry_equiv_pos_as_xyz
  1  'x, y, z'
loop_
 _atom_site_type_symbol
 _atom_site_label
 _atom_site_symmetry_multiplicity
 _atom_site_fract_x
 _atom_site_fract_y
 _atom_site_fract_z
 _atom_site_occupancy
  Ga  Ga0  1  0.030177  0.655265  0.969823  1
  Ga  Ga1  1  0.103351  0.334117  0.896649  1
  Ga  Ga2  1  0.144226  0.798701  0.855774  1
  Ga  Ga3  1  0.216911  0.181261  0.783089  1
  Ga  Ga4  1  0.062957  0.995507  0.445888  1
  Ga  Ga5  1  0.554112  0.995507  0.937043  1
  Ga  Ga6  1  0.396891  0.835423  0.603109  1
  Ga  Ga7  1  0.695755  0.502910  0.816831  1
  Ga  Ga8  1  0.183169  0.502910  0.304245  1
  Ga  Ga9  1  0.476708  0.180038  0.523292  1
  Ga  Ga10  1  0.523292  0.680038  0.476708  1
  Ga  Ga11  1  0.304245  0.002910  0.183169  1
  Ga  Ga12  1  0.816831  0.002910  0.695755  1
  Ga  Ga13  1  0.603109  0.335423  0.396891  1
  Ga  Ga14  1  0.445888  0.495507  0.062957  1
  Ga  Ga15  1  0.937043  0.495507  0.554112  1
  Ga  Ga16  1  0.783089  0.681261  0.216911  1
  Ga  Ga17  1  0.855774  0.298701  0.144226  1
  Ga  Ga18  1  0.896649  0.834117  0.103351  1
  Ga  Ga19  1  0.969823  0.155265  0.030177  1
  Si  Si20  1  0.241187  0.821404  0.758813  1
  Si  Si21  1  0.380051  0.213930  0.619949  1
  Si  Si22  1  0.619949  0.713930  0.380051  1
  Si  Si23  1  0.758813  0.321404  0.241187  1
  O  O24  1  0.025985  0.081491  0.974015  1
  O  O25  1  0.082851  0.547341  0.917149  1
  O  O26  1  0.097665  0.929448  0.902335  1
  O  O27  1  0.167678  0.357175  0.832322  1
  O  O28  1  0.195342  0.944238  0.804658  1
  O  O29  1  0.214509  0.629808  0.785491  1
  O  O30  1  0.268360  0.046783  0.731640  1
  O  O31  1  0.506375  0.799903  0.971729  1
  O  O32  1  0.028271  0.799903  0.493625  1
  O  O33  1  0.127699  0.192740  0.429924  1
  O  O34  1  0.570076  0.192740  0.872301  1
  O  O35  1  0.340109  0.902338  0.659891  1
  O  O36  1  0.401376  0.399106  0.598624  1
  O  O37  1  0.652640  0.716285  0.841894  1
  O  O38  1  0.158106  0.716285  0.347360  1
  O  O39  1  0.418935  0.064799  0.581065  1
  O  O40  1  0.726725  0.291427  0.783268  1
  O  O41  1  0.216732  0.291427  0.273275  1
  O  O42  1  0.471602  0.574793  0.528398  1
  O  O43  1  0.528398  0.074793  0.471602  1
  O  O44  1  0.273275  0.791427  0.216732  1
  O  O45  1  0.783268  0.791427  0.726725  1
  O  O46  1  0.581065  0.564799  0.418935  1
  O  O47  1  0.347360  0.216285  0.158106  1
  O  O48  1  0.841894  0.216285  0.652640  1
  O  O49  1  0.598624  0.899106  0.401376  1
  O  O50  1  0.659891  0.402338  0.340109  1
  O  O51  1  0.429924  0.692740  0.127699  1
  O  O52  1  0.872301  0.692740  0.570076  1
  O  O53  1  0.493625  0.299903  0.028271  1
  O  O54  1  0.971729  0.299903  0.506375  1
  O  O55  1  0.731640  0.546783  0.268360  1
  O  O56  1  0.785491  0.129808  0.214509  1
  O  O57  1  0.804658  0.444238  0.195342  1
  O  O58  1  0.832322  0.857175  0.167678  1
  O  O59  1  0.902335  0.429448  0.097665  1
  O  O60  1  0.917149  0.047341  0.082851  1
  O  O61  1  0.974015  0.581491  0.025985  1
