# generated using pymatgen
data_Na6Co2As(CO4)4
_symmetry_space_group_name_H-M   'P 1'
_cell_length_a   9.92093417
_cell_length_b   9.92093425
_cell_length_c   9.92093453
_cell_angle_alpha   60.00000112
_cell_angle_beta   60.00000123
_cell_angle_gamma   60.00000028
_symmetry_Int_Tables_number   1
_chemical_formula_structural   Na6Co2As(CO4)4
_chemical_formula_sum   'Na12 Co4 As2 C8 O32'
_cell_volume   690.46669255
_cell_formula_units_Z   2
loop_
 _symmetry_equiv_pos_site_id
 _symmetry_equiv_pos_as_xyz
  1  'x, y, z'
loop_
 _atom_site_type_symbol
 _atom_site_label
 _atom_site_symmetry_multiplicity
 _atom_site_fract_x
 _atom_site_fract_y
 _atom_site_fract_z
 _atom_site_occupancy
  Na  Na0  1  0.164290  0.085710  0.085710  1
  Na  Na1  1  0.164290  0.664290  0.085710  1
  Na  Na2  1  0.164290  0.085710  0.664290  1
  Na  Na3  1  0.414290  0.335710  0.335710  1
  Na  Na4  1  0.585710  0.664290  0.085710  1
  Na  Na5  1  0.585710  0.085710  0.664290  1
  Na  Na6  1  0.414290  0.335710  0.914290  1
  Na  Na7  1  0.414290  0.914290  0.335710  1
  Na  Na8  1  0.585710  0.664290  0.664290  1
  Na  Na9  1  0.835710  0.335710  0.914290  1
  Na  Na10  1  0.835710  0.914290  0.335710  1
  Na  Na11  1  0.835710  0.914290  0.914290  1
  Co  Co12  1  0.000000  0.000000  0.500000  1
  Co  Co13  1  0.000000  0.500000  0.000000  1
  Co  Co14  1  0.000000  0.500000  0.500000  1
  Co  Co15  1  0.500000  0.500000  0.500000  1
  As  As16  1  0.625000  0.125000  0.125000  1
  As  As17  1  0.375000  0.875000  0.875000  1
  C  C18  1  0.143898  0.285367  0.285367  1
  C  C19  1  0.214633  0.714633  0.356102  1
  C  C20  1  0.214633  0.356102  0.714633  1
  C  C21  1  0.214633  0.714633  0.714633  1
  C  C22  1  0.785367  0.285367  0.285367  1
  C  C23  1  0.785367  0.643898  0.285367  1
  C  C24  1  0.785367  0.285367  0.643898  1
  C  C25  1  0.856102  0.714633  0.714633  1
  O  O26  1  0.146854  0.312472  0.141867  1
  O  O27  1  0.146854  0.141867  0.398808  1
  O  O28  1  0.146854  0.398808  0.312472  1
  O  O29  1  0.101192  0.687528  0.353146  1
  O  O30  1  0.554131  0.054131  0.054131  1
  O  O31  1  0.187528  0.353146  0.601192  1
  O  O32  1  0.101192  0.353146  0.858133  1
  O  O33  1  0.554131  0.054131  0.337606  1
  O  O34  1  0.554131  0.337606  0.054131  1
  O  O35  1  0.187528  0.858133  0.353146  1
  O  O36  1  0.358133  0.601192  0.353146  1
  O  O37  1  0.837606  0.054131  0.054131  1
  O  O38  1  0.101192  0.858133  0.687528  1
  O  O39  1  0.358133  0.353146  0.687528  1
  O  O40  1  0.187528  0.601192  0.858133  1
  O  O41  1  0.641867  0.312472  0.398808  1
  O  O42  1  0.358133  0.687528  0.601192  1
  O  O43  1  0.812472  0.398808  0.141867  1
  O  O44  1  0.641867  0.646854  0.312472  1
  O  O45  1  0.898808  0.141867  0.312472  1
  O  O46  1  0.162394  0.945869  0.945869  1
  O  O47  1  0.641867  0.398808  0.646854  1
  O  O48  1  0.812472  0.141867  0.646854  1
  O  O49  1  0.445869  0.945869  0.662394  1
  O  O50  1  0.445869  0.662394  0.945869  1
  O  O51  1  0.898808  0.646854  0.141867  1
  O  O52  1  0.812472  0.646854  0.398808  1
  O  O53  1  0.445869  0.945869  0.945869  1
  O  O54  1  0.898808  0.312472  0.646854  1
  O  O55  1  0.853146  0.601192  0.687528  1
  O  O56  1  0.853146  0.858133  0.601192  1
  O  O57  1  0.853146  0.687528  0.858133  1
