# generated using pymatgen
data_Li5Fe(CO3)4
_symmetry_space_group_name_H-M   'P 1'
_cell_length_a   11.06149384
_cell_length_b   9.65538465
_cell_length_c   8.44190326
_cell_angle_alpha   90.00000000
_cell_angle_beta   90.97470808
_cell_angle_gamma   90.00000000
_symmetry_Int_Tables_number   1
_chemical_formula_structural   Li5Fe(CO3)4
_chemical_formula_sum   'Li20 Fe4 C16 O48'
_cell_volume   901.48994405
_cell_formula_units_Z   4
loop_
 _symmetry_equiv_pos_site_id
 _symmetry_equiv_pos_as_xyz
  1  'x, y, z'
loop_
 _atom_site_type_symbol
 _atom_site_label
 _atom_site_symmetry_multiplicity
 _atom_site_fract_x
 _atom_site_fract_y
 _atom_site_fract_z
 _atom_site_occupancy
  Li  Li0  1  0.065703  0.633203  0.564082  1
  Li  Li1  1  0.065703  0.866797  0.064082  1
  Li  Li2  1  0.128325  0.139643  0.567694  1
  Li  Li3  1  0.128325  0.360357  0.067694  1
  Li  Li4  1  0.214182  0.894805  0.698286  1
  Li  Li5  1  0.214182  0.605195  0.198286  1
  Li  Li6  1  0.331195  0.663030  0.533700  1
  Li  Li7  1  0.331195  0.836970  0.033700  1
  Li  Li8  1  0.405069  0.097738  0.568004  1
  Li  Li9  1  0.405069  0.402262  0.068004  1
  Li  Li10  1  0.594931  0.597738  0.931996  1
  Li  Li11  1  0.594931  0.902262  0.431996  1
  Li  Li12  1  0.668805  0.163030  0.966300  1
  Li  Li13  1  0.668805  0.336970  0.466300  1
  Li  Li14  1  0.785818  0.394805  0.801714  1
  Li  Li15  1  0.785818  0.105195  0.301714  1
  Li  Li16  1  0.871675  0.639643  0.932306  1
  Li  Li17  1  0.871675  0.860357  0.432306  1
  Li  Li18  1  0.934297  0.133203  0.935918  1
  Li  Li19  1  0.934297  0.366797  0.435918  1
  Fe  Fe20  1  0.282478  0.394829  0.716819  1
  Fe  Fe21  1  0.282478  0.105171  0.216819  1
  Fe  Fe22  1  0.717522  0.894829  0.783181  1
  Fe  Fe23  1  0.717522  0.605171  0.283181  1
  C  C24  1  0.023320  0.384300  0.753656  1
  C  C25  1  0.023320  0.115700  0.253656  1
  C  C26  1  0.206870  0.634292  0.861271  1
  C  C27  1  0.206870  0.865708  0.361271  1
  C  C28  1  0.287958  0.131220  0.874635  1
  C  C29  1  0.287958  0.368780  0.374635  1
  C  C30  1  0.490910  0.853899  0.719049  1
  C  C31  1  0.490910  0.646101  0.219049  1
  C  C32  1  0.509090  0.353899  0.780951  1
  C  C33  1  0.509090  0.146101  0.280951  1
  C  C34  1  0.712042  0.631220  0.625365  1
  C  C35  1  0.712042  0.868780  0.125365  1
  C  C36  1  0.793130  0.134292  0.638729  1
  C  C37  1  0.793130  0.365708  0.138729  1
  C  C38  1  0.976680  0.884300  0.746344  1
  C  C39  1  0.976680  0.615700  0.246344  1
  O  O40  1  0.004803  0.821813  0.618560  1
  O  O41  1  0.004803  0.678187  0.118560  1
  O  O42  1  0.032101  0.992439  0.797779  1
  O  O43  1  0.032101  0.507561  0.297779  1
  O  O44  1  0.113316  0.333864  0.665411  1
  O  O45  1  0.113316  0.166136  0.165411  1
  O  O46  1  0.196994  0.763124  0.897899  1
  O  O47  1  0.196994  0.736876  0.397899  1
  O  O48  1  0.204848  0.534592  0.960576  1
  O  O49  1  0.204848  0.965408  0.460576  1
  O  O50  1  0.222251  0.600146  0.710887  1
  O  O51  1  0.222251  0.899854  0.210887  1
  O  O52  1  0.274574  0.090821  0.731244  1
  O  O53  1  0.280324  0.262133  0.911381  1
  O  O54  1  0.274574  0.409179  0.231244  1
  O  O55  1  0.280324  0.237867  0.411381  1
  O  O56  1  0.309408  0.042332  0.987312  1
  O  O57  1  0.309408  0.457668  0.487312  1
  O  O58  1  0.389501  0.823107  0.655009  1
  O  O59  1  0.389501  0.676893  0.155009  1
  O  O60  1  0.445625  0.460411  0.834327  1
  O  O61  1  0.445625  0.039589  0.334327  1
  O  O62  1  0.458320  0.286209  0.665537  1
  O  O63  1  0.458320  0.213791  0.165537  1
  O  O64  1  0.541680  0.786209  0.834463  1
  O  O65  1  0.541680  0.713791  0.334463  1
  O  O66  1  0.554375  0.960411  0.665673  1
  O  O67  1  0.554375  0.539589  0.165673  1
  O  O68  1  0.610499  0.323107  0.844991  1
  O  O69  1  0.610499  0.176893  0.344991  1
  O  O70  1  0.690592  0.542332  0.512688  1
  O  O71  1  0.690592  0.957668  0.012688  1
  O  O72  1  0.719676  0.762133  0.588619  1
  O  O73  1  0.725426  0.590821  0.768756  1
  O  O74  1  0.719676  0.737867  0.088619  1
  O  O75  1  0.725426  0.909179  0.268756  1
  O  O76  1  0.777749  0.100147  0.789113  1
  O  O77  1  0.777749  0.399853  0.289113  1
  O  O78  1  0.795152  0.034592  0.539424  1
  O  O79  1  0.795152  0.465408  0.039424  1
  O  O80  1  0.803006  0.263124  0.602101  1
  O  O81  1  0.803006  0.236876  0.102101  1
  O  O82  1  0.886684  0.833864  0.834589  1
  O  O83  1  0.886684  0.666136  0.334589  1
  O  O84  1  0.967899  0.492439  0.702221  1
  O  O85  1  0.967899  0.007561  0.202221  1
  O  O86  1  0.995197  0.321813  0.881440  1
  O  O87  1  0.995197  0.178187  0.381440  1
