# generated using pymatgen
data_WO2F
_symmetry_space_group_name_H-M   'P 1'
_cell_length_a   5.64194734
_cell_length_b   5.51919389
_cell_length_c   13.82860724
_cell_angle_alpha   90.67224150
_cell_angle_beta   92.78841311
_cell_angle_gamma   61.47970436
_symmetry_Int_Tables_number   1
_chemical_formula_structural   WO2F
_chemical_formula_sum   'W6 O12 F6'
_cell_volume   377.87337593
_cell_formula_units_Z   6
loop_
 _symmetry_equiv_pos_site_id
 _symmetry_equiv_pos_as_xyz
  1  'x, y, z'
loop_
 _atom_site_type_symbol
 _atom_site_label
 _atom_site_symmetry_multiplicity
 _atom_site_fract_x
 _atom_site_fract_y
 _atom_site_fract_z
 _atom_site_occupancy
  W  W0  1  0.662111  0.673997  0.333814  1
  W  W1  1  0.986978  0.015985  0.500720  1
  W  W2  1  0.299364  0.368313  0.666855  1
  W  W3  1  0.337889  0.326003  0.166186  1
  W  W4  1  0.700636  0.631687  0.833145  1
  W  W5  1  0.013022  0.984015  0.999280  1
  O  O6  1  0.831957  0.326872  0.420096  1
  O  O7  1  0.500000  0.000000  0.250000  1
  O  O8  1  0.854262  0.301235  0.917130  1
  O  O9  1  0.821121  0.828317  0.416765  1
  O  O10  1  0.178879  0.171683  0.083235  1
  O  O11  1  0.172437  0.179519  0.585177  1
  O  O12  1  0.500000  0.500000  0.250000  1
  O  O13  1  0.827563  0.820481  0.914823  1
  O  O14  1  0.500000  0.500000  0.750000  1
  O  O15  1  0.168043  0.673128  0.079904  1
  O  O16  1  0.145738  0.698765  0.582870  1
  O  O17  1  0.000000  0.500000  0.750000  1
  F  F18  1  0.500000  0.000000  0.750000  1
  F  F19  1  0.676707  0.164339  0.084606  1
  F  F20  1  0.656892  0.186266  0.584065  1
  F  F21  1  0.000000  0.500000  0.250000  1
  F  F22  1  0.343108  0.813734  0.915935  1
  F  F23  1  0.323293  0.835661  0.415394  1
