# generated using pymatgen
data_Li2Fe3F8
_symmetry_space_group_name_H-M   'P 1'
_cell_length_a   9.24911260
_cell_length_b   9.24911260
_cell_length_c   9.24911260
_cell_angle_alpha   107.27835208
_cell_angle_beta   107.27835208
_cell_angle_gamma   113.95203721
_symmetry_Int_Tables_number   1
_chemical_formula_structural   Li2Fe3F8
_chemical_formula_sum   'Li8 Fe12 F32'
_cell_volume   606.26897700
_cell_formula_units_Z   4
loop_
 _symmetry_equiv_pos_site_id
 _symmetry_equiv_pos_as_xyz
  1  'x, y, z'
loop_
 _atom_site_type_symbol
 _atom_site_label
 _atom_site_symmetry_multiplicity
 _atom_site_fract_x
 _atom_site_fract_y
 _atom_site_fract_z
 _atom_site_occupancy
  Li  Li0  1  0.563783  0.711736  0.035675  1
  Li  Li1  1  0.823939  0.471892  0.535675  1
  Li  Li2  1  0.788264  0.323939  0.852048  1
  Li  Li3  1  0.028108  0.063783  0.352048  1
  Li  Li4  1  0.211736  0.676061  0.147952  1
  Li  Li5  1  0.971892  0.936217  0.647952  1
  Li  Li6  1  0.436217  0.288264  0.964325  1
  Li  Li7  1  0.176061  0.528108  0.464325  1
  Fe  Fe8  1  0.738383  0.159238  0.190381  1
  Fe  Fe9  1  0.375000  0.125000  0.250000  1
  Fe  Fe10  1  0.875000  0.625000  0.250000  1
  Fe  Fe11  1  0.340762  0.031143  0.579145  1
  Fe  Fe12  1  0.048002  0.238383  0.079145  1
  Fe  Fe13  1  0.468857  0.548002  0.309619  1
  Fe  Fe14  1  0.531143  0.451998  0.690381  1
  Fe  Fe15  1  0.951998  0.761617  0.920855  1
  Fe  Fe16  1  0.659238  0.968857  0.420855  1
  Fe  Fe17  1  0.625000  0.875000  0.750000  1
  Fe  Fe18  1  0.125000  0.375000  0.750000  1
  Fe  Fe19  1  0.261617  0.840762  0.809619  1
  F  F20  1  0.786020  0.189479  0.995244  1
  F  F21  1  0.960113  0.620475  0.078033  1
  F  F22  1  0.957557  0.117919  0.578033  1
  F  F23  1  0.491217  0.139865  0.086451  1
  F  F24  1  0.689479  0.194235  0.403459  1
  F  F25  1  0.879525  0.457557  0.339639  1
  F  F26  1  0.617919  0.539887  0.160361  1
  F  F27  1  0.639865  0.053414  0.648648  1
  F  F28  1  0.095233  0.008783  0.148648  1
  F  F29  1  0.290776  0.286020  0.096541  1
  F  F30  1  0.553414  0.404767  0.413549  1
  F  F31  1  0.754971  0.947711  0.233701  1
  F  F32  1  0.785991  0.478730  0.733701  1
  F  F33  1  0.305765  0.209224  0.495244  1
  F  F34  1  0.447711  0.714009  0.192739  1
  F  F35  1  0.978730  0.745029  0.692739  1
  F  F36  1  0.021270  0.254971  0.307261  1
  F  F37  1  0.552289  0.285991  0.807261  1
  F  F38  1  0.694235  0.790776  0.504756  1
  F  F39  1  0.214009  0.521270  0.266299  1
  F  F40  1  0.245029  0.052289  0.766299  1
  F  F41  1  0.446586  0.595233  0.586451  1
  F  F42  1  0.709224  0.713980  0.903459  1
  F  F43  1  0.360135  0.946586  0.351352  1
  F  F44  1  0.904767  0.991217  0.851352  1
  F  F45  1  0.382081  0.460113  0.839639  1
  F  F46  1  0.120475  0.542443  0.660361  1
  F  F47  1  0.310521  0.805765  0.596541  1
  F  F48  1  0.508783  0.860135  0.913549  1
  F  F49  1  0.042442  0.882081  0.421967  1
  F  F50  1  0.039887  0.379525  0.921967  1
  F  F51  1  0.213980  0.810521  0.004756  1
