# generated using pymatgen
data_LiTi(PO3)4
_symmetry_space_group_name_H-M   'P 1'
_cell_length_a   7.29512272
_cell_length_b   8.59914448
_cell_length_c   9.10066588
_cell_angle_alpha   115.00347429
_cell_angle_beta   113.62830277
_cell_angle_gamma   64.90139991
_symmetry_Int_Tables_number   1
_chemical_formula_structural   LiTi(PO3)4
_chemical_formula_sum   'Li2 Ti2 P8 O24'
_cell_volume   451.15549944
_cell_formula_units_Z   2
loop_
 _symmetry_equiv_pos_site_id
 _symmetry_equiv_pos_as_xyz
  1  'x, y, z'
loop_
 _atom_site_type_symbol
 _atom_site_label
 _atom_site_symmetry_multiplicity
 _atom_site_fract_x
 _atom_site_fract_y
 _atom_site_fract_z
 _atom_site_occupancy
  Li  Li0  1  0.305116  0.750000  0.750000  1
  Li  Li1  1  0.694884  0.250000  0.250000  1
  Ti  Ti2  1  0.847548  0.750000  0.750000  1
  Ti  Ti3  1  0.152452  0.250000  0.250000  1
  P  P4  1  0.982917  0.893915  0.174450  1
  P  P5  1  0.569597  0.866527  0.130211  1
  P  P6  1  0.305913  0.633473  0.369789  1
  P  P7  1  0.702382  0.606085  0.325550  1
  P  P8  1  0.297618  0.393915  0.674450  1
  P  P9  1  0.694087  0.366527  0.630211  1
  P  P10  1  0.430403  0.133473  0.869789  1
  P  P11  1  0.017083  0.106085  0.825550  1
  O  O12  1  0.399645  0.004811  0.214139  1
  O  O13  1  0.776184  0.933616  0.224874  1
  O  O14  1  0.984048  0.762481  0.001171  1
  O  O15  1  0.163352  0.817052  0.318362  1
  O  O16  1  0.011949  0.920205  0.791829  1
  O  O17  1  0.662041  0.682948  0.181638  1
  O  O18  1  0.745357  0.737519  0.498829  1
  O  O19  1  0.388398  0.694312  0.556044  1
  O  O20  1  0.526665  0.805688  0.943956  1
  O  O21  1  0.484927  0.566384  0.275126  1
  O  O22  1  0.190317  0.495189  0.285861  1
  O  O23  1  0.140325  0.579795  0.708171  1
  O  O24  1  0.859675  0.420205  0.291829  1
  O  O25  1  0.809683  0.504811  0.714139  1
  O  O26  1  0.515073  0.433616  0.724874  1
  O  O27  1  0.473335  0.194312  0.056044  1
  O  O28  1  0.611602  0.305688  0.443956  1
  O  O29  1  0.254643  0.262481  0.501171  1
  O  O30  1  0.337959  0.317052  0.818362  1
  O  O31  1  0.988051  0.079795  0.208171  1
  O  O32  1  0.836648  0.182948  0.681638  1
  O  O33  1  0.015952  0.237519  0.998829  1
  O  O34  1  0.223816  0.066384  0.775126  1
  O  O35  1  0.600355  0.995189  0.785861  1
