# generated using pymatgen
data_LiMn2F5
_symmetry_space_group_name_H-M   'P 1'
_cell_length_a   6.69437205
_cell_length_b   8.06432000
_cell_length_c   9.65247231
_cell_angle_alpha   111.10889018
_cell_angle_beta   110.28986923
_cell_angle_gamma   65.47683187
_symmetry_Int_Tables_number   1
_chemical_formula_structural   LiMn2F5
_chemical_formula_sum   'Li4 Mn8 F20'
_cell_volume   430.16115800
_cell_formula_units_Z   4
loop_
 _symmetry_equiv_pos_site_id
 _symmetry_equiv_pos_as_xyz
  1  'x, y, z'
loop_
 _atom_site_type_symbol
 _atom_site_label
 _atom_site_symmetry_multiplicity
 _atom_site_fract_x
 _atom_site_fract_y
 _atom_site_fract_z
 _atom_site_occupancy
  Li  Li0  1  0.301924  0.940562  0.318611  1
  Li  Li1  1  0.923873  0.559438  0.181389  1
  Li  Li2  1  0.076127  0.440562  0.818611  1
  Li  Li3  1  0.698076  0.059438  0.681389  1
  Mn  Mn4  1  0.221277  0.933383  0.648784  1
  Mn  Mn5  1  0.827955  0.885146  0.985985  1
  Mn  Mn6  1  0.727118  0.614854  0.514015  1
  Mn  Mn7  1  0.494124  0.433383  0.148784  1
  Mn  Mn8  1  0.505876  0.566617  0.851216  1
  Mn  Mn9  1  0.272882  0.385146  0.485985  1
  Mn  Mn10  1  0.172045  0.114854  0.014015  1
  Mn  Mn11  1  0.778723  0.066617  0.351216  1
  F  F12  1  0.101089  0.987769  0.137931  1
  F  F13  1  0.880251  0.938564  0.539325  1
  F  F14  1  0.561187  0.879454  0.642567  1
  F  F15  1  0.846216  0.809569  0.183649  1
  F  F16  1  0.472137  0.690431  0.316351  1
  F  F17  1  0.386671  0.864531  0.897636  1
  F  F18  1  0.353566  0.635469  0.602364  1
  F  F19  1  0.950927  0.512231  0.362069  1
  F  F20  1  0.720509  0.438564  0.039325  1
  F  F21  1  0.798074  0.620546  0.857433  1
  F  F22  1  0.201926  0.379454  0.142567  1
  F  F23  1  0.279491  0.561436  0.960675  1
  F  F24  1  0.049073  0.487769  0.637931  1
  F  F25  1  0.646434  0.364531  0.397636  1
  F  F26  1  0.613329  0.135469  0.102364  1
  F  F27  1  0.527863  0.309569  0.683649  1
  F  F28  1  0.153784  0.190431  0.816351  1
  F  F29  1  0.438813  0.120546  0.357433  1
  F  F30  1  0.119749  0.061436  0.460675  1
  F  F31  1  0.898911  0.012231  0.862069  1
