# generated using pymatgen
data_Li2FeP2HO8
_symmetry_space_group_name_H-M   'P 1'
_cell_length_a   6.27238171
_cell_length_b   6.74316241
_cell_length_c   7.55730296
_cell_angle_alpha   90.00000000
_cell_angle_beta   90.00000000
_cell_angle_gamma   105.58791265
_symmetry_Int_Tables_number   1
_chemical_formula_structural   Li2FeP2HO8
_chemical_formula_sum   'Li4 Fe2 P4 H2 O16'
_cell_volume   307.88469360
_cell_formula_units_Z   2
loop_
 _symmetry_equiv_pos_site_id
 _symmetry_equiv_pos_as_xyz
  1  'x, y, z'
loop_
 _atom_site_type_symbol
 _atom_site_label
 _atom_site_symmetry_multiplicity
 _atom_site_fract_x
 _atom_site_fract_y
 _atom_site_fract_z
 _atom_site_occupancy
  Li  Li0  1  0.366329  0.341135  0.203729  1
  Li  Li1  1  0.177067  0.188468  0.873499  1
  Li  Li2  1  0.866329  0.841135  0.296271  1
  Li  Li3  1  0.677067  0.688468  0.626501  1
  Fe  Fe4  1  0.969457  0.568076  0.001148  1
  Fe  Fe5  1  0.469457  0.068076  0.498852  1
  P  P6  1  0.098612  0.621777  0.576945  1
  P  P7  1  0.514924  0.697711  0.055315  1
  P  P8  1  0.598612  0.121777  0.923055  1
  P  P9  1  0.014924  0.197711  0.444685  1
  H  H10  1  0.424237  0.404475  0.512308  1
  H  H11  1  0.924237  0.904475  0.987692  1
  O  O12  1  0.154998  0.045254  0.479410  1
  O  O13  1  0.846809  0.238976  0.921352  1
  O  O14  1  0.100074  0.374788  0.596250  1
  O  O15  1  0.469805  0.155103  0.754324  1
  O  O16  1  0.278870  0.562373  0.008387  1
  O  O17  1  0.044855  0.289673  0.263356  1
  O  O18  1  0.462435  0.139138  0.082435  1
  O  O19  1  0.346809  0.738976  0.578648  1
  O  O20  1  0.520528  0.355052  0.431372  1
  O  O21  1  0.600074  0.874788  0.903750  1
  O  O22  1  0.969805  0.655103  0.745676  1
  O  O23  1  0.654998  0.545254  0.020590  1
  O  O24  1  0.544855  0.789673  0.236644  1
  O  O25  1  0.962435  0.639138  0.417565  1
  O  O26  1  0.020528  0.855052  0.068628  1
  O  O27  1  0.778870  0.062373  0.491613  1
