# generated using pymatgen
data_Mn6O5F7
_symmetry_space_group_name_H-M   'P 1'
_cell_length_a   4.73206486
_cell_length_b   5.72297090
_cell_length_c   15.57541006
_cell_angle_alpha   90.05413389
_cell_angle_beta   89.34129290
_cell_angle_gamma   88.39128426
_symmetry_Int_Tables_number   1
_chemical_formula_structural   Mn6O5F7
_chemical_formula_sum   'Mn12 O10 F14'
_cell_volume   421.61053709
_cell_formula_units_Z   2
loop_
 _symmetry_equiv_pos_site_id
 _symmetry_equiv_pos_as_xyz
  1  'x, y, z'
loop_
 _atom_site_type_symbol
 _atom_site_label
 _atom_site_symmetry_multiplicity
 _atom_site_fract_x
 _atom_site_fract_y
 _atom_site_fract_z
 _atom_site_occupancy
  Mn  Mn0  1  0.994799  0.150632  0.409963  1
  Mn  Mn1  1  0.022898  0.856733  0.243396  1
  Mn  Mn2  1  0.016427  0.181948  0.086229  1
  Mn  Mn3  1  0.052851  0.154276  0.749361  1
  Mn  Mn4  1  0.039530  0.843194  0.581996  1
  Mn  Mn5  1  0.003237  0.840796  0.913287  1
  Mn  Mn6  1  0.483881  0.337467  0.589009  1
  Mn  Mn7  1  0.510867  0.349746  0.918885  1
  Mn  Mn8  1  0.482183  0.335608  0.255877  1
  Mn  Mn9  1  0.493634  0.643520  0.089329  1
  Mn  Mn10  1  0.496374  0.653304  0.418149  1
  Mn  Mn11  1  0.471128  0.648668  0.748865  1
  O  O12  1  0.209159  0.104483  0.301923  1
  O  O13  1  0.230424  0.109857  0.640317  1
  O  O14  1  0.221488  0.891070  0.136322  1
  O  O15  1  0.225960  0.892241  0.467955  1
  O  O16  1  0.230134  0.883004  0.801290  1
  O  O17  1  0.284187  0.400958  0.149225  1
  O  O18  1  0.286082  0.605814  0.644229  1
  O  O19  1  0.297310  0.384708  0.809010  1
  O  O20  1  0.722819  0.392759  0.026976  1
  O  O21  1  0.699766  0.370511  0.362105  1
  F  F22  1  0.232974  0.113547  0.970236  1
  F  F23  1  0.252905  0.607791  0.310881  1
  F  F24  1  0.247153  0.398832  0.476122  1
  F  F25  1  0.257850  0.604553  0.973623  1
  F  F26  1  0.752236  0.621766  0.200862  1
  F  F27  1  0.736066  0.609126  0.530965  1
  F  F28  1  0.712325  0.633155  0.855149  1
  F  F29  1  0.760574  0.383848  0.700071  1
  F  F30  1  0.747349  0.120900  0.190804  1
  F  F31  1  0.761372  0.115445  0.524528  1
  F  F32  1  0.761981  0.868013  0.349662  1
  F  F33  1  0.746229  0.881040  0.025498  1
  F  F34  1  0.790905  0.134186  0.855742  1
  F  F35  1  0.764940  0.876499  0.692157  1
