# generated using pymatgen
data_Li3Cu4SnO8
_symmetry_space_group_name_H-M   'P 1'
_cell_length_a   6.29657994
_cell_length_b   6.29658013
_cell_length_c   6.24745256
_cell_angle_alpha   82.03560873
_cell_angle_beta   55.35758623
_cell_angle_gamma   55.00822435
_symmetry_Int_Tables_number   1
_chemical_formula_structural   Li3Cu4SnO8
_chemical_formula_sum   'Li3 Cu4 Sn1 O8'
_cell_volume   160.35911828
_cell_formula_units_Z   1
loop_
 _symmetry_equiv_pos_site_id
 _symmetry_equiv_pos_as_xyz
  1  'x, y, z'
loop_
 _atom_site_type_symbol
 _atom_site_label
 _atom_site_symmetry_multiplicity
 _atom_site_fract_x
 _atom_site_fract_y
 _atom_site_fract_z
 _atom_site_occupancy
  Li  Li0  1  0.000000  0.000000  0.500000  1
  Li  Li1  1  0.500000  0.000000  0.500000  1
  Li  Li2  1  0.500000  0.500000  0.500000  1
  Cu  Cu3  1  0.000000  0.500000  0.500000  1
  Cu  Cu4  1  0.000000  0.000000  0.000000  1
  Cu  Cu5  1  0.500000  0.000000  0.000000  1
  Cu  Cu6  1  0.000000  0.500000  0.000000  1
  Sn  Sn7  1  0.500000  0.500000  0.000000  1
  O  O8  1  0.469651  0.274176  0.804524  1
  O  O9  1  0.999426  0.241220  0.709174  1
  O  O10  1  0.532046  0.708600  0.709174  1
  O  O11  1  0.962904  0.795581  0.832677  1
  O  O12  1  0.037095  0.204419  0.167323  1
  O  O13  1  0.467954  0.291400  0.290826  1
  O  O14  1  0.000574  0.758780  0.290826  1
  O  O15  1  0.530349  0.725824  0.195476  1
