# generated using pymatgen
data_LiFeSiO4
_symmetry_space_group_name_H-M   'P 1'
_cell_length_a   10.38333638
_cell_length_b   6.79409149
_cell_length_c   5.08752972
_cell_angle_alpha   90.00000000
_cell_angle_beta   90.00000000
_cell_angle_gamma   90.00000000
_symmetry_Int_Tables_number   1
_chemical_formula_structural   LiFeSiO4
_chemical_formula_sum   'Li4 Fe4 Si4 O16'
_cell_volume   358.90150031
_cell_formula_units_Z   4
loop_
 _symmetry_equiv_pos_site_id
 _symmetry_equiv_pos_as_xyz
  1  'x, y, z'
loop_
 _atom_site_type_symbol
 _atom_site_label
 _atom_site_symmetry_multiplicity
 _atom_site_fract_x
 _atom_site_fract_y
 _atom_site_fract_z
 _atom_site_occupancy
  Li  Li0  1  0.149742  0.506942  0.245369  1
  Li  Li1  1  0.350258  0.006942  0.745369  1
  Li  Li2  1  0.649742  0.993058  0.245369  1
  Li  Li3  1  0.850258  0.493058  0.745369  1
  Fe  Fe4  1  0.168991  0.008597  0.247127  1
  Fe  Fe5  1  0.331009  0.508597  0.747127  1
  Fe  Fe6  1  0.668991  0.491403  0.247127  1
  Fe  Fe7  1  0.831009  0.991403  0.747127  1
  Si  Si8  1  0.093141  0.766692  0.749312  1
  Si  Si9  1  0.406859  0.266692  0.249312  1
  Si  Si10  1  0.593141  0.733308  0.749312  1
  Si  Si11  1  0.906859  0.233308  0.249312  1
  O  O12  1  0.062141  0.233666  0.188736  1
  O  O13  1  0.120526  0.774479  0.069004  1
  O  O14  1  0.159554  0.563652  0.632593  1
  O  O15  1  0.168026  0.955457  0.613710  1
  O  O16  1  0.331974  0.455457  0.113710  1
  O  O17  1  0.340446  0.063652  0.132593  1
  O  O18  1  0.379474  0.274479  0.569004  1
  O  O19  1  0.437859  0.733666  0.688736  1
  O  O20  1  0.562141  0.266334  0.188736  1
  O  O21  1  0.620526  0.725521  0.069004  1
  O  O22  1  0.659554  0.936348  0.632593  1
  O  O23  1  0.668026  0.544543  0.613710  1
  O  O24  1  0.831974  0.044543  0.113710  1
  O  O25  1  0.840446  0.436348  0.132593  1
  O  O26  1  0.879474  0.225521  0.569004  1
  O  O27  1  0.937859  0.766334  0.688736  1
