# generated using pymatgen
data_Li2Cr3CuO8
_symmetry_space_group_name_H-M   'P 1'
_cell_length_a   8.31477342
_cell_length_b   8.34729614
_cell_length_c   8.35802081
_cell_angle_alpha   89.77548299
_cell_angle_beta   89.74390960
_cell_angle_gamma   90.03396458
_symmetry_Int_Tables_number   1
_chemical_formula_structural   Li2Cr3CuO8
_chemical_formula_sum   'Li8 Cr12 Cu4 O32'
_cell_volume   580.08540002
_cell_formula_units_Z   4
loop_
 _symmetry_equiv_pos_site_id
 _symmetry_equiv_pos_as_xyz
  1  'x, y, z'
loop_
 _atom_site_type_symbol
 _atom_site_label
 _atom_site_symmetry_multiplicity
 _atom_site_fract_x
 _atom_site_fract_y
 _atom_site_fract_z
 _atom_site_occupancy
  Li  Li0  1  0.002721  0.002273  0.001079  1
  Li  Li1  1  0.247641  0.247864  0.248930  1
  Li  Li2  1  0.249518  0.749428  0.750558  1
  Li  Li3  1  0.500784  0.000007  0.501690  1
  Li  Li4  1  0.501813  0.497724  0.998991  1
  Li  Li5  1  0.747707  0.250301  0.751162  1
  Li  Li6  1  0.751461  0.747801  0.251733  1
  Li  Li7  1  0.998636  0.501707  0.499746  1
  Cr  Cr8  1  0.122749  0.126039  0.627014  1
  Cr  Cr9  1  0.121189  0.375863  0.874342  1
  Cr  Cr10  1  0.125839  0.622596  0.123811  1
  Cr  Cr11  1  0.373982  0.373704  0.625171  1
  Cr  Cr12  1  0.374935  0.624093  0.373546  1
  Cr  Cr13  1  0.374371  0.875063  0.127206  1
  Cr  Cr14  1  0.624454  0.372816  0.377006  1
  Cr  Cr15  1  0.628421  0.124405  0.125809  1
  Cr  Cr16  1  0.629125  0.875599  0.875958  1
  Cr  Cr17  1  0.873610  0.125199  0.375166  1
  Cr  Cr18  1  0.875208  0.876783  0.624716  1
  Cr  Cr19  1  0.875446  0.626359  0.876357  1
  Cu  Cu20  1  0.125283  0.875943  0.374428  1
  Cu  Cu21  1  0.374347  0.126459  0.874682  1
  Cu  Cu22  1  0.623381  0.626070  0.624936  1
  Cu  Cu23  1  0.876161  0.375029  0.123344  1
  O  O24  1  0.102066  0.119015  0.387828  1
  O  O25  1  0.105410  0.886138  0.615433  1
  O  O26  1  0.114356  0.613058  0.885895  1
  O  O27  1  0.133946  0.140352  0.862714  1
  O  O28  1  0.123091  0.386380  0.103482  1
  O  O29  1  0.133271  0.365558  0.641519  1
  O  O30  1  0.145633  0.635305  0.364419  1
  O  O31  1  0.148721  0.862125  0.128397  1
  O  O32  1  0.360332  0.145347  0.628433  1
  O  O33  1  0.357590  0.372523  0.855232  1
  O  O34  1  0.370087  0.636623  0.142703  1
  O  O35  1  0.379407  0.607374  0.606399  1
  O  O36  1  0.373032  0.860676  0.356833  1
  O  O37  1  0.382870  0.383901  0.392764  1
  O  O38  1  0.394538  0.112051  0.116533  1
  O  O39  1  0.392885  0.881660  0.894787  1
  O  O40  1  0.608853  0.384053  0.613860  1
  O  O41  1  0.604574  0.609265  0.380862  1
  O  O42  1  0.611302  0.888933  0.115625  1
  O  O43  1  0.629656  0.352242  0.137393  1
  O  O44  1  0.618479  0.104530  0.890687  1
  O  O45  1  0.641362  0.130634  0.363184  1
  O  O46  1  0.643490  0.872286  0.642393  1
  O  O47  1  0.634413  0.646624  0.866419  1
  O  O48  1  0.864756  0.354529  0.364708  1
  O  O49  1  0.855708  0.126461  0.139304  1
  O  O50  1  0.859745  0.869056  0.864315  1
  O  O51  1  0.880223  0.892498  0.389662  1
  O  O52  1  0.867509  0.648229  0.637342  1
  O  O53  1  0.880265  0.108737  0.613238  1
  O  O54  1  0.893385  0.389095  0.877727  1
  O  O55  1  0.890263  0.615758  0.112670  1
