# generated using pymatgen
data_Li2NiO2F
_symmetry_space_group_name_H-M   'P 1'
_cell_length_a   4.98872774
_cell_length_b   5.02960870
_cell_length_c   9.57649527
_cell_angle_alpha   85.41148888
_cell_angle_beta   99.28288522
_cell_angle_gamma   119.73148823
_symmetry_Int_Tables_number   1
_chemical_formula_structural   Li2NiO2F
_chemical_formula_sum   'Li8 Ni4 O8 F4'
_cell_volume   205.92299279
_cell_formula_units_Z   4
loop_
 _symmetry_equiv_pos_site_id
 _symmetry_equiv_pos_as_xyz
  1  'x, y, z'
loop_
 _atom_site_type_symbol
 _atom_site_label
 _atom_site_symmetry_multiplicity
 _atom_site_fract_x
 _atom_site_fract_y
 _atom_site_fract_z
 _atom_site_occupancy
  Li  Li0  1  0.164794  0.824163  0.496423  1
  Li  Li1  1  0.002568  0.492019  0.003520  1
  Li  Li2  1  0.090248  0.180497  0.250000  1
  Li  Li3  1  0.659369  0.824163  0.003577  1
  Li  Li4  1  0.489451  0.492019  0.496480  1
  Li  Li5  1  0.334263  0.180179  0.007486  1
  Li  Li6  1  0.748420  0.496840  0.250000  1
  Li  Li7  1  0.845917  0.180179  0.492514  1
  Ni  Ni8  1  0.251695  0.503390  0.750000  1
  Ni  Ni9  1  0.400589  0.801179  0.250000  1
  Ni  Ni10  1  0.921318  0.842636  0.750000  1
  Ni  Ni11  1  0.586839  0.173678  0.750000  1
  O  O12  1  0.287502  0.864264  0.856693  1
  O  O13  1  0.137165  0.507712  0.372224  1
  O  O14  1  0.235098  0.162675  0.637104  1
  O  O15  1  0.576761  0.864264  0.643307  1
  O  O16  1  0.370548  0.507712  0.127776  1
  O  O17  1  0.629235  0.488916  0.862311  1
  O  O18  1  0.859681  0.488916  0.637689  1
  O  O19  1  0.927576  0.162675  0.862896  1
  F  F20  1  0.036911  0.833354  0.122242  1
  F  F21  1  0.458980  0.147609  0.371613  1
  F  F22  1  0.796444  0.833354  0.377758  1
  F  F23  1  0.688629  0.147609  0.128387  1
