# generated using pymatgen
data_LiFe2(BO3)2
_symmetry_space_group_name_H-M   'P 1'
_cell_length_a   5.20981968
_cell_length_b   9.08865253
_cell_length_c   10.21663031
_cell_angle_alpha   91.12457541
_cell_angle_beta   90.93518714
_cell_angle_gamma   89.64216724
_symmetry_Int_Tables_number   1
_chemical_formula_structural   LiFe2(BO3)2
_chemical_formula_sum   'Li4 Fe8 B8 O24'
_cell_volume   483.59380704
_cell_formula_units_Z   4
loop_
 _symmetry_equiv_pos_site_id
 _symmetry_equiv_pos_as_xyz
  1  'x, y, z'
loop_
 _atom_site_type_symbol
 _atom_site_label
 _atom_site_symmetry_multiplicity
 _atom_site_fract_x
 _atom_site_fract_y
 _atom_site_fract_z
 _atom_site_occupancy
  Li  Li0  1  0.852979  0.827064  0.662481  1
  Li  Li1  1  0.814735  0.834555  0.166049  1
  Li  Li2  1  0.672999  0.666795  0.408235  1
  Li  Li3  1  0.665871  0.676424  0.916303  1
  Fe  Fe4  1  0.837338  0.170209  0.631784  1
  Fe  Fe5  1  0.816331  0.491363  0.131671  1
  Fe  Fe6  1  0.683575  0.011984  0.879714  1
  Fe  Fe7  1  0.664450  0.328819  0.374477  1
  Fe  Fe8  1  0.339921  0.650495  0.628269  1
  Fe  Fe9  1  0.329732  0.004160  0.126561  1
  Fe  Fe10  1  0.169930  0.849921  0.386286  1
  Fe  Fe11  1  0.165448  0.495746  0.880201  1
  B  B12  1  0.845278  0.500797  0.622598  1
  B  B13  1  0.838151  0.160754  0.134651  1
  B  B14  1  0.656951  0.001935  0.376511  1
  B  B15  1  0.661285  0.340944  0.871641  1
  B  B16  1  0.331543  0.997410  0.633012  1
  B  B17  1  0.321449  0.676549  0.119984  1
  B  B18  1  0.172121  0.503998  0.374954  1
  B  B19  1  0.178511  0.825309  0.881196  1
  O  O20  1  0.903891  0.503019  0.345360  1
  O  O21  1  0.914255  0.828947  0.863800  1
  O  O22  1  0.792437  0.217768  0.824269  1
  O  O23  1  0.764735  0.128918  0.431861  1
  O  O24  1  0.789604  0.869636  0.370109  1
  O  O25  1  0.800727  0.464612  0.917098  1
  O  O26  1  0.719208  0.633890  0.605631  1
  O  O27  1  0.697782  0.035296  0.092750  1
  O  O28  1  0.738794  0.370042  0.573981  1
  O  O29  1  0.708038  0.283849  0.182206  1
  O  O30  1  0.587808  0.675195  0.117369  1
  O  O31  1  0.599025  0.997663  0.662042  1
  O  O32  1  0.412165  0.008167  0.322942  1
  O  O33  1  0.403736  0.343578  0.877918  1
  O  O34  1  0.315877  0.696011  0.845738  1
  O  O35  1  0.286630  0.636135  0.415261  1
  O  O36  1  0.315534  0.379557  0.366841  1
  O  O37  1  0.317934  0.942548  0.931830  1
  O  O38  1  0.178915  0.557737  0.075356  1
  O  O39  1  0.188019  0.122139  0.637688  1
  O  O40  1  0.214372  0.863987  0.597225  1
  O  O41  1  0.189242  0.803565  0.163635  1
  O  O42  1  0.095016  0.158084  0.125638  1
  O  O43  1  0.081231  0.497999  0.685358  1
