# generated using pymatgen
data_LiNbCrO4
_symmetry_space_group_name_H-M   'P 1'
_cell_length_a   5.94337966
_cell_length_b   6.11167622
_cell_length_c   6.11167622
_cell_angle_alpha   60.78228607
_cell_angle_beta   60.90680791
_cell_angle_gamma   60.90680794
_symmetry_Int_Tables_number   1
_chemical_formula_structural   LiNbCrO4
_chemical_formula_sum   'Li2 Nb2 Cr2 O8'
_cell_volume   160.04004473
_cell_formula_units_Z   2
loop_
 _symmetry_equiv_pos_site_id
 _symmetry_equiv_pos_as_xyz
  1  'x, y, z'
loop_
 _atom_site_type_symbol
 _atom_site_label
 _atom_site_symmetry_multiplicity
 _atom_site_fract_x
 _atom_site_fract_y
 _atom_site_fract_z
 _atom_site_occupancy
  Li  Li0  1  0.128873  0.121127  0.121127  1
  Li  Li1  1  0.871127  0.878873  0.878873  1
  Nb  Nb2  1  0.000000  0.500000  0.500000  1
  Nb  Nb3  1  0.500000  0.500000  0.500000  1
  Cr  Cr4  1  0.500000  0.000000  0.500000  1
  Cr  Cr5  1  0.500000  0.500000  0.000000  1
  O  O6  1  0.256730  0.267003  0.267003  1
  O  O7  1  0.267349  0.242555  0.722747  1
  O  O8  1  0.267349  0.722747  0.242555  1
  O  O9  1  0.709264  0.267003  0.267003  1
  O  O10  1  0.290736  0.732997  0.732997  1
  O  O11  1  0.732651  0.757445  0.277253  1
  O  O12  1  0.732651  0.277253  0.757445  1
  O  O13  1  0.743270  0.732997  0.732997  1
