# generated using pymatgen
data_Mn2Fe3Cu(PO4)6
_symmetry_space_group_name_H-M   'P 1'
_cell_length_a   8.54793025
_cell_length_b   8.54793086
_cell_length_c   8.54792989
_cell_angle_alpha   60.82612337
_cell_angle_beta   60.82612519
_cell_angle_gamma   60.82612380
_symmetry_Int_Tables_number   1
_chemical_formula_structural   Mn2Fe3Cu(PO4)6
_chemical_formula_sum   'Mn2 Fe3 Cu1 P6 O24'
_cell_volume   449.86731167
_cell_formula_units_Z   1
loop_
 _symmetry_equiv_pos_site_id
 _symmetry_equiv_pos_as_xyz
  1  'x, y, z'
loop_
 _atom_site_type_symbol
 _atom_site_label
 _atom_site_symmetry_multiplicity
 _atom_site_fract_x
 _atom_site_fract_y
 _atom_site_fract_z
 _atom_site_occupancy
  Mn  Mn0  1  0.999349  0.999349  0.999349  1
  Mn  Mn1  1  0.499676  0.499676  0.499676  1
  Fe  Fe2  1  0.144916  0.144916  0.144916  1
  Fe  Fe3  1  0.353771  0.353771  0.353771  1
  Fe  Fe4  1  0.645246  0.645246  0.645246  1
  Cu  Cu5  1  0.854877  0.854877  0.854877  1
  P  P6  1  0.045576  0.749887  0.454866  1
  P  P7  1  0.454866  0.045576  0.749887  1
  P  P8  1  0.749887  0.454866  0.045576  1
  P  P9  1  0.249681  0.544470  0.954082  1
  P  P10  1  0.544470  0.954082  0.249681  1
  P  P11  1  0.954082  0.249681  0.544470  1
  O  O12  1  0.109571  0.318216  0.503624  1
  O  O13  1  0.318216  0.503624  0.109571  1
  O  O14  1  0.058459  0.910145  0.257568  1
  O  O15  1  0.503624  0.109571  0.318216  1
  O  O16  1  0.016850  0.813202  0.609290  1
  O  O17  1  0.243611  0.589573  0.437051  1
  O  O18  1  0.257568  0.058459  0.910145  1
  O  O19  1  0.437051  0.243611  0.589573  1
  O  O20  1  0.183091  0.388768  0.993826  1
  O  O21  1  0.589573  0.437051  0.243611  1
  O  O22  1  0.089255  0.741529  0.944905  1
  O  O23  1  0.388768  0.993826  0.183091  1
  O  O24  1  0.609290  0.016850  0.813202  1
  O  O25  1  0.910145  0.257568  0.058459  1
  O  O26  1  0.409456  0.559826  0.756548  1
  O  O27  1  0.813202  0.609290  0.016850  1
  O  O28  1  0.559826  0.756548  0.409456  1
  O  O29  1  0.741529  0.944905  0.089255  1
  O  O30  1  0.756548  0.409456  0.559826  1
  O  O31  1  0.993826  0.183091  0.388768  1
  O  O32  1  0.496873  0.888791  0.683577  1
  O  O33  1  0.944905  0.089255  0.741529  1
  O  O34  1  0.683577  0.496873  0.888791  1
  O  O35  1  0.888791  0.683577  0.496873  1
