# generated using pymatgen
data_Li3Mn2P2O8F3
_symmetry_space_group_name_H-M   'P 1'
_cell_length_a   6.43666724
_cell_length_b   6.43666724
_cell_length_c   6.89534583
_cell_angle_alpha   61.92258858
_cell_angle_beta   61.92258858
_cell_angle_gamma   89.51829268
_symmetry_Int_Tables_number   1
_chemical_formula_structural   Li3Mn2P2O8F3
_chemical_formula_sum   'Li3 Mn2 P2 O8 F3'
_cell_volume   213.89793088
_cell_formula_units_Z   1
loop_
 _symmetry_equiv_pos_site_id
 _symmetry_equiv_pos_as_xyz
  1  'x, y, z'
loop_
 _atom_site_type_symbol
 _atom_site_label
 _atom_site_symmetry_multiplicity
 _atom_site_fract_x
 _atom_site_fract_y
 _atom_site_fract_z
 _atom_site_occupancy
  Li  Li0  1  0.264475  0.252505  1.000000  1
  Li  Li1  1  0.255024  0.744976  0.000000  1
  Li  Li2  1  0.747495  0.735525  0.000000  1
  Mn  Mn3  1  0.189152  0.194261  0.616587  1
  Mn  Mn4  1  0.805739  0.810848  0.383413  1
  P  P5  1  0.756562  0.243438  0.500000  1
  P  P6  1  0.256562  0.743438  0.500000  1
  O  O7  1  0.858806  0.154042  0.309291  1
  O  O8  1  0.473381  0.154012  0.680899  1
  O  O9  1  0.845958  0.141194  0.690709  1
  O  O10  1  0.845988  0.526619  0.319101  1
  O  O11  1  0.168097  0.463333  0.690709  1
  O  O12  1  0.536667  0.831903  0.309291  1
  O  O13  1  0.154280  0.834911  0.319101  1
  O  O14  1  0.165089  0.845720  0.680899  1
  F  F15  1  0.015986  0.984014  0.000000  1
  F  F16  1  0.346257  0.410544  0.243200  1
  F  F17  1  0.589456  0.653743  0.756800  1
