# generated using pymatgen
data_LiMnPH2O5
_symmetry_space_group_name_H-M   'P 1'
_cell_length_a   10.21377404
_cell_length_b   17.14230467
_cell_length_c   5.14006605
_cell_angle_alpha   90.00000000
_cell_angle_beta   90.00000000
_cell_angle_gamma   90.00000000
_symmetry_Int_Tables_number   1
_chemical_formula_structural   LiMnPH2O5
_chemical_formula_sum   'Li8 Mn8 P8 H16 O40'
_cell_volume   899.96196436
_cell_formula_units_Z   8
loop_
 _symmetry_equiv_pos_site_id
 _symmetry_equiv_pos_as_xyz
  1  'x, y, z'
loop_
 _atom_site_type_symbol
 _atom_site_label
 _atom_site_symmetry_multiplicity
 _atom_site_fract_x
 _atom_site_fract_y
 _atom_site_fract_z
 _atom_site_occupancy
  Li  Li0  1  0.149517  0.193358  0.528466  1
  Li  Li1  1  0.149517  0.693358  0.471534  1
  Li  Li2  1  0.420045  0.945791  0.098062  1
  Li  Li3  1  0.420045  0.445791  0.901938  1
  Li  Li4  1  0.649517  0.806642  0.471534  1
  Li  Li5  1  0.649517  0.306642  0.528466  1
  Li  Li6  1  0.920045  0.554209  0.098062  1
  Li  Li7  1  0.920045  0.054209  0.901938  1
  Mn  Mn8  1  0.182934  0.500188  0.465407  1
  Mn  Mn9  1  0.182934  0.000188  0.534593  1
  Mn  Mn10  1  0.391231  0.251099  0.907600  1
  Mn  Mn11  1  0.391231  0.751099  0.092400  1
  Mn  Mn12  1  0.682934  0.999812  0.465407  1
  Mn  Mn13  1  0.682934  0.499812  0.534593  1
  Mn  Mn14  1  0.891231  0.748901  0.092400  1
  Mn  Mn15  1  0.891231  0.248901  0.907600  1
  P  P16  1  0.226067  0.092528  0.010369  1
  P  P17  1  0.226067  0.592528  0.989631  1
  P  P18  1  0.345284  0.342425  0.410351  1
  P  P19  1  0.345284  0.842425  0.589649  1
  P  P20  1  0.726067  0.907472  0.989631  1
  P  P21  1  0.726067  0.407472  0.010369  1
  P  P22  1  0.845284  0.657575  0.589649  1
  P  P23  1  0.845284  0.157575  0.410351  1
  H  H24  1  0.003642  0.375761  0.090914  1
  H  H25  1  0.003642  0.875761  0.909086  1
  H  H26  1  0.053911  0.376810  0.630407  1
  H  H27  1  0.053911  0.876810  0.369593  1
  H  H28  1  0.111157  0.311345  0.165503  1
  H  H29  1  0.111157  0.811345  0.834497  1
  H  H30  1  0.449402  0.056591  0.659927  1
  H  H31  1  0.449402  0.556591  0.340073  1
  H  H32  1  0.503642  0.124239  0.090914  1
  H  H33  1  0.503642  0.624239  0.909086  1
  H  H34  1  0.553911  0.623190  0.369593  1
  H  H35  1  0.553911  0.123190  0.630407  1
  H  H36  1  0.611157  0.688655  0.834497  1
  H  H37  1  0.611157  0.188655  0.165503  1
  H  H38  1  0.949402  0.443409  0.659927  1
  H  H39  1  0.949402  0.943409  0.340073  1
  O  O40  1  0.020319  0.423951  0.543052  1
  O  O41  1  0.020319  0.923951  0.456948  1
  O  O42  1  0.044093  0.326619  0.029837  1
  O  O43  1  0.044093  0.826619  0.970163  1
  O  O44  1  0.111556  0.047501  0.875711  1
  O  O45  1  0.111556  0.547501  0.124289  1
  O  O46  1  0.198207  0.599660  0.692772  1
  O  O47  1  0.198207  0.099660  0.307228  1
  O  O48  1  0.214271  0.796991  0.576969  1
  O  O49  1  0.214271  0.296991  0.423031  1
  O  O50  1  0.234651  0.175653  0.886758  1
  O  O51  1  0.234651  0.675653  0.113242  1
  O  O52  1  0.333252  0.924189  0.456429  1
  O  O53  1  0.333252  0.424189  0.543571  1
  O  O54  1  0.354783  0.046676  0.957672  1
  O  O55  1  0.354783  0.546676  0.042328  1
  O  O56  1  0.385291  0.353141  0.120068  1
  O  O57  1  0.385291  0.853141  0.879932  1
  O  O58  1  0.454794  0.296037  0.555962  1
  O  O59  1  0.454794  0.796037  0.444038  1
  O  O60  1  0.520319  0.076049  0.543052  1
  O  O61  1  0.520319  0.576049  0.456948  1
  O  O62  1  0.544093  0.173381  0.029837  1
  O  O63  1  0.544093  0.673381  0.970163  1
  O  O64  1  0.611556  0.952499  0.124289  1
  O  O65  1  0.611556  0.452499  0.875711  1
  O  O66  1  0.698207  0.900340  0.692772  1
  O  O67  1  0.698207  0.400340  0.307228  1
  O  O68  1  0.714271  0.703009  0.576969  1
  O  O69  1  0.714271  0.203009  0.423031  1
  O  O70  1  0.734651  0.324347  0.886758  1
  O  O71  1  0.734651  0.824347  0.113242  1
  O  O72  1  0.833252  0.575811  0.456429  1
  O  O73  1  0.833252  0.075811  0.543571  1
  O  O74  1  0.854783  0.453324  0.957672  1
  O  O75  1  0.854783  0.953324  0.042328  1
  O  O76  1  0.885291  0.646859  0.879932  1
  O  O77  1  0.885291  0.146859  0.120068  1
  O  O78  1  0.954794  0.703963  0.444038  1
  O  O79  1  0.954794  0.203963  0.555962  1
