# generated using pymatgen
data_Ba3LiTi5(SbO7)3
_symmetry_space_group_name_H-M   'P 1'
_cell_length_a   9.16007721
_cell_length_b   9.17871454
_cell_length_c   11.79944146
_cell_angle_alpha   89.99993480
_cell_angle_beta   90.00019015
_cell_angle_gamma   119.93297092
_symmetry_Int_Tables_number   1
_chemical_formula_structural   Ba3LiTi5(SbO7)3
_chemical_formula_sum   'Ba6 Li2 Ti10 Sb6 O42'
_cell_volume   859.73779398
_cell_formula_units_Z   2
loop_
 _symmetry_equiv_pos_site_id
 _symmetry_equiv_pos_as_xyz
  1  'x, y, z'
loop_
 _atom_site_type_symbol
 _atom_site_label
 _atom_site_symmetry_multiplicity
 _atom_site_fract_x
 _atom_site_fract_y
 _atom_site_fract_z
 _atom_site_occupancy
  Ba  Ba0  1  0.998473  0.593752  0.250100  1
  Ba  Ba1  1  0.001525  0.406249  0.750098  1
  Ba  Ba2  1  0.404725  0.406250  0.250099  1
  Ba  Ba3  1  0.595276  0.593752  0.750100  1
  Ba  Ba4  1  0.401604  0.000003  0.748183  1
  Ba  Ba5  1  0.598395  0.000001  0.248185  1
  Li  Li6  1  0.996947  0.000003  0.245212  1
  Li  Li7  1  0.003053  0.000002  0.745214  1
  Ti  Ti8  1  0.991933  0.743198  0.595872  1
  Ti  Ti9  1  0.003500  0.749748  0.912609  1
  Ti  Ti10  1  0.996496  0.250255  0.412609  1
  Ti  Ti11  1  0.008066  0.256806  0.095872  1
  Ti  Ti12  1  0.248735  0.256809  0.595871  1
  Ti  Ti13  1  0.253750  0.250252  0.912610  1
  Ti  Ti14  1  0.253162  -0.000001  0.087119  1
  Ti  Ti15  1  0.751263  0.743194  0.095871  1
  Ti  Ti16  1  0.746244  0.749748  0.412610  1
  Ti  Ti17  1  0.746838  0.000003  0.587118  1
  Sb  Sb18  1  0.334595  0.666694  0.999794  1
  Sb  Sb19  1  0.332096  0.666695  0.499796  1
  Sb  Sb20  1  0.242847  0.000002  0.413612  1
  Sb  Sb21  1  0.667902  0.333306  0.999793  1
  Sb  Sb22  1  0.665405  0.333308  0.499801  1
  Sb  Sb23  1  0.757153  0.000001  0.913611  1
  O  O24  1  0.004615  0.799731  0.425813  1
  O  O25  1  0.997190  0.793944  0.072645  1
  O  O26  1  0.999950  0.794197  0.750669  1
  O  O27  1  0.167920  0.683074  0.897608  1
  O  O28  1  0.166568  0.686057  0.599235  1
  O  O29  1  0.000055  0.205811  0.250669  1
  O  O30  1  0.317225  0.833567  0.099789  1
  O  O31  1  0.318163  0.829847  0.391100  1
  O  O32  1  0.002812  0.206059  0.572643  1
  O  O33  1  0.995386  0.200273  0.925811  1
  O  O34  1  0.171016  0.487138  0.105406  1
  O  O35  1  0.168400  0.480240  0.399715  1
  O  O36  1  0.316123  0.487142  0.605409  1
  O  O37  1  0.311838  0.480240  0.899715  1
  O  O38  1  0.204888  0.200275  0.425811  1
  O  O39  1  0.203243  0.206055  0.072645  1
  O  O40  1  0.516342  0.833577  0.599787  1
  O  O41  1  0.511682  0.829847  0.891099  1
  O  O42  1  0.205757  0.205809  0.750667  1
  O  O43  1  0.515151  0.683072  0.397611  1
  O  O44  1  0.519488  0.686054  0.099230  1
  O  O45  1  0.201186  0.000004  0.579942  1
  O  O46  1  0.204129  0.000000  0.927355  1
  O  O47  1  0.202426  0.000004  0.247859  1
  O  O48  1  0.484845  0.316924  0.897608  1
  O  O49  1  0.480513  0.313952  0.599235  1
  O  O50  1  0.794243  0.794193  0.250668  1
  O  O51  1  0.483658  0.166432  0.099789  1
  O  O52  1  0.488319  0.170152  0.391106  1
  O  O53  1  0.796755  0.793948  0.572645  1
  O  O54  1  0.795115  0.799729  0.925811  1
  O  O55  1  0.683881  0.512864  0.105405  1
  O  O56  1  0.688167  0.519763  0.399719  1
  O  O57  1  0.828986  0.512866  0.605413  1
  O  O58  1  0.831598  0.519761  0.899714  1
  O  O59  1  0.682784  0.166443  0.599801  1
  O  O60  1  0.681837  0.170155  0.891098  1
  O  O61  1  0.832073  0.316920  0.397614  1
  O  O62  1  0.833433  0.313948  0.099232  1
  O  O63  1  0.797577  0.000001  0.747858  1
  O  O64  1  0.795866  0.000001  0.427354  1
  O  O65  1  0.798814  0.000002  0.079940  1
