# generated using pymatgen
data_Fe2C9(O4F)2
_symmetry_space_group_name_H-M   'P 1'
_cell_length_a   6.31391084
_cell_length_b   8.50378472
_cell_length_c   11.84747897
_cell_angle_alpha   90.00000000
_cell_angle_beta   90.00000000
_cell_angle_gamma   107.20041783
_symmetry_Int_Tables_number   1
_chemical_formula_structural   Fe2C9(O4F)2
_chemical_formula_sum   'Fe4 C18 O16 F4'
_cell_volume   607.66693900
_cell_formula_units_Z   2
loop_
 _symmetry_equiv_pos_site_id
 _symmetry_equiv_pos_as_xyz
  1  'x, y, z'
loop_
 _atom_site_type_symbol
 _atom_site_label
 _atom_site_symmetry_multiplicity
 _atom_site_fract_x
 _atom_site_fract_y
 _atom_site_fract_z
 _atom_site_occupancy
  Fe  Fe0  1  0.247792  0.008938  0.750000  1
  Fe  Fe1  1  0.366496  0.317685  0.750000  1
  Fe  Fe2  1  0.752208  0.991062  0.250000  1
  Fe  Fe3  1  0.633504  0.682315  0.250000  1
  C  C4  1  0.079878  0.888734  0.860436  1
  C  C5  1  0.057379  0.161346  0.750000  1
  C  C6  1  0.414376  0.164058  0.629631  1
  C  C7  1  0.706863  0.564132  0.138475  1
  C  C8  1  0.414376  0.164058  0.870369  1
  C  C9  1  0.920122  0.111266  0.360436  1
  C  C10  1  0.454502  0.898081  0.750000  1
  C  C11  1  0.661393  0.428698  0.750000  1
  C  C12  1  0.706863  0.564132  0.361525  1
  C  C13  1  0.920122  0.111266  0.139564  1
  C  C14  1  0.293137  0.435868  0.861525  1
  C  C15  1  0.293137  0.435868  0.638475  1
  C  C16  1  0.942621  0.838654  0.250000  1
  C  C17  1  0.585624  0.835942  0.370369  1
  C  C18  1  0.338607  0.571302  0.250000  1
  C  C19  1  0.079878  0.888734  0.639564  1
  C  C20  1  0.545498  0.101919  0.250000  1
  C  C21  1  0.585624  0.835942  0.129631  1
  O  O22  1  0.509662  0.834607  0.461131  1
  O  O23  1  0.963879  0.806882  0.926702  1
  O  O24  1  0.846323  0.505534  0.750000  1
  O  O25  1  0.244763  0.516191  0.570212  1
  O  O26  1  0.509662  0.834607  0.038869  1
  O  O27  1  0.755237  0.483809  0.429788  1
  O  O28  1  0.036121  0.193118  0.426702  1
  O  O29  1  0.153677  0.494466  0.250000  1
  O  O30  1  0.425672  0.181779  0.250000  1
  O  O31  1  0.244763  0.516191  0.929788  1
  O  O32  1  0.574328  0.818221  0.750000  1
  O  O33  1  0.963879  0.806882  0.573298  1
  O  O34  1  0.490338  0.165393  0.538869  1
  O  O35  1  0.036121  0.193118  0.073298  1
  O  O36  1  0.490338  0.165393  0.961131  1
  O  O37  1  0.755237  0.483809  0.070212  1
  F  F38  1  0.921319  0.159908  0.658835  1
  F  F39  1  0.078681  0.840092  0.341165  1
  F  F40  1  0.921319  0.159908  0.841165  1
  F  F41  1  0.078681  0.840092  0.158835  1
