# generated using pymatgen
data_Li3Fe8(BO3)8
_symmetry_space_group_name_H-M   'P 1'
_cell_length_a   5.24270890
_cell_length_b   9.10460356
_cell_length_c   10.21524805
_cell_angle_alpha   90.81904261
_cell_angle_beta   90.25084505
_cell_angle_gamma   89.12005106
_symmetry_Int_Tables_number   1
_chemical_formula_structural   Li3Fe8(BO3)8
_chemical_formula_sum   'Li3 Fe8 B8 O24'
_cell_volume   487.49071564
_cell_formula_units_Z   1
loop_
 _symmetry_equiv_pos_site_id
 _symmetry_equiv_pos_as_xyz
  1  'x, y, z'
loop_
 _atom_site_type_symbol
 _atom_site_label
 _atom_site_symmetry_multiplicity
 _atom_site_fract_x
 _atom_site_fract_y
 _atom_site_fract_z
 _atom_site_occupancy
  Li  Li0  1  0.676591  0.669103  0.407213  1
  Li  Li1  1  0.338842  0.321632  0.667705  1
  Li  Li2  1  0.313981  0.327137  0.168812  1
  Fe  Fe3  1  0.835632  0.154557  0.626701  1
  Fe  Fe4  1  0.827922  0.503363  0.125832  1
  Fe  Fe5  1  0.672839  0.006436  0.880680  1
  Fe  Fe6  1  0.688560  0.333070  0.380972  1
  Fe  Fe7  1  0.326296  0.669048  0.629184  1
  Fe  Fe8  1  0.327402  0.991700  0.128287  1
  Fe  Fe9  1  0.158704  0.848341  0.375660  1
  Fe  Fe10  1  0.176897  0.506790  0.881308  1
  B  B11  1  0.832491  0.494687  0.624989  1
  B  B12  1  0.829211  0.173910  0.124218  1
  B  B13  1  0.657919  0.994553  0.378680  1
  B  B14  1  0.678543  0.331606  0.874549  1
  B  B15  1  0.341112  0.002628  0.630247  1
  B  B16  1  0.328044  0.665339  0.133037  1
  B  B17  1  0.171130  0.508028  0.374379  1
  B  B18  1  0.172461  0.837082  0.874544  1
  O  O19  1  0.908747  0.513730  0.337637  1
  O  O20  1  0.915378  0.857277  0.873081  1
  O  O21  1  0.807604  0.201755  0.831059  1
  O  O22  1  0.753918  0.122742  0.436645  1
  O  O23  1  0.787074  0.864953  0.385254  1
  O  O24  1  0.820580  0.441118  0.936450  1
  O  O25  1  0.684013  0.618193  0.614133  1
  O  O26  1  0.672330  0.063632  0.074465  1
  O  O27  1  0.720191  0.357909  0.597196  1
  O  O28  1  0.704364  0.303267  0.167250  1
  O  O29  1  0.587080  0.653789  0.142096  1
  O  O30  1  0.588977  0.006978  0.681505  1
  O  O31  1  0.420051  0.004303  0.316547  1
  O  O32  1  0.424926  0.345740  0.853749  1
  O  O33  1  0.283468  0.710874  0.820523  1
  O  O34  1  0.281332  0.635541  0.428144  1
  O  O35  1  0.310201  0.383432  0.352827  1
  O  O36  1  0.331007  0.943693  0.931039  1
  O  O37  1  0.189419  0.540077  0.094601  1
  O  O38  1  0.196073  0.129603  0.628604  1
  O  O39  1  0.249722  0.871968  0.582057  1
  O  O40  1  0.200296  0.795254  0.162135  1
  O  O41  1  0.087689  0.157825  0.130596  1
  O  O42  1  0.092122  0.497226  0.656815  1
