# generated using pymatgen
data_Li3Mn3OF7
_symmetry_space_group_name_H-M   'P 1'
_cell_length_a   6.18335343
_cell_length_b   6.18335343
_cell_length_c   6.18335343
_cell_angle_alpha   61.71745599
_cell_angle_beta   61.71745599
_cell_angle_gamma   61.71745599
_symmetry_Int_Tables_number   1
_chemical_formula_structural   Li3Mn3OF7
_chemical_formula_sum   'Li3 Mn3 O1 F7'
_cell_volume   173.60448014
_cell_formula_units_Z   1
loop_
 _symmetry_equiv_pos_site_id
 _symmetry_equiv_pos_as_xyz
  1  'x, y, z'
loop_
 _atom_site_type_symbol
 _atom_site_label
 _atom_site_symmetry_multiplicity
 _atom_site_fract_x
 _atom_site_fract_y
 _atom_site_fract_z
 _atom_site_occupancy
  Li  Li0  1  0.999681  0.999681  0.999681  1
  Li  Li1  1  0.257965  0.257965  0.257965  1
  Li  Li2  1  0.623035  0.623035  0.623035  1
  Mn  Mn3  1  0.613760  0.133281  0.613760  1
  Mn  Mn4  1  0.613760  0.613760  0.133281  1
  Mn  Mn5  1  0.133281  0.613760  0.613760  1
  O  O6  1  0.385835  0.385835  0.385835  1
  F  F7  1  0.862015  0.385538  0.385538  1
  F  F8  1  0.385538  0.862015  0.385538  1
  F  F9  1  0.385538  0.385538  0.862015  1
  F  F10  1  0.866114  0.866114  0.392046  1
  F  F11  1  0.866114  0.392046  0.866114  1
  F  F12  1  0.865315  0.865315  0.865315  1
  F  F13  1  0.392046  0.866114  0.866114  1
