# generated using pymatgen
data_Li3CrPCO7
_symmetry_space_group_name_H-M   'P 1'
_cell_length_a   8.55450994
_cell_length_b   5.11580739
_cell_length_c   6.47225616
_cell_angle_alpha   90.00000000
_cell_angle_beta   90.00000000
_cell_angle_gamma   88.05663826
_symmetry_Int_Tables_number   1
_chemical_formula_structural   Li3CrPCO7
_chemical_formula_sum   'Li6 Cr2 P2 C2 O14'
_cell_volume   283.08389069
_cell_formula_units_Z   2
loop_
 _symmetry_equiv_pos_site_id
 _symmetry_equiv_pos_as_xyz
  1  'x, y, z'
loop_
 _atom_site_type_symbol
 _atom_site_label
 _atom_site_symmetry_multiplicity
 _atom_site_fract_x
 _atom_site_fract_y
 _atom_site_fract_z
 _atom_site_occupancy
  Li  Li0  1  0.002505  0.030867  0.514550  1
  Li  Li1  1  0.186598  0.440484  0.190574  1
  Li  Li2  1  0.522012  0.445536  0.411814  1
  Li  Li3  1  0.477988  0.554464  0.911814  1
  Li  Li4  1  0.813402  0.559516  0.690574  1
  Li  Li5  1  0.997495  0.969133  0.014550  1
  Cr  Cr6  1  0.274410  0.025302  0.753377  1
  Cr  Cr7  1  0.725590  0.974698  0.253377  1
  P  P8  1  0.336655  0.958281  0.250108  1
  P  P9  1  0.663345  0.041719  0.750108  1
  C  C10  1  0.120105  0.524480  0.738671  1
  C  C11  1  0.879895  0.475520  0.238671  1
  O  O12  1  0.015122  0.352114  0.710729  1
  O  O13  1  0.075039  0.770489  0.757778  1
  O  O14  1  0.236752  0.076235  0.066589  1
  O  O15  1  0.233251  0.009969  0.443589  1
  O  O16  1  0.267707  0.459100  0.751007  1
  O  O17  1  0.372847  0.662371  0.213014  1
  O  O18  1  0.487986  0.111042  0.272799  1
  O  O19  1  0.512014  0.888958  0.772799  1
  O  O20  1  0.627153  0.337629  0.713014  1
  O  O21  1  0.732293  0.540900  0.251007  1
  O  O22  1  0.766749  0.990031  0.943589  1
  O  O23  1  0.763248  0.923765  0.566589  1
  O  O24  1  0.924961  0.229511  0.257778  1
  O  O25  1  0.984878  0.647886  0.210729  1
