# generated using pymatgen
data_Li3Co4(BO3)4
_symmetry_space_group_name_H-M   'P 1'
_cell_length_a   5.21697104
_cell_length_b   8.92680313
_cell_length_c   10.12921692
_cell_angle_alpha   90.00000050
_cell_angle_beta   91.70661030
_cell_angle_gamma   90.00000321
_symmetry_Int_Tables_number   1
_chemical_formula_structural   Li3Co4(BO3)4
_chemical_formula_sum   'Li6 Co8 B8 O24'
_cell_volume   471.51723535
_cell_formula_units_Z   2
loop_
 _symmetry_equiv_pos_site_id
 _symmetry_equiv_pos_as_xyz
  1  'x, y, z'
loop_
 _atom_site_type_symbol
 _atom_site_label
 _atom_site_symmetry_multiplicity
 _atom_site_fract_x
 _atom_site_fract_y
 _atom_site_fract_z
 _atom_site_occupancy
  Li  Li0  1  0.161986  0.004572  0.151131  1
  Li  Li1  1  0.849820  0.995441  0.410427  1
  Li  Li2  1  0.349820  0.504559  0.910427  1
  Li  Li3  1  0.333870  0.503104  0.406916  1
  Li  Li4  1  0.661986  0.495428  0.651131  1
  Li  Li5  1  0.833870  0.996896  0.906916  1
  Co  Co6  1  0.325366  0.163032  0.867555  1
  Co  Co7  1  0.659465  0.156529  0.628116  1
  Co  Co8  1  0.159465  0.343471  0.128116  1
  Co  Co9  1  0.825366  0.336968  0.367555  1
  Co  Co10  1  0.163254  0.673494  0.640957  1
  Co  Co11  1  0.840134  0.666382  0.887740  1
  Co  Co12  1  0.340134  0.833618  0.387740  1
  Co  Co13  1  0.663254  0.826506  0.140957  1
  B  B14  1  0.330032  0.169572  0.372967  1
  B  B15  1  0.168862  0.332750  0.625553  1
  B  B16  1  0.668862  0.167250  0.125553  1
  B  B17  1  0.830032  0.330428  0.872967  1
  B  B18  1  0.159320  0.669439  0.125098  1
  B  B19  1  0.333333  0.833438  0.879798  1
  B  B20  1  0.833333  0.666562  0.379798  1
  B  B21  1  0.659320  0.830561  0.625098  1
  O  O22  1  0.195725  0.039216  0.352855  1
  O  O23  1  0.311651  0.207369  0.667163  1
  O  O24  1  0.404742  0.180325  0.099321  1
  O  O25  1  0.791315  0.032690  0.111150  1
  O  O26  1  0.586070  0.168820  0.423329  1
  O  O27  1  0.086070  0.331180  0.923329  1
  O  O28  1  0.216501  0.307653  0.340270  1
  O  O29  1  0.716501  0.192347  0.840270  1
  O  O30  1  0.291315  0.467310  0.611150  1
  O  O31  1  0.811651  0.292631  0.167163  1
  O  O32  1  0.904742  0.319675  0.599321  1
  O  O33  1  0.289539  0.531792  0.118019  1
  O  O34  1  0.695725  0.460784  0.852855  1
  O  O35  1  0.094515  0.666167  0.405526  1
  O  O36  1  0.213951  0.695191  0.844927  1
  O  O37  1  0.691660  0.538844  0.390513  1
  O  O38  1  0.289843  0.797009  0.162200  1
  O  O39  1  0.789843  0.702991  0.662200  1
  O  O40  1  0.904984  0.672377  0.086867  1
  O  O41  1  0.404984  0.827623  0.586867  1
  O  O42  1  0.191660  0.961156  0.890513  1
  O  O43  1  0.594515  0.833833  0.905526  1
  O  O44  1  0.713951  0.804809  0.344927  1
  O  O45  1  0.789539  0.968208  0.618019  1
