# generated using pymatgen
data_Nb3CoS6
_symmetry_space_group_name_H-M   'P 1'
_cell_length_a   5.78505506
_cell_length_b   5.78505506
_cell_length_c   11.67566037
_cell_angle_alpha   90.00000000
_cell_angle_beta   90.00000000
_cell_angle_gamma   120.00000002
_symmetry_Int_Tables_number   1
_chemical_formula_structural   Nb3CoS6
_chemical_formula_sum   'Nb6 Co2 S12'
_cell_volume   338.39744730
_cell_formula_units_Z   2
loop_
 _symmetry_equiv_pos_site_id
 _symmetry_equiv_pos_as_xyz
  1  'x, y, z'
loop_
 _atom_site_type_symbol
 _atom_site_label
 _atom_site_symmetry_multiplicity
 _atom_site_fract_x
 _atom_site_fract_y
 _atom_site_fract_z
 _atom_site_occupancy
  S  S0  1  0.331258  0.336841  0.135269  1
  S  S1  1  0.663159  0.994417  0.135269  1
  S  S2  1  0.005583  0.668742  0.135269  1
  S  S3  1  0.994417  0.331258  0.635269  1
  S  S4  1  0.668742  0.005583  0.864731  1
  S  S5  1  0.668742  0.663159  0.635269  1
  S  S6  1  0.336841  0.005583  0.635269  1
  S  S7  1  0.663159  0.668742  0.364731  1
  S  S8  1  0.331258  0.994417  0.364731  1
  S  S9  1  0.336841  0.331258  0.864731  1
  S  S10  1  0.994417  0.663159  0.864731  1
  S  S11  1  0.005583  0.336841  0.364731  1
  Co  Co12  1  0.333333  0.666667  0.250000  1
  Co  Co13  1  0.666667  0.333333  0.750000  1
  Nb  Nb14  1  0.666667  0.333333  0.495576  1
  Nb  Nb15  1  0.333333  0.666667  0.995576  1
  Nb  Nb16  1  0.000000  0.000000  0.500000  1
  Nb  Nb17  1  0.000000  0.000000  0.000000  1
  Nb  Nb18  1  0.666667  0.333333  0.004424  1
  Nb  Nb19  1  0.333333  0.666667  0.504424  1
