# generated using pymatgen
data_Rb2S2O7
_symmetry_space_group_name_H-M   'P 1'
_cell_length_a   13.24963355
_cell_length_b   7.74196071
_cell_length_c   7.76993722
_cell_angle_alpha   90.00000000
_cell_angle_beta   89.42333887
_cell_angle_gamma   90.00000000
_symmetry_Int_Tables_number   1
_chemical_formula_structural   Rb2S2O7
_chemical_formula_sum   'Rb8 S8 O28'
_cell_volume   796.98535913
_cell_formula_units_Z   4
loop_
 _symmetry_equiv_pos_site_id
 _symmetry_equiv_pos_as_xyz
  1  'x, y, z'
loop_
 _atom_site_type_symbol
 _atom_site_label
 _atom_site_symmetry_multiplicity
 _atom_site_fract_x
 _atom_site_fract_y
 _atom_site_fract_z
 _atom_site_occupancy
  Rb  Rb0  1  0.130652  0.225794  0.192375  1
  Rb  Rb1  1  0.156950  0.876914  0.640860  1
  Rb  Rb2  1  0.343050  0.376914  0.859140  1
  Rb  Rb3  1  0.369348  0.725794  0.307625  1
  Rb  Rb4  1  0.630652  0.274206  0.692375  1
  Rb  Rb5  1  0.656950  0.623086  0.140860  1
  Rb  Rb6  1  0.843050  0.123085  0.359140  1
  Rb  Rb7  1  0.869348  0.774206  0.807625  1
  S  S8  1  0.079465  0.326338  0.681541  1
  S  S9  1  0.112390  0.724054  0.120703  1
  S  S10  1  0.387610  0.224054  0.379297  1
  S  S11  1  0.420535  0.826338  0.818459  1
  S  S12  1  0.579465  0.173662  0.181541  1
  S  S13  1  0.612390  0.775946  0.620703  1
  S  S14  1  0.887610  0.275946  0.879297  1
  S  S15  1  0.920535  0.673662  0.318459  1
  O  O16  1  0.023162  0.598370  0.211784  1
  O  O17  1  0.041540  0.216388  0.543548  1
  O  O18  1  0.063488  0.819428  0.983324  1
  O  O19  1  0.125976  0.486657  0.625070  1
  O  O20  1  0.137669  0.230147  0.808895  1
  O  O21  1  0.151492  0.834697  0.257455  1
  O  O22  1  0.183629  0.591809  0.063257  1
  O  O23  1  0.316371  0.091809  0.436743  1
  O  O24  1  0.362331  0.730147  0.691105  1
  O  O25  1  0.374024  0.986657  0.874930  1
  O  O26  1  0.348508  0.334697  0.242545  1
  O  O27  1  0.436512  0.319428  0.516676  1
  O  O28  1  0.458460  0.716388  0.956452  1
  O  O29  1  0.476838  0.098370  0.288216  1
  O  O30  1  0.523162  0.901630  0.711784  1
  O  O31  1  0.541540  0.283612  0.043548  1
  O  O32  1  0.563488  0.680572  0.483324  1
  O  O33  1  0.651492  0.665303  0.757455  1
  O  O34  1  0.625976  0.013343  0.125070  1
  O  O35  1  0.637669  0.269853  0.308895  1
  O  O36  1  0.683629  0.908191  0.563257  1
  O  O37  1  0.816371  0.408191  0.936743  1
  O  O38  1  0.848508  0.165303  0.742545  1
  O  O39  1  0.862331  0.769853  0.191105  1
  O  O40  1  0.874024  0.513343  0.374930  1
  O  O41  1  0.936512  0.180572  0.016676  1
  O  O42  1  0.958460  0.783612  0.456452  1
  O  O43  1  0.976838  0.401630  0.788216  1
