# generated using pymatgen
data_Ca2CrO8
_symmetry_space_group_name_H-M   'P 1'
_cell_length_a   5.72120211
_cell_length_b   5.72120211
_cell_length_c   9.71694728
_cell_angle_alpha   81.60624064
_cell_angle_beta   98.39375936
_cell_angle_gamma   96.05026957
_symmetry_Int_Tables_number   1
_chemical_formula_structural   Ca2CrO8
_chemical_formula_sum   'Ca4 Cr2 O16'
_cell_volume   310.12802963
_cell_formula_units_Z   2
loop_
 _symmetry_equiv_pos_site_id
 _symmetry_equiv_pos_as_xyz
  1  'x, y, z'
loop_
 _atom_site_type_symbol
 _atom_site_label
 _atom_site_symmetry_multiplicity
 _atom_site_fract_x
 _atom_site_fract_y
 _atom_site_fract_z
 _atom_site_occupancy
  Ca  Ca0  1  0.560879  0.945653  0.459491  1
  Ca  Ca1  1  0.560910  0.945622  0.959558  1
  Ca  Ca2  1  0.054347  0.439121  0.459491  1
  Ca  Ca3  1  0.054378  0.439090  0.959558  1
  Cr  Cr4  1  0.162393  0.837607  0.156139  1
  Cr  Cr5  1  0.162428  0.837572  0.656223  1
  O  O6  1  0.251713  0.107185  0.085751  1
  O  O7  1  0.251696  0.107164  0.585725  1
  O  O8  1  0.892815  0.748287  0.085751  1
  O  O9  1  0.892836  0.748304  0.585725  1
  O  O10  1  0.187511  0.812489  0.331407  1
  O  O11  1  0.187538  0.812462  0.831437  1
  O  O12  1  0.341656  0.658344  0.111479  1
  O  O13  1  0.341654  0.658346  0.611453  1
  O  O14  1  0.800851  0.199149  0.143724  1
  O  O15  1  0.800857  0.199143  0.643728  1
  O  O16  1  0.460528  0.364030  0.390116  1
  O  O17  1  0.460554  0.364022  0.890174  1
  O  O18  1  0.635970  0.539472  0.390116  1
  O  O19  1  0.635978  0.539446  0.890174  1
  O  O20  1  0.831855  0.168145  0.284136  1
  O  O21  1  0.831854  0.168146  0.784142  1
