# generated using pymatgen
data_Li2FeSiO4
_symmetry_space_group_name_H-M   'P 1'
_cell_length_a   5.41560569
_cell_length_b   5.41560569
_cell_length_c   6.22546640
_cell_angle_alpha   90.00000000
_cell_angle_beta   90.00000000
_cell_angle_gamma   86.81308458
_symmetry_Int_Tables_number   1
_chemical_formula_structural   Li2FeSiO4
_chemical_formula_sum   'Li4 Fe2 Si2 O8'
_cell_volume   182.30299500
_cell_formula_units_Z   2
loop_
 _symmetry_equiv_pos_site_id
 _symmetry_equiv_pos_as_xyz
  1  'x, y, z'
loop_
 _atom_site_type_symbol
 _atom_site_label
 _atom_site_symmetry_multiplicity
 _atom_site_fract_x
 _atom_site_fract_y
 _atom_site_fract_z
 _atom_site_occupancy
  Li  Li0  1  0.324595  0.675405  0.500000  1
  Li  Li1  1  0.189996  0.189996  0.750000  1
  Li  Li2  1  0.810004  0.810004  0.250000  1
  Li  Li3  1  0.675405  0.324595  0.000000  1
  Fe  Fe4  1  0.177965  0.177965  0.250000  1
  Fe  Fe5  1  0.822035  0.822035  0.750000  1
  Si  Si6  1  0.320456  0.679544  0.000000  1
  Si  Si7  1  0.679544  0.320456  0.500000  1
  O  O8  1  0.190542  0.800243  0.219787  1
  O  O9  1  0.199757  0.809458  0.780213  1
  O  O10  1  0.290369  0.377070  0.999348  1
  O  O11  1  0.622930  0.709631  0.000652  1
  O  O12  1  0.377070  0.290369  0.500652  1
  O  O13  1  0.709631  0.622930  0.499348  1
  O  O14  1  0.809458  0.199757  0.719787  1
  O  O15  1  0.800243  0.190542  0.280213  1
