# generated using pymatgen
data_Li12VFe3P4(CO7)4
_symmetry_space_group_name_H-M   'P 1'
_cell_length_a   8.49464420
_cell_length_b   10.05787725
_cell_length_c   6.53275734
_cell_angle_alpha   90.00000000
_cell_angle_beta   90.00000000
_cell_angle_gamma   84.81626295
_symmetry_Int_Tables_number   1
_chemical_formula_structural   Li12VFe3P4(CO7)4
_chemical_formula_sum   'Li12 V1 Fe3 P4 C4 O28'
_cell_volume   555.86352915
_cell_formula_units_Z   1
loop_
 _symmetry_equiv_pos_site_id
 _symmetry_equiv_pos_as_xyz
  1  'x, y, z'
loop_
 _atom_site_type_symbol
 _atom_site_label
 _atom_site_symmetry_multiplicity
 _atom_site_fract_x
 _atom_site_fract_y
 _atom_site_fract_z
 _atom_site_occupancy
  Li  Li0  1  0.092317  0.381761  0.250000  1
  Li  Li1  1  0.095779  0.881923  0.250000  1
  Li  Li2  1  0.274900  0.124737  0.022017  1
  Li  Li3  1  0.274900  0.124737  0.477983  1
  Li  Li4  1  0.276013  0.623813  0.020691  1
  Li  Li5  1  0.276013  0.623813  0.479309  1
  Li  Li6  1  0.724158  0.376239  0.526229  1
  Li  Li7  1  0.724158  0.376239  0.973771  1
  Li  Li8  1  0.724041  0.874838  0.524547  1
  Li  Li9  1  0.724041  0.874838  0.975453  1
  Li  Li10  1  0.906307  0.118786  0.750000  1
  Li  Li11  1  0.904408  0.619047  0.750000  1
  V  V12  1  0.669123  0.604195  0.250000  1
  Fe  Fe13  1  0.334412  0.394248  0.750000  1
  Fe  Fe14  1  0.334408  0.893421  0.750000  1
  Fe  Fe15  1  0.666441  0.105710  0.250000  1
  P  P16  1  0.411417  0.361136  0.250000  1
  P  P17  1  0.412372  0.858827  0.250000  1
  P  P18  1  0.588129  0.140049  0.750000  1
  P  P19  1  0.589065  0.639272  0.750000  1
  C  C20  1  0.034449  0.350700  0.750000  1
  C  C21  1  0.034394  0.850332  0.750000  1
  C  C22  1  0.966312  0.149919  0.250000  1
  C  C23  1  0.964314  0.650437  0.250000  1
  O  O24  1  0.069949  0.472888  0.750000  1
  O  O25  1  0.112171  0.179040  0.250000  1
  O  O26  1  0.070404  0.972699  0.750000  1
  O  O27  1  0.148641  0.254774  0.750000  1
  O  O28  1  0.110050  0.677825  0.250000  1
  O  O29  1  0.148194  0.754416  0.750000  1
  O  O30  1  0.309251  0.413566  0.063462  1
  O  O31  1  0.309251  0.413566  0.436538  1
  O  O32  1  0.310572  0.911463  0.063263  1
  O  O33  1  0.310572  0.911463  0.436737  1
  O  O34  1  0.421382  0.090501  0.750000  1
  O  O35  1  0.430274  0.205040  0.250000  1
  O  O36  1  0.421259  0.590283  0.750000  1
  O  O37  1  0.428908  0.703256  0.250000  1
  O  O38  1  0.571363  0.296101  0.750000  1
  O  O39  1  0.577752  0.411114  0.250000  1
  O  O40  1  0.570635  0.796103  0.750000  1
  O  O41  1  0.578747  0.909845  0.250000  1
  O  O42  1  0.689908  0.087189  0.936671  1
  O  O43  1  0.689908  0.087189  0.563329  1
  O  O44  1  0.692241  0.585920  0.567080  1
  O  O45  1  0.692241  0.585920  0.932920  1
  O  O46  1  0.851905  0.246075  0.250000  1
  O  O47  1  0.888304  0.320794  0.750000  1
  O  O48  1  0.850625  0.746797  0.250000  1
  O  O49  1  0.929965  0.027669  0.250000  1
  O  O50  1  0.887990  0.821322  0.750000  1
  O  O51  1  0.925672  0.528163  0.250000  1
