# generated using pymatgen
data_Fe10O11F9
_symmetry_space_group_name_H-M   'P 1'
_cell_length_a   4.71109411
_cell_length_b   4.70809696
_cell_length_c   15.43847490
_cell_angle_alpha   89.97656779
_cell_angle_beta   89.64077747
_cell_angle_gamma   90.43228458
_symmetry_Int_Tables_number   1
_chemical_formula_structural   Fe10O11F9
_chemical_formula_sum   'Fe10 O11 F9'
_cell_volume   342.41330583
_cell_formula_units_Z   1
loop_
 _symmetry_equiv_pos_site_id
 _symmetry_equiv_pos_as_xyz
  1  'x, y, z'
loop_
 _atom_site_type_symbol
 _atom_site_label
 _atom_site_symmetry_multiplicity
 _atom_site_fract_x
 _atom_site_fract_y
 _atom_site_fract_z
 _atom_site_occupancy
  Fe  Fe0  1  0.977951  0.956596  0.005148  1
  Fe  Fe1  1  0.031966  0.026921  0.188792  1
  Fe  Fe2  1  0.000537  0.981740  0.403196  1
  Fe  Fe3  1  0.042923  0.998001  0.600935  1
  Fe  Fe4  1  0.045099  0.002377  0.803051  1
  Fe  Fe5  1  0.505855  0.493656  0.101932  1
  Fe  Fe6  1  0.471432  0.507999  0.493372  1
  Fe  Fe7  1  0.495711  0.486616  0.305526  1
  Fe  Fe8  1  0.458394  0.493423  0.698335  1
  Fe  Fe9  1  0.475840  0.520341  0.901107  1
  O  O10  1  0.200264  0.791041  0.100932  1
  O  O11  1  0.187152  0.808059  0.498469  1
  O  O12  1  0.202320  0.817134  0.701229  1
  O  O13  1  0.180487  0.804851  0.903970  1
  O  O14  1  0.327060  0.315858  0.201441  1
  O  O15  1  0.294182  0.294732  0.396623  1
  O  O16  1  0.306066  0.315567  0.596728  1
  O  O17  1  0.308076  0.318735  0.802817  1
  O  O18  1  0.675751  0.673931  0.002436  1
  O  O19  1  0.693698  0.693473  0.396751  1
  O  O20  1  0.802348  0.190423  0.098986  1
  F  F21  1  0.198625  0.810854  0.295936  1
  F  F22  1  0.291949  0.289206  0.999957  1
  F  F23  1  0.712673  0.702368  0.205587  1
  F  F24  1  0.699204  0.705841  0.598207  1
  F  F25  1  0.699042  0.709448  0.799918  1
  F  F26  1  0.798100  0.197359  0.500684  1
  F  F27  1  0.818175  0.190393  0.297681  1
  F  F28  1  0.793526  0.195422  0.900432  1
  F  F29  1  0.805594  0.207635  0.699820  1
