# generated using pymatgen
data_LiFe2(BO3)2
_symmetry_space_group_name_H-M   'P 1'
_cell_length_a   5.28313586
_cell_length_b   9.06982847
_cell_length_c   11.37982409
_cell_angle_alpha   113.82314109
_cell_angle_beta   77.66676690
_cell_angle_gamma   90.27683721
_symmetry_Int_Tables_number   1
_chemical_formula_structural   LiFe2(BO3)2
_chemical_formula_sum   'Li4 Fe8 B8 O24'
_cell_volume   485.28829833
_cell_formula_units_Z   4
loop_
 _symmetry_equiv_pos_site_id
 _symmetry_equiv_pos_as_xyz
  1  'x, y, z'
loop_
 _atom_site_type_symbol
 _atom_site_label
 _atom_site_symmetry_multiplicity
 _atom_site_fract_x
 _atom_site_fract_y
 _atom_site_fract_z
 _atom_site_occupancy
  Li  Li0  1  0.174302  0.161275  0.344199  1
  Li  Li1  1  0.608650  0.048697  0.088875  1
  Li  Li2  1  0.929337  0.431152  0.834218  1
  Li  Li3  1  0.111748  0.549901  0.103816  1
  Fe  Fe4  1  0.406582  0.260332  0.864679  1
  Fe  Fe5  1  0.096795  0.218656  0.118378  1
  Fe  Fe6  1  0.838385  0.142521  0.616018  1
  Fe  Fe7  1  0.652831  0.360381  0.374429  1
  Fe  Fe8  1  0.350447  0.648037  0.629261  1
  Fe  Fe9  1  0.152134  0.844533  0.370524  1
  Fe  Fe10  1  0.903573  0.782694  0.866328  1
  Fe  Fe11  1  0.605760  0.718363  0.119844  1
  B  B12  1  0.647960  0.019681  0.365719  1
  B  B13  1  0.887399  0.117599  0.879405  1
  B  B14  1  0.151102  0.512176  0.371223  1
  B  B15  1  0.406477  0.594542  0.870372  1
  B  B16  1  0.858000  0.485451  0.622487  1
  B  B17  1  0.604841  0.392999  0.121747  1
  B  B18  1  0.341128  0.974437  0.621067  1
  B  B19  1  0.097165  0.895469  0.128623  1
  O  O20  1  0.124832  0.147614  0.915127  1
  O  O21  1  0.443638  0.125025  0.672083  1
  O  O22  1  0.232665  0.030277  0.142994  1
  O  O23  1  0.535765  0.155867  0.365490  1
  O  O24  1  0.890928  0.024393  0.398500  1
  O  O25  1  0.787422  0.223813  0.834995  1
  O  O26  1  0.266330  0.469970  0.886092  1
  O  O27  1  0.033987  0.364597  0.337728  1
  O  O28  1  0.686361  0.286551  0.172024  1
  O  O29  1  0.636822  0.476551  0.570376  1
  O  O30  1  0.948607  0.357929  0.639722  1
  O  O31  1  0.374556  0.366679  0.076636  1
  O  O32  1  0.645094  0.619744  0.904837  1
  O  O33  1  0.369341  0.523066  0.423069  1
  O  O34  1  0.297188  0.692596  0.823789  1
  O  O35  1  0.975943  0.629852  0.656250  1
  O  O36  1  0.751673  0.513751  0.114222  1
  O  O37  1  0.193772  0.776782  0.162380  1
  O  O38  1  0.130732  0.963795  0.562520  1
  O  O39  1  0.449513  0.844904  0.628626  1
  O  O40  1  0.059806  0.633999  0.347289  1
  O  O41  1  0.751995  0.998123  0.897386  1
  O  O42  1  0.523002  0.878972  0.332090  1
  O  O43  1  0.867510  0.878262  0.086078  1
