# generated using pymatgen
data_LiSn2(PO4)3
_symmetry_space_group_name_H-M   'P 1'
_cell_length_a   8.58668541
_cell_length_b   8.51124660
_cell_length_c   9.13736462
_cell_angle_alpha   61.88708157
_cell_angle_beta   118.40000294
_cell_angle_gamma   120.28062147
_symmetry_Int_Tables_number   1
_chemical_formula_structural   LiSn2(PO4)3
_chemical_formula_sum   'Li2 Sn4 P6 O24'
_cell_volume   483.17074537
_cell_formula_units_Z   2
loop_
 _symmetry_equiv_pos_site_id
 _symmetry_equiv_pos_as_xyz
  1  'x, y, z'
loop_
 _atom_site_type_symbol
 _atom_site_label
 _atom_site_symmetry_multiplicity
 _atom_site_fract_x
 _atom_site_fract_y
 _atom_site_fract_z
 _atom_site_occupancy
  Li  Li0  1  0.931010  0.315506  0.868712  1
  Li  Li1  1  0.068990  0.684494  0.131288  1
  Sn  Sn2  1  0.641818  0.350241  0.947133  1
  Sn  Sn3  1  0.850139  0.136965  0.567994  1
  Sn  Sn4  1  0.149861  0.863035  0.432006  1
  Sn  Sn5  1  0.358181  0.649759  0.052867  1
  P  P6  1  0.962636  0.749102  0.753791  1
  P  P7  1  0.541708  0.039379  0.751598  1
  P  P8  1  0.245997  0.460325  0.745853  1
  P  P9  1  0.754003  0.539675  0.254147  1
  P  P10  1  0.458292  0.960621  0.248402  1
  P  P11  1  0.037364  0.250898  0.246209  1
  O  O12  1  0.824603  0.535691  0.793327  1
  O  O13  1  0.871713  0.877126  0.733298  1
  O  O14  1  0.523659  0.845124  0.896792  1
  O  O15  1  0.747417  0.126923  0.741219  1
  O  O16  1  0.454876  0.488005  0.798544  1
  O  O17  1  0.514698  0.178476  0.792828  1
  O  O18  1  0.205753  0.475025  0.890037  1
  O  O19  1  0.144579  0.768813  0.918034  1
  O  O20  1  0.991873  0.195654  0.409676  1
  O  O21  1  0.110622  0.258418  0.730921  1
  O  O22  1  0.400029  0.017514  0.573497  1
  O  O23  1  0.800687  0.388031  0.428648  1
  O  O24  1  0.199313  0.611969  0.571352  1
  O  O25  1  0.599971  0.982486  0.426503  1
  O  O26  1  0.889378  0.741582  0.269079  1
  O  O27  1  0.008127  0.804346  0.590324  1
  O  O28  1  0.855421  0.231187  0.081966  1
  O  O29  1  0.794247  0.524975  0.109963  1
  O  O30  1  0.485302  0.821524  0.207172  1
  O  O31  1  0.545124  0.511995  0.201456  1
  O  O32  1  0.252583  0.873077  0.258781  1
  O  O33  1  0.476341  0.154876  0.103208  1
  O  O34  1  0.128287  0.122874  0.266702  1
  O  O35  1  0.175397  0.464309  0.206673  1
