# generated using pymatgen
data_Mg7Si4(HO8)2
_symmetry_space_group_name_H-M   'P 1'
_cell_length_a   5.82850039
_cell_length_b   11.58392709
_cell_length_c   8.28279619
_cell_angle_alpha   90.00000000
_cell_angle_beta   90.00000000
_cell_angle_gamma   90.00000000
_symmetry_Int_Tables_number   1
_chemical_formula_structural   Mg7Si4(HO8)2
_chemical_formula_sum   'Mg14 Si8 H4 O32'
_cell_volume   559.22891724
_cell_formula_units_Z   2
loop_
 _symmetry_equiv_pos_site_id
 _symmetry_equiv_pos_as_xyz
  1  'x, y, z'
loop_
 _atom_site_type_symbol
 _atom_site_label
 _atom_site_symmetry_multiplicity
 _atom_site_fract_x
 _atom_site_fract_y
 _atom_site_fract_z
 _atom_site_occupancy
  Mg  Mg0  1  0.000000  0.500000  0.000000  1
  Mg  Mg1  1  0.000000  0.000000  0.000000  1
  Mg  Mg2  1  0.500000  0.000000  0.500000  1
  Mg  Mg3  1  0.500000  0.500000  0.500000  1
  Mg  Mg4  1  0.000000  0.250000  0.954181  1
  Mg  Mg5  1  0.000000  0.750000  0.045819  1
  Mg  Mg6  1  0.746199  0.386190  0.251688  1
  Mg  Mg7  1  0.746199  0.613810  0.748312  1
  Mg  Mg8  1  0.746199  0.113810  0.251688  1
  Mg  Mg9  1  0.746199  0.886190  0.748312  1
  Mg  Mg10  1  0.253801  0.613810  0.748312  1
  Mg  Mg11  1  0.253801  0.386190  0.251688  1
  Mg  Mg12  1  0.253801  0.886190  0.748312  1
  Mg  Mg13  1  0.253801  0.113810  0.251688  1
  Si  Si14  1  0.000000  0.381012  0.608064  1
  Si  Si15  1  0.000000  0.618988  0.391936  1
  Si  Si16  1  0.000000  0.118988  0.608064  1
  Si  Si17  1  0.000000  0.881012  0.391936  1
  Si  Si18  1  0.500000  0.875940  0.112030  1
  Si  Si19  1  0.500000  0.124060  0.887970  1
  Si  Si20  1  0.500000  0.624060  0.112030  1
  Si  Si21  1  0.500000  0.375940  0.887970  1
  H  H22  1  0.000000  0.250000  0.356343  1
  H  H23  1  0.000000  0.750000  0.643657  1
  H  H24  1  0.500000  0.750000  0.596711  1
  H  H25  1  0.500000  0.250000  0.403289  1
  O  O26  1  0.000000  0.250000  0.237060  1
  O  O27  1  0.000000  0.750000  0.762940  1
  O  O28  1  0.500000  0.750000  0.715966  1
  O  O29  1  0.500000  0.250000  0.284035  1
  O  O30  1  0.000000  0.250000  0.708364  1
  O  O31  1  0.000000  0.750000  0.291636  1
  O  O32  1  0.500000  0.750000  0.205436  1
  O  O33  1  0.500000  0.250000  0.794564  1
  O  O34  1  0.000000  0.515781  0.248677  1
  O  O35  1  0.000000  0.484219  0.751323  1
  O  O36  1  0.000000  0.984219  0.248677  1
  O  O37  1  0.000000  0.015781  0.751323  1
  O  O38  1  0.500000  0.013552  0.760792  1
  O  O39  1  0.500000  0.986448  0.239208  1
  O  O40  1  0.500000  0.486448  0.760792  1
  O  O41  1  0.500000  0.513552  0.239208  1
  O  O42  1  0.739578  0.375372  0.000801  1
  O  O43  1  0.739578  0.624628  0.999199  1
  O  O44  1  0.739578  0.124628  0.000801  1
  O  O45  1  0.739578  0.875372  0.999199  1
  O  O46  1  0.260422  0.624628  0.999199  1
  O  O47  1  0.260422  0.375372  0.000801  1
  O  O48  1  0.260422  0.875372  0.999199  1
  O  O49  1  0.260422  0.124628  0.000801  1
  O  O50  1  0.228975  0.882966  0.505233  1
  O  O51  1  0.228975  0.117034  0.494767  1
  O  O52  1  0.228975  0.617034  0.505233  1
  O  O53  1  0.228975  0.382966  0.494767  1
  O  O54  1  0.771025  0.117034  0.494767  1
  O  O55  1  0.771025  0.882966  0.505233  1
  O  O56  1  0.771025  0.382966  0.494767  1
  O  O57  1  0.771025  0.617034  0.505233  1
