# generated using pymatgen
data_Li4Ti3Mn3(FeO8)2
_symmetry_space_group_name_H-M   'P 1'
_cell_length_a   5.93935358
_cell_length_b   5.99450960
_cell_length_c   9.59183423
_cell_angle_alpha   89.47428191
_cell_angle_beta   90.43019068
_cell_angle_gamma   120.88613973
_symmetry_Int_Tables_number   1
_chemical_formula_structural   Li4Ti3Mn3(FeO8)2
_chemical_formula_sum   'Li4 Ti3 Mn3 Fe2 O16'
_cell_volume   293.06024885
_cell_formula_units_Z   1
loop_
 _symmetry_equiv_pos_site_id
 _symmetry_equiv_pos_as_xyz
  1  'x, y, z'
loop_
 _atom_site_type_symbol
 _atom_site_label
 _atom_site_symmetry_multiplicity
 _atom_site_fract_x
 _atom_site_fract_y
 _atom_site_fract_z
 _atom_site_occupancy
  Li  Li0  1  0.341244  0.673523  0.890251  1
  Li  Li1  1  0.000415  0.998034  0.995447  1
  Li  Li2  1  0.989114  0.994144  0.496719  1
  Li  Li3  1  0.661578  0.332689  0.395286  1
  Ti  Ti4  1  0.171149  0.831285  0.216328  1
  Ti  Ti5  1  0.173315  0.340743  0.215669  1
  Ti  Ti6  1  0.339996  0.168096  0.714066  1
  Mn  Mn7  1  0.662166  0.833027  0.212151  1
  Mn  Mn8  1  0.827942  0.658997  0.713792  1
  Mn  Mn9  1  0.832993  0.172929  0.715596  1
  Fe  Fe10  1  0.333455  0.664164  0.492599  1
  Fe  Fe11  1  0.680331  0.342025  0.989669  1
  O  O12  1  0.158678  0.835376  0.602032  1
  O  O13  1  0.031761  0.512237  0.331785  1
  O  O14  1  0.340851  0.672203  0.106060  1
  O  O15  1  0.992121  0.995158  0.308770  1
  O  O16  1  0.003504  0.983324  0.810273  1
  O  O17  1  0.155064  0.320254  0.603532  1
  O  O18  1  0.461357  0.959189  0.345587  1
  O  O19  1  0.465198  0.506820  0.341046  1
  O  O20  1  0.332946  0.167965  0.104581  1
  O  O21  1  0.669726  0.820508  0.601550  1
  O  O22  1  0.518360  0.479111  0.835837  1
  O  O23  1  0.525119  0.043899  0.835082  1
  O  O24  1  0.655197  0.345384  0.603012  1
  O  O25  1  0.856691  0.673211  0.098358  1
  O  O26  1  0.966156  0.499055  0.836722  1
  O  O27  1  0.853570  0.176951  0.096037  1
