# generated using pymatgen
data_Mn2Si(H2O3)2
_symmetry_space_group_name_H-M   'P 1'
_cell_length_a   12.88021610
_cell_length_b   7.30623538
_cell_length_c   5.41337039
_cell_angle_alpha   90.00351560
_cell_angle_beta   90.00000000
_cell_angle_gamma   90.00000000
_symmetry_Int_Tables_number   1
_chemical_formula_structural   Mn2Si(H2O3)2
_chemical_formula_sum   'Mn8 Si4 H16 O24'
_cell_volume   509.43004107
_cell_formula_units_Z   4
loop_
 _symmetry_equiv_pos_site_id
 _symmetry_equiv_pos_as_xyz
  1  'x, y, z'
loop_
 _atom_site_type_symbol
 _atom_site_label
 _atom_site_symmetry_multiplicity
 _atom_site_fract_x
 _atom_site_fract_y
 _atom_site_fract_z
 _atom_site_occupancy
  Mn  Mn0  1  0.687803  0.176815  0.999873  1
  Mn  Mn1  1  0.312365  0.823254  0.499560  1
  Mn  Mn2  1  0.812197  0.176815  0.499873  1
  Mn  Mn3  1  0.187635  0.823254  0.999560  1
  Mn  Mn4  1  0.458802  0.830239  0.978157  1
  Mn  Mn5  1  0.541076  0.169880  0.478705  1
  Mn  Mn6  1  0.041198  0.830239  0.478157  1
  Mn  Mn7  1  0.958924  0.169880  0.978705  1
  Si  Si8  1  0.314170  0.215071  0.185184  1
  Si  Si9  1  0.685850  0.784915  0.685177  1
  Si  Si10  1  0.185830  0.215071  0.685184  1
  Si  Si11  1  0.814150  0.784915  0.185177  1
  H  H12  1  0.381548  0.110313  0.749423  1
  H  H13  1  0.618449  0.889640  0.249442  1
  H  H14  1  0.118452  0.110313  0.249423  1
  H  H15  1  0.881551  0.889640  0.749442  1
  H  H16  1  0.183441  0.548149  0.351859  1
  H  H17  1  0.816552  0.451859  0.851862  1
  H  H18  1  0.316559  0.548149  0.851859  1
  H  H19  1  0.683448  0.451859  0.351862  1
  H  H20  1  0.434927  0.520291  0.298916  1
  H  H21  1  0.565078  0.479658  0.798937  1
  H  H22  1  0.065073  0.520291  0.798916  1
  H  H23  1  0.934922  0.479658  0.298937  1
  H  H24  1  0.499813  0.665446  0.472969  1
  H  H25  1  0.500205  0.334510  0.972966  1
  H  H26  1  0.000187  0.665446  0.972969  1
  H  H27  1  0.999795  0.334510  0.472966  1
  O  O28  1  0.317854  0.992113  0.173127  1
  O  O29  1  0.682145  0.007870  0.673192  1
  O  O30  1  0.182146  0.992113  0.673127  1
  O  O31  1  0.817855  0.007870  0.173192  1
  O  O32  1  0.425501  0.016687  0.674060  1
  O  O33  1  0.574523  0.983322  0.174089  1
  O  O34  1  0.074499  0.016687  0.174060  1
  O  O35  1  0.925477  0.983322  0.674089  1
  O  O36  1  0.177556  0.681646  0.347294  1
  O  O37  1  0.822450  0.318373  0.847351  1
  O  O38  1  0.322444  0.681646  0.847294  1
  O  O39  1  0.677550  0.318373  0.347351  1
  O  O40  1  0.446844  0.656836  0.334913  1
  O  O41  1  0.553182  0.343125  0.834944  1
  O  O42  1  0.053157  0.656836  0.834913  1
  O  O43  1  0.946818  0.343125  0.334944  1
  O  O44  1  0.426511  0.311691  0.228074  1
  O  O45  1  0.573485  0.688315  0.728056  1
  O  O46  1  0.073489  0.311691  0.728074  1
  O  O47  1  0.926515  0.688315  0.228056  1
  O  O48  1  0.268440  0.285390  0.907735  1
  O  O49  1  0.731556  0.714593  0.407734  1
  O  O50  1  0.231560  0.285390  0.407735  1
  O  O51  1  0.768444  0.714593  0.907734  1
