# generated using pymatgen
data_Li4Nb2V3Cu3O16
_symmetry_space_group_name_H-M   'P 1'
_cell_length_a   6.06580629
_cell_length_b   5.87845479
_cell_length_c   9.84113647
_cell_angle_alpha   89.96598063
_cell_angle_beta   88.56158513
_cell_angle_gamma   119.00641818
_symmetry_Int_Tables_number   1
_chemical_formula_structural   Li4Nb2V3Cu3O16
_chemical_formula_sum   'Li4 Nb2 V3 Cu3 O16'
_cell_volume   306.76519606
_cell_formula_units_Z   1
loop_
 _symmetry_equiv_pos_site_id
 _symmetry_equiv_pos_as_xyz
  1  'x, y, z'
loop_
 _atom_site_type_symbol
 _atom_site_label
 _atom_site_symmetry_multiplicity
 _atom_site_fract_x
 _atom_site_fract_y
 _atom_site_fract_z
 _atom_site_occupancy
  Li  Li0  1  0.329899  0.664588  0.907624  1
  Li  Li1  1  0.981462  0.990650  0.995726  1
  Li  Li2  1  0.004016  0.001859  0.483012  1
  Li  Li3  1  0.709388  0.355298  0.403398  1
  Nb  Nb4  1  0.315231  0.657953  0.499992  1
  Nb  Nb5  1  0.651239  0.325322  0.998172  1
  V  V6  1  0.646445  0.823207  0.238584  1
  V  V7  1  0.807142  0.649071  0.718638  1
  V  V8  1  0.807213  0.158272  0.718457  1
  Cu  Cu9  1  0.165733  0.825749  0.204210  1
  Cu  Cu10  1  0.165557  0.340107  0.204332  1
  Cu  Cu11  1  0.326380  0.163434  0.722599  1
  O  O12  1  0.164090  0.834002  0.592522  1
  O  O13  1  0.076317  0.538918  0.350065  1
  O  O14  1  0.367209  0.683564  0.119233  1
  O  O15  1  0.984612  0.992277  0.287819  1
  O  O16  1  0.963287  0.981819  0.806464  1
  O  O17  1  0.163716  0.330192  0.592542  1
  O  O18  1  0.538732  0.986919  0.351960  1
  O  O19  1  0.537623  0.551434  0.352049  1
  O  O20  1  0.315402  0.157003  0.075734  1
  O  O21  1  0.669855  0.834709  0.597574  1
  O  O22  1  0.524967  0.495330  0.835366  1
  O  O23  1  0.524489  0.029122  0.835257  1
  O  O24  1  0.724469  0.362172  0.601105  1
  O  O25  1  0.792174  0.649493  0.089137  1
  O  O26  1  0.950244  0.474974  0.837239  1
  O  O27  1  0.793110  0.142859  0.089029  1
