# generated using pymatgen
data_Li4Cr2Ni3Sn(PO4)6
_symmetry_space_group_name_H-M   'P 1'
_cell_length_a   8.41975249
_cell_length_b   8.70312801
_cell_length_c   8.69223810
_cell_angle_alpha   61.78745497
_cell_angle_beta   62.55833318
_cell_angle_gamma   62.65487671
_symmetry_Int_Tables_number   1
_chemical_formula_structural   Li4Cr2Ni3Sn(PO4)6
_chemical_formula_sum   'Li4 Cr2 Ni3 Sn1 P6 O24'
_cell_volume   473.78332770
_cell_formula_units_Z   1
loop_
 _symmetry_equiv_pos_site_id
 _symmetry_equiv_pos_as_xyz
  1  'x, y, z'
loop_
 _atom_site_type_symbol
 _atom_site_label
 _atom_site_symmetry_multiplicity
 _atom_site_fract_x
 _atom_site_fract_y
 _atom_site_fract_z
 _atom_site_occupancy
  Li  Li0  1  0.745981  0.149761  0.350887  1
  Li  Li1  1  0.292557  0.844748  0.640246  1
  Li  Li2  1  0.634106  0.293585  0.849674  1
  Li  Li3  1  0.855491  0.636570  0.297260  1
  Cr  Cr4  1  0.010289  0.001356  0.002664  1
  Cr  Cr5  1  0.492211  0.499426  0.500016  1
  Ni  Ni6  1  0.145151  0.147925  0.144753  1
  Ni  Ni7  1  0.353504  0.355751  0.352422  1
  Ni  Ni8  1  0.646475  0.648292  0.651721  1
  Sn  Sn9  1  0.851027  0.846628  0.851990  1
  P  P10  1  0.250148  0.542082  0.955202  1
  P  P11  1  0.554871  0.958379  0.249277  1
  P  P12  1  0.943210  0.247223  0.539184  1
  P  P13  1  0.057058  0.745828  0.446291  1
  P  P14  1  0.438026  0.050377  0.747320  1
  P  P15  1  0.746018  0.441825  0.053926  1
  O  O16  1  0.104772  0.306603  0.498043  1
  O  O17  1  0.304402  0.517675  0.110447  1
  O  O18  1  0.054941  0.912952  0.268049  1
  O  O19  1  0.546595  0.106134  0.303000  1
  O  O20  1  0.021635  0.806324  0.607520  1
  O  O21  1  0.251204  0.596777  0.431295  1
  O  O22  1  0.248261  0.073254  0.901442  1
  O  O23  1  0.447806  0.230652  0.583393  1
  O  O24  1  0.182796  0.393667  0.986195  1
  O  O25  1  0.596387  0.423410  0.247021  1
  O  O26  1  0.096679  0.745830  0.920729  1
  O  O27  1  0.398052  0.005465  0.181411  1
  O  O28  1  0.598891  0.011617  0.818788  1
  O  O29  1  0.900072  0.252612  0.078161  1
  O  O30  1  0.407084  0.568039  0.760072  1
  O  O31  1  0.808178  0.602480  0.021729  1
  O  O32  1  0.571360  0.764693  0.404675  1
  O  O33  1  0.760504  0.924005  0.092181  1
  O  O34  1  0.745495  0.403979  0.566960  1
  O  O35  1  0.958447  0.182758  0.396586  1
  O  O36  1  0.472913  0.892289  0.690406  1
  O  O37  1  0.921930  0.093342  0.740423  1
  O  O38  1  0.685628  0.476556  0.896163  1
  O  O39  1  0.899845  0.676131  0.485478  1
