# generated using pymatgen
data_Na4TeMo6H40(NO20)2
_symmetry_space_group_name_H-M   'P 1'
_cell_length_a   11.41878351
_cell_length_b   11.96316139
_cell_length_c   10.90948125
_cell_angle_alpha   99.29293979
_cell_angle_beta   117.45437614
_cell_angle_gamma   112.27796181
_symmetry_Int_Tables_number   1
_chemical_formula_structural   Na4TeMo6H40(NO20)2
_chemical_formula_sum   'Na4 Te1 Mo6 H40 N2 O40'
_cell_volume   1116.42140753
_cell_formula_units_Z   1
loop_
 _symmetry_equiv_pos_site_id
 _symmetry_equiv_pos_as_xyz
  1  'x, y, z'
loop_
 _atom_site_type_symbol
 _atom_site_label
 _atom_site_symmetry_multiplicity
 _atom_site_fract_x
 _atom_site_fract_y
 _atom_site_fract_z
 _atom_site_occupancy
  Na  Na0  1  0.336503  0.883544  0.504112  1
  Na  Na1  1  0.663497  0.116456  0.495888  1
  Na  Na2  1  0.248954  0.345360  0.687804  1
  Na  Na3  1  0.751046  0.654640  0.312196  1
  Te  Te4  1  0.000000  0.000000  0.000000  1
  Mo  Mo5  1  0.168609  0.450022  0.164295  1
  Mo  Mo6  1  0.831391  0.549978  0.835705  1
  Mo  Mo7  1  0.628197  0.719210  0.828191  1
  Mo  Mo8  1  0.371803  0.280790  0.171809  1
  Mo  Mo9  1  0.686928  0.055908  0.964040  1
  Mo  Mo10  1  0.313072  0.944092  0.035960  1
  H  H11  1  0.713895  0.369717  0.034312  1
  H  H12  1  0.286105  0.630283  0.965688  1
  H  H13  1  0.883456  0.552292  0.394404  1
  H  H14  1  0.116544  0.447708  0.605596  1
  H  H15  1  0.496050  0.599752  0.996357  1
  H  H16  1  0.503950  0.400248  0.003643  1
  H  H17  1  0.569584  0.117133  0.920285  1
  H  H18  1  0.430416  0.882867  0.079715  1
  H  H19  1  0.688147  0.954221  0.689689  1
  H  H20  1  0.311853  0.045779  0.310311  1
  H  H21  1  0.543326  0.783898  0.432298  1
  H  H22  1  0.456674  0.216102  0.567702  1
  H  H23  1  0.935431  0.352869  0.156101  1
  H  H24  1  0.064569  0.647131  0.843899  1
  H  H25  1  0.051511  0.686876  0.102754  1
  H  H26  1  0.948489  0.313124  0.897246  1
  H  H27  1  0.030592  0.940258  0.521823  1
  H  H28  1  0.969408  0.059742  0.478177  1
  H  H29  1  0.293138  0.855728  0.771267  1
  H  H30  1  0.706862  0.144272  0.228733  1
  H  H31  1  0.009812  0.056801  0.282221  1
  H  H32  1  0.990188  0.943199  0.717779  1
  H  H33  1  0.050528  0.674023  0.390330  1
  H  H34  1  0.949472  0.325977  0.609670  1
  H  H35  1  0.925585  0.595205  0.199693  1
  H  H36  1  0.074415  0.404795  0.800307  1
  H  H37  1  0.877377  0.864586  0.137359  1
  H  H38  1  0.122623  0.135414  0.862641  1
  H  H39  1  0.803698  0.353174  0.463286  1
  H  H40  1  0.196302  0.646826  0.536714  1
  H  H41  1  0.962593  0.606175  0.565908  1
  H  H42  1  0.037407  0.393825  0.434092  1
  H  H43  1  0.624363  0.647648  0.514806  1
  H  H44  1  0.375637  0.352352  0.485194  1
  H  H45  1  0.117582  0.197445  0.281062  1
  H  H46  1  0.882418  0.802555  0.718938  1
  H  H47  1  0.644752  0.843633  0.061775  1
  H  H48  1  0.355248  0.156367  0.938225  1
  H  H49  1  0.501810  0.135503  0.281625  1
  H  H50  1  0.498190  0.864497  0.718375  1
  N  N51  1  0.945839  0.599300  0.036234  1
  N  N52  1  0.054161  0.400700  0.963766  1
  O  O53  1  0.248725  0.335654  0.216660  1
  O  O54  1  0.751275  0.664346  0.783340  1
  O  O55  1  0.815967  0.209709  0.989893  1
  O  O56  1  0.184033  0.790291  0.010107  1
  O  O57  1  0.041784  0.430219  0.234365  1
  O  O58  1  0.958216  0.569781  0.765635  1
  O  O59  1  0.314588  0.613699  0.240405  1
  O  O60  1  0.685412  0.386301  0.759595  1
  O  O61  1  0.866975  0.833096  0.040658  1
  O  O62  1  0.133025  0.166904  0.959342  1
  O  O63  1  0.022783  0.109700  0.218497  1
  O  O64  1  0.977217  0.890300  0.781503  1
  O  O65  1  0.781156  0.975936  0.870927  1
  O  O66  1  0.218844  0.024064  0.129073  1
  O  O67  1  0.610885  0.844899  0.961766  1
  O  O68  1  0.389115  0.155101  0.038234  1
  O  O69  1  0.526290  0.736922  0.662663  1
  O  O70  1  0.473710  0.263078  0.337337  1
  O  O71  1  0.492698  0.567040  0.792200  1
  O  O72  1  0.507302  0.432960  0.207800  1
  O  O73  1  0.701823  0.089706  0.144543  1
  O  O74  1  0.298177  0.910294  0.855457  1
  O  O75  1  0.501223  0.947497  0.756972  1
  O  O76  1  0.498777  0.052503  0.243028  1
  O  O77  1  0.627313  0.951987  0.584573  1
  O  O78  1  0.372687  0.048013  0.415427  1
  O  O79  1  0.353339  0.134890  0.506741  1
  O  O80  1  0.646661  0.865110  0.493259  1
  O  O81  1  0.807104  0.272372  0.457580  1
  O  O82  1  0.192896  0.727628  0.542420  1
  O  O83  1  0.859504  0.552753  0.471727  1
  O  O84  1  0.140496  0.447247  0.528273  1
  O  O85  1  0.981879  0.884849  0.409511  1
  O  O86  1  0.018121  0.115151  0.590489  1
  O  O87  1  0.064677  0.370750  0.706006  1
  O  O88  1  0.935323  0.629250  0.293994  1
  O  O89  1  0.076857  0.043254  0.667504  1
  O  O90  1  0.923143  0.956746  0.332496  1
  O  O91  1  0.403872  0.379001  0.920471  1
  O  O92  1  0.596128  0.620999  0.079529  1
