# generated using pymatgen
data_Fe3Cu(PO4)4
_symmetry_space_group_name_H-M   'P 1'
_cell_length_a   4.85071332
_cell_length_b   9.91898021
_cell_length_c   5.91077295
_cell_angle_alpha   90.00000000
_cell_angle_beta   90.00000000
_cell_angle_gamma   89.97473476
_symmetry_Int_Tables_number   1
_chemical_formula_structural   Fe3Cu(PO4)4
_chemical_formula_sum   'Fe3 Cu1 P4 O16'
_cell_volume   284.39166739
_cell_formula_units_Z   1
loop_
 _symmetry_equiv_pos_site_id
 _symmetry_equiv_pos_as_xyz
  1  'x, y, z'
loop_
 _atom_site_type_symbol
 _atom_site_label
 _atom_site_symmetry_multiplicity
 _atom_site_fract_x
 _atom_site_fract_y
 _atom_site_fract_z
 _atom_site_occupancy
  Fe  Fe0  1  0.471092  0.226961  0.750000  1
  Fe  Fe1  1  0.530803  0.772096  0.250000  1
  Fe  Fe2  1  0.967628  0.273626  0.250000  1
  Cu  Cu3  1  0.044663  0.723768  0.750000  1
  P  P4  1  0.082863  0.596827  0.250000  1
  P  P5  1  0.418728  0.095420  0.250000  1
  P  P6  1  0.576736  0.901530  0.750000  1
  P  P7  1  0.919439  0.407472  0.750000  1
  O  O8  1  0.153640  0.446447  0.250000  1
  O  O9  1  0.233578  0.671821  0.049349  1
  O  O10  1  0.233578  0.671821  0.450651  1
  O  O11  1  0.231421  0.384113  0.750000  1
  O  O12  1  0.262166  0.888143  0.750000  1
  O  O13  1  0.273976  0.170901  0.047288  1
  O  O14  1  0.273976  0.170901  0.452712  1
  O  O15  1  0.345364  0.945650  0.250000  1
  O  O16  1  0.652628  0.051818  0.750000  1
  O  O17  1  0.718516  0.826848  0.546084  1
  O  O18  1  0.718516  0.826848  0.953916  1
  O  O19  1  0.730609  0.116150  0.250000  1
  O  O20  1  0.771061  0.616439  0.250000  1
  O  O21  1  0.774992  0.329378  0.547695  1
  O  O22  1  0.774992  0.329378  0.952305  1
  O  O23  1  0.839034  0.555642  0.750000  1
