# generated using pymatgen
data_LiFe2(PO4)2
_symmetry_space_group_name_H-M   'P 1'
_cell_length_a   6.34369416
_cell_length_b   4.90507629
_cell_length_c   8.17789870
_cell_angle_alpha   146.45035836
_cell_angle_beta   89.28958869
_cell_angle_gamma   90.51324199
_symmetry_Int_Tables_number   1
_chemical_formula_structural   LiFe2(PO4)2
_chemical_formula_sum   'Li1 Fe2 P2 O8'
_cell_volume   140.62173620
_cell_formula_units_Z   1
loop_
 _symmetry_equiv_pos_site_id
 _symmetry_equiv_pos_as_xyz
  1  'x, y, z'
loop_
 _atom_site_type_symbol
 _atom_site_label
 _atom_site_symmetry_multiplicity
 _atom_site_fract_x
 _atom_site_fract_y
 _atom_site_fract_z
 _atom_site_occupancy
  Li  Li0  1  0.739876  0.507619  0.833183  1
  Fe  Fe1  1  0.005504  0.508347  0.499687  1
  Fe  Fe2  1  0.486527  0.503640  0.499395  1
  P  P3  1  0.236836  0.506007  0.851608  1
  P  P4  1  0.747530  0.506480  0.157803  1
  O  O5  1  0.040531  0.507209  0.740728  1
  O  O6  1  0.229005  0.035680  0.728134  1
  O  O7  1  0.227602  0.973926  0.198150  1
  O  O8  1  0.444527  0.506434  0.753539  1
  O  O9  1  0.543465  0.504911  0.254934  1
  O  O10  1  0.757660  0.043210  0.807244  1
  O  O11  1  0.756209  0.969716  0.270414  1
  O  O12  1  0.941060  0.507968  0.268275  1
