# generated using pymatgen
data_Li2Mn4O7F
_symmetry_space_group_name_H-M   'P 1'
_cell_length_a   5.97419907
_cell_length_b   5.90931520
_cell_length_c   6.10508664
_cell_angle_alpha   121.08664630
_cell_angle_beta   89.98819191
_cell_angle_gamma   60.24061230
_symmetry_Int_Tables_number   1
_chemical_formula_structural   Li2Mn4O7F
_chemical_formula_sum   'Li2 Mn4 O7 F1'
_cell_volume   150.39668887
_cell_formula_units_Z   1
loop_
 _symmetry_equiv_pos_site_id
 _symmetry_equiv_pos_as_xyz
  1  'x, y, z'
loop_
 _atom_site_type_symbol
 _atom_site_label
 _atom_site_symmetry_multiplicity
 _atom_site_fract_x
 _atom_site_fract_y
 _atom_site_fract_z
 _atom_site_occupancy
  Li  Li0  1  0.637894  0.230673  0.115292  1
  Li  Li1  1  0.501592  0.001295  0.500660  1
  Mn  Mn2  1  0.361553  0.771119  0.885639  1
  Mn  Mn3  1  0.008919  0.503557  0.507200  1
  Mn  Mn4  1  0.008885  0.503503  0.996174  1
  Mn  Mn5  1  0.994966  0.997112  0.498540  1
  O  O6  1  0.787205  0.962467  0.256872  1
  O  O7  1  0.787232  0.962368  0.705545  1
  O  O8  1  0.213510  0.516876  0.258015  1
  O  O9  1  0.227543  0.494435  0.747829  1
  O  O10  1  0.779740  0.479534  0.740170  1
  O  O11  1  0.215014  0.035819  0.742447  1
  O  O12  1  0.214994  0.036014  0.293426  1
  F  F13  1  0.760954  0.505229  0.252193  1
