# generated using pymatgen
data_Li2MnV(PO4)3
_symmetry_space_group_name_H-M   'P 1'
_cell_length_a   8.91915214
_cell_length_b   8.50260241
_cell_length_c   8.31364400
_cell_angle_alpha   59.47637180
_cell_angle_beta   63.61698314
_cell_angle_gamma   91.43449374
_symmetry_Int_Tables_number   1
_chemical_formula_structural   Li2MnV(PO4)3
_chemical_formula_sum   'Li4 Mn2 V2 P6 O24'
_cell_volume   460.13899550
_cell_formula_units_Z   2
loop_
 _symmetry_equiv_pos_site_id
 _symmetry_equiv_pos_as_xyz
  1  'x, y, z'
loop_
 _atom_site_type_symbol
 _atom_site_label
 _atom_site_symmetry_multiplicity
 _atom_site_fract_x
 _atom_site_fract_y
 _atom_site_fract_z
 _atom_site_occupancy
  Li  Li0  1  0.160598  0.331007  0.938846  1
  Li  Li1  1  0.864028  0.684931  0.048783  1
  Li  Li2  1  0.867838  0.922804  0.399388  1
  Li  Li3  1  0.861873  0.265342  0.812498  1
  Mn  Mn4  1  0.053074  0.353471  0.303495  1
  Mn  Mn5  1  0.956052  0.649539  0.693806  1
  V  V6  1  0.559433  0.854541  0.293575  1
  V  V7  1  0.433416  0.140932  0.712151  1
  P  P8  1  0.250416  0.037852  0.214225  1
  P  P9  1  0.252406  0.453113  0.502565  1
  P  P10  1  0.247628  0.753408  0.785481  1
  P  P11  1  0.755596  0.251150  0.210741  1
  P  P12  1  0.749668  0.538001  0.495487  1
  P  P13  1  0.745636  0.968372  0.784227  1
  O  O14  1  0.092214  0.842970  0.377503  1
  O  O15  1  0.268221  0.122118  0.988288  1
  O  O16  1  0.211785  0.176268  0.277733  1
  O  O17  1  0.202446  0.484991  0.337219  1
  O  O18  1  0.099436  0.434065  0.706810  1
  O  O19  1  0.089736  0.779388  0.749433  1
  O  O20  1  0.426611  0.000483  0.191196  1
  O  O21  1  0.298178  0.263329  0.597921  1
  O  O22  1  0.417250  0.621301  0.383219  1
  O  O23  1  0.204869  0.540826  0.967033  1
  O  O24  1  0.273087  0.890317  0.845329  1
  O  O25  1  0.417531  0.806980  0.572131  1
  O  O26  1  0.590396  0.194104  0.421086  1
  O  O27  1  0.732668  0.115577  0.143055  1
  O  O28  1  0.804120  0.463395  0.022279  1
  O  O29  1  0.572555  0.378538  0.631378  1
  O  O30  1  0.721616  0.741263  0.396463  1
  O  O31  1  0.567455  0.000878  0.812394  1
  O  O32  1  0.916080  0.216956  0.244903  1
  O  O33  1  0.888892  0.539451  0.300760  1
  O  O34  1  0.808776  0.506794  0.657194  1
  O  O35  1  0.790986  0.842902  0.700770  1
  O  O36  1  0.724382  0.871560  0.015339  1
  O  O37  1  0.889344  0.169649  0.633038  1
