# generated using pymatgen
data_LiFe2O2F3
_symmetry_space_group_name_H-M   'P 1'
_cell_length_a   5.32672056
_cell_length_b   5.81457616
_cell_length_c   7.21103485
_cell_angle_alpha   70.58433787
_cell_angle_beta   89.91634129
_cell_angle_gamma   62.68134836
_symmetry_Int_Tables_number   1
_chemical_formula_structural   LiFe2O2F3
_chemical_formula_sum   'Li2 Fe4 O4 F6'
_cell_volume   184.08209788
_cell_formula_units_Z   2
loop_
 _symmetry_equiv_pos_site_id
 _symmetry_equiv_pos_as_xyz
  1  'x, y, z'
loop_
 _atom_site_type_symbol
 _atom_site_label
 _atom_site_symmetry_multiplicity
 _atom_site_fract_x
 _atom_site_fract_y
 _atom_site_fract_z
 _atom_site_occupancy
  Li  Li0  1  0.999596  0.997927  0.503492  1
  Li  Li1  1  0.996213  0.008358  0.999627  1
  Fe  Fe2  1  0.626368  0.767970  0.701553  1
  Fe  Fe3  1  0.602403  0.767550  0.202322  1
  Fe  Fe4  1  0.393734  0.233806  0.799660  1
  Fe  Fe5  1  0.369085  0.235275  0.299054  1
  O  O6  1  0.716714  0.834497  0.941554  1
  O  O7  1  0.442696  0.835310  0.440743  1
  O  O8  1  0.551597  0.166893  0.559720  1
  O  O9  1  0.276346  0.168026  0.060575  1
  F  F10  1  0.038933  0.606229  0.661063  1
  F  F11  1  0.643976  0.395716  0.839874  1
  F  F12  1  0.348208  0.609219  0.162829  1
  F  F13  1  0.956270  0.394364  0.339277  1
  F  F14  1  0.191705  0.001714  0.750891  1
  F  F15  1  0.799697  0.002542  0.250214  1
