# generated using pymatgen
data_Li4V3Cr3(SnO8)2
_symmetry_space_group_name_H-M   'P 1'
_cell_length_a   5.97062191
_cell_length_b   5.99796308
_cell_length_c   9.75917897
_cell_angle_alpha   89.74893932
_cell_angle_beta   90.42555181
_cell_angle_gamma   120.13514983
_symmetry_Int_Tables_number   1
_chemical_formula_structural   Li4V3Cr3(SnO8)2
_chemical_formula_sum   'Li4 V3 Cr3 Sn2 O16'
_cell_volume   302.24707716
_cell_formula_units_Z   1
loop_
 _symmetry_equiv_pos_site_id
 _symmetry_equiv_pos_as_xyz
  1  'x, y, z'
loop_
 _atom_site_type_symbol
 _atom_site_label
 _atom_site_symmetry_multiplicity
 _atom_site_fract_x
 _atom_site_fract_y
 _atom_site_fract_z
 _atom_site_occupancy
  Li  Li0  1  0.341289  0.672453  0.894489  1
  Li  Li1  1  0.996997  0.998131  0.992507  1
  Li  Li2  1  0.996769  0.997364  0.494483  1
  Li  Li3  1  0.672507  0.336632  0.393400  1
  V  V4  1  0.830911  0.657263  0.718860  1
  V  V5  1  0.657806  0.828442  0.218647  1
  V  V6  1  0.828811  0.172631  0.713208  1
  Cr  Cr7  1  0.169378  0.830345  0.213832  1
  Cr  Cr8  1  0.169708  0.339068  0.213836  1
  Cr  Cr9  1  0.337698  0.166966  0.713301  1
  Sn  Sn10  1  0.331288  0.663163  0.492246  1
  Sn  Sn11  1  0.661637  0.330916  0.994009  1
  O  O12  1  0.157673  0.833730  0.600346  1
  O  O13  1  0.037927  0.518296  0.336327  1
  O  O14  1  0.352096  0.676559  0.109174  1
  O  O15  1  0.986826  0.992716  0.307009  1
  O  O16  1  0.992681  0.989435  0.805661  1
  O  O17  1  0.156007  0.317322  0.597976  1
  O  O18  1  0.489260  0.965905  0.338394  1
  O  O19  1  0.489113  0.522102  0.337469  1
  O  O20  1  0.316007  0.158987  0.099239  1
  O  O21  1  0.676663  0.829952  0.601631  1
  O  O22  1  0.519075  0.483003  0.835696  1
  O  O23  1  0.521301  0.037776  0.839657  1
  O  O24  1  0.669460  0.346168  0.606698  1
  O  O25  1  0.835537  0.678372  0.099916  1
  O  O26  1  0.968115  0.498131  0.840407  1
  O  O27  1  0.837460  0.158472  0.099417  1
