# generated using pymatgen
data_K2PHO4
_symmetry_space_group_name_H-M   'P 1'
_cell_length_a   22.81466086
_cell_length_b   10.48376919
_cell_length_c   6.04479697
_cell_angle_alpha   90.00000000
_cell_angle_beta   90.00000000
_cell_angle_gamma   90.00000000
_symmetry_Int_Tables_number   1
_chemical_formula_structural   K2PHO4
_chemical_formula_sum   'K24 P12 H12 O48'
_cell_volume   1445.81653391
_cell_formula_units_Z   12
loop_
 _symmetry_equiv_pos_site_id
 _symmetry_equiv_pos_as_xyz
  1  'x, y, z'
loop_
 _atom_site_type_symbol
 _atom_site_label
 _atom_site_symmetry_multiplicity
 _atom_site_fract_x
 _atom_site_fract_y
 _atom_site_fract_z
 _atom_site_occupancy
  K  K0  1  0.450479  0.596476  0.750828  1
  K  K1  1  0.549521  0.403524  0.250828  1
  K  K2  1  0.049521  0.096476  0.250828  1
  K  K3  1  0.950479  0.903524  0.750828  1
  K  K4  1  0.098799  0.634016  0.741095  1
  K  K5  1  0.901201  0.365984  0.241095  1
  K  K6  1  0.401201  0.134016  0.241095  1
  K  K7  1  0.598799  0.865984  0.741095  1
  K  K8  1  0.328109  0.362756  0.738944  1
  K  K9  1  0.671891  0.637244  0.238944  1
  K  K10  1  0.171891  0.862756  0.238944  1
  K  K11  1  0.828109  0.137244  0.738944  1
  K  K12  1  0.164151  0.275609  0.773056  1
  K  K13  1  0.835849  0.724391  0.273056  1
  K  K14  1  0.335849  0.775609  0.273056  1
  K  K15  1  0.664151  0.224391  0.773056  1
  K  K16  1  0.282633  0.007430  0.793730  1
  K  K17  1  0.717367  0.992570  0.293730  1
  K  K18  1  0.217367  0.507430  0.293730  1
  K  K19  1  0.782633  0.492570  0.793730  1
  K  K20  1  0.486995  0.247529  0.739174  1
  K  K21  1  0.513005  0.752471  0.239174  1
  K  K22  1  0.013005  0.747529  0.239174  1
  K  K23  1  0.986995  0.252471  0.739174  1
  P  P24  1  0.094200  0.956011  0.746353  1
  P  P25  1  0.905800  0.043989  0.246353  1
  P  P26  1  0.405800  0.456011  0.246353  1
  P  P27  1  0.594200  0.543989  0.746353  1
  P  P28  1  0.424710  0.931627  0.760854  1
  P  P29  1  0.575290  0.068373  0.260854  1
  P  P30  1  0.075290  0.431627  0.260854  1
  P  P31  1  0.924710  0.568373  0.760854  1
  P  P32  1  0.244590  0.650368  0.785794  1
  P  P33  1  0.755410  0.349632  0.285794  1
  P  P34  1  0.255410  0.150368  0.285794  1
  P  P35  1  0.744590  0.849632  0.785794  1
  H  H36  1  0.183008  0.866448  0.693873  1
  H  H37  1  0.816992  0.133552  0.193873  1
  H  H38  1  0.316992  0.366448  0.193873  1
  H  H39  1  0.683008  0.633552  0.693873  1
  H  H40  1  0.478725  0.979108  0.466220  1
  H  H41  1  0.521275  0.020892  0.966220  1
  H  H42  1  0.021275  0.479108  0.966220  1
  H  H43  1  0.978725  0.520892  0.466220  1
  H  H44  1  0.336873  0.706238  0.737176  1
  H  H45  1  0.663127  0.293762  0.237176  1
  H  H46  1  0.163127  0.206238  0.237176  1
  H  H47  1  0.836873  0.793762  0.737176  1
  O  O48  1  0.165972  0.953259  0.736662  1
  O  O49  1  0.834028  0.046741  0.236662  1
  O  O50  1  0.334028  0.453259  0.236662  1
  O  O51  1  0.665972  0.546741  0.736662  1
  O  O52  1  0.077789  0.097630  0.754890  1
  O  O53  1  0.922211  0.902370  0.254890  1
  O  O54  1  0.422211  0.597630  0.254890  1
  O  O55  1  0.577789  0.402370  0.754890  1
  O  O56  1  0.072374  0.887342  0.536176  1
  O  O57  1  0.927626  0.112658  0.036176  1
  O  O58  1  0.427626  0.387342  0.036176  1
  O  O59  1  0.572374  0.612658  0.536176  1
  O  O60  1  0.075230  0.883603  0.956960  1
  O  O61  1  0.924770  0.116397  0.456960  1
  O  O62  1  0.424770  0.383603  0.456960  1
  O  O63  1  0.575230  0.616397  0.956960  1
  O  O64  1  0.479377  0.909588  0.908233  1
  O  O65  1  0.520623  0.090412  0.408233  1
  O  O66  1  0.020623  0.409588  0.408233  1
  O  O67  1  0.979377  0.590412  0.908233  1
  O  O68  1  0.400018  0.066896  0.786291  1
  O  O69  1  0.599982  0.933104  0.286291  1
  O  O70  1  0.099982  0.566896  0.286291  1
  O  O71  1  0.900018  0.433104  0.786291  1
  O  O72  1  0.378050  0.827493  0.793613  1
  O  O73  1  0.621950  0.172507  0.293613  1
  O  O74  1  0.121950  0.327493  0.293613  1
  O  O75  1  0.878050  0.672507  0.793613  1
  O  O76  1  0.446526  0.913010  0.504533  1
  O  O77  1  0.553474  0.086990  0.004533  1
  O  O78  1  0.053474  0.413009  0.004533  1
  O  O79  1  0.946526  0.586990  0.504533  1
  O  O80  1  0.312625  0.628115  0.704650  1
  O  O81  1  0.687375  0.371885  0.204650  1
  O  O82  1  0.187375  0.128115  0.204650  1
  O  O83  1  0.812625  0.871885  0.704650  1
  O  O84  1  0.217478  0.516295  0.782162  1
  O  O85  1  0.782522  0.483705  0.282162  1
  O  O86  1  0.282522  0.016295  0.282162  1
  O  O87  1  0.717478  0.983705  0.782162  1
  O  O88  1  0.216580  0.739945  0.610142  1
  O  O89  1  0.783420  0.260055  0.110142  1
  O  O90  1  0.283420  0.239945  0.110142  1
  O  O91  1  0.716580  0.760055  0.610142  1
  O  O92  1  0.246155  0.713357  0.014789  1
  O  O93  1  0.753845  0.286643  0.514789  1
  O  O94  1  0.253845  0.213357  0.514789  1
  O  O95  1  0.746155  0.786643  0.014789  1
