# generated using pymatgen
data_Ti2N2O
_symmetry_space_group_name_H-M   'P 1'
_cell_length_a   8.23203182
_cell_length_b   8.23473349
_cell_length_c   8.21171458
_cell_angle_alpha   109.46434364
_cell_angle_beta   109.48891148
_cell_angle_gamma   109.60480711
_symmetry_Int_Tables_number   1
_chemical_formula_structural   Ti2N2O
_chemical_formula_sum   'Ti16 N16 O8'
_cell_volume   427.75156920
_cell_formula_units_Z   8
loop_
 _symmetry_equiv_pos_site_id
 _symmetry_equiv_pos_as_xyz
  1  'x, y, z'
loop_
 _atom_site_type_symbol
 _atom_site_label
 _atom_site_symmetry_multiplicity
 _atom_site_fract_x
 _atom_site_fract_y
 _atom_site_fract_z
 _atom_site_occupancy
  Ti  Ti0  1  0.497908  0.997087  0.985765  1
  Ti  Ti1  1  0.762121  0.302165  0.553935  1
  Ti  Ti2  1  0.210009  0.948741  0.249618  1
  Ti  Ti3  1  0.712922  0.466867  0.251843  1
  Ti  Ti4  1  0.247659  0.208000  0.946606  1
  Ti  Ti5  1  0.037266  0.743455  0.783530  1
  Ti  Ti6  1  0.541609  0.749910  0.298924  1
  Ti  Ti7  1  0.501503  0.506587  0.512504  1
  Ti  Ti8  1  0.458071  0.249380  0.713418  1
  Ti  Ti9  1  0.958420  0.260669  0.211740  1
  Ti  Ti10  1  0.009114  0.996289  0.507789  1
  Ti  Ti11  1  0.995690  0.507752  0.996333  1
  Ti  Ti12  1  0.751282  0.790436  0.042296  1
  Ti  Ti13  1  0.289524  0.539442  0.741290  1
  Ti  Ti14  1  0.787278  0.039741  0.753542  1
  Ti  Ti15  1  0.249042  0.706609  0.455901  1
  N  N16  1  0.725137  0.994244  0.953243  1
  N  N17  1  0.508047  0.232624  0.962450  1
  N  N18  1  0.770457  0.725215  0.263866  1
  N  N19  1  0.232117  0.960271  0.507561  1
  N  N20  1  0.725488  0.263241  0.772194  1
  N  N21  1  0.771784  0.544955  0.535947  1
  N  N22  1  0.279194  0.738201  0.224418  1
  N  N23  1  0.951944  0.726074  0.993570  1
  N  N24  1  0.992026  0.953025  0.726051  1
  N  N25  1  0.224225  0.275810  0.738222  1
  N  N26  1  0.550269  0.542231  0.774326  1
  N  N27  1  0.543453  0.772062  0.548074  1
  N  N28  1  0.222480  0.444848  0.456853  1
  N  N29  1  0.957802  0.505517  0.232588  1
  N  N30  1  0.038554  0.486255  0.761685  1
  N  N31  1  0.268168  0.777334  0.727954  1
  O  O32  1  0.761152  0.039270  0.486353  1
  O  O33  1  0.277122  0.008431  0.053307  1
  O  O34  1  0.737419  0.222858  0.278503  1
  O  O35  1  0.053275  0.274111  0.014145  1
  O  O36  1  0.008157  0.049080  0.273653  1
  O  O37  1  0.445077  0.459700  0.220879  1
  O  O38  1  0.454743  0.222938  0.446702  1
  O  O39  1  0.492495  0.768576  0.042418  1
