# generated using pymatgen
data_Li2Mn2F7
_symmetry_space_group_name_H-M   'P 1'
_cell_length_a   7.43576053
_cell_length_b   7.89825206
_cell_length_c   11.05671677
_cell_angle_alpha   90.01043553
_cell_angle_beta   89.93422015
_cell_angle_gamma   90.00348381
_symmetry_Int_Tables_number   1
_chemical_formula_structural   Li2Mn2F7
_chemical_formula_sum   'Li8 Mn8 F28'
_cell_volume   649.35512830
_cell_formula_units_Z   4
loop_
 _symmetry_equiv_pos_site_id
 _symmetry_equiv_pos_as_xyz
  1  'x, y, z'
loop_
 _atom_site_type_symbol
 _atom_site_label
 _atom_site_symmetry_multiplicity
 _atom_site_fract_x
 _atom_site_fract_y
 _atom_site_fract_z
 _atom_site_occupancy
  Li  Li0  1  0.072870  0.569817  0.137158  1
  Li  Li1  1  0.089345  0.446798  0.899849  1
  Li  Li2  1  0.411264  0.947312  0.349847  1
  Li  Li3  1  0.428350  0.070452  0.112704  1
  Li  Li4  1  0.571318  0.928927  0.612076  1
  Li  Li5  1  0.590044  0.052847  0.848889  1
  Li  Li6  1  0.908823  0.552782  0.400744  1
  Li  Li7  1  0.927351  0.429814  0.637779  1
  Mn  Mn8  1  0.114935  0.868054  0.578217  1
  Mn  Mn9  1  0.148755  0.899443  0.926187  1
  Mn  Mn10  1  0.352115  0.400188  0.324019  1
  Mn  Mn11  1  0.384006  0.367578  0.671912  1
  Mn  Mn12  1  0.615651  0.632515  0.171603  1
  Mn  Mn13  1  0.646848  0.600547  0.823693  1
  Mn  Mn14  1  0.852203  0.100936  0.426619  1
  Mn  Mn15  1  0.885635  0.131792  0.078599  1
  F  F16  1  0.101611  0.955021  0.416543  1
  F  F17  1  0.017119  0.352399  0.054821  1
  F  F18  1  0.096152  0.001230  0.104151  1
  F  F19  1  0.120624  0.659717  0.979173  1
  F  F20  1  0.119142  0.525197  0.306991  1
  F  F21  1  0.146801  0.311054  0.705375  1
  F  F22  1  0.157992  0.848576  0.744951  1
  F  F23  1  0.341523  0.348714  0.505068  1
  F  F24  1  0.352021  0.811420  0.544326  1
  F  F25  1  0.379838  0.027782  0.942767  1
  F  F26  1  0.381918  0.160592  0.270924  1
  F  F27  1  0.404631  0.502497  0.146400  1
  F  F28  1  0.483295  0.852751  0.194929  1
  F  F29  1  0.397215  0.454472  0.833655  1
  F  F30  1  0.603615  0.544269  0.333128  1
  F  F31  1  0.516439  0.147163  0.693950  1
  F  F32  1  0.593793  0.499032  0.645916  1
  F  F33  1  0.619038  0.839869  0.769846  1
  F  F34  1  0.622507  0.970401  0.442743  1
  F  F35  1  0.648458  0.188712  0.045948  1
  F  F36  1  0.656555  0.652452  0.004579  1
  F  F37  1  0.844159  0.152038  0.245533  1
  F  F38  1  0.852774  0.689830  0.203754  1
  F  F39  1  0.878260  0.472966  0.807106  1
  F  F40  1  0.878338  0.340380  0.480429  1
  F  F41  1  0.905582  -0.000111  0.604615  1
  F  F42  1  0.982929  0.647510  0.555549  1
  F  F43  1  0.898260  0.044168  0.916935  1
