# generated using pymatgen
data_MnVHPbO5
_symmetry_space_group_name_H-M   'P 1'
_cell_length_a   7.76839531
_cell_length_b   6.32976225
_cell_length_c   9.59842489
_cell_angle_alpha   90.00369143
_cell_angle_beta   89.99964593
_cell_angle_gamma   90.00043096
_symmetry_Int_Tables_number   1
_chemical_formula_structural   MnVHPbO5
_chemical_formula_sum   'Mn4 V4 H4 Pb4 O20'
_cell_volume   471.97466316
_cell_formula_units_Z   4
loop_
 _symmetry_equiv_pos_site_id
 _symmetry_equiv_pos_as_xyz
  1  'x, y, z'
loop_
 _atom_site_type_symbol
 _atom_site_label
 _atom_site_symmetry_multiplicity
 _atom_site_fract_x
 _atom_site_fract_y
 _atom_site_fract_z
 _atom_site_occupancy
  Mn  Mn0  1  0.999990  0.000020  0.500001  1
  Mn  Mn1  1  0.000005  0.499989  0.500022  1
  Mn  Mn2  1  0.499994  -0.000009  0.000018  1
  Mn  Mn3  1  0.499992  0.500001  0.000041  1
  V  V4  1  0.127446  0.249986  0.818592  1
  V  V5  1  0.372563  0.750019  0.318572  1
  V  V6  1  0.627446  0.250020  0.681418  1
  V  V7  1  0.872571  0.749976  0.181402  1
  H  H8  1  0.270475  0.250000  0.480662  1
  H  H9  1  0.229540  0.750007  0.980668  1
  H  H10  1  0.770491  0.250016  0.019308  1
  H  H11  1  0.729531  0.750008  0.519303  1
  Pb  Pb12  1  0.138077  0.249957  0.182899  1
  Pb  Pb13  1  0.361852  0.749900  0.682897  1
  Pb  Pb14  1  0.638090  0.249998  0.317114  1
  Pb  Pb15  1  0.861833  0.750118  0.817101  1
  O  O16  1  0.042889  0.750007  0.070494  1
  O  O17  1  0.115917  0.015341  0.715589  1
  O  O18  1  0.115938  0.484637  0.715601  1
  O  O19  1  0.156275  0.249998  0.431905  1
  O  O20  1  0.188916  0.750001  0.429127  1
  O  O21  1  0.311089  0.249988  0.929155  1
  O  O22  1  0.343766  0.749989  0.931892  1
  O  O23  1  0.384105  0.515350  0.215598  1
  O  O24  1  0.384110  0.984664  0.215600  1
  O  O25  1  0.457110  0.250068  0.570457  1
  O  O26  1  0.542915  0.750045  0.429515  1
  O  O27  1  0.615887  0.015356  0.784391  1
  O  O28  1  0.615893  0.484652  0.784433  1
  O  O29  1  0.656262  0.249984  0.068114  1
  O  O30  1  0.688926  0.749990  0.070839  1
  O  O31  1  0.811100  0.250022  0.570883  1
  O  O32  1  0.843731  0.749997  0.568087  1
  O  O33  1  0.884091  0.515314  0.284382  1
  O  O34  1  0.884067  0.984614  0.284412  1
  O  O35  1  0.957117  0.249977  0.929507  1
