# generated using pymatgen
data_Li2Fe(PO3)4
_symmetry_space_group_name_H-M   'P 1'
_cell_length_a   7.58654345
_cell_length_b   9.44819390
_cell_length_c   7.86137467
_cell_angle_alpha   90.00000000
_cell_angle_beta   111.90986191
_cell_angle_gamma   90.00000000
_symmetry_Int_Tables_number   1
_chemical_formula_structural   Li2Fe(PO3)4
_chemical_formula_sum   'Li4 Fe2 P8 O24'
_cell_volume   522.79632072
_cell_formula_units_Z   2
loop_
 _symmetry_equiv_pos_site_id
 _symmetry_equiv_pos_as_xyz
  1  'x, y, z'
loop_
 _atom_site_type_symbol
 _atom_site_label
 _atom_site_symmetry_multiplicity
 _atom_site_fract_x
 _atom_site_fract_y
 _atom_site_fract_z
 _atom_site_occupancy
  Li  Li0  1  0.125725  0.659722  0.354274  1
  Li  Li1  1  0.625725  0.840278  0.854274  1
  Li  Li2  1  0.374275  0.159722  0.145726  1
  Li  Li3  1  0.874275  0.340278  0.645726  1
  Fe  Fe4  1  0.000000  0.000000  0.000000  1
  Fe  Fe5  1  0.500000  0.500000  0.500000  1
  P  P6  1  0.186003  0.594235  0.732281  1
  P  P7  1  0.313997  0.094235  0.767719  1
  P  P8  1  0.170235  0.217227  0.382198  1
  P  P9  1  0.329765  0.717227  0.117802  1
  P  P10  1  0.670235  0.282773  0.882198  1
  P  P11  1  0.829765  0.782773  0.617802  1
  P  P12  1  0.686003  0.905765  0.232281  1
  P  P13  1  0.813997  0.405765  0.267719  1
  O  O14  1  0.042759  0.727298  0.683871  1
  O  O15  1  0.199824  0.112545  0.887681  1
  O  O16  1  0.087815  0.458004  0.731863  1
  O  O17  1  0.325888  0.634332  0.938232  1
  O  O18  1  0.174112  0.134332  0.561768  1
  O  O19  1  0.180300  0.112435  0.241761  1
  O  O20  1  0.412185  0.958004  0.768137  1
  O  O21  1  0.300176  0.612545  0.612319  1
  O  O22  1  0.185583  0.832701  0.075215  1
  O  O23  1  0.457241  0.227298  0.816129  1
  O  O24  1  0.314417  0.332701  0.424785  1
  O  O25  1  0.319700  0.612435  0.258239  1
  O  O26  1  0.680300  0.387565  0.741761  1
  O  O27  1  0.685583  0.667299  0.575215  1
  O  O28  1  0.542759  0.772702  0.183871  1
  O  O29  1  0.814417  0.167299  0.924785  1
  O  O30  1  0.699824  0.387455  0.387681  1
  O  O31  1  0.587815  0.041996  0.231863  1
  O  O32  1  0.819700  0.887565  0.758239  1
  O  O33  1  0.825888  0.865668  0.438232  1
  O  O34  1  0.674112  0.365668  0.061768  1
  O  O35  1  0.912185  0.541996  0.268137  1
  O  O36  1  0.800176  0.887455  0.112319  1
  O  O37  1  0.957241  0.272702  0.316129  1
