# generated using pymatgen
data_Zn(NO3)2
_symmetry_space_group_name_H-M   'P 1'
_cell_length_a   7.45483322
_cell_length_b   15.15329377
_cell_length_c   7.47836529
_cell_angle_alpha   90.00000000
_cell_angle_beta   90.00000000
_cell_angle_gamma   90.00000000
_symmetry_Int_Tables_number   1
_chemical_formula_structural   Zn(NO3)2
_chemical_formula_sum   'Zn8 N16 O48'
_cell_volume   844.79561239
_cell_formula_units_Z   8
loop_
 _symmetry_equiv_pos_site_id
 _symmetry_equiv_pos_as_xyz
  1  'x, y, z'
loop_
 _atom_site_type_symbol
 _atom_site_label
 _atom_site_symmetry_multiplicity
 _atom_site_fract_x
 _atom_site_fract_y
 _atom_site_fract_z
 _atom_site_occupancy
  Zn  Zn0  1  0.017996  0.377189  0.786384  1
  Zn  Zn1  1  0.023514  0.873541  0.760149  1
  Zn  Zn2  1  0.476486  0.873541  0.260149  1
  Zn  Zn3  1  0.482004  0.377189  0.286384  1
  Zn  Zn4  1  0.517996  0.622811  0.786384  1
  Zn  Zn5  1  0.523514  0.126459  0.760149  1
  Zn  Zn6  1  0.976486  0.126459  0.260149  1
  Zn  Zn7  1  0.982004  0.622811  0.286384  1
  N  N8  1  0.135555  0.786295  0.093719  1
  N  N9  1  0.159480  0.293808  0.130391  1
  N  N10  1  0.170737  0.551619  0.936563  1
  N  N11  1  0.174189  0.046080  0.919484  1
  N  N12  1  0.325811  0.046080  0.419484  1
  N  N13  1  0.329263  0.551619  0.436563  1
  N  N14  1  0.340520  0.293808  0.630391  1
  N  N15  1  0.364445  0.786295  0.593719  1
  N  N16  1  0.635555  0.213705  0.093719  1
  N  N17  1  0.659480  0.706192  0.130391  1
  N  N18  1  0.670737  0.448381  0.936563  1
  N  N19  1  0.674189  0.953920  0.919484  1
  N  N20  1  0.825811  0.953920  0.419484  1
  N  N21  1  0.829263  0.448381  0.436563  1
  N  N22  1  0.840520  0.706192  0.630391  1
  N  N23  1  0.864445  0.213705  0.593719  1
  O  O24  1  0.034610  0.767751  0.961984  1
  O  O25  1  0.043379  0.045765  0.025892  1
  O  O26  1  0.035066  0.552869  0.038355  1
  O  O27  1  0.035429  0.238857  0.099222  1
  O  O28  1  0.143701  0.736504  0.229062  1
  O  O29  1  0.164324  0.365719  0.046331  1
  O  O30  1  0.180440  0.496015  0.810400  1
  O  O31  1  0.186442  0.987688  0.798918  1
  O  O32  1  0.228814  0.855648  0.088532  1
  O  O33  1  0.203099  0.606321  0.459698  1
  O  O34  1  0.204724  0.104881  0.431793  1
  O  O35  1  0.220124  0.276851  0.744998  1
  O  O36  1  0.279876  0.276851  0.244998  1
  O  O37  1  0.295276  0.104881  0.931793  1
  O  O38  1  0.296901  0.606321  0.959698  1
  O  O39  1  0.271186  0.855648  0.588532  1
  O  O40  1  0.313558  0.987688  0.298918  1
  O  O41  1  0.319560  0.496015  0.310400  1
  O  O42  1  0.335676  0.365719  0.546331  1
  O  O43  1  0.356299  0.736504  0.729062  1
  O  O44  1  0.464571  0.238857  0.599222  1
  O  O45  1  0.464934  0.552869  0.538355  1
  O  O46  1  0.456621  0.045765  0.525892  1
  O  O47  1  0.465390  0.767751  0.461984  1
  O  O48  1  0.534610  0.232249  0.961984  1
  O  O49  1  0.543379  0.954235  0.025892  1
  O  O50  1  0.535066  0.447131  0.038355  1
  O  O51  1  0.535429  0.761143  0.099222  1
  O  O52  1  0.643701  0.263496  0.229062  1
  O  O53  1  0.664324  0.634281  0.046331  1
  O  O54  1  0.680440  0.503985  0.810400  1
  O  O55  1  0.686442  0.012312  0.798918  1
  O  O56  1  0.728814  0.144352  0.088532  1
  O  O57  1  0.703099  0.393679  0.459698  1
  O  O58  1  0.704724  0.895119  0.431793  1
  O  O59  1  0.720124  0.723149  0.744998  1
  O  O60  1  0.779876  0.723149  0.244998  1
  O  O61  1  0.795276  0.895119  0.931793  1
  O  O62  1  0.796901  0.393679  0.959698  1
  O  O63  1  0.771186  0.144352  0.588532  1
  O  O64  1  0.813558  0.012312  0.298918  1
  O  O65  1  0.819560  0.503985  0.310400  1
  O  O66  1  0.835676  0.634281  0.546331  1
  O  O67  1  0.856299  0.263496  0.729062  1
  O  O68  1  0.964571  0.761143  0.599222  1
  O  O69  1  0.964934  0.447131  0.538355  1
  O  O70  1  0.956621  0.954235  0.525892  1
  O  O71  1  0.965390  0.232249  0.461984  1
