# generated using pymatgen
data_Na4Fe2C4SO16
_symmetry_space_group_name_H-M   'P 1'
_cell_length_a   9.93187787
_cell_length_b   9.73036046
_cell_length_c   9.93187753
_cell_angle_alpha   60.86342666
_cell_angle_beta   92.63492245
_cell_angle_gamma   60.86342195
_symmetry_Int_Tables_number   1
_chemical_formula_structural   Na4Fe2C4SO16
_chemical_formula_sum   'Na8 Fe4 C8 S2 O32'
_cell_volume   680.02724796
_cell_formula_units_Z   2
loop_
 _symmetry_equiv_pos_site_id
 _symmetry_equiv_pos_as_xyz
  1  'x, y, z'
loop_
 _atom_site_type_symbol
 _atom_site_label
 _atom_site_symmetry_multiplicity
 _atom_site_fract_x
 _atom_site_fract_y
 _atom_site_fract_z
 _atom_site_occupancy
  Na  Na0  1  0.083634  0.832731  0.833634  1
  Na  Na1  1  0.083986  0.250000  0.833986  1
  Na  Na2  1  0.333986  0.750000  0.583986  1
  Na  Na3  1  0.333634  0.332731  0.583634  1
  Na  Na4  1  0.666366  0.667269  0.416366  1
  Na  Na5  1  0.666014  0.250000  0.416014  1
  Na  Na6  1  0.916014  0.750000  0.166014  1
  Na  Na7  1  0.916366  0.167269  0.166366  1
  Fe  Fe8  1  0.000000  0.500000  0.000000  1
  Fe  Fe9  1  0.500000  0.000000  0.500000  1
  Fe  Fe10  1  0.500000  0.500000  0.000000  1
  Fe  Fe11  1  0.500000  0.000000  0.000000  1
  C  C12  1  0.357036  0.931085  0.777870  1
  C  C13  1  0.277870  0.431085  0.857036  1
  C  C14  1  0.711879  0.931085  0.791045  1
  C  C15  1  0.708955  0.568915  0.788121  1
  C  C16  1  0.291045  0.431085  0.211879  1
  C  C17  1  0.288121  0.068915  0.208955  1
  C  C18  1  0.722130  0.568915  0.142964  1
  C  C19  1  0.642964  0.068915  0.222130  1
  S  S20  1  0.125000  0.750000  0.375000  1
  S  S21  1  0.875000  0.250000  0.625000  1
  O  O22  1  0.352537  0.791079  0.889879  1
  O  O23  1  0.066435  0.876928  0.434023  1
  O  O24  1  0.362949  0.952922  0.639286  1
  O  O25  1  0.139286  0.452922  0.862949  1
  O  O26  1  0.684129  0.952922  0.907792  1
  O  O27  1  0.303686  0.552287  0.851728  1
  O  O28  1  0.056638  0.876928  0.189049  1
  O  O29  1  0.065977  0.623072  0.433565  1
  O  O30  1  0.404016  0.947713  0.355974  1
  O  O31  1  0.592208  0.547078  0.815871  1
  O  O32  1  0.389879  0.291079  0.852537  1
  O  O33  1  0.310951  0.623072  0.443362  1
  O  O34  1  0.856384  0.791079  0.819042  1
  O  O35  1  0.680958  0.708921  0.643616  1
  O  O36  1  0.351728  0.052287  0.803686  1
  O  O37  1  0.144026  0.552287  0.095984  1
  O  O38  1  0.855974  0.447713  0.904016  1
  O  O39  1  0.648272  0.947713  0.196314  1
  O  O40  1  0.319042  0.291079  0.356384  1
  O  O41  1  0.143616  0.208921  0.180958  1
  O  O42  1  0.689049  0.376928  0.556638  1
  O  O43  1  0.610121  0.708921  0.147463  1
  O  O44  1  0.407792  0.452922  0.184129  1
  O  O45  1  0.595984  0.052287  0.644026  1
  O  O46  1  0.934023  0.376928  0.566435  1
  O  O47  1  0.943362  0.123072  0.810951  1
  O  O48  1  0.696314  0.447713  0.148272  1
  O  O49  1  0.315871  0.047078  0.092208  1
  O  O50  1  0.860714  0.547078  0.137051  1
  O  O51  1  0.637051  0.047078  0.360714  1
  O  O52  1  0.933565  0.123072  0.565977  1
  O  O53  1  0.647463  0.208921  0.110121  1
