# generated using pymatgen
data_Li5Mn6(BO3)6
_symmetry_space_group_name_H-M   'P 1'
_cell_length_a   8.25832029
_cell_length_b   14.68826574
_cell_length_c   6.36345935
_cell_angle_alpha   102.51041488
_cell_angle_beta   90.00000000
_cell_angle_gamma   89.55327895
_symmetry_Int_Tables_number   1
_chemical_formula_structural   Li5Mn6(BO3)6
_chemical_formula_sum   'Li10 Mn12 B12 O36'
_cell_volume   753.53889144
_cell_formula_units_Z   2
loop_
 _symmetry_equiv_pos_site_id
 _symmetry_equiv_pos_as_xyz
  1  'x, y, z'
loop_
 _atom_site_type_symbol
 _atom_site_label
 _atom_site_symmetry_multiplicity
 _atom_site_fract_x
 _atom_site_fract_y
 _atom_site_fract_z
 _atom_site_occupancy
  Li  Li0  1  0.290727  0.991270  0.245635  1
  Li  Li1  1  0.289432  0.991688  0.745844  1
  Li  Li2  1  0.341596  0.359740  0.929870  1
  Li  Li3  1  0.367727  0.648931  0.074465  1
  Li  Li4  1  0.369566  0.650148  0.575074  1
  Li  Li5  1  0.790128  0.491369  0.495684  1
  Li  Li6  1  0.790387  0.491714  0.995856  1
  Li  Li7  1  0.841432  0.859712  0.179856  1
  Li  Li8  1  0.868460  0.150116  0.825058  1
  Li  Li9  1  0.868990  0.149135  0.324567  1
  Mn  Mn10  1  0.137570  0.501320  0.748463  1
  Mn  Mn11  1  0.137570  0.501320  0.252858  1
  Mn  Mn12  1  0.165978  0.814977  0.904590  1
  Mn  Mn13  1  0.165978  0.814977  0.410387  1
  Mn  Mn14  1  0.195498  0.184053  0.589576  1
  Mn  Mn15  1  0.195498  0.184053  0.094477  1
  Mn  Mn16  1  0.637581  0.001392  0.502684  1
  Mn  Mn17  1  0.637581  0.001392  0.998708  1
  Mn  Mn18  1  0.665813  0.315029  0.654047  1
  Mn  Mn19  1  0.665813  0.315029  0.160981  1
  Mn  Mn20  1  0.695518  0.684121  0.839244  1
  Mn  Mn21  1  0.695518  0.684121  0.344877  1
  B  B22  1  0.001677  0.001974  0.004759  1
  B  B23  1  0.001677  0.001974  0.497215  1
  B  B24  1  0.995577  0.331662  0.415831  1
  B  B25  1  0.996547  0.333420  0.916710  1
  B  B26  1  0.004038  0.664394  0.582198  1
  B  B27  1  -0.000015  0.666013  0.083007  1
  B  B28  1  0.501818  0.501992  0.755511  1
  B  B29  1  0.501818  0.501992  0.246481  1
  B  B30  1  0.500267  0.166156  0.833078  1
  B  B31  1  0.503691  0.164059  0.332029  1
  B  B32  1  0.496033  0.832928  0.166464  1
  B  B33  1  0.496201  0.832210  0.666106  1
  O  O34  1  0.010493  0.429841  0.964921  1
  O  O35  1  0.011471  0.427783  0.463892  1
  O  O36  1  0.015086  0.762950  0.131474  1
  O  O37  1  0.022084  0.759420  0.629709  1
  O  O38  1  0.139767  0.605463  0.552732  1
  O  O39  1  0.135727  0.608816  0.054409  1
  O  O40  1  0.127456  0.272271  0.386136  1
  O  O41  1  0.137026  0.278945  0.889473  1
  O  O42  1  0.155972  0.960509  0.980753  1
  O  O43  1  0.155972  0.960509  0.479756  1
  O  O44  1  0.347825  0.125813  0.312906  1
  O  O45  1  0.345235  0.127583  0.813792  1
  O  O46  1  0.345136  0.791068  0.145533  1
  O  O47  1  0.342215  0.793557  0.646779  1
  O  O48  1  0.366035  0.448056  0.742235  1
  O  O49  1  0.366035  0.448056  0.205823  1
  O  O50  1  0.488952  0.599554  0.798776  1
  O  O51  1  0.488952  0.599554  0.300779  1
  O  O52  1  0.512418  0.928599  0.714299  1
  O  O53  1  0.509482  0.929131  0.214566  1
  O  O54  1  0.521684  0.259190  0.379595  1
  O  O55  1  0.515515  0.262954  0.881477  1
  O  O56  1  0.639001  0.105147  0.302573  1
  O  O57  1  0.636388  0.108906  0.804454  1
  O  O58  1  0.636757  0.778538  0.139269  1
  O  O59  1  0.627863  0.772872  0.636436  1
  O  O60  1  0.656055  0.460515  0.730699  1
  O  O61  1  0.656055  0.460515  0.229817  1
  O  O62  1  0.848548  0.625837  0.562919  1
  O  O63  1  0.844633  0.627669  0.063835  1
  O  O64  1  0.841765  0.292593  0.396296  1
  O  O65  1  0.845457  0.291930  0.895965  1
  O  O66  1  0.865937  0.948020  0.991518  1
  O  O67  1  0.865937  0.948020  0.456502  1
  O  O68  1  0.988876  0.099526  0.552416  1
  O  O69  1  0.988876  0.099526  0.047111  1
