# generated using pymatgen
data_Li5Mn2P2(CO7)2
_symmetry_space_group_name_H-M   'P 1'
_cell_length_a   9.57784322
_cell_length_b   10.10127056
_cell_length_c   6.43937470
_cell_angle_alpha   90.00000000
_cell_angle_beta   90.00000000
_cell_angle_gamma   62.17437356
_symmetry_Int_Tables_number   1
_chemical_formula_structural   Li5Mn2P2(CO7)2
_chemical_formula_sum   'Li10 Mn4 P4 C4 O28'
_cell_volume   550.96314638
_cell_formula_units_Z   2
loop_
 _symmetry_equiv_pos_site_id
 _symmetry_equiv_pos_as_xyz
  1  'x, y, z'
loop_
 _atom_site_type_symbol
 _atom_site_label
 _atom_site_symmetry_multiplicity
 _atom_site_fract_x
 _atom_site_fract_y
 _atom_site_fract_z
 _atom_site_occupancy
  Li  Li0  1  0.907987  0.426172  0.750000  1
  Li  Li1  1  0.738067  0.252784  0.972905  1
  Li  Li2  1  0.738067  0.252784  0.527095  1
  Li  Li3  1  0.744639  0.759749  0.519157  1
  Li  Li4  1  0.744639  0.759749  0.980843  1
  Li  Li5  1  0.261933  0.247216  0.027095  1
  Li  Li6  1  0.261933  0.247216  0.472905  1
  Li  Li7  1  0.255361  0.740251  0.019157  1
  Li  Li8  1  0.255361  0.740251  0.480843  1
  Li  Li9  1  0.092013  0.073828  0.250000  1
  Mn  Mn10  1  0.662960  0.069111  0.250000  1
  Mn  Mn11  1  0.662246  0.559606  0.250000  1
  Mn  Mn12  1  0.337040  0.430889  0.750000  1
  Mn  Mn13  1  0.337754  0.940394  0.750000  1
  P  P14  1  0.584861  0.071246  0.750000  1
  P  P15  1  0.583830  0.567768  0.750000  1
  P  P16  1  0.415139  0.428754  0.250000  1
  P  P17  1  0.416170  0.932232  0.250000  1
  C  C18  1  0.960375  0.372041  0.250000  1
  C  C19  1  0.959558  0.880188  0.250000  1
  C  C20  1  0.039625  0.127959  0.750000  1
  C  C21  1  0.040442  0.619812  0.750000  1
  O  O22  1  0.922971  0.021002  0.250000  1
  O  O23  1  0.920737  0.511353  0.250000  1
  O  O24  1  0.893530  0.234124  0.750000  1
  O  O25  1  0.848190  0.329931  0.250000  1
  O  O26  1  0.898579  0.723797  0.750000  1
  O  O27  1  0.838531  0.849870  0.250000  1
  O  O28  1  0.676572  0.082312  0.940633  1
  O  O29  1  0.676572  0.082312  0.559367  1
  O  O30  1  0.686711  0.569864  0.936367  1
  O  O31  1  0.686711  0.569864  0.563633  1
  O  O32  1  0.587439  0.297215  0.250000  1
  O  O33  1  0.569595  0.420467  0.750000  1
  O  O34  1  0.583611  0.797525  0.250000  1
  O  O35  1  0.572908  0.922657  0.750000  1
  O  O36  1  0.430405  0.079533  0.250000  1
  O  O37  1  0.412561  0.202785  0.750000  1
  O  O38  1  0.427092  0.577343  0.250000  1
  O  O39  1  0.416389  0.702475  0.750000  1
  O  O40  1  0.323428  0.417688  0.059367  1
  O  O41  1  0.323428  0.417688  0.440633  1
  O  O42  1  0.313289  0.930136  0.436367  1
  O  O43  1  0.313289  0.930136  0.063633  1
  O  O44  1  0.151810  0.170069  0.750000  1
  O  O45  1  0.106470  0.265876  0.250000  1
  O  O46  1  0.161469  0.650130  0.750000  1
  O  O47  1  0.101421  0.776203  0.250000  1
  O  O48  1  0.077029  0.478998  0.750000  1
  O  O49  1  0.079263  0.988647  0.750000  1
