# generated using pymatgen
data_Na10(WO3)13
_symmetry_space_group_name_H-M   'P 1'
_cell_length_a   14.24040071
_cell_length_b   6.85810381
_cell_length_c   8.83482792
_cell_angle_alpha   104.99027889
_cell_angle_beta   104.18303797
_cell_angle_gamma   80.78243619
_symmetry_Int_Tables_number   1
_chemical_formula_structural   Na10(WO3)13
_chemical_formula_sum   'Na10 W13 O39'
_cell_volume   803.73145754
_cell_formula_units_Z   1
loop_
 _symmetry_equiv_pos_site_id
 _symmetry_equiv_pos_as_xyz
  1  'x, y, z'
loop_
 _atom_site_type_symbol
 _atom_site_label
 _atom_site_symmetry_multiplicity
 _atom_site_fract_x
 _atom_site_fract_y
 _atom_site_fract_z
 _atom_site_occupancy
  Na  Na0  1  0.922644  0.229594  0.615497  1
  Na  Na1  1  0.307372  0.076572  0.538911  1
  Na  Na2  1  0.769585  0.693192  0.844536  1
  Na  Na3  1  0.538907  0.384307  0.691366  1
  Na  Na4  1  0.153727  0.539494  0.769042  1
  Na  Na5  1  0.461972  0.616560  0.307580  1
  Na  Na6  1  0.845709  0.461847  0.231711  1
  Na  Na7  1  0.615031  0.152962  0.078541  1
  Na  Na8  1  0.230888  0.306660  0.154035  1
  Na  Na9  1  0.077244  0.769582  0.384166  1
  W  W10  1  0.153380  0.035387  0.773067  1
  W  W11  1  0.384239  0.345504  0.921347  1
  W  W12  1  0.770018  0.192760  0.845650  1
  W  W13  1  0.076812  0.267023  0.384382  1
  W  W14  1  0.692308  0.423077  0.461538  1
  W  W15  1  0.463170  0.113127  0.307258  1
  W  W16  1  0.307803  0.579131  0.538695  1
  W  W17  1  0.921445  0.733027  0.615819  1
  W  W18  1  0.538922  0.884311  0.692033  1
  W  W19  1  0.614598  0.653394  0.077427  1
  W  W20  1  0.845694  0.961843  0.231044  1
  W  W21  1  0.000376  0.500650  0.001730  1
  W  W22  1  0.231235  0.810767  0.150010  1
  O  O23  1  0.269166  0.197834  0.848078  1
  O  O24  1  0.077494  0.276731  0.885131  1
  O  O25  1  0.651333  0.036989  0.772590  1
  O  O26  1  0.460423  0.123502  0.809701  1
  O  O27  1  0.692308  0.423077  0.961538  1
  O  O28  1  0.885097  0.352374  0.923176  1
  O  O29  1  0.192308  0.923077  0.961538  1
  O  O30  1  0.347037  0.455579  0.733669  1
  O  O31  1  0.961275  0.611602  0.805320  1
  O  O32  1  0.581286  0.764558  0.888792  1
  O  O33  1  0.732267  0.309569  0.662514  1
  O  O34  1  0.115857  0.152531  0.579169  1
  O  O35  1  0.496747  0.004068  0.496420  1
  O  O36  1  0.957840  0.108942  0.307277  1
  O  O37  1  0.575017  0.273954  0.382010  1
  O  O38  1  0.192308  0.423077  0.461538  1
  O  O39  1  0.153288  0.039652  0.271664  1
  O  O40  1  0.616629  0.646914  0.576902  1
  O  O41  1  0.845217  0.965286  0.733490  1
  O  O42  1  0.001959  0.494663  0.496816  1
  O  O43  1  0.231328  0.806502  0.651413  1
  O  O44  1  0.382657  0.351491  0.426261  1
  O  O45  1  0.767986  0.199240  0.346175  1
  O  O46  1  0.426776  0.737211  0.615800  1
  O  O47  1  0.809598  0.572199  0.541067  1
  O  O48  1  0.040868  0.884882  0.690920  1
  O  O49  1  0.268758  0.693622  0.343908  1
  O  O50  1  0.652349  0.536586  0.260563  1
  O  O51  1  0.803329  0.081595  0.034285  1
  O  O52  1  0.887868  0.842086  0.426657  1
  O  O53  1  0.037579  0.390575  0.189408  1
  O  O54  1  0.423340  0.234552  0.117757  1
  O  O55  1  0.307121  0.569423  0.037945  1
  O  O56  1  0.924192  0.722651  0.113376  1
  O  O57  1  0.539399  0.880868  0.189587  1
  O  O58  1  0.343747  0.961272  0.232157  1
  O  O59  1  0.115449  0.648320  0.074999  1
  O  O60  1  0.733283  0.809165  0.150487  1
  O  O61  1  0.499518  0.493780  -0.000099  1
