# generated using pymatgen
data_Li2Ti3SnO8
_symmetry_space_group_name_H-M   'P 1'
_cell_length_a   8.78538094
_cell_length_b   8.78521622
_cell_length_c   8.78538580
_cell_angle_alpha   90.00002792
_cell_angle_beta   90.00055095
_cell_angle_gamma   89.99838032
_symmetry_Int_Tables_number   1
_chemical_formula_structural   Li2Ti3SnO8
_chemical_formula_sum   'Li8 Ti12 Sn4 O32'
_cell_volume   678.06900036
_cell_formula_units_Z   4
loop_
 _symmetry_equiv_pos_site_id
 _symmetry_equiv_pos_as_xyz
  1  'x, y, z'
loop_
 _atom_site_type_symbol
 _atom_site_label
 _atom_site_symmetry_multiplicity
 _atom_site_fract_x
 _atom_site_fract_y
 _atom_site_fract_z
 _atom_site_occupancy
  Li  Li0  1  0.130826  0.869161  0.369176  1
  Li  Li1  1  0.251610  0.751612  0.748409  1
  Li  Li2  1  0.248400  0.248400  0.248404  1
  Li  Li3  1  0.369167  0.130811  0.869190  1
  Li  Li4  1  0.630807  0.630829  0.630808  1
  Li  Li5  1  0.751603  0.748398  0.251609  1
  Li  Li6  1  0.748410  0.251602  0.751606  1
  Li  Li7  1  0.869198  0.369181  0.130810  1
  Ti  Ti8  1  0.128341  0.618462  0.116085  1
  Ti  Ti9  1  0.118481  0.383896  0.871651  1
  Ti  Ti10  1  0.116114  0.128322  0.618484  1
  Ti  Ti11  1  0.383898  0.871701  0.118489  1
  Ti  Ti12  1  0.381537  0.616079  0.371637  1
  Ti  Ti13  1  0.371650  0.381533  0.616091  1
  Ti  Ti14  1  0.628339  0.881547  0.883920  1
  Ti  Ti15  1  0.618491  0.116121  0.128343  1
  Ti  Ti16  1  0.616112  0.371636  0.381541  1
  Ti  Ti17  1  0.883896  0.628336  0.881519  1
  Ti  Ti18  1  0.881520  0.883917  0.628360  1
  Ti  Ti19  1  0.871683  0.118474  0.383908  1
  Sn  Sn20  1  0.985989  0.514022  0.485997  1
  Sn  Sn21  1  0.513974  0.486030  0.986025  1
  Sn  Sn22  1  0.485988  0.985983  0.514004  1
  Sn  Sn23  1  0.014019  0.014015  0.014018  1
  O  O24  1  0.086967  0.132938  0.392919  1
  O  O25  1  0.107079  0.913023  0.632963  1
  O  O26  1  0.117039  0.617019  0.882950  1
  O  O27  1  0.132944  0.392899  0.086948  1
  O  O28  1  0.120340  0.166680  0.840676  1
  O  O29  1  0.126902  0.373105  0.626874  1
  O  O30  1  0.159313  0.620325  0.333290  1
  O  O31  1  0.166691  0.840673  0.120351  1
  O  O32  1  0.333315  0.159283  0.620357  1
  O  O33  1  0.340690  0.379601  0.833318  1
  O  O34  1  0.373109  0.626885  0.126891  1
  O  O35  1  0.379593  0.833308  0.340685  1
  O  O36  1  0.367045  0.607062  0.586957  1
  O  O37  1  0.382969  0.382963  0.382958  1
  O  O38  1  0.392918  0.086985  0.132965  1
  O  O39  1  0.413033  0.867096  0.892938  1
  O  O40  1  0.586950  0.367013  0.607070  1
  O  O41  1  0.607072  0.586955  0.367054  1
  O  O42  1  0.617030  0.882983  0.117049  1
  O  O43  1  0.632966  0.107105  0.913057  1
  O  O44  1  0.620370  0.333341  0.159313  1
  O  O45  1  0.626890  0.126904  0.373122  1
  O  O46  1  0.659309  0.879685  0.666708  1
  O  O47  1  0.666682  0.659345  0.879647  1
  O  O48  1  0.833333  0.340696  0.379645  1
  O  O49  1  0.840688  0.120374  0.166688  1
  O  O50  1  0.873120  0.873132  0.873122  1
  O  O51  1  0.879593  0.666694  0.659323  1
  O  O52  1  0.867054  0.892934  0.413049  1
  O  O53  1  0.882971  0.117028  0.617027  1
  O  O54  1  0.892929  0.413041  0.867020  1
  O  O55  1  0.913047  0.632936  0.107066  1
