# generated using pymatgen
data_VCu2HO5
_symmetry_space_group_name_H-M   'P 1'
_cell_length_a   15.16582075
_cell_length_b   6.11754887
_cell_length_c   8.59178494
_cell_angle_alpha   90.00000000
_cell_angle_beta   90.00000000
_cell_angle_gamma   90.00000000
_symmetry_Int_Tables_number   1
_chemical_formula_structural   VCu2HO5
_chemical_formula_sum   'V8 Cu16 H8 O40'
_cell_volume   797.12561253
_cell_formula_units_Z   8
loop_
 _symmetry_equiv_pos_site_id
 _symmetry_equiv_pos_as_xyz
  1  'x, y, z'
loop_
 _atom_site_type_symbol
 _atom_site_label
 _atom_site_symmetry_multiplicity
 _atom_site_fract_x
 _atom_site_fract_y
 _atom_site_fract_z
 _atom_site_occupancy
  V  V0  1  0.079369  0.250000  0.813432  1
  V  V1  1  0.154046  0.750000  0.471973  1
  V  V2  1  0.345954  0.250000  0.971973  1
  V  V3  1  0.420631  0.750000  0.313432  1
  V  V4  1  0.579369  0.250000  0.686568  1
  V  V5  1  0.654046  0.750000  0.028027  1
  V  V6  1  0.845954  0.250000  0.528027  1
  V  V7  1  0.920631  0.750000  0.186568  1
  Cu  Cu8  1  0.073212  0.250000  0.414622  1
  Cu  Cu9  1  0.137797  0.505264  0.130150  1
  Cu  Cu10  1  0.137797  0.994736  0.130150  1
  Cu  Cu11  1  0.215394  0.750000  0.849625  1
  Cu  Cu12  1  0.284606  0.250000  0.349625  1
  Cu  Cu13  1  0.362203  0.005264  0.630150  1
  Cu  Cu14  1  0.362203  0.494736  0.630150  1
  Cu  Cu15  1  0.426788  0.750000  0.914622  1
  Cu  Cu16  1  0.573212  0.250000  0.085378  1
  Cu  Cu17  1  0.637797  0.505264  0.369850  1
  Cu  Cu18  1  0.637797  0.994736  0.369850  1
  Cu  Cu19  1  0.715394  0.750000  0.650375  1
  Cu  Cu20  1  0.784606  0.250000  0.150375  1
  Cu  Cu21  1  0.862203  0.005264  0.869850  1
  Cu  Cu22  1  0.862203  0.494736  0.869850  1
  Cu  Cu23  1  0.926788  0.750000  0.585378  1
  H  H24  1  0.002096  0.250000  0.144856  1
  H  H25  1  0.221172  0.250000  0.613379  1
  H  H26  1  0.278828  0.750000  0.113379  1
  H  H27  1  0.497904  0.750000  0.644856  1
  H  H28  1  0.502096  0.250000  0.355144  1
  H  H29  1  0.721172  0.250000  0.886621  1
  H  H30  1  0.778828  0.750000  0.386621  1
  H  H31  1  0.997904  0.750000  0.855144  1
  O  O32  1  0.032521  0.750000  0.172723  1
  O  O33  1  0.050783  0.750000  0.545124  1
  O  O34  1  0.063101  0.250000  0.184551  1
  O  O35  1  0.115357  0.250000  0.620631  1
  O  O36  1  0.121193  0.010130  0.903508  1
  O  O37  1  0.121193  0.489870  0.903508  1
  O  O38  1  0.171772  0.506919  0.355188  1
  O  O39  1  0.171772  0.993081  0.355188  1
  O  O40  1  0.215061  0.750000  0.077309  1
  O  O41  1  0.227911  0.750000  0.628864  1
  O  O42  1  0.272089  0.250000  0.128864  1
  O  O43  1  0.284939  0.250000  0.577309  1
  O  O44  1  0.328228  0.006919  0.855188  1
  O  O45  1  0.328228  0.493081  0.855188  1
  O  O46  1  0.378807  0.510130  0.403508  1
  O  O47  1  0.378807  0.989870  0.403508  1
  O  O48  1  0.384643  0.750000  0.120631  1
  O  O49  1  0.436899  0.750000  0.684551  1
  O  O50  1  0.449217  0.250000  0.045124  1
  O  O51  1  0.467479  0.250000  0.672723  1
  O  O52  1  0.532521  0.750000  0.327277  1
  O  O53  1  0.550783  0.750000  0.954876  1
  O  O54  1  0.563101  0.250000  0.315449  1
  O  O55  1  0.615357  0.250000  0.879369  1
  O  O56  1  0.621193  0.010130  0.596492  1
  O  O57  1  0.621193  0.489870  0.596492  1
  O  O58  1  0.671772  0.506919  0.144812  1
  O  O59  1  0.671772  0.993081  0.144812  1
  O  O60  1  0.715061  0.750000  0.422691  1
  O  O61  1  0.727911  0.750000  0.871136  1
  O  O62  1  0.772089  0.250000  0.371136  1
  O  O63  1  0.784939  0.250000  0.922691  1
  O  O64  1  0.828228  0.006919  0.644812  1
  O  O65  1  0.828228  0.493081  0.644812  1
  O  O66  1  0.878807  0.510130  0.096492  1
  O  O67  1  0.878807  0.989870  0.096492  1
  O  O68  1  0.884643  0.750000  0.379369  1
  O  O69  1  0.936899  0.750000  0.815449  1
  O  O70  1  0.949217  0.250000  0.454876  1
  O  O71  1  0.967479  0.250000  0.827277  1
