# generated using pymatgen
data_Li2MnF4
_symmetry_space_group_name_H-M   'P 1'
_cell_length_a   10.49041693
_cell_length_b   5.81000999
_cell_length_c   5.07119118
_cell_angle_alpha   90.00000000
_cell_angle_beta   90.00000000
_cell_angle_gamma   90.00000000
_symmetry_Int_Tables_number   1
_chemical_formula_structural   Li2MnF4
_chemical_formula_sum   'Li8 Mn4 F16'
_cell_volume   309.08619745
_cell_formula_units_Z   4
loop_
 _symmetry_equiv_pos_site_id
 _symmetry_equiv_pos_as_xyz
  1  'x, y, z'
loop_
 _atom_site_type_symbol
 _atom_site_label
 _atom_site_symmetry_multiplicity
 _atom_site_fract_x
 _atom_site_fract_y
 _atom_site_fract_z
 _atom_site_occupancy
  Li  Li0  1  0.226831  0.500000  0.513086  1
  Li  Li1  1  0.250000  0.250000  0.000000  1
  Li  Li2  1  0.250000  0.750000  0.000000  1
  Li  Li3  1  0.273169  0.000000  0.486914  1
  Li  Li4  1  0.726831  0.000000  0.486914  1
  Li  Li5  1  0.750000  0.250000  0.000000  1
  Li  Li6  1  0.750000  0.750000  0.000000  1
  Li  Li7  1  0.773169  0.500000  0.513086  1
  Mn  Mn8  1  0.000000  0.000000  0.532453  1
  Mn  Mn9  1  0.000000  0.500000  0.139079  1
  Mn  Mn10  1  0.500000  0.000000  0.860921  1
  Mn  Mn11  1  0.500000  0.500000  0.467547  1
  F  F12  1  0.128494  0.749058  0.333433  1
  F  F13  1  0.128494  0.250942  0.333433  1
  F  F14  1  0.143907  0.500000  0.853848  1
  F  F15  1  0.150622  0.000000  0.799763  1
  F  F16  1  0.349378  0.500000  0.200237  1
  F  F17  1  0.356093  0.000000  0.146152  1
  F  F18  1  0.371506  0.249058  0.666567  1
  F  F19  1  0.371506  0.750942  0.666567  1
  F  F20  1  0.628494  0.249058  0.666567  1
  F  F21  1  0.628494  0.750942  0.666567  1
  F  F22  1  0.643907  0.000000  0.146152  1
  F  F23  1  0.650622  0.500000  0.200237  1
  F  F24  1  0.849378  0.000000  0.799763  1
  F  F25  1  0.856093  0.500000  0.853848  1
  F  F26  1  0.871506  0.250942  0.333433  1
  F  F27  1  0.871506  0.749058  0.333433  1
