# generated using pymatgen
data_Na4Bi2B4SO16
_symmetry_space_group_name_H-M   'P 1'
_cell_length_a   10.26549164
_cell_length_b   10.04705747
_cell_length_c   10.26549107
_cell_angle_alpha   61.02246492
_cell_angle_beta   92.96260144
_cell_angle_gamma   61.02246179
_symmetry_Int_Tables_number   1
_chemical_formula_structural   Na4Bi2B4SO16
_chemical_formula_sum   'Na8 Bi4 B8 S2 O32'
_cell_volume   751.38656683
_cell_formula_units_Z   2
loop_
 _symmetry_equiv_pos_site_id
 _symmetry_equiv_pos_as_xyz
  1  'x, y, z'
loop_
 _atom_site_type_symbol
 _atom_site_label
 _atom_site_symmetry_multiplicity
 _atom_site_fract_x
 _atom_site_fract_y
 _atom_site_fract_z
 _atom_site_occupancy
  Na  Na0  1  0.078996  0.842007  0.828996  1
  Na  Na1  1  0.079619  0.250000  0.829619  1
  Na  Na2  1  0.329619  0.750000  0.579619  1
  Na  Na3  1  0.328996  0.342007  0.578996  1
  Na  Na4  1  0.671004  0.657993  0.421004  1
  Na  Na5  1  0.670381  0.250000  0.420381  1
  Na  Na6  1  0.920381  0.750000  0.170381  1
  Na  Na7  1  0.921004  0.157993  0.171004  1
  Bi  Bi8  1  0.000000  0.500000  0.000000  1
  Bi  Bi9  1  0.500000  0.000000  0.500000  1
  Bi  Bi10  1  0.500000  0.500000  0.000000  1
  Bi  Bi11  1  0.500000  0.000000  0.000000  1
  B  B12  1  0.350090  0.936279  0.774448  1
  B  B13  1  0.274448  0.436279  0.850090  1
  B  B14  1  0.713631  0.936279  0.789272  1
  B  B15  1  0.710728  0.563721  0.786369  1
  B  B16  1  0.289273  0.436279  0.213631  1
  B  B17  1  0.286369  0.063721  0.210728  1
  B  B18  1  0.725552  0.563721  0.149910  1
  B  B19  1  0.649910  0.063721  0.225552  1
  S  S20  1  0.125000  0.750000  0.375000  1
  S  S21  1  0.875000  0.250000  0.625000  1
  O  O22  1  0.343095  0.797264  0.895857  1
  O  O23  1  0.068945  0.873171  0.431826  1
  O  O24  1  0.357249  0.945065  0.636980  1
  O  O25  1  0.136980  0.445065  0.857249  1
  O  O26  1  0.697686  0.945065  0.917956  1
  O  O27  1  0.291489  0.568598  0.842783  1
  O  O28  1  0.057884  0.873171  0.195003  1
  O  O29  1  0.068174  0.626829  0.431055  1
  O  O30  1  0.411382  0.931402  0.360086  1
  O  O31  1  0.582044  0.554935  0.802314  1
  O  O32  1  0.395857  0.297264  0.843095  1
  O  O33  1  0.304997  0.626829  0.442116  1
  O  O34  1  0.859641  0.797264  0.806879  1
  O  O35  1  0.693121  0.702736  0.640359  1
  O  O36  1  0.342783  0.068598  0.791489  1
  O  O37  1  0.139914  0.568598  0.088618  1
  O  O38  1  0.860086  0.431402  0.911382  1
  O  O39  1  0.657217  0.931402  0.208511  1
  O  O40  1  0.306879  0.297264  0.359641  1
  O  O41  1  0.140359  0.202736  0.193121  1
  O  O42  1  0.695003  0.373171  0.557884  1
  O  O43  1  0.604143  0.702736  0.156905  1
  O  O44  1  0.417956  0.445065  0.197686  1
  O  O45  1  0.588618  0.068598  0.639914  1
  O  O46  1  0.931826  0.373171  0.568945  1
  O  O47  1  0.942116  0.126829  0.804997  1
  O  O48  1  0.708511  0.431402  0.157217  1
  O  O49  1  0.302314  0.054935  0.082044  1
  O  O50  1  0.863020  0.554935  0.142751  1
  O  O51  1  0.642751  0.054935  0.363020  1
  O  O52  1  0.931055  0.126829  0.568174  1
  O  O53  1  0.656905  0.202736  0.104143  1
