# generated using pymatgen
data_Li4Ti4VCr4O18
_symmetry_space_group_name_H-M   'P 1'
_cell_length_a   9.14791984
_cell_length_b   24.80830873
_cell_length_c   2.96165956
_cell_angle_alpha   90.00013045
_cell_angle_beta   89.99990945
_cell_angle_gamma   90.00108072
_symmetry_Int_Tables_number   1
_chemical_formula_structural   Li4Ti4VCr4O18
_chemical_formula_sum   'Li8 Ti8 V2 Cr8 O36'
_cell_volume   672.13210992
_cell_formula_units_Z   2
loop_
 _symmetry_equiv_pos_site_id
 _symmetry_equiv_pos_as_xyz
  1  'x, y, z'
loop_
 _atom_site_type_symbol
 _atom_site_label
 _atom_site_symmetry_multiplicity
 _atom_site_fract_x
 _atom_site_fract_y
 _atom_site_fract_z
 _atom_site_occupancy
  Li  Li0  1  0.191864  0.988224  0.000001  1
  Li  Li1  1  0.203495  0.189468  0.000002  1
  Li  Li2  1  0.296476  0.689510  0.000001  1
  Li  Li3  1  0.308187  0.488212  0.000001  1
  Li  Li4  1  0.691808  0.511793  0.000002  1
  Li  Li5  1  0.703503  0.310496  0.000001  1
  Li  Li6  1  0.796507  0.810530  0.000001  1
  Li  Li7  1  0.808133  0.011780  0.000002  1
  Ti  Ti8  1  0.996808  0.101911  0.000002  1
  Ti  Ti9  1  0.158563  0.804706  0.500001  1
  Ti  Ti10  1  0.341521  0.304536  0.500000  1
  Ti  Ti11  1  0.503256  0.602045  0.000002  1
  Ti  Ti12  1  0.496752  0.397964  0.999997  1
  Ti  Ti13  1  0.658471  0.695468  0.500001  1
  Ti  Ti14  1  0.841420  0.195284  0.500000  1
  Ti  Ti15  1  0.003203  0.898087  0.000002  1
  V  V16  1  0.000016  0.500003  0.000003  1
  V  V17  1  0.500006  -0.000005  0.000003  1
  Cr  Cr18  1  0.002892  0.312357  -0.000002  1
  Cr  Cr19  1  0.155856  0.584493  0.499996  1
  Cr  Cr20  1  0.344087  0.084355  0.500002  1
  Cr  Cr21  1  0.497137  0.812610  -0.000004  1
  Cr  Cr22  1  0.502855  0.187396  0.000013  1
  Cr  Cr23  1  0.655920  0.915634  0.499994  1
  Cr  Cr24  1  0.844154  0.415514  0.499990  1
  Cr  Cr25  1  0.997073  0.687638  0.999979  1
  O  O26  1  0.991770  0.423235  0.999991  1
  O  O27  1  0.008247  0.576774  0.000003  1
  O  O28  1  0.065777  0.942091  0.500001  1
  O  O29  1  0.042271  0.158110  0.500003  1
  O  O30  1  0.129879  0.663422  0.499980  1
  O  O31  1  0.107691  0.754875  0.999996  1
  O  O32  1  0.147644  0.502212  0.500003  1
  O  O33  1  0.136660  0.289686  0.499994  1
  O  O34  1  0.189004  0.854737  0.999998  1
  O  O35  1  0.197086  0.081627  0.000002  1
  O  O36  1  0.302942  0.581803  0.000009  1
  O  O37  1  0.310977  0.354579  0.000002  1
  O  O38  1  0.363388  0.789906  0.500011  1
  O  O39  1  0.352383  0.002133  0.500001  1
  O  O40  1  0.392209  0.254679  0.000000  1
  O  O41  1  0.370073  0.163248  0.500003  1
  O  O42  1  0.457791  0.658265  0.500006  1
  O  O43  1  0.434225  0.441990  0.500008  1
  O  O44  1  0.491805  0.076746  0.000002  1
  O  O45  1  0.508208  0.923239  0.000007  1
  O  O46  1  0.565778  0.558019  0.500001  1
  O  O47  1  0.542212  0.341745  0.500005  1
  O  O48  1  0.629927  0.836747  0.500014  1
  O  O49  1  0.607785  0.745326  0.000002  1
  O  O50  1  0.647632  0.997855  0.500001  1
  O  O51  1  0.636603  0.210093  0.499997  1
  O  O52  1  0.689030  0.645428  0.000003  1
  O  O53  1  0.697074  0.418203  0.999991  1
  O  O54  1  0.802917  0.918363  0.000004  1
  O  O55  1  0.810995  0.145257  0.000001  1
  O  O56  1  0.863332  0.710315  0.499989  1
  O  O57  1  0.852374  0.497794  0.500001  1
  O  O58  1  0.892283  0.245117  0.999996  1
  O  O59  1  0.870107  0.336576  0.499998  1
  O  O60  1  0.957733  0.841887  0.499996  1
  O  O61  1  0.934227  0.057911  0.499993  1
