# generated using pymatgen
data_Sr7SiB3NO13
_symmetry_space_group_name_H-M   'P 1'
_cell_length_a   10.78702975
_cell_length_b   10.78703001
_cell_length_c   7.04389459
_cell_angle_alpha   90.00000000
_cell_angle_beta   90.00000000
_cell_angle_gamma   119.99999920
_symmetry_Int_Tables_number   1
_chemical_formula_structural   Sr7SiB3NO13
_chemical_formula_sum   'Sr14 Si2 B6 N2 O26'
_cell_volume   709.81839001
_cell_formula_units_Z   2
loop_
 _symmetry_equiv_pos_site_id
 _symmetry_equiv_pos_as_xyz
  1  'x, y, z'
loop_
 _atom_site_type_symbol
 _atom_site_label
 _atom_site_symmetry_multiplicity
 _atom_site_fract_x
 _atom_site_fract_y
 _atom_site_fract_z
 _atom_site_occupancy
  Sr  Sr0  1  0.125222  0.864630  0.180323  1
  Sr  Sr1  1  0.042488  0.518077  0.848481  1
  Sr  Sr2  1  0.475589  0.957512  0.848481  1
  Sr  Sr3  1  0.135370  0.260592  0.180323  1
  Sr  Sr4  1  0.333333  0.666667  0.484990  1
  Sr  Sr5  1  0.481923  0.524411  0.848481  1
  Sr  Sr6  1  0.260592  0.125222  0.680323  1
  Sr  Sr7  1  0.739408  0.874778  0.180323  1
  Sr  Sr8  1  0.518077  0.475589  0.348481  1
  Sr  Sr9  1  0.666667  0.333333  0.984990  1
  Sr  Sr10  1  0.524411  0.042488  0.348481  1
  Sr  Sr11  1  0.864630  0.739408  0.680323  1
  Sr  Sr12  1  0.957512  0.481923  0.348481  1
  Sr  Sr13  1  0.874778  0.135370  0.680323  1
  Si  Si14  1  0.333333  0.666667  0.074464  1
  Si  Si15  1  0.666667  0.333333  0.574464  1
  B  B16  1  0.174166  0.812029  0.640971  1
  B  B17  1  0.187971  0.362137  0.640971  1
  B  B18  1  0.637863  0.825834  0.640971  1
  B  B19  1  0.362137  0.174166  0.140971  1
  B  B20  1  0.812029  0.637863  0.140971  1
  B  B21  1  0.825834  0.187971  0.140971  1
  N  N22  1  0.000000  0.000000  0.976293  1
  N  N23  1  0.000000  0.000000  0.476293  1
  O  O24  1  0.153051  0.865984  0.807848  1
  O  O25  1  0.069416  0.678585  0.575934  1
  O  O26  1  0.298672  0.889692  0.534720  1
  O  O27  1  0.183338  0.651081  0.157209  1
  O  O28  1  0.110308  0.408980  0.534720  1
  O  O29  1  0.333333  0.666667  0.839056  1
  O  O30  1  0.134016  0.287067  0.807848  1
  O  O31  1  0.467743  0.816662  0.157209  1
  O  O32  1  0.348919  0.532257  0.157209  1
  O  O33  1  0.321415  0.390831  0.575934  1
  O  O34  1  0.609169  0.930584  0.575934  1
  O  O35  1  0.287067  0.153051  0.307848  1
  O  O36  1  0.408980  0.298672  0.034720  1
  O  O37  1  0.591020  0.701328  0.534720  1
  O  O38  1  0.712933  0.846949  0.807848  1
  O  O39  1  0.390831  0.069416  0.075934  1
  O  O40  1  0.678585  0.609169  0.075934  1
  O  O41  1  0.651081  0.467743  0.657209  1
  O  O42  1  0.532257  0.183338  0.657209  1
  O  O43  1  0.865984  0.712933  0.307848  1
  O  O44  1  0.666667  0.333333  0.339056  1
  O  O45  1  0.889692  0.591020  0.034720  1
  O  O46  1  0.816662  0.348919  0.657209  1
  O  O47  1  0.701328  0.110308  0.034720  1
  O  O48  1  0.930584  0.321415  0.075934  1
  O  O49  1  0.846949  0.134016  0.307848  1
