# generated using pymatgen
data_Li2V2(SiO3)3
_symmetry_space_group_name_H-M   'P 1'
_cell_length_a   10.08846916
_cell_length_b   10.08846849
_cell_length_c   12.57626833
_cell_angle_alpha   90.00000000
_cell_angle_beta   90.00000000
_cell_angle_gamma   120.00000002
_symmetry_Int_Tables_number   1
_chemical_formula_structural   Li2V2(SiO3)3
_chemical_formula_sum   'Li12 V12 Si18 O54'
_cell_volume   1108.49295970
_cell_formula_units_Z   6
loop_
 _symmetry_equiv_pos_site_id
 _symmetry_equiv_pos_as_xyz
  1  'x, y, z'
loop_
 _atom_site_type_symbol
 _atom_site_label
 _atom_site_symmetry_multiplicity
 _atom_site_fract_x
 _atom_site_fract_y
 _atom_site_fract_z
 _atom_site_occupancy
  Li  Li0  1  0.141072  0.969811  0.184876  1
  Li  Li1  1  0.294123  0.825544  0.015384  1
  Li  Li2  1  0.174456  0.468578  0.682051  1
  Li  Li3  1  0.030189  0.171261  0.851543  1
  Li  Li4  1  0.531422  0.705877  0.348717  1
  Li  Li5  1  0.164531  0.031476  0.679776  1
  Li  Li6  1  0.340364  0.329165  0.747652  1
  Li  Li7  1  0.828739  0.858928  0.518209  1
  Li  Li8  1  0.866946  0.835469  0.013109  1
  Li  Li9  1  0.670835  0.011199  0.414319  1
  Li  Li10  1  0.988801  0.659636  0.080985  1
  Li  Li11  1  0.968524  0.133054  0.346442  1
  V  V12  1  0.335901  0.831138  0.493507  1
  V  V13  1  0.168862  0.504763  0.160174  1
  V  V14  1  0.495237  0.664099  0.826841  1
  V  V15  1  0.339152  0.327375  0.244420  1
  V  V16  1  0.370485  0.335187  0.002343  1
  V  V17  1  0.487259  0.159347  0.839364  1
  V  V18  1  0.672088  0.512741  0.172698  1
  V  V19  1  0.988222  0.660848  0.577753  1
  V  V20  1  0.964702  0.629515  0.335676  1
  V  V21  1  0.664813  0.035298  0.669009  1
  V  V22  1  0.672625  0.011778  0.911086  1
  V  V23  1  0.840653  0.327912  0.506031  1
  Si  Si24  1  0.136299  0.956290  0.916489  1
  Si  Si25  1  0.288877  0.816035  0.762269  1
  Si  Si26  1  0.177178  0.514232  0.901875  1
  Si  Si27  1  0.337054  0.822822  0.235208  1
  Si  Si28  1  0.043710  0.180009  0.583156  1
  Si  Si29  1  0.183965  0.472843  0.428935  1
  Si  Si30  1  0.173371  0.008378  0.436798  1
  Si  Si31  1  0.485768  0.662946  0.568542  1
  Si  Si32  1  0.527157  0.711123  0.095602  1
  Si  Si33  1  0.620239  0.494401  0.447989  1
  Si  Si34  1  0.469585  0.189956  0.570910  1
  Si  Si35  1  0.819991  0.863701  0.249822  1
  Si  Si36  1  0.835007  0.826629  0.770131  1
  Si  Si37  1  0.720371  0.530415  0.904244  1
  Si  Si38  1  0.505599  0.125837  0.114656  1
  Si  Si39  1  0.874163  0.379761  0.781323  1
  Si  Si40  1  0.810044  0.279629  0.237577  1
  Si  Si41  1  0.991622  0.164993  0.103465  1
  O  O42  1  0.091787  0.821156  0.439290  1
  O  O43  1  0.096447  0.887903  0.035260  1
  O  O44  1  0.186867  0.850611  0.846754  1
  O  O45  1  0.153846  0.699291  0.232093  1
  O  O46  1  0.057118  0.525451  0.446514  1
  O  O47  1  0.022473  0.378517  0.841452  1
  O  O48  1  0.218974  0.786721  0.643564  1
  O  O49  1  0.143899  0.583794  0.006837  1
  O  O50  1  0.356045  0.977527  0.174785  1
  O  O51  1  0.266335  0.651288  0.808703  1
  O  O52  1  0.149389  0.336257  0.513420  1
  O  O53  1  0.439895  0.856101  0.340170  1
  O  O54  1  0.112097  0.208544  0.701927  1
  O  O55  1  0.213279  0.432253  0.310231  1
  O  O56  1  0.468332  0.942882  0.779847  1
  O  O57  1  0.384953  0.733665  0.142037  1
  O  O58  1  0.300709  0.454554  0.898760  1
  O  O59  1  0.178844  0.270631  0.105957  1
  O  O60  1  0.076280  0.049068  0.525994  1
  O  O61  1  0.348712  0.615047  0.475370  1
  O  O62  1  0.194065  0.098742  0.327259  1
  O  O63  1  0.416206  0.560105  0.673503  1
  O  O64  1  0.545446  0.846154  0.565427  1
  O  O65  1  0.567747  0.781026  0.976897  1
  O  O66  1  0.262592  0.134544  0.898168  1
  O  O67  1  0.474549  0.531668  0.113180  1
  O  O68  1  0.663743  0.813133  0.180087  1
  O  O69  1  0.621483  0.643955  0.508118  1
  O  O70  1  0.338664  0.048061  0.494966  1
  O  O71  1  0.729369  0.908212  0.772623  1
  O  O72  1  0.557925  0.488175  0.327330  1
  O  O73  1  0.395477  0.176677  0.687279  1
  O  O74  1  0.791456  0.903553  0.368593  1
  O  O75  1  0.492535  0.344731  0.512539  1
  O  O76  1  0.479427  0.271943  0.130867  1
  O  O77  1  0.552141  0.381597  0.895425  1
  O  O78  1  0.709398  0.661336  0.828300  1
  O  O79  1  0.511825  0.069750  0.993997  1
  O  O80  1  0.781200  0.604523  0.020612  1
  O  O81  1  0.904678  0.805935  0.660592  1
  O  O82  1  0.871951  0.737408  0.231502  1
  O  O83  1  0.618403  0.170544  0.562092  1
  O  O84  1  0.792515  0.520573  0.464200  1
  O  O85  1  0.972788  0.923720  0.859327  1
  O  O86  1  0.655269  0.147804  0.179206  1
  O  O87  1  0.852196  0.507465  0.845873  1
  O  O88  1  0.829456  0.447859  0.228758  1
  O  O89  1  0.728057  0.207485  0.797534  1
  O  O90  1  0.823323  0.218800  0.353946  1
  O  O91  1  0.930250  0.442075  0.660663  1
  O  O92  1  0.865456  0.128049  0.564835  1
  O  O93  1  0.951939  0.290602  0.161633  1
  O  O94  1  0.901258  0.095322  0.993925  1
  O  O95  1  0.950932  0.027212  0.192660  1
