# generated using pymatgen
data_LiCuCO3
_symmetry_space_group_name_H-M   'P 1'
_cell_length_a   5.38872778
_cell_length_b   5.68182543
_cell_length_c   9.51325437
_cell_angle_alpha   107.39263525
_cell_angle_beta   106.45418185
_cell_angle_gamma   89.99221739
_symmetry_Int_Tables_number   1
_chemical_formula_structural   LiCuCO3
_chemical_formula_sum   'Li4 Cu4 C4 O12'
_cell_volume   265.43469512
_cell_formula_units_Z   4
loop_
 _symmetry_equiv_pos_site_id
 _symmetry_equiv_pos_as_xyz
  1  'x, y, z'
loop_
 _atom_site_type_symbol
 _atom_site_label
 _atom_site_symmetry_multiplicity
 _atom_site_fract_x
 _atom_site_fract_y
 _atom_site_fract_z
 _atom_site_occupancy
  Li  Li0  1  0.002421  0.750099  0.499976  1
  Li  Li1  1  0.502179  0.749868  0.499976  1
  Li  Li2  1  0.497823  0.250135  0.500027  1
  Li  Li3  1  0.997576  0.249901  0.500020  1
  Cu  Cu4  1  0.249829  0.842487  0.999957  1
  Cu  Cu5  1  0.749950  0.657720  0.000047  1
  Cu  Cu6  1  0.250042  0.342290  0.999954  1
  Cu  Cu7  1  0.750172  0.157511  0.000043  1
  C  C8  1  0.138983  0.888791  0.277581  1
  C  C9  1  0.360969  0.611356  0.722431  1
  C  C10  1  0.639031  0.388642  0.277566  1
  C  C11  1  0.861017  0.111209  0.722421  1
  O  O12  1  0.291715  0.953714  0.211022  1
  O  O13  1  0.215327  0.965499  0.430609  1
  O  O14  1  0.919876  0.757042  0.210975  1
  O  O15  1  0.208163  0.742906  0.788908  1
  O  O16  1  0.419753  0.453496  0.210885  1
  O  O17  1  0.284703  0.534694  0.569407  1
  O  O18  1  0.715291  0.465307  0.430590  1
  O  O19  1  0.580245  0.546499  0.789111  1
  O  O20  1  0.791839  0.257092  0.211094  1
  O  O21  1  0.080124  0.242957  0.789028  1
  O  O22  1  0.784677  0.034504  0.569390  1
  O  O23  1  0.708286  0.046284  0.788977  1
