# generated using pymatgen
data_Li2CrPHO5
_symmetry_space_group_name_H-M   'P 1'
_cell_length_a   5.55521484
_cell_length_b   5.58051402
_cell_length_c   7.37103286
_cell_angle_alpha   107.32993939
_cell_angle_beta   106.08867464
_cell_angle_gamma   89.82149317
_symmetry_Int_Tables_number   1
_chemical_formula_structural   Li2CrPHO5
_chemical_formula_sum   'Li4 Cr2 P2 H2 O10'
_cell_volume   208.80498755
_cell_formula_units_Z   2
loop_
 _symmetry_equiv_pos_site_id
 _symmetry_equiv_pos_as_xyz
  1  'x, y, z'
loop_
 _atom_site_type_symbol
 _atom_site_label
 _atom_site_symmetry_multiplicity
 _atom_site_fract_x
 _atom_site_fract_y
 _atom_site_fract_z
 _atom_site_occupancy
  Li  Li0  1  0.462659  0.115719  0.816989  1
  Li  Li1  1  0.792718  0.434512  0.808330  1
  Li  Li2  1  0.207256  0.565437  0.191691  1
  Li  Li3  1  0.537309  0.884323  0.183070  1
  Cr  Cr4  1  0.000062  0.000026  0.499982  1
  Cr  Cr5  1  0.999911  0.999878  0.999966  1
  P  P6  1  0.671541  0.372619  0.231051  1
  P  P7  1  0.328527  0.627263  0.768933  1
  H  H8  1  0.305806  0.089356  0.358548  1
  H  H9  1  0.694172  0.910690  0.641436  1
  O  O10  1  0.820428  0.052091  0.725930  1
  O  O11  1  0.733470  0.207527  0.371962  1
  O  O12  1  0.352655  0.349197  0.662845  1
  O  O13  1  0.410372  0.259169  0.077055  1
  O  O14  1  0.878289  0.352702  0.118027  1
  O  O15  1  0.121653  0.647227  0.881961  1
  O  O16  1  0.589593  0.740898  0.922983  1
  O  O17  1  0.647430  0.650915  0.337200  1
  O  O18  1  0.266531  0.792515  0.628046  1
  O  O19  1  0.179617  0.947863  0.274000  1
