# generated using pymatgen
data_Al3P3H9C2NO13
_symmetry_space_group_name_H-M   'P 1'
_cell_length_a   8.78287016
_cell_length_b   17.58929324
_cell_length_c   9.26931970
_cell_angle_alpha   90.00000000
_cell_angle_beta   109.71760785
_cell_angle_gamma   90.00000000
_symmetry_Int_Tables_number   1
_chemical_formula_structural   Al3P3H9C2NO13
_chemical_formula_sum   'Al12 P12 H36 C8 N4 O52'
_cell_volume   1348.00542286
_cell_formula_units_Z   4
loop_
 _symmetry_equiv_pos_site_id
 _symmetry_equiv_pos_as_xyz
  1  'x, y, z'
loop_
 _atom_site_type_symbol
 _atom_site_label
 _atom_site_symmetry_multiplicity
 _atom_site_fract_x
 _atom_site_fract_y
 _atom_site_fract_z
 _atom_site_occupancy
  Al  Al0  1  0.065149  0.203982  0.798243  1
  Al  Al1  1  0.139514  0.388763  0.664553  1
  Al  Al2  1  0.010068  0.330987  0.190016  1
  Al  Al3  1  0.360486  0.888763  0.835447  1
  Al  Al4  1  0.434851  0.703982  0.701757  1
  Al  Al5  1  0.510068  0.169013  0.690016  1
  Al  Al6  1  0.489932  0.830987  0.309984  1
  Al  Al7  1  0.565149  0.296018  0.298243  1
  Al  Al8  1  0.639514  0.111237  0.164553  1
  Al  Al9  1  0.989932  0.669013  0.809984  1
  Al  Al10  1  0.860486  0.611237  0.335447  1
  Al  Al11  1  0.934851  0.796018  0.201757  1
  P  P12  1  0.159381  0.570631  0.631954  1
  P  P13  1  0.340619  0.070631  0.868046  1
  P  P14  1  0.251599  0.837571  0.494307  1
  P  P15  1  0.296391  0.288301  0.472613  1
  P  P16  1  0.203609  0.788301  0.027387  1
  P  P17  1  0.248401  0.337571  0.005693  1
  P  P18  1  0.751599  0.662429  0.994307  1
  P  P19  1  0.796391  0.211699  0.972613  1
  P  P20  1  0.703609  0.711699  0.527387  1
  P  P21  1  0.748401  0.162429  0.505693  1
  P  P22  1  0.659381  0.929369  0.131954  1
  P  P23  1  0.840619  0.429369  0.368046  1
  H  H24  1  0.052582  0.059387  0.479586  1
  H  H25  1  0.123484  0.122726  0.366383  1
  H  H26  1  0.254993  0.049518  0.477050  1
  H  H27  1  0.123051  0.974625  0.081301  1
  H  H28  1  0.163525  0.073577  0.129117  1
  H  H29  1  0.204341  0.501211  0.260348  1
  H  H30  1  0.295659  0.001211  0.239652  1
  H  H31  1  0.336475  0.573577  0.370883  1
  H  H32  1  0.552582  0.440613  0.979586  1
  H  H33  1  0.376949  0.474625  0.418699  1
  H  H34  1  0.245007  0.549518  0.022950  1
  H  H35  1  0.623484  0.377274  0.866383  1
  H  H36  1  0.376516  0.622726  0.133617  1
  H  H37  1  0.754993  0.450482  0.977050  1
  H  H38  1  0.623051  0.525375  0.581301  1
  H  H39  1  0.447418  0.559387  0.020414  1
  H  H40  1  0.663525  0.426423  0.629117  1
  H  H41  1  0.704341  0.998789  0.760348  1
  H  H42  1  0.795659  0.498789  0.739652  1
  H  H43  1  0.836475  0.926423  0.870883  1
  H  H44  1  0.876949  0.025375  0.918699  1
  H  H45  1  0.745007  0.950482  0.522950  1
  H  H46  1  0.876516  0.877274  0.633617  1
  H  H47  1  0.947418  0.940613  0.520414  1
  H  H48  1  0.050120  0.977692  0.782754  1
  H  H49  1  0.058821  0.712496  0.406107  1
  H  H50  1  0.073524  0.955353  0.316097  1
  H  H51  1  0.449880  0.477692  0.717246  1
  H  H52  1  0.558821  0.787504  0.906107  1
  H  H53  1  0.573524  0.544647  0.816097  1
  H  H54  1  0.426476  0.455353  0.183903  1
  H  H55  1  0.441179  0.212496  0.093893  1
  H  H56  1  0.550120  0.522308  0.282754  1
  H  H57  1  0.926476  0.044647  0.683903  1
  H  H58  1  0.941179  0.287504  0.593893  1
  H  H59  1  0.949880  0.022308  0.217246  1
  C  C60  1  0.130153  0.064429  0.409631  1
  C  C61  1  0.169900  0.015655  0.174295  1
  C  C62  1  0.330100  0.515655  0.325705  1
  C  C63  1  0.630153  0.435571  0.909631  1
  C  C64  1  0.369847  0.564429  0.090369  1
  C  C65  1  0.669900  0.484345  0.674295  1
  C  C66  1  0.830100  0.984345  0.825705  1
  C  C67  1  0.869847  0.935571  0.590369  1
  N  N68  1  0.071740  0.011318  0.277280  1
  N  N69  1  0.571740  0.488682  0.777280  1
  N  N70  1  0.428260  0.511318  0.222720  1
  N  N71  1  0.928260  0.988682  0.722720  1
  O  O72  1  0.053331  0.588920  0.732646  1
  O  O73  1  0.043564  0.290337  0.680502  1
  O  O74  1  0.164350  0.716330  0.925533  1
  O  O75  1  0.228868  0.253205  0.957159  1
  O  O76  1  0.059667  0.584003  0.462004  1
  O  O77  1  0.224869  0.856336  0.931691  1
  O  O78  1  0.189932  0.121282  0.820268  1
  O  O79  1  0.233899  0.391213  0.869975  1
  O  O80  1  0.084033  0.849465  0.371594  1
  O  O81  1  0.280086  0.988177  0.839906  1
  O  O82  1  0.219914  0.488177  0.660094  1
  O  O83  1  0.135795  0.272696  0.338612  1
  O  O84  1  0.066409  0.806032  0.088695  1
  O  O85  1  0.266101  0.891213  0.630025  1
  O  O86  1  0.310068  0.621282  0.679732  1
  O  O87  1  0.275131  0.356336  0.568309  1
  O  O88  1  0.271132  0.753205  0.542841  1
  O  O89  1  0.116401  0.363285  0.072996  1
  O  O90  1  0.335650  0.216330  0.574467  1
  O  O91  1  0.456436  0.790337  0.819498  1
  O  O92  1  0.446669  0.088920  0.767354  1
  O  O93  1  0.559667  0.915997  0.962004  1
  O  O94  1  0.383599  0.863285  0.427004  1
  O  O95  1  0.584033  0.650535  0.871594  1
  O  O96  1  0.433591  0.306032  0.411305  1
  O  O97  1  0.364205  0.772696  0.161388  1
  O  O98  1  0.635795  0.227304  0.838612  1
  O  O99  1  0.566409  0.693968  0.588695  1
  O  O100  1  0.415967  0.349465  0.128406  1
  O  O101  1  0.616401  0.136715  0.572996  1
  O  O102  1  0.440333  0.084003  0.037996  1
  O  O103  1  0.553331  0.911080  0.232647  1
  O  O104  1  0.543564  0.209663  0.180502  1
  O  O105  1  0.664350  0.783670  0.425533  1
  O  O106  1  0.883599  0.636715  0.927004  1
  O  O107  1  0.728868  0.246795  0.457159  1
  O  O108  1  0.724869  0.643664  0.431691  1
  O  O109  1  0.689932  0.378718  0.320268  1
  O  O110  1  0.733899  0.108787  0.369975  1
  O  O111  1  0.933591  0.193968  0.911305  1
  O  O112  1  0.864205  0.727304  0.661388  1
  O  O113  1  0.780086  0.511823  0.339906  1
  O  O114  1  0.719914  0.011823  0.160094  1
  O  O115  1  0.915967  0.150535  0.628406  1
  O  O116  1  0.766101  0.608787  0.130025  1
  O  O117  1  0.810068  0.878718  0.179732  1
  O  O118  1  0.775131  0.143664  0.068309  1
  O  O119  1  0.940333  0.415997  0.537996  1
  O  O120  1  0.771132  0.746795  0.042841  1
  O  O121  1  0.835650  0.283670  0.074467  1
  O  O122  1  0.956436  0.709663  0.319498  1
  O  O123  1  0.946669  0.411080  0.267354  1
