# generated using pymatgen
data_Na2FePCO7
_symmetry_space_group_name_H-M   'P 1'
_cell_length_a   17.90402355
_cell_length_b   5.24545530
_cell_length_c   6.55081610
_cell_angle_alpha   89.83434025
_cell_angle_beta   90.71157610
_cell_angle_gamma   89.53649414
_symmetry_Int_Tables_number   1
_chemical_formula_structural   Na2FePCO7
_chemical_formula_sum   'Na8 Fe4 P4 C4 O28'
_cell_volume   615.14796220
_cell_formula_units_Z   4
loop_
 _symmetry_equiv_pos_site_id
 _symmetry_equiv_pos_as_xyz
  1  'x, y, z'
loop_
 _atom_site_type_symbol
 _atom_site_label
 _atom_site_symmetry_multiplicity
 _atom_site_fract_x
 _atom_site_fract_y
 _atom_site_fract_z
 _atom_site_occupancy
  Na  Na0  1  0.040708  0.762227  0.280422  1
  Na  Na1  1  0.131780  0.251090  0.011140  1
  Na  Na2  1  0.367891  0.748638  0.986948  1
  Na  Na3  1  0.459081  0.237249  0.742263  1
  Na  Na4  1  0.541093  0.763721  0.241002  1
  Na  Na5  1  0.631841  0.252388  0.487114  1
  Na  Na6  1  0.868408  0.750491  0.989632  1
  Na  Na7  1  0.959938  0.238008  0.719450  1
  Fe  Fe8  1  0.172814  0.783721  0.736786  1
  Fe  Fe9  1  0.327192  0.216212  0.261478  1
  Fe  Fe10  1  0.672658  0.783519  0.763070  1
  Fe  Fe11  1  0.827243  0.215756  0.266762  1
  P  P12  1  0.212304  0.710642  0.245106  1
  P  P13  1  0.287630  0.289242  0.752967  1
  P  P14  1  0.712283  0.710609  0.253409  1
  P  P15  1  0.787811  0.288886  0.755533  1
  C  C16  1  0.032491  0.729838  0.762701  1
  C  C17  1  0.467459  0.270408  0.247460  1
  C  C18  1  0.532332  0.729810  0.745004  1
  C  C19  1  0.967588  0.270124  0.236813  1
  O  O20  1  0.037599  0.299080  0.230370  1
  O  O21  1  0.063799  0.956061  0.755704  1
  O  O22  1  0.079429  0.536468  0.754085  1
  O  O23  1  0.159647  0.773513  0.060709  1
  O  O24  1  0.164739  0.762802  0.436499  1
  O  O25  1  0.215909  0.127638  0.757658  1
  O  O26  1  0.235321  0.423829  0.234201  1
  O  O27  1  0.264628  0.576054  0.764926  1
  O  O28  1  0.283984  0.872423  0.240518  1
  O  O29  1  0.335459  0.237744  0.562114  1
  O  O30  1  0.340109  0.225697  0.937732  1
  O  O31  1  0.420466  0.463919  0.242441  1
  O  O32  1  0.436122  0.044165  0.242227  1
  O  O33  1  0.462577  0.702119  0.766030  1
  O  O34  1  0.537522  0.298743  0.260612  1
  O  O35  1  0.563670  0.955728  0.735611  1
  O  O36  1  0.578996  0.535944  0.736200  1
  O  O37  1  0.660970  0.761104  0.064567  1
  O  O38  1  0.663250  0.775852  0.440529  1
  O  O39  1  0.716120  0.127521  0.742425  1
  O  O40  1  0.735061  0.423398  0.264469  1
  O  O41  1  0.764875  0.575853  0.765043  1
  O  O42  1  0.784084  0.871435  0.243514  1
  O  O43  1  0.838460  0.239265  0.568610  1
  O  O44  1  0.837297  0.222919  0.944748  1
  O  O45  1  0.920546  0.463323  0.243951  1
  O  O46  1  0.936343  0.043754  0.244064  1
  O  O47  1  0.962472  0.701063  0.770454  1
