# generated using pymatgen
data_LiFe2P3O11
_symmetry_space_group_name_H-M   'P 1'
_cell_length_a   7.23479731
_cell_length_b   7.23479731
_cell_length_c   8.84212578
_cell_angle_alpha   70.11795647
_cell_angle_beta   109.88204353
_cell_angle_gamma   105.98343485
_symmetry_Int_Tables_number   1
_chemical_formula_structural   LiFe2P3O11
_chemical_formula_sum   'Li2 Fe4 P6 O22'
_cell_volume   402.55956889
_cell_formula_units_Z   2
loop_
 _symmetry_equiv_pos_site_id
 _symmetry_equiv_pos_as_xyz
  1  'x, y, z'
loop_
 _atom_site_type_symbol
 _atom_site_label
 _atom_site_symmetry_multiplicity
 _atom_site_fract_x
 _atom_site_fract_y
 _atom_site_fract_z
 _atom_site_occupancy
  Li  Li0  1  0.483600  0.985994  0.012230  1
  Li  Li1  1  0.985994  0.483600  0.487770  1
  Fe  Fe2  1  0.112646  0.357420  0.952884  1
  Fe  Fe3  1  0.642908  0.886264  0.453997  1
  Fe  Fe4  1  0.357420  0.112646  0.547116  1
  Fe  Fe5  1  0.886264  0.642908  0.046003  1
  P  P6  1  0.449842  0.676286  0.784869  1
  P  P7  1  0.042837  0.042837  0.750000  1
  P  P8  1  0.321621  0.549731  0.284014  1
  P  P9  1  0.676286  0.449842  0.715131  1
  P  P10  1  0.957615  0.957615  0.250000  1
  P  P11  1  0.549731  0.321621  0.215986  1
  O  O12  1  0.012286  0.880260  0.908361  1
  O  O13  1  0.119950  0.989901  0.407764  1
  O  O14  1  0.242453  0.616459  0.809866  1
  O  O15  1  0.466772  0.848206  0.624151  1
  O  O16  1  0.615087  0.725495  0.936805  1
  O  O17  1  0.045233  0.256898  0.757102  1
  O  O18  1  0.383793  0.760609  0.303556  1
  O  O19  1  0.487479  0.487479  0.750000  1
  O  O20  1  0.149986  0.532563  0.123397  1
  O  O21  1  0.271392  0.387307  0.436354  1
  O  O22  1  0.743320  0.954596  0.257626  1
  O  O23  1  0.256898  0.045233  0.742898  1
  O  O24  1  0.725495  0.615087  0.563195  1
  O  O25  1  0.848206  0.466772  0.875849  1
  O  O26  1  0.510222  0.510222  0.250000  1
  O  O27  1  0.616459  0.242453  0.690134  1
  O  O28  1  0.954596  0.743320  0.242374  1
  O  O29  1  0.387307  0.271392  0.063646  1
  O  O30  1  0.532563  0.149986  0.376603  1
  O  O31  1  0.760609  0.383793  0.196443  1
  O  O32  1  0.880260  0.012286  0.591639  1
  O  O33  1  0.989901  0.119950  0.092236  1
