# generated using pymatgen
data_Cr3O
_symmetry_space_group_name_H-M   'P 1'
_cell_length_a   5.66676682
_cell_length_b   5.66676682
_cell_length_c   5.66676682
_cell_angle_alpha   122.01574275
_cell_angle_beta   122.01574275
_cell_angle_gamma   57.98425725
_symmetry_Int_Tables_number   1
_chemical_formula_structural   Cr3O
_chemical_formula_sum   'Cr6 O2'
_cell_volume   122.72382378
_cell_formula_units_Z   2
loop_
 _symmetry_equiv_pos_site_id
 _symmetry_equiv_pos_as_xyz
  1  'x, y, z'
loop_
 _atom_site_type_symbol
 _atom_site_label
 _atom_site_symmetry_multiplicity
 _atom_site_fract_x
 _atom_site_fract_y
 _atom_site_fract_z
 _atom_site_occupancy
  Cr  Cr0  1  0.750027  0.090042  0.590069  1
  Cr  Cr1  1  0.409931  0.750027  0.909958  1
  Cr  Cr2  1  0.090042  0.409931  0.249973  1
  Cr  Cr3  1  0.249989  0.909354  0.409342  1
  Cr  Cr4  1  0.590658  0.249989  0.090646  1
  Cr  Cr5  1  0.909354  0.590658  0.750011  1
  O  O6  1  0.499930  0.499930  0.500070  1
  O  O7  1  0.000069  0.000069  0.999931  1
