# generated using pymatgen
data_Rb4SiO4
_symmetry_space_group_name_H-M   'P 1'
_cell_length_a   11.01516836
_cell_length_b   6.79137705
_cell_length_c   10.93059132
_cell_angle_alpha   90.00000000
_cell_angle_beta   112.40195763
_cell_angle_gamma   90.00000000
_symmetry_Int_Tables_number   1
_chemical_formula_structural   Rb4SiO4
_chemical_formula_sum   'Rb16 Si4 O16'
_cell_volume   755.98827920
_cell_formula_units_Z   4
loop_
 _symmetry_equiv_pos_site_id
 _symmetry_equiv_pos_as_xyz
  1  'x, y, z'
loop_
 _atom_site_type_symbol
 _atom_site_label
 _atom_site_symmetry_multiplicity
 _atom_site_fract_x
 _atom_site_fract_y
 _atom_site_fract_z
 _atom_site_occupancy
  Rb  Rb0  1  0.064939  0.407570  0.699389  1
  Rb  Rb1  1  0.155308  0.886159  0.582359  1
  Rb  Rb2  1  0.064939  0.092430  0.199389  1
  Rb  Rb3  1  0.368861  0.666986  0.890379  1
  Rb  Rb4  1  0.422758  0.181613  0.793700  1
  Rb  Rb5  1  0.155308  0.613841  0.082359  1
  Rb  Rb6  1  0.368861  0.833014  0.390379  1
  Rb  Rb7  1  0.577242  0.681613  0.706300  1
  Rb  Rb8  1  0.422758  0.318387  0.293700  1
  Rb  Rb9  1  0.631139  0.166986  0.609621  1
  Rb  Rb10  1  0.844692  0.386159  0.917641  1
  Rb  Rb11  1  0.577242  0.818387  0.206300  1
  Rb  Rb12  1  0.631139  0.333014  0.109621  1
  Rb  Rb13  1  0.935061  0.907570  0.800611  1
  Rb  Rb14  1  0.844692  0.113841  0.417641  1
  Rb  Rb15  1  0.935061  0.592430  0.300611  1
  Si  Si16  1  0.241753  0.130054  0.989168  1
  Si  Si17  1  0.241753  0.369946  0.489168  1
  Si  Si18  1  0.758247  0.630054  0.510832  1
  Si  Si19  1  0.758247  0.869946  0.010832  1
  O  O20  1  0.097269  0.230509  0.973118  1
  O  O21  1  0.219918  0.003112  0.850921  1
  O  O22  1  0.097269  0.269491  0.473118  1
  O  O23  1  0.298735  0.517783  0.622485  1
  O  O24  1  0.219918  0.496888  0.350921  1
  O  O25  1  0.350655  0.186599  0.508642  1
  O  O26  1  0.298735  0.982217  0.122485  1
  O  O27  1  0.649345  0.686599  0.991358  1
  O  O28  1  0.350655  0.313401  0.008642  1
  O  O29  1  0.701265  0.017783  0.877515  1
  O  O30  1  0.649345  0.813401  0.491358  1
  O  O31  1  0.780082  0.503112  0.649079  1
  O  O32  1  0.701265  0.482217  0.377515  1
  O  O33  1  0.902731  0.730509  0.526882  1
  O  O34  1  0.780082  0.996888  0.149079  1
  O  O35  1  0.902731  0.769491  0.026882  1
