# generated using pymatgen
data_FeCu3(PO4)4
_symmetry_space_group_name_H-M   'P 1'
_cell_length_a   5.08736466
_cell_length_b   9.94181524
_cell_length_c   6.01179624
_cell_angle_alpha   90.00000000
_cell_angle_beta   90.00000000
_cell_angle_gamma   87.96331773
_symmetry_Int_Tables_number   1
_chemical_formula_structural   FeCu3(PO4)4
_chemical_formula_sum   'Fe1 Cu3 P4 O16'
_cell_volume   303.87037991
_cell_formula_units_Z   1
loop_
 _symmetry_equiv_pos_site_id
 _symmetry_equiv_pos_as_xyz
  1  'x, y, z'
loop_
 _atom_site_type_symbol
 _atom_site_label
 _atom_site_symmetry_multiplicity
 _atom_site_fract_x
 _atom_site_fract_y
 _atom_site_fract_z
 _atom_site_occupancy
  Fe  Fe0  1  0.946870  0.286786  0.250000  1
  Cu  Cu1  1  0.117034  0.692899  0.750000  1
  Cu  Cu2  1  0.359952  0.194486  0.750000  1
  Cu  Cu3  1  0.627106  0.807602  0.250000  1
  P  P4  1  0.082794  0.605309  0.250000  1
  P  P5  1  0.429424  0.104331  0.250000  1
  P  P6  1  0.558939  0.891645  0.750000  1
  P  P7  1  0.918720  0.396952  0.750000  1
  O  O8  1  0.137434  0.452667  0.250000  1
  O  O9  1  0.224494  0.670982  0.048914  1
  O  O10  1  0.224494  0.670982  0.451086  1
  O  O11  1  0.222891  0.369302  0.750000  1
  O  O12  1  0.261103  0.865928  0.750000  1
  O  O13  1  0.264176  0.175490  0.057033  1
  O  O14  1  0.264176  0.175490  0.442967  1
  O  O15  1  0.384201  0.951421  0.250000  1
  O  O16  1  0.591944  0.046568  0.750000  1
  O  O17  1  0.714064  0.826033  0.551872  1
  O  O18  1  0.714064  0.826033  0.948128  1
  O  O19  1  0.720332  0.131442  0.250000  1
  O  O20  1  0.781070  0.632995  0.250000  1
  O  O21  1  0.786936  0.335589  0.543093  1
  O  O22  1  0.786936  0.335589  0.956907  1
  O  O23  1  0.880844  0.553483  0.750000  1
