# generated using pymatgen
data_LiZr2(PO4)3
_symmetry_space_group_name_H-M   'P 1'
_cell_length_a   9.08579670
_cell_length_b   9.05235553
_cell_length_c   9.08579681
_cell_angle_alpha   59.51951694
_cell_angle_beta   60.02577003
_cell_angle_gamma   59.51951532
_symmetry_Int_Tables_number   1
_chemical_formula_structural   LiZr2(PO4)3
_chemical_formula_sum   'Li2 Zr4 P6 O24'
_cell_volume   524.64235806
_cell_formula_units_Z   2
loop_
 _symmetry_equiv_pos_site_id
 _symmetry_equiv_pos_as_xyz
  1  'x, y, z'
loop_
 _atom_site_type_symbol
 _atom_site_label
 _atom_site_symmetry_multiplicity
 _atom_site_fract_x
 _atom_site_fract_y
 _atom_site_fract_z
 _atom_site_occupancy
  Li  Li0  1  0.649533  0.538933  0.350089  1
  Li  Li1  1  0.850089  0.038933  0.149533  1
  Zr  Zr2  1  0.353205  0.361119  0.364711  1
  Zr  Zr3  1  0.146511  0.140788  0.135555  1
  Zr  Zr4  1  0.635555  0.640788  0.646511  1
  Zr  Zr5  1  0.864711  0.861119  0.853205  1
  P  P6  1  0.030860  0.754219  0.459500  1
  P  P7  1  0.542714  0.958977  0.248784  1
  P  P8  1  0.250094  0.537059  0.963450  1
  P  P9  1  0.748784  0.458977  0.042714  1
  P  P10  1  0.463450  0.037059  0.750095  1
  P  P11  1  0.959500  0.254219  0.530860  1
  O  O12  1  0.038985  0.921990  0.281730  1
  O  O13  1  0.999436  0.797698  0.618735  1
  O  O14  1  0.086107  0.714160  0.942668  1
  O  O15  1  0.382684  0.999766  0.201664  1
  O  O16  1  0.497508  0.877258  0.704499  1
  O  O17  1  0.211638  0.595884  0.431856  1
  O  O18  1  0.724424  0.942678  0.088541  1
  O  O19  1  0.567817  0.769805  0.402142  1
  O  O20  1  0.296905  0.496566  0.124515  1
  O  O21  1  0.118735  0.297698  0.499436  1
  O  O22  1  0.204499  0.377258  0.997508  1
  O  O23  1  0.411682  0.560133  0.788233  1
  O  O24  1  0.588541  0.442678  0.224424  1
  O  O25  1  0.800443  0.610942  0.016513  1
  O  O26  1  0.871924  0.706626  0.498046  1
  O  O27  1  0.701664  0.499766  0.882684  1
  O  O28  1  0.288233  0.060133  0.911682  1
  O  O29  1  0.442668  0.214160  0.586107  1
  O  O30  1  0.781730  0.421990  0.538984  1
  O  O31  1  0.516513  0.110942  0.300443  1
  O  O32  1  0.624515  0.996566  0.796905  1
  O  O33  1  0.902142  0.269805  0.067817  1
  O  O34  1  0.998046  0.206626  0.371924  1
  O  O35  1  0.931856  0.095884  0.711638  1
