# generated using pymatgen
data_Na2Ca9NdY5HoF41
_symmetry_space_group_name_H-M   'P 1'
_cell_length_a   10.54067084
_cell_length_b   10.41954871
_cell_length_c   10.43554084
_cell_angle_alpha   110.49812017
_cell_angle_beta   111.17381954
_cell_angle_gamma   110.62506927
_symmetry_Int_Tables_number   1
_chemical_formula_structural   Na2Ca9NdY5HoF41
_chemical_formula_sum   'Na2 Ca9 Nd1 Y5 Ho1 F41'
_cell_volume   837.31755021
_cell_formula_units_Z   1
loop_
 _symmetry_equiv_pos_site_id
 _symmetry_equiv_pos_as_xyz
  1  'x, y, z'
loop_
 _atom_site_type_symbol
 _atom_site_label
 _atom_site_symmetry_multiplicity
 _atom_site_fract_x
 _atom_site_fract_y
 _atom_site_fract_z
 _atom_site_occupancy
  Na  Na0  1  0.386391  0.754030  0.346102  1
  Na  Na1  1  0.952099  0.791870  0.682968  1
  Ca  Ca2  1  0.072251  0.556563  0.859490  1
  Ca  Ca3  1  0.134981  0.923216  0.461001  1
  Ca  Ca4  1  0.231363  0.659383  0.602219  1
  Ca  Ca5  1  0.343927  0.401212  0.753018  1
  Ca  Ca6  1  0.439425  0.132721  0.914016  1
  Ca  Ca7  1  0.564119  0.870032  0.066898  1
  Ca  Ca8  1  0.610338  0.244766  0.671030  1
  Ca  Ca9  1  0.773316  0.351600  0.405450  1
  Ca  Ca10  1  0.927930  0.442285  0.131812  1
  Nd  Nd11  1  0.865932  0.065696  0.578546  1
  Y  Y12  1  0.013310  0.180033  0.295424  1
  Y  Y13  1  0.681154  0.958726  0.798136  1
  Y  Y14  1  0.188413  0.312281  0.019793  1
  Y  Y15  1  0.802337  0.702599  0.965140  1
  Y  Y16  1  0.332760  0.054664  0.223073  1
  Ho  Ho17  1  0.655564  0.602444  0.238406  1
  F  F18  1  0.020513  0.578395  0.637015  1
  F  F19  1  0.198799  0.891566  0.677915  1
  F  F20  1  0.129746  0.349665  0.806246  1
  F  F21  1  0.139660  0.687173  0.374885  1
  F  F22  1  0.317274  0.630813  0.844381  1
  F  F23  1  0.087626  0.146050  0.529407  1
  F  F24  1  0.466523  0.911435  0.851319  1
  F  F25  1  0.336572  0.973796  0.394448  1
  F  F26  1  0.232871  0.417521  0.531193  1
  F  F27  1  0.405135  0.357243  0.978692  1
  F  F28  1  0.149016  0.524650  0.085775  1
  F  F29  1  0.444037  0.754517  0.576208  1
  F  F30  1  0.289785  0.815733  0.086063  1
  F  F31  1  0.204796  0.126839  0.326724  1
  F  F32  1  0.378970  0.170077  0.692687  1
  F  F33  1  0.624607  0.761059  0.853892  1
  F  F34  1  0.576489  0.460280  0.748429  1
  F  F35  1  0.433752  0.536612  0.242474  1
  F  F36  1  0.296073  0.176862  0.094325  1
  F  F37  1  0.626987  0.830104  0.299592  1
  F  F38  1  0.761034  0.861443  0.639203  1
  F  F39  1  0.654824  0.183394  0.873447  1
  F  F40  1  0.560162  0.264414  0.444501  1
  F  F41  1  0.942401  0.696988  0.851815  1
  F  F42  1  0.852582  0.482906  0.918462  1
  F  F43  1  0.588299  0.631167  0.020670  1
  F  F44  1  0.730243  0.554797  0.431513  1
  F  F45  1  0.626776  0.018918  0.580132  1
  F  F46  1  0.519401  0.094014  0.152212  1
  F  F47  1  0.892191  0.837500  0.453421  1
  F  F48  1  0.881842  0.912150  0.207237  1
  F  F49  1  0.683113  0.382287  0.151683  1
  F  F50  1  0.836386  0.302015  0.630384  1
  F  F51  1  0.906597  0.190170  0.861557  1
  F  F52  1  0.866842  0.654406  0.177917  1
  F  F53  1  0.945747  0.956729  0.004739  1
  F  F54  1  0.813545  0.128787  0.359069  1
  F  F55  1  0.077921  0.078583  0.787736  1
  F  F56  1  0.966842  0.394926  0.343784  1
  F  F57  1  0.773869  0.082616  0.072608  1
  F  F58  1  0.094348  0.309779  0.179915  1
