# generated using pymatgen
data_Li7Y7ZrS16
_symmetry_space_group_name_H-M   'P 1'
_cell_length_a   6.57233304
_cell_length_b   15.54117725
_cell_length_c   6.75088151
_cell_angle_alpha   90.00000335
_cell_angle_beta   70.15200171
_cell_angle_gamma   89.99999936
_symmetry_Int_Tables_number   1
_chemical_formula_structural   Li7Y7ZrS16
_chemical_formula_sum   'Li7 Y7 Zr1 S16'
_cell_volume   648.58574199
_cell_formula_units_Z   1
loop_
 _symmetry_equiv_pos_site_id
 _symmetry_equiv_pos_as_xyz
  1  'x, y, z'
loop_
 _atom_site_type_symbol
 _atom_site_label
 _atom_site_symmetry_multiplicity
 _atom_site_fract_x
 _atom_site_fract_y
 _atom_site_fract_z
 _atom_site_occupancy
  Li  Li0  1  0.000000  0.250552  0.000000  1
  Li  Li1  1  0.000000  0.124125  0.500000  1
  Li  Li2  1  0.000000  0.500000  0.000000  1
  Li  Li3  1  0.000000  0.749448  0.000000  1
  Li  Li4  1  0.000000  0.374979  0.500000  1
  Li  Li5  1  0.000000  0.625021  0.500000  1
  Li  Li6  1  0.000000  0.875875  0.500000  1
  Y  Y7  1  0.500000  0.122963  0.000000  1
  Y  Y8  1  0.500000  0.374619  0.000000  1
  Y  Y9  1  0.500000  0.248437  0.500000  1
  Y  Y10  1  0.500000  0.625381  0.000000  1
  Y  Y11  1  0.500000  0.877037  0.000000  1
  Y  Y12  1  0.500000  0.500000  0.500000  1
  Y  Y13  1  0.500000  0.751563  0.500000  1
  Zr  Zr14  1  0.500000  0.000000  0.500000  1
  S  S15  1  0.260430  0.000000  0.266887  1
  S  S16  1  0.740112  0.119971  0.261838  1
  S  S17  1  0.247328  0.249138  0.248172  1
  S  S18  1  0.248476  0.500000  0.250572  1
  S  S19  1  0.752043  0.374555  0.249423  1
  S  S20  1  0.739570  0.000000  0.733113  1
  S  S21  1  0.259888  0.119971  0.738162  1
  S  S22  1  0.752043  0.625445  0.249423  1
  S  S23  1  0.247957  0.374555  0.750577  1
  S  S24  1  0.247328  0.750862  0.248172  1
  S  S25  1  0.752672  0.249138  0.751828  1
  S  S26  1  0.740112  0.880029  0.261838  1
  S  S27  1  0.247957  0.625445  0.750577  1
  S  S28  1  0.751524  0.500000  0.749428  1
  S  S29  1  0.259888  0.880029  0.738162  1
  S  S30  1  0.752672  0.750862  0.751828  1
