# generated using pymatgen
data_Na6BeO4
_symmetry_space_group_name_H-M   'P 1'
_cell_length_a   7.31475334
_cell_length_b   7.31450923
_cell_length_c   5.76813766
_cell_angle_alpha   89.99990723
_cell_angle_beta   90.00004388
_cell_angle_gamma   119.99889627
_symmetry_Int_Tables_number   1
_chemical_formula_structural   Na6BeO4
_chemical_formula_sum   'Na12 Be2 O8'
_cell_volume   267.27353432
_cell_formula_units_Z   2
loop_
 _symmetry_equiv_pos_site_id
 _symmetry_equiv_pos_as_xyz
  1  'x, y, z'
loop_
 _atom_site_type_symbol
 _atom_site_label
 _atom_site_symmetry_multiplicity
 _atom_site_fract_x
 _atom_site_fract_y
 _atom_site_fract_z
 _atom_site_occupancy
  Na  Na0  1  0.144523  0.855495  0.389606  1
  Na  Na1  1  0.066756  0.533380  0.713540  1
  Na  Na2  1  0.144532  0.289048  0.389603  1
  Na  Na3  1  0.466613  0.933255  0.713543  1
  Na  Na4  1  0.466611  0.533382  0.713548  1
  Na  Na5  1  0.289055  0.144528  0.889601  1
  Na  Na6  1  0.710945  0.855473  0.389601  1
  Na  Na7  1  0.533387  0.466643  0.213543  1
  Na  Na8  1  0.533389  0.066771  0.213548  1
  Na  Na9  1  0.855477  0.710972  0.889606  1
  Na  Na10  1  0.933244  0.466624  0.213540  1
  Na  Na11  1  0.855468  0.144517  0.889603  1
  Be  Be12  1  0.333300  0.666664  0.107534  1
  Be  Be13  1  0.666700  0.333365  0.607534  1
  O  O14  1  0.202272  0.797730  0.007112  1
  O  O15  1  0.333316  0.666669  0.402446  1
  O  O16  1  0.202263  0.404562  0.007118  1
  O  O17  1  0.595413  0.797712  0.007113  1
  O  O18  1  0.404587  0.202300  0.507113  1
  O  O19  1  0.666684  0.333354  0.902446  1
  O  O20  1  0.797728  0.595457  0.507112  1
  O  O21  1  0.797737  0.202299  0.507118  1
