# generated using pymatgen
data_H18RuC6(SCl)3
_symmetry_space_group_name_H-M   'P 1'
_cell_length_a   16.64407742
_cell_length_b   8.70759434
_cell_length_c   10.65477102
_cell_angle_alpha   90.00000000
_cell_angle_beta   90.00000000
_cell_angle_gamma   90.00000000
_symmetry_Int_Tables_number   1
_chemical_formula_structural   H18RuC6(SCl)3
_chemical_formula_sum   'H72 Ru4 C24 S12 Cl12'
_cell_volume   1544.19462502
_cell_formula_units_Z   4
loop_
 _symmetry_equiv_pos_site_id
 _symmetry_equiv_pos_as_xyz
  1  'x, y, z'
loop_
 _atom_site_type_symbol
 _atom_site_label
 _atom_site_symmetry_multiplicity
 _atom_site_fract_x
 _atom_site_fract_y
 _atom_site_fract_z
 _atom_site_occupancy
  H  H0  1  0.003247  0.512593  0.716506  1
  H  H1  1  0.013290  0.047607  0.193510  1
  H  H2  1  0.017026  0.975544  0.855006  1
  H  H3  1  0.022699  0.206068  0.299116  1
  H  H4  1  0.060829  0.422845  0.593736  1
  H  H5  1  0.066829  0.351049  0.752015  1
  H  H6  1  0.065765  0.594511  0.954075  1
  H  H7  1  0.081308  0.036960  0.543378  1
  H  H8  1  0.120021  0.218091  0.485396  1
  H  H9  1  0.125972  0.505525  0.074290  1
  H  H10  1  0.142482  0.800466  0.675140  1
  H  H11  1  0.150375  0.130038  0.071253  1
  H  H12  1  0.159283  0.680788  0.002850  1
  H  H13  1  0.159127  0.137018  0.903687  1
  H  H14  1  0.164493  0.601324  0.647959  1
  H  H15  1  0.187952  0.069410  0.529418  1
  H  H16  1  0.221168  0.006123  0.992035  1
  H  H17  1  0.237028  0.722709  0.725402  1
  H  H18  1  0.262972  0.222709  0.225402  1
  H  H19  1  0.278832  0.506123  0.492035  1
  H  H20  1  0.312048  0.569410  0.029418  1
  H  H21  1  0.335507  0.101324  0.147959  1
  H  H22  1  0.340873  0.637018  0.403687  1
  H  H23  1  0.340717  0.180788  0.502850  1
  H  H24  1  0.349625  0.630038  0.571253  1
  H  H25  1  0.357518  0.300466  0.175140  1
  H  H26  1  0.374028  0.005525  0.574290  1
  H  H27  1  0.379979  0.718091  0.985396  1
  H  H28  1  0.418692  0.536960  0.043378  1
  H  H29  1  0.434235  0.094511  0.454075  1
  H  H30  1  0.433171  0.851049  0.252015  1
  H  H31  1  0.439171  0.922845  0.093736  1
  H  H32  1  0.477301  0.706068  0.799116  1
  H  H33  1  0.482974  0.475544  0.355006  1
  H  H34  1  0.486710  0.547607  0.693510  1
  H  H35  1  0.496753  0.012593  0.216506  1
  H  H36  1  0.503247  0.987407  0.716506  1
  H  H37  1  0.513290  0.452393  0.193510  1
  H  H38  1  0.517026  0.524456  0.855006  1
  H  H39  1  0.522699  0.293932  0.299116  1
  H  H40  1  0.560829  0.077155  0.593736  1
  H  H41  1  0.566829  0.148951  0.752015  1
  H  H42  1  0.565765  0.905489  0.954075  1
  H  H43  1  0.581308  0.463040  0.543378  1
  H  H44  1  0.620021  0.281909  0.485396  1
  H  H45  1  0.625972  0.994475  0.074290  1
  H  H46  1  0.642482  0.699534  0.675140  1
  H  H47  1  0.650375  0.369962  0.071253  1
  H  H48  1  0.659283  0.819212  0.002850  1
  H  H49  1  0.659127  0.362982  0.903687  1
  H  H50  1  0.664493  0.898676  0.647959  1
  H  H51  1  0.687952  0.430590  0.529418  1
  H  H52  1  0.721168  0.493877  0.992035  1
  H  H53  1  0.737028  0.777291  0.725402  1
  H  H54  1  0.762972  0.277291  0.225402  1
  H  H55  1  0.778832  0.993877  0.492035  1
  H  H56  1  0.812048  0.930590  0.029418  1
  H  H57  1  0.835507  0.398676  0.147959  1
  H  H58  1  0.840873  0.862982  0.403687  1
  H  H59  1  0.840717  0.319212  0.502850  1
  H  H60  1  0.849625  0.869962  0.571253  1
  H  H61  1  0.857518  0.199534  0.175140  1
  H  H62  1  0.874028  0.494475  0.574290  1
  H  H63  1  0.879979  0.781909  0.985396  1
  H  H64  1  0.918692  0.963040  0.043378  1
  H  H65  1  0.934235  0.405489  0.454075  1
  H  H66  1  0.933171  0.648951  0.252015  1
  H  H67  1  0.939171  0.577155  0.093736  1
  H  H68  1  0.977301  0.793932  0.799116  1
  H  H69  1  0.982974  0.024456  0.355006  1
  H  H70  1  0.986710  0.952393  0.693510  1
  H  H71  1  0.996753  0.487407  0.216506  1
  Ru  Ru72  1  0.138591  0.746260  0.334028  1
  Ru  Ru73  1  0.361409  0.246260  0.834028  1
  Ru  Ru74  1  0.638591  0.753740  0.334028  1
  Ru  Ru75  1  0.861409  0.253740  0.834028  1
  C  C76  1  0.025513  0.080576  0.290976  1
  C  C77  1  0.027670  0.403948  0.681619  1
  C  C78  1  0.106757  0.614763  0.033214  1
  C  C79  1  0.128761  0.093427  0.488861  1
  C  C80  1  0.189773  0.717047  0.653543  1
  C  C81  1  0.191833  0.118460  0.991662  1
  C  C82  1  0.308167  0.618460  0.491662  1
  C  C83  1  0.310227  0.217047  0.153543  1
  C  C84  1  0.371239  0.593427  0.988861  1
  C  C85  1  0.393243  0.114763  0.533214  1
  C  C86  1  0.472330  0.903948  0.181619  1
  C  C87  1  0.474487  0.580576  0.790976  1
  C  C88  1  0.525513  0.419424  0.290976  1
  C  C89  1  0.527670  0.096052  0.681619  1
  C  C90  1  0.606757  0.885237  0.033214  1
  C  C91  1  0.628761  0.406573  0.488861  1
  C  C92  1  0.689773  0.782953  0.653543  1
  C  C93  1  0.691833  0.381540  0.991662  1
  C  C94  1  0.808167  0.881540  0.491662  1
  C  C95  1  0.810227  0.282953  0.153543  1
  C  C96  1  0.871239  0.906573  0.988861  1
  C  C97  1  0.893243  0.385237  0.533214  1
  C  C98  1  0.972330  0.596052  0.181619  1
  C  C99  1  0.974487  0.919424  0.790976  1
  S  S100  1  0.054234  0.726973  0.150295  1
  S  S101  1  0.126554  0.020862  0.330484  1
  S  S102  1  0.234072  0.769764  0.504635  1
  S  S103  1  0.265928  0.269764  0.004635  1
  S  S104  1  0.373446  0.520862  0.830484  1
  S  S105  1  0.445766  0.226973  0.650295  1
  S  S106  1  0.554234  0.773027  0.150295  1
  S  S107  1  0.626554  0.479138  0.330484  1
  S  S108  1  0.734072  0.730236  0.504635  1
  S  S109  1  0.765928  0.230236  0.004635  1
  S  S110  1  0.873446  0.979138  0.830484  1
  S  S111  1  0.945766  0.273027  0.650295  1
  Cl  Cl112  1  0.024485  0.743826  0.466472  1
  Cl  Cl113  1  0.147817  0.473097  0.338909  1
  Cl  Cl114  1  0.247314  0.278672  0.705347  1
  Cl  Cl115  1  0.252686  0.778672  0.205347  1
  Cl  Cl116  1  0.352183  0.973097  0.838909  1
  Cl  Cl117  1  0.475515  0.243826  0.966472  1
  Cl  Cl118  1  0.524485  0.756174  0.466472  1
  Cl  Cl119  1  0.647817  0.026903  0.338909  1
  Cl  Cl120  1  0.747314  0.221328  0.705347  1
  Cl  Cl121  1  0.752686  0.721328  0.205347  1
  Cl  Cl122  1  0.852183  0.526903  0.838909  1
  Cl  Cl123  1  0.975515  0.256174  0.966472  1
