# generated using pymatgen
data_Li2Ti3NiO8
_symmetry_space_group_name_H-M   'P 1'
_cell_length_a   8.43398420
_cell_length_b   8.44807648
_cell_length_c   8.44644380
_cell_angle_alpha   89.89801916
_cell_angle_beta   90.20409207
_cell_angle_gamma   90.21098000
_symmetry_Int_Tables_number   1
_chemical_formula_structural   Li2Ti3NiO8
_chemical_formula_sum   'Li8 Ti12 Ni4 O32'
_cell_volume   601.80825324
_cell_formula_units_Z   4
loop_
 _symmetry_equiv_pos_site_id
 _symmetry_equiv_pos_as_xyz
  1  'x, y, z'
loop_
 _atom_site_type_symbol
 _atom_site_label
 _atom_site_symmetry_multiplicity
 _atom_site_fract_x
 _atom_site_fract_y
 _atom_site_fract_z
 _atom_site_occupancy
  Li  Li0  1  0.125544  0.874362  0.374145  1
  Li  Li1  1  0.247196  0.746735  0.753136  1
  Li  Li2  1  0.252315  0.252912  0.253084  1
  Li  Li3  1  0.374133  0.126090  0.874408  1
  Li  Li4  1  0.625307  0.626157  0.626061  1
  Li  Li5  1  0.747217  0.753545  0.246984  1
  Li  Li6  1  0.752596  0.247031  0.746960  1
  Li  Li7  1  0.874710  0.373980  0.126311  1
  Ti  Ti8  1  0.114985  0.622165  0.129456  1
  Ti  Ti9  1  0.121457  0.370233  0.884396  1
  Ti  Ti10  1  0.130334  0.115636  0.622453  1
  Ti  Ti11  1  0.369561  0.884403  0.121491  1
  Ti  Ti12  1  0.378364  0.629608  0.384342  1
  Ti  Ti13  1  0.384811  0.378325  0.630825  1
  Ti  Ti14  1  0.614885  0.877487  0.869675  1
  Ti  Ti15  1  0.622069  0.129757  0.115071  1
  Ti  Ti16  1  0.630864  0.384439  0.378356  1
  Ti  Ti17  1  0.868501  0.615103  0.878358  1
  Ti  Ti18  1  0.877428  0.869693  0.615009  1
  Ti  Ti19  1  0.885085  0.122107  0.369885  1
  Ni  Ni20  1  0.001922  0.498840  0.503219  1
  Ni  Ni21  1  0.497610  0.502185  0.004753  1
  Ni  Ni22  1  0.501537  0.002797  0.498382  1
  Ni  Ni23  1  0.996905  0.998413  0.997221  1
  O  O24  1  0.106512  0.125997  0.391279  1
  O  O25  1  0.109154  0.893827  0.626530  1
  O  O26  1  0.109869  0.610714  0.889147  1
  O  O27  1  0.126879  0.390644  0.105272  1
  O  O28  1  0.124879  0.144585  0.859035  1
  O  O29  1  0.137558  0.362640  0.635995  1
  O  O30  1  0.140877  0.618971  0.356333  1
  O  O31  1  0.141133  0.860417  0.121049  1
  O  O32  1  0.357039  0.142723  0.624455  1
  O  O33  1  0.360656  0.381337  0.857086  1
  O  O34  1  0.360199  0.640073  0.136159  1
  O  O35  1  0.380831  0.856573  0.358721  1
  O  O36  1  0.373414  0.609828  0.604909  1
  O  O37  1  0.390350  0.389325  0.388791  1
  O  O38  1  0.390972  0.106128  0.126433  1
  O  O39  1  0.393602  0.873901  0.890241  1
  O  O40  1  0.606688  0.373689  0.608675  1
  O  O41  1  0.609919  0.605446  0.372822  1
  O  O42  1  0.610269  0.889038  0.109903  1
  O  O43  1  0.626894  0.108832  0.893924  1
  O  O44  1  0.625322  0.355421  0.140382  1
  O  O45  1  0.638065  0.136588  0.362831  1
  O  O46  1  0.639469  0.877843  0.641725  1
  O  O47  1  0.640741  0.639012  0.878833  1
  O  O48  1  0.859231  0.359576  0.377959  1
  O  O49  1  0.860392  0.120058  0.143157  1
  O  O50  1  0.860853  0.861007  0.863948  1
  O  O51  1  0.875450  0.643648  0.642490  1
  O  O52  1  0.873714  0.890402  0.394527  1
  O  O53  1  0.889598  0.110298  0.611006  1
  O  O54  1  0.890670  0.393427  0.873327  1
  O  O55  1  0.893467  0.626111  0.109161  1
