# generated using pymatgen
data_Li2VCoO5
_symmetry_space_group_name_H-M   'P 1'
_cell_length_a   6.60968916
_cell_length_b   6.60969569
_cell_length_c   4.60459597
_cell_angle_alpha   90.00006189
_cell_angle_beta   89.99992640
_cell_angle_gamma   90.00346235
_symmetry_Int_Tables_number   1
_chemical_formula_structural   Li2VCoO5
_chemical_formula_sum   'Li4 V2 Co2 O10'
_cell_volume   201.16574489
_cell_formula_units_Z   2
loop_
 _symmetry_equiv_pos_site_id
 _symmetry_equiv_pos_as_xyz
  1  'x, y, z'
loop_
 _atom_site_type_symbol
 _atom_site_label
 _atom_site_symmetry_multiplicity
 _atom_site_fract_x
 _atom_site_fract_y
 _atom_site_fract_z
 _atom_site_occupancy
  Li  Li0  1  0.000031  0.999969  1.000000  1
  Li  Li1  1  0.000029  0.500028  1.000000  1
  Li  Li2  1  0.499969  0.500031  0.999999  1
  Li  Li3  1  0.499971  0.999971  0.999999  1
  V  V4  1  0.250000  0.250000  0.613201  1
  V  V5  1  0.750000  0.750000  0.386801  1
  Co  Co6  1  0.250000  0.750000  0.500000  1
  Co  Co7  1  0.750000  0.250000  0.500000  1
  O  O8  1  0.022972  0.750038  0.263750  1
  O  O9  1  0.249999  0.250000  0.250331  1
  O  O10  1  0.250038  0.522973  0.736249  1
  O  O11  1  0.249962  0.977027  0.736249  1
  O  O12  1  0.477027  0.749962  0.263749  1
  O  O13  1  0.522964  0.249997  0.736235  1
  O  O14  1  0.749996  0.022963  0.263765  1
  O  O15  1  0.750004  0.477037  0.263765  1
  O  O16  1  0.750000  0.750000  0.749671  1
  O  O17  1  0.977037  0.250004  0.736235  1
