# generated using pymatgen
data_Rb6U5V2O23
_symmetry_space_group_name_H-M   'P 1'
_cell_length_a   7.18462632
_cell_length_b   13.11040474
_cell_length_c   14.82861899
_cell_angle_alpha   104.22566989
_cell_angle_beta   90.00000000
_cell_angle_gamma   105.90271249
_symmetry_Int_Tables_number   1
_chemical_formula_structural   Rb6U5V2O23
_chemical_formula_sum   'Rb12 U10 V4 O46'
_cell_volume   1298.70834712
_cell_formula_units_Z   2
loop_
 _symmetry_equiv_pos_site_id
 _symmetry_equiv_pos_as_xyz
  1  'x, y, z'
loop_
 _atom_site_type_symbol
 _atom_site_label
 _atom_site_symmetry_multiplicity
 _atom_site_fract_x
 _atom_site_fract_y
 _atom_site_fract_z
 _atom_site_occupancy
  Rb  Rb0  1  0.714276  0.926596  0.451568  1
  Rb  Rb1  1  0.883216  0.260158  0.613616  1
  Rb  Rb2  1  0.513518  0.581117  0.326622  1
  Rb  Rb3  1  0.486482  0.418883  0.673378  1
  Rb  Rb4  1  0.787680  0.073404  0.048432  1
  Rb  Rb5  1  0.116784  0.739842  0.386384  1
  Rb  Rb6  1  0.623058  0.739842  0.886384  1
  Rb  Rb7  1  0.376942  0.260158  0.113616  1
  Rb  Rb8  1  0.067599  0.581117  0.826622  1
  Rb  Rb9  1  0.932401  0.418883  0.173378  1
  Rb  Rb10  1  0.212320  0.926596  0.951568  1
  Rb  Rb11  1  0.285724  0.073404  0.548432  1
  U  U12  1  0.106504  0.292817  0.883502  1
  U  U13  1  0.361742  0.834261  0.671846  1
  U  U14  1  0.813687  0.707183  0.616498  1
  U  U15  1  0.893496  0.707183  0.116498  1
  U  U16  1  0.527481  0.165739  0.828154  1
  U  U17  1  0.638258  0.165739  0.328154  1
  U  U18  1  0.083908  0.000000  0.250000  1
  U  U19  1  0.916092  0.000000  0.750000  1
  U  U20  1  0.472519  0.834261  0.171846  1
  U  U21  1  0.186313  0.292817  0.383502  1
  V  V22  1  0.765385  0.435714  0.429973  1
  V  V23  1  0.234615  0.564286  0.570027  1
  V  V24  1  0.670329  0.435714  0.929973  1
  V  V25  1  0.329671  0.564286  0.070027  1
  O  O26  1  0.822458  0.667215  0.727355  1
  O  O27  1  0.934338  0.131527  0.316883  1
  O  O28  1  0.676021  0.215869  0.219000  1
  O  O29  1  0.840744  0.154497  0.819562  1
  O  O30  1  0.763807  0.516476  0.542546  1
  O  O31  1  0.510060  0.000000  0.250000  1
  O  O32  1  0.313753  0.154497  0.319562  1
  O  O33  1  0.236193  0.483524  0.457454  1
  O  O34  1  0.114958  0.045604  0.138697  1
  O  O35  1  0.539848  0.215869  0.719000  1
  O  O36  1  0.340801  0.485557  0.142576  1
  O  O37  1  0.069353  0.954396  0.361303  1
  O  O38  1  0.247330  0.483524  0.957454  1
  O  O39  1  0.144756  0.485557  0.642576  1
  O  O40  1  0.059647  0.261025  0.998649  1
  O  O41  1  0.389283  0.874324  0.557924  1
  O  O42  1  0.177542  0.332785  0.272645  1
  O  O43  1  0.752670  0.516476  0.042546  1
  O  O44  1  0.855244  0.514443  0.357424  1
  O  O45  1  0.473555  0.640991  0.610560  1
  O  O46  1  0.460152  0.784131  0.281000  1
  O  O47  1  0.449778  0.324459  0.918511  1
  O  O48  1  0.802812  0.868473  0.183117  1
  O  O49  1  0.159256  0.845503  0.180438  1
  O  O50  1  0.659199  0.514443  0.857424  1
  O  O51  1  0.930647  0.045604  0.638697  1
  O  O52  1  0.167436  0.640991  0.110560  1
  O  O53  1  0.874681  0.324459  0.418511  1
  O  O54  1  0.489940  0.000000  0.750000  1
  O  O55  1  0.197188  0.131527  0.816883  1
  O  O56  1  0.065662  0.868473  0.683117  1
  O  O57  1  0.885042  0.954396  0.861303  1
  O  O58  1  0.526445  0.359009  0.389440  1
  O  O59  1  0.514958  0.125676  0.942076  1
  O  O60  1  0.832564  0.359009  0.889440  1
  O  O61  1  0.940353  0.738975  0.001351  1
  O  O62  1  0.798623  0.738975  0.501351  1
  O  O63  1  0.125319  0.675541  0.581489  1
  O  O64  1  0.610717  0.125676  0.442076  1
  O  O65  1  0.155243  0.332785  0.772645  1
  O  O66  1  0.485042  0.874324  0.057924  1
  O  O67  1  0.201377  0.261025  0.498649  1
  O  O68  1  0.686247  0.845503  0.680438  1
  O  O69  1  0.323979  0.784131  0.781000  1
  O  O70  1  0.550222  0.675541  0.081489  1
  O  O71  1  0.844757  0.667215  0.227355  1
