# generated using pymatgen
data_Fe3O4
_symmetry_space_group_name_H-M   'P 1'
_cell_length_a   6.01688559
_cell_length_b   6.10362288
_cell_length_c   8.52436691
_cell_angle_alpha   89.55849118
_cell_angle_beta   90.00000000
_cell_angle_gamma   90.00000000
_symmetry_Int_Tables_number   1
_chemical_formula_structural   Fe3O4
_chemical_formula_sum   'Fe12 O16'
_cell_volume   313.04637978
_cell_formula_units_Z   4
loop_
 _symmetry_equiv_pos_site_id
 _symmetry_equiv_pos_as_xyz
  1  'x, y, z'
loop_
 _atom_site_type_symbol
 _atom_site_label
 _atom_site_symmetry_multiplicity
 _atom_site_fract_x
 _atom_site_fract_y
 _atom_site_fract_z
 _atom_site_occupancy
  Fe  Fe0  1  0.000000  0.000000  0.500000  1
  Fe  Fe1  1  0.000000  0.500000  0.500000  1
  Fe  Fe2  1  0.500000  0.000000  0.000000  1
  Fe  Fe3  1  0.500000  0.500000  0.000000  1
  Fe  Fe4  1  0.000000  0.245342  0.872644  1
  Fe  Fe5  1  0.000000  0.754658  0.127357  1
  Fe  Fe6  1  0.500000  0.255107  0.624264  1
  Fe  Fe7  1  0.500000  0.744893  0.375736  1
  Fe  Fe8  1  0.747013  0.750019  0.751496  1
  Fe  Fe9  1  0.747013  0.249982  0.248504  1
  Fe  Fe10  1  0.252987  0.249982  0.248504  1
  Fe  Fe11  1  0.252987  0.750019  0.751496  1
  O  O12  1  0.760070  0.738268  0.506654  1
  O  O13  1  0.760070  0.261732  0.493346  1
  O  O14  1  0.239930  0.261732  0.493346  1
  O  O15  1  0.239930  0.738268  0.506654  1
  O  O16  1  0.000000  0.491755  0.257539  1
  O  O17  1  0.000000  0.508245  0.742461  1
  O  O18  1  0.000000  0.988285  0.746062  1
  O  O19  1  0.000000  0.011715  0.253938  1
  O  O20  1  0.741934  0.760885  0.991700  1
  O  O21  1  0.741934  0.239115  0.008300  1
  O  O22  1  0.258066  0.239115  0.008300  1
  O  O23  1  0.258066  0.760885  0.991700  1
  O  O24  1  0.500000  0.491939  0.243832  1
  O  O25  1  0.500000  0.508061  0.756168  1
  O  O26  1  0.500000  0.995900  0.759556  1
  O  O27  1  0.500000  0.004100  0.240444  1
