# generated using pymatgen
data_Li4V2Si(PO6)2
_symmetry_space_group_name_H-M   'P 1'
_cell_length_a   9.00271473
_cell_length_b   9.00271473
_cell_length_c   8.51281855
_cell_angle_alpha   57.93901355
_cell_angle_beta   122.06098645
_cell_angle_gamma   120.02288817
_symmetry_Int_Tables_number   1
_chemical_formula_structural   Li4V2Si(PO6)2
_chemical_formula_sum   'Li8 V4 Si2 P4 O24'
_cell_volume   472.04036780
_cell_formula_units_Z   2
loop_
 _symmetry_equiv_pos_site_id
 _symmetry_equiv_pos_as_xyz
  1  'x, y, z'
loop_
 _atom_site_type_symbol
 _atom_site_label
 _atom_site_symmetry_multiplicity
 _atom_site_fract_x
 _atom_site_fract_y
 _atom_site_fract_z
 _atom_site_occupancy
  Li  Li0  1  0.264673  0.832176  0.771237  1
  Li  Li1  1  0.167824  0.735327  0.271237  1
  Li  Li2  1  0.016039  0.512640  0.997577  1
  Li  Li3  1  0.647411  0.668307  0.723514  1
  Li  Li4  1  0.331693  0.352589  0.223514  1
  Li  Li5  1  0.844119  0.257523  0.747783  1
  Li  Li6  1  0.487360  0.983961  0.497577  1
  Li  Li7  1  0.742477  0.155881  0.247783  1
  V  V8  1  0.639254  0.856659  0.925265  1
  V  V9  1  0.143341  0.360746  0.425265  1
  V  V10  1  0.858991  0.645077  0.575541  1
  V  V11  1  0.354923  0.141009  0.075541  1
  Si  Si12  1  0.250326  0.547561  0.746868  1
  Si  Si13  1  0.452439  0.749674  0.246868  1
  P  P14  1  0.954602  0.953916  0.752512  1
  P  P15  1  0.550198  0.251701  0.752450  1
  P  P16  1  0.046084  0.045398  0.252512  1
  P  P17  1  0.748299  0.449802  0.252450  1
  O  O18  1  0.112715  0.986411  0.941431  1
  O  O19  1  0.013589  0.887285  0.441431  1
  O  O20  1  0.091948  0.572887  0.768017  1
  O  O21  1  0.414061  0.748625  0.723664  1
  O  O22  1  0.305463  0.374083  0.948716  1
  O  O23  1  0.187020  0.517106  0.544872  1
  O  O24  1  0.764378  0.937155  0.733701  1
  O  O25  1  0.427113  0.908052  0.268017  1
  O  O26  1  0.251375  0.585939  0.223664  1
  O  O27  1  0.625917  0.694537  0.448716  1
  O  O28  1  0.482894  0.812980  0.044872  1
  O  O29  1  0.933784  0.761355  0.774607  1
  O  O30  1  0.062845  0.235622  0.233700  1
  O  O31  1  0.520363  0.187903  0.943596  1
  O  O32  1  0.390336  0.312845  0.563886  1
  O  O33  1  0.740923  0.406900  0.771081  1
  O  O34  1  0.574980  0.103419  0.731562  1
  O  O35  1  0.238645  0.066216  0.274607  1
  O  O36  1  0.812097  0.479637  0.443596  1
  O  O37  1  0.687155  0.609664  0.063886  1
  O  O38  1  0.593100  0.259077  0.271081  1
  O  O39  1  0.896581  0.425020  0.231562  1
  O  O40  1  0.984831  0.112165  0.562117  1
  O  O41  1  0.887835  0.015169  0.062117  1
