# generated using pymatgen
data_Li3Fe8(BO3)8
_symmetry_space_group_name_H-M   'P 1'
_cell_length_a   5.25036557
_cell_length_b   9.20612286
_cell_length_c   10.08471653
_cell_angle_alpha   90.80199240
_cell_angle_beta   91.14593906
_cell_angle_gamma   88.55363316
_symmetry_Int_Tables_number   1
_chemical_formula_structural   Li3Fe8(BO3)8
_chemical_formula_sum   'Li3 Fe8 B8 O24'
_cell_volume   487.15276369
_cell_formula_units_Z   1
loop_
 _symmetry_equiv_pos_site_id
 _symmetry_equiv_pos_as_xyz
  1  'x, y, z'
loop_
 _atom_site_type_symbol
 _atom_site_label
 _atom_site_symmetry_multiplicity
 _atom_site_fract_x
 _atom_site_fract_y
 _atom_site_fract_z
 _atom_site_occupancy
  Li  Li0  1  0.675635  0.671315  0.411961  1
  Li  Li1  1  0.674367  0.674981  0.918663  1
  Li  Li2  1  0.171001  0.175805  0.901527  1
  Fe  Fe3  1  0.824950  0.163634  0.634794  1
  Fe  Fe4  1  0.816588  0.497691  0.128320  1
  Fe  Fe5  1  0.687256  -0.001930  0.878329  1
  Fe  Fe6  1  0.673526  0.331636  0.375151  1
  Fe  Fe7  1  0.323200  0.666099  0.636114  1
  Fe  Fe8  1  0.333832  0.995046  0.126180  1
  Fe  Fe9  1  0.164818  0.842078  0.375130  1
  Fe  Fe10  1  0.178710  0.498660  0.879987  1
  B  B11  1  0.834653  0.497733  0.619339  1
  B  B12  1  0.834298  0.163355  0.129716  1
  B  B13  1  0.657730  0.998438  0.381898  1
  B  B14  1  0.666548  0.335476  0.875260  1
  B  B15  1  0.338401  0.997735  0.629694  1
  B  B16  1  0.323344  0.671767  0.125206  1
  B  B17  1  0.167468  0.505773  0.378140  1
  B  B18  1  0.172968  0.831770  0.877632  1
  O  O19  1  0.904281  0.505346  0.353007  1
  O  O20  1  0.916499  0.823658  0.877670  1
  O  O21  1  0.815927  0.211599  0.834340  1
  O  O22  1  0.755564  0.128691  0.428706  1
  O  O23  1  0.802611  0.871429  0.382779  1
  O  O24  1  0.791354  0.461782  0.910162  1
  O  O25  1  0.670879  0.616154  0.610829  1
  O  O26  1  0.673696  0.054172  0.086595  1
  O  O27  1  0.751552  0.361704  0.577497  1
  O  O28  1  0.734322  0.289496  0.185323  1
  O  O29  1  0.581001  0.668254  0.114515  1
  O  O30  1  0.591495  0.007883  0.667697  1
  O  O31  1  0.406129  0.997700  0.333793  1
  O  O32  1  0.409837  0.324487  0.879542  1
  O  O33  1  0.327294  0.713956  0.831066  1
  O  O34  1  0.271827  0.641362  0.418710  1
  O  O35  1  0.324088  0.388300  0.368092  1
  O  O36  1  0.303975  0.953992  0.924645  1
  O  O37  1  0.168576  0.563629  0.081835  1
  O  O38  1  0.171605  0.110383  0.647127  1
  O  O39  1  0.257206  0.864452  0.573888  1
  O  O40  1  0.206450  0.803202  0.177938  1
  O  O41  1  0.092041  0.148922  0.108080  1
  O  O42  1  0.083215  0.514354  0.663741  1
