# generated using pymatgen
data_Fe4OF7
_symmetry_space_group_name_H-M   'P 1'
_cell_length_a   4.80746739
_cell_length_b   9.61058619
_cell_length_c   6.50481743
_cell_angle_alpha   90.20687160
_cell_angle_beta   90.00000000
_cell_angle_gamma   90.00000000
_symmetry_Int_Tables_number   1
_chemical_formula_structural   Fe4OF7
_chemical_formula_sum   'Fe8 O2 F14'
_cell_volume   300.53738699
_cell_formula_units_Z   2
loop_
 _symmetry_equiv_pos_site_id
 _symmetry_equiv_pos_as_xyz
  1  'x, y, z'
loop_
 _atom_site_type_symbol
 _atom_site_label
 _atom_site_symmetry_multiplicity
 _atom_site_fract_x
 _atom_site_fract_y
 _atom_site_fract_z
 _atom_site_occupancy
  Fe  Fe0  1  0.014438  0.990470  0.019035  1
  Fe  Fe1  1  0.013948  0.996477  0.494541  1
  Fe  Fe2  1  0.982744  0.492400  0.001351  1
  Fe  Fe3  1  -0.001092  0.503432  0.498001  1
  Fe  Fe4  1  0.514438  0.259530  0.230965  1
  Fe  Fe5  1  0.513948  0.253523  0.755459  1
  Fe  Fe6  1  0.482744  0.757600  0.248649  1
  Fe  Fe7  1  0.498908  0.746568  0.751999  1
  O  O8  1  0.191605  0.907181  0.236695  1
  O  O9  1  0.691605  0.342819  0.013305  1
  F  F10  1  0.203161  0.395974  0.255600  1
  F  F11  1  0.197351  0.397160  0.742501  1
  F  F12  1  0.200295  0.902358  0.767398  1
  F  F13  1  0.285054  0.151542  0.011343  1
  F  F14  1  0.315450  0.157377  0.485210  1
  F  F15  1  0.294569  0.643367  -0.003283  1
  F  F16  1  0.302478  0.648941  0.501652  1
  F  F17  1  0.700295  0.347642  0.482602  1
  F  F18  1  0.703161  0.854026  0.994400  1
  F  F19  1  0.697351  0.852840  0.507499  1
  F  F20  1  0.802478  0.601059  0.748348  1
  F  F21  1  0.785054  0.098458  0.238657  1
  F  F22  1  0.815450  0.092623  0.764790  1
  F  F23  1  0.794569  0.606633  0.253283  1
