# generated using pymatgen
data_Li3B2SbO6
_symmetry_space_group_name_H-M   'P 1'
_cell_length_a   5.35283815
_cell_length_b   9.05334942
_cell_length_c   10.66722237
_cell_angle_alpha   90.00000000
_cell_angle_beta   91.30078506
_cell_angle_gamma   90.00000000
_symmetry_Int_Tables_number   1
_chemical_formula_structural   Li3B2SbO6
_chemical_formula_sum   'Li12 B8 Sb4 O24'
_cell_volume   516.81226387
_cell_formula_units_Z   4
loop_
 _symmetry_equiv_pos_site_id
 _symmetry_equiv_pos_as_xyz
  1  'x, y, z'
loop_
 _atom_site_type_symbol
 _atom_site_label
 _atom_site_symmetry_multiplicity
 _atom_site_fract_x
 _atom_site_fract_y
 _atom_site_fract_z
 _atom_site_occupancy
  Li  Li0  1  0.156892  0.974124  0.675052  1
  Li  Li1  1  0.172432  0.653181  0.616284  1
  Li  Li2  1  0.170288  0.986276  0.094579  1
  Li  Li3  1  0.327568  0.153181  0.883716  1
  Li  Li4  1  0.329712  0.486276  0.405421  1
  Li  Li5  1  0.343108  0.474125  0.824948  1
  Li  Li6  1  0.656892  0.525876  0.175052  1
  Li  Li7  1  0.670288  0.513724  0.594579  1
  Li  Li8  1  0.672432  0.846819  0.116284  1
  Li  Li9  1  0.829712  0.013724  0.905421  1
  Li  Li10  1  0.827568  0.346819  0.383716  1
  Li  Li11  1  0.843108  0.025875  0.324948  1
  B  B12  1  0.161032  0.328581  0.620793  1
  B  B13  1  0.164242  0.672050  0.132989  1
  B  B14  1  0.338968  0.828581  0.879207  1
  B  B15  1  0.335758  0.172050  0.367011  1
  B  B16  1  0.664242  0.827950  0.632989  1
  B  B17  1  0.661032  0.171419  0.120793  1
  B  B18  1  0.835758  0.327950  0.867011  1
  B  B19  1  0.838968  0.671419  0.379207  1
  Sb  Sb20  1  0.151513  0.326941  0.125917  1
  Sb  Sb21  1  0.348487  0.826941  0.374083  1
  Sb  Sb22  1  0.651513  0.173059  0.625917  1
  Sb  Sb23  1  0.848487  0.673059  0.874083  1
  O  O24  1  0.087841  0.331789  0.899958  1
  O  O25  1  0.085953  0.641658  0.417597  1
  O  O26  1  0.165237  0.942137  0.877528  1
  O  O27  1  0.191861  0.044332  0.360152  1
  O  O28  1  0.210338  0.304144  0.336281  1
  O  O29  1  0.277982  0.684067  0.843983  1
  O  O30  1  0.222018  0.184067  0.656017  1
  O  O31  1  0.289662  0.804144  0.163719  1
  O  O32  1  0.308139  0.544332  0.139848  1
  O  O33  1  0.334763  0.442137  0.622472  1
  O  O34  1  0.412159  0.831789  0.600042  1
  O  O35  1  0.414047  0.141658  0.082403  1
  O  O36  1  0.585953  0.858342  0.917597  1
  O  O37  1  0.587841  0.168211  0.399958  1
  O  O38  1  0.665237  0.557863  0.377528  1
  O  O39  1  0.691861  0.455668  0.860152  1
  O  O40  1  0.710338  0.195856  0.836281  1
  O  O41  1  0.777982  0.815933  0.343983  1
  O  O42  1  0.722018  0.315933  0.156017  1
  O  O43  1  0.789662  0.695856  0.663719  1
  O  O44  1  0.808139  0.955668  0.639848  1
  O  O45  1  0.834763  0.057863  0.122472  1
  O  O46  1  0.914047  0.358342  0.582403  1
  O  O47  1  0.912159  0.668211  0.100042  1
