# generated using pymatgen
data_LiFe(PO3)3
_symmetry_space_group_name_H-M   'P 1'
_cell_length_a   6.49888897
_cell_length_b   6.47811937
_cell_length_c   9.76374232
_cell_angle_alpha   89.98047524
_cell_angle_beta   90.20538606
_cell_angle_gamma   119.87990924
_symmetry_Int_Tables_number   1
_chemical_formula_structural   LiFe(PO3)3
_chemical_formula_sum   'Li2 Fe2 P6 O18'
_cell_volume   356.41492870
_cell_formula_units_Z   2
loop_
 _symmetry_equiv_pos_site_id
 _symmetry_equiv_pos_as_xyz
  1  'x, y, z'
loop_
 _atom_site_type_symbol
 _atom_site_label
 _atom_site_symmetry_multiplicity
 _atom_site_fract_x
 _atom_site_fract_y
 _atom_site_fract_z
 _atom_site_occupancy
  Li  Li0  1  0.669188  0.342031  0.499969  1
  Li  Li1  1  0.669185  0.327184  0.999967  1
  Fe  Fe2  1  0.333498  0.669392  0.000012  1
  Fe  Fe3  1  0.333440  0.663987  0.500000  1
  P  P4  1  0.029001  0.750542  0.750236  1
  P  P5  1  0.248168  0.969732  0.249487  1
  P  P6  1  0.028948  0.278410  0.250179  1
  P  P7  1  0.248089  0.278358  0.749390  1
  P  P8  1  0.722138  0.971474  0.750374  1
  P  P9  1  0.722147  0.750731  0.250316  1
  O  O10  1  0.040847  0.637730  0.882353  1
  O  O11  1  0.031014  0.635638  0.616787  1
  O  O12  1  0.364385  0.965043  0.117420  1
  O  O13  1  0.358361  0.959728  0.382936  1
  O  O14  1  0.030946  0.395416  0.116855  1
  O  O15  1  0.040866  0.403120  0.382412  1
  O  O16  1  0.358467  0.398613  0.882890  1
  O  O17  1  0.364355  0.399353  0.617391  1
  O  O18  1  0.598506  0.957339  0.617381  1
  O  O19  1  0.605712  0.972526  0.883100  1
  O  O20  1  0.234180  0.209750  0.249432  1
  O  O21  1  0.234176  0.024439  0.749381  1
  O  O22  1  0.605716  0.633161  0.383176  1
  O  O23  1  0.598573  0.641232  0.117480  1
  O  O24  1  0.790117  0.765032  0.754998  1
  O  O25  1  0.974927  0.764533  0.245546  1
  O  O26  1  0.790136  0.025111  0.255044  1
  O  O27  1  0.974913  0.210396  0.745491  1
