# generated using pymatgen
data_Cd(BO2)2
_symmetry_space_group_name_H-M   'P 1'
_cell_length_a   7.80156028
_cell_length_b   7.80156029
_cell_length_c   7.80156072
_cell_angle_alpha   96.73042498
_cell_angle_beta   96.73042494
_cell_angle_gamma   96.73042856
_symmetry_Int_Tables_number   1
_chemical_formula_structural   Cd(BO2)2
_chemical_formula_sum   'Cd6 B12 O24'
_cell_volume   464.16955706
_cell_formula_units_Z   6
loop_
 _symmetry_equiv_pos_site_id
 _symmetry_equiv_pos_as_xyz
  1  'x, y, z'
loop_
 _atom_site_type_symbol
 _atom_site_label
 _atom_site_symmetry_multiplicity
 _atom_site_fract_x
 _atom_site_fract_y
 _atom_site_fract_z
 _atom_site_occupancy
  Cd  Cd0  1  0.191622  0.830584  0.488289  1
  Cd  Cd1  1  0.331113  0.692206  0.988227  1
  Cd  Cd2  1  0.692206  0.988227  0.331113  1
  Cd  Cd3  1  0.488289  0.191622  0.830584  1
  Cd  Cd4  1  0.830584  0.488289  0.191622  1
  Cd  Cd5  1  0.988227  0.331113  0.692206  1
  B  B6  1  0.003450  0.818035  0.052357  1
  B  B7  1  0.564806  0.806912  0.719900  1
  B  B8  1  0.317003  0.502617  0.550314  1
  B  B9  1  0.064108  0.217589  0.306819  1
  B  B10  1  0.217589  0.306819  0.064108  1
  B  B11  1  0.502617  0.550314  0.317003  1
  B  B12  1  0.052357  0.003450  0.818035  1
  B  B13  1  0.806912  0.719900  0.564806  1
  B  B14  1  0.719900  0.564806  0.806912  1
  B  B15  1  0.550314  0.317003  0.502617  1
  B  B16  1  0.306819  0.064108  0.217589  1
  B  B17  1  0.818035  0.052357  0.003450  1
  O  O18  1  0.091903  0.867366  0.912913  1
  O  O19  1  0.057062  0.690290  0.133744  1
  O  O20  1  0.397745  0.932236  0.239733  1
  O  O21  1  0.432147  0.896487  0.742854  1
  O  O22  1  0.189053  0.557250  0.631954  1
  O  O23  1  0.091112  0.325350  0.176539  1
  O  O24  1  0.366454  0.590680  0.410890  1
  O  O25  1  0.239733  0.397745  0.932236  1
  O  O26  1  0.676463  0.826979  0.593138  1
  O  O27  1  0.557250  0.631954  0.189053  1
  O  O28  1  0.593138  0.676463  0.826979  1
  O  O29  1  0.867366  0.912913  0.091903  1
  O  O30  1  0.410890  0.366454  0.590680  1
  O  O31  1  0.176539  0.091112  0.325350  1
  O  O32  1  0.133744  0.057062  0.690290  1
  O  O33  1  0.325350  0.176539  0.091112  1
  O  O34  1  0.896487  0.742854  0.432147  1
  O  O35  1  0.590680  0.410890  0.366454  1
  O  O36  1  0.826979  0.593138  0.676463  1
  O  O37  1  0.742854  0.432147  0.896487  1
  O  O38  1  0.631954  0.189053  0.557250  1
  O  O39  1  0.690290  0.133744  0.057062  1
  O  O40  1  0.932236  0.239733  0.397745  1
  O  O41  1  0.912913  0.091903  0.867366  1
