# generated using pymatgen
data_Li4TiCr3O8
_symmetry_space_group_name_H-M   'P 1'
_cell_length_a   5.91457748
_cell_length_b   5.91427504
_cell_length_c   5.95975913
_cell_angle_alpha   60.19342796
_cell_angle_beta   89.96325382
_cell_angle_gamma   60.02863235
_symmetry_Int_Tables_number   1
_chemical_formula_structural   Li4TiCr3O8
_chemical_formula_sum   'Li4 Ti1 Cr3 O8'
_cell_volume   147.95390505
_cell_formula_units_Z   1
loop_
 _symmetry_equiv_pos_site_id
 _symmetry_equiv_pos_as_xyz
  1  'x, y, z'
loop_
 _atom_site_type_symbol
 _atom_site_label
 _atom_site_symmetry_multiplicity
 _atom_site_fract_x
 _atom_site_fract_y
 _atom_site_fract_z
 _atom_site_occupancy
  Li  Li0  1  0.000108  0.999812  0.500073  1
  Li  Li1  1  0.500223  0.499890  0.499970  1
  Li  Li2  1  0.000109  0.499999  0.500064  1
  Li  Li3  1  0.500056  0.999960  0.500027  1
  Ti  Ti4  1  0.000057  0.999953  0.000018  1
  Cr  Cr5  1  0.499954  0.500012  0.000027  1
  Cr  Cr6  1  -0.000020  0.500273  -0.000097  1
  Cr  Cr7  1  0.499945  -0.000214  0.000047  1
  O  O8  1  0.741306  0.517094  0.224286  1
  O  O9  1  0.755124  0.986251  0.768729  1
  O  O10  1  0.244185  0.511957  0.230414  1
  O  O11  1  0.742407  0.013865  0.230259  1
  O  O12  1  0.257618  0.986196  0.769717  1
  O  O13  1  0.755882  0.487967  0.769645  1
  O  O14  1  0.245025  0.013597  0.231340  1
  O  O15  1  0.258699  0.482903  0.775726  1
