# generated using pymatgen
data_Li6MnV3(PO4)6
_symmetry_space_group_name_H-M   'P 1'
_cell_length_a   8.68009890
_cell_length_b   8.72944164
_cell_length_c   15.05001651
_cell_angle_alpha   106.09723133
_cell_angle_beta   89.99615931
_cell_angle_gamma   61.38040888
_symmetry_Int_Tables_number   1
_chemical_formula_structural   Li6MnV3(PO4)6
_chemical_formula_sum   'Li12 Mn2 V6 P12 O48'
_cell_volume   949.78418023
_cell_formula_units_Z   2
loop_
 _symmetry_equiv_pos_site_id
 _symmetry_equiv_pos_as_xyz
  1  'x, y, z'
loop_
 _atom_site_type_symbol
 _atom_site_label
 _atom_site_symmetry_multiplicity
 _atom_site_fract_x
 _atom_site_fract_y
 _atom_site_fract_z
 _atom_site_occupancy
  Li  Li0  1  0.306836  0.748367  0.322671  1
  Li  Li1  1  0.184102  0.710596  0.553542  1
  Li  Li2  1  0.682536  0.712271  0.051504  1
  Li  Li3  1  0.168893  0.252319  0.192003  1
  Li  Li4  1  0.210252  0.677707  0.826949  1
  Li  Li5  1  0.710881  0.677642  0.327459  1
  Li  Li6  1  0.263518  0.210067  0.630524  1
  Li  Li7  1  0.760359  0.211867  0.132697  1
  Li  Li8  1  0.799429  0.749983  0.818384  1
  Li  Li9  1  0.671422  0.247621  0.684664  1
  Li  Li10  1  0.363456  0.176935  0.980487  1
  Li  Li11  1  0.865801  0.176753  0.480192  1
  Mn  Mn12  1  0.785700  0.857979  0.574438  1
  Mn  Mn13  1  0.531725  0.358239  0.320452  1
  V  V14  1  0.285146  0.856184  0.072557  1
  V  V15  1  0.032758  0.357050  0.820963  1
  V  V16  1  0.474100  0.640449  0.678995  1
  V  V17  1  0.218392  0.140317  0.423380  1
  V  V18  1  0.972057  0.639652  0.179395  1
  V  V19  1  0.717006  0.140421  0.924062  1
  P  P20  1  0.014340  0.956160  0.735213  1
  P  P21  1  0.516213  0.952926  0.234724  1
  P  P22  1  0.023019  0.251628  0.024215  1
  P  P23  1  0.098365  0.540351  0.375991  1
  P  P24  1  0.404130  0.456220  0.125698  1
  P  P25  1  0.477049  0.759041  0.478949  1
  P  P26  1  0.520284  0.258842  0.522099  1
  P  P27  1  0.598104  0.539503  0.875053  1
  P  P28  1  0.904843  0.453581  0.624990  1
  P  P29  1  0.974502  0.751583  0.976026  1
  P  P30  1  0.486621  0.040272  0.763015  1
  P  P31  1  0.986995  0.038076  0.262381  1
  O  O32  1  0.020344  0.840731  0.239599  1
  O  O33  1  0.464632  0.909174  0.135236  1
  O  O34  1  0.402609  0.940470  0.309557  1
  O  O35  1  0.009416  0.680457  0.474356  1
  O  O36  1  0.296511  0.923574  0.474200  1
  O  O37  1  0.359106  0.645223  0.122416  1
  O  O38  1  0.235003  0.446091  0.146509  1
  O  O39  1  0.264583  0.554804  0.352177  1
  O  O40  1  0.205452  0.795661  0.725783  1
  O  O41  1  0.707872  0.792882  0.226911  1
  O  O42  1  0.206863  0.097467  0.035600  1
  O  O43  1  0.154109  0.340963  0.369097  1
  O  O44  1  0.107703  0.047406  0.190040  1
  O  O45  1  0.010604  0.295194  0.532542  1
  O  O46  1  0.121002  0.803932  0.993586  1
  O  O47  1  0.430799  0.694473  0.555537  1
  O  O48  1  0.512627  0.293937  0.035047  1
  O  O49  1  0.029270  0.408415  0.700084  1
  O  O50  1  0.049445  0.597963  0.877998  1
  O  O51  1  0.624857  0.810929  0.496971  1
  O  O52  1  0.927118  0.689570  0.053418  1
  O  O53  1  0.032396  0.084931  0.362931  1
  O  O54  1  0.526004  0.419898  0.203368  1
  O  O55  1  0.547938  0.610729  0.380442  1
  O  O56  1  0.523346  0.841775  0.739850  1
  O  O57  1  0.493706  0.142994  0.256656  1
  O  O58  1  0.436647  0.423654  0.614652  1
  O  O59  1  0.946044  0.412972  0.117756  1
  O  O60  1  0.958717  0.920175  0.635512  1
  O  O61  1  0.469425  0.585476  0.802128  1
  O  O62  1  0.070558  0.303837  0.942378  1
  O  O63  1  0.382125  0.194242  0.506905  1
  O  O64  1  0.968654  0.585233  0.303590  1
  O  O65  1  0.567449  0.310699  0.439254  1
  O  O66  1  0.881744  0.191110  0.009023  1
  O  O67  1  0.900136  0.943961  0.809267  1
  O  O68  1  0.506101  0.681756  0.972172  1
  O  O69  1  0.795894  0.913936  0.968122  1
  O  O70  1  0.860374  0.644463  0.626696  1
  O  O71  1  0.294915  0.180648  0.759659  1
  O  O72  1  0.796246  0.181000  0.257909  1
  O  O73  1  0.735549  0.441846  0.645688  1
  O  O74  1  0.765987  0.551457  0.852725  1
  O  O75  1  0.703733  0.111239  0.536000  1
  O  O76  1  0.651103  0.341951  0.870222  1
  O  O77  1  0.604595  0.054243  0.691229  1
  O  O78  1  0.530373  0.087287  0.864166  1
  O  O79  1  0.994482  0.146399  0.760367  1
