# generated using pymatgen
data_Ba4Ti11O26
_symmetry_space_group_name_H-M   'P 1'
_cell_length_a   7.97803712
_cell_length_b   7.84610870
_cell_length_c   10.03883225
_cell_angle_alpha   67.02347324
_cell_angle_beta   91.86954333
_cell_angle_gamma   75.80958926
_symmetry_Int_Tables_number   1
_chemical_formula_structural   Ba4Ti11O26
_chemical_formula_sum   'Ba4 Ti11 O26'
_cell_volume   555.06261898
_cell_formula_units_Z   1
loop_
 _symmetry_equiv_pos_site_id
 _symmetry_equiv_pos_as_xyz
  1  'x, y, z'
loop_
 _atom_site_type_symbol
 _atom_site_label
 _atom_site_symmetry_multiplicity
 _atom_site_fract_x
 _atom_site_fract_y
 _atom_site_fract_z
 _atom_site_occupancy
  Ba  Ba0  1  0.090573  0.083349  0.772400  1
  Ba  Ba1  1  0.094718  0.597954  0.771916  1
  Ba  Ba2  1  0.893805  0.912151  0.209985  1
  Ba  Ba3  1  0.893770  0.431488  0.210068  1
  Ti  Ti4  1  0.237001  0.643180  0.094919  1
  Ti  Ti5  1  0.239648  0.142984  0.096835  1
  Ti  Ti6  1  0.335289  0.946078  0.442633  1
  Ti  Ti7  1  0.337353  0.441311  0.446160  1
  Ti  Ti8  1  0.497766  0.745223  0.781718  1
  Ti  Ti9  1  0.495482  0.224578  0.781710  1
  Ti  Ti10  1  0.520504  0.753857  0.229337  1
  Ti  Ti11  1  0.525600  0.253755  0.234602  1
  Ti  Ti12  1  0.665887  0.048155  0.569440  1
  Ti  Ti13  1  0.655971  0.555614  0.562530  1
  Ti  Ti14  1  0.757036  0.361204  0.900002  1
  O  O15  1  0.022308  0.739973  0.007486  1
  O  O16  1  0.001652  0.249491  0.000107  1
  O  O17  1  0.146195  0.064497  0.294394  1
  O  O18  1  0.149764  0.564140  0.299846  1
  O  O19  1  0.259606  0.875843  0.616559  1
  O  O20  1  0.257637  0.377147  0.619416  1
  O  O21  1  0.343968  0.709099  0.914174  1
  O  O22  1  0.337653  0.205110  0.916158  1
  O  O23  1  0.274789  0.876243  0.114182  1
  O  O24  1  0.274968  0.371999  0.113648  1
  O  O25  1  0.402930  0.681437  0.436356  1
  O  O26  1  0.396674  0.187519  0.425184  1
  O  O27  1  0.505466  0.005057  0.737920  1
  O  O28  1  0.519660  0.491634  0.757209  1
  O  O29  1  0.475199  0.011914  0.241161  1
  O  O30  1  0.484788  0.503185  0.248007  1
  O  O31  1  0.596656  0.813432  0.573694  1
  O  O32  1  0.596128  0.313812  0.575431  1
  O  O33  1  0.719002  0.614507  0.887255  1
  O  O34  1  0.716200  0.139403  0.886781  1
  O  O35  1  0.663902  0.290059  0.088023  1
  O  O36  1  0.662084  0.782797  0.103204  1
  O  O37  1  0.737603  0.622966  0.388303  1
  O  O38  1  0.727403  0.127747  0.376034  1
  O  O39  1  0.852273  0.434941  0.704180  1
  O  O40  1  0.874897  0.948047  0.665364  1
