# generated using pymatgen
data_LiTiP2O7
_symmetry_space_group_name_H-M   'P 1'
_cell_length_a   5.30787928
_cell_length_b   5.30787928
_cell_length_c   4.61095751
_cell_angle_alpha   81.41715986
_cell_angle_beta   98.58284014
_cell_angle_gamma   76.95823468
_symmetry_Int_Tables_number   1
_chemical_formula_structural   LiTiP2O7
_chemical_formula_sum   'Li1 Ti1 P2 O7'
_cell_volume   122.86228426
_cell_formula_units_Z   1
loop_
 _symmetry_equiv_pos_site_id
 _symmetry_equiv_pos_as_xyz
  1  'x, y, z'
loop_
 _atom_site_type_symbol
 _atom_site_label
 _atom_site_symmetry_multiplicity
 _atom_site_fract_x
 _atom_site_fract_y
 _atom_site_fract_z
 _atom_site_occupancy
  Li  Li0  1  0.747205  0.747205  0.000000  1
  Ti  Ti1  1  0.125669  0.125669  0.000000  1
  P  P2  1  0.254271  0.667503  0.589722  1
  P  P3  1  0.667503  0.254271  0.410278  1
  O  O4  1  0.073508  0.817227  0.292724  1
  O  O5  1  0.346531  0.840323  0.801802  1
  O  O6  1  0.131862  0.463421  0.743258  1
  O  O7  1  0.527328  0.527328  0.500000  1
  O  O8  1  0.463421  0.131862  0.256742  1
  O  O9  1  0.840323  0.346531  0.198198  1
  O  O10  1  0.817227  0.073508  0.707276  1
