# generated using pymatgen
data_Ce4ThO8
_symmetry_space_group_name_H-M   'P 1'
_cell_length_a   3.96266987
_cell_length_b   3.92242648
_cell_length_c   14.17752349
_cell_angle_alpha   97.89751686
_cell_angle_beta   98.09618441
_cell_angle_gamma   89.99617323
_symmetry_Int_Tables_number   1
_chemical_formula_structural   Ce4ThO8
_chemical_formula_sum   'Ce4 Th1 O8'
_cell_volume   216.05783507
_cell_formula_units_Z   1
loop_
 _symmetry_equiv_pos_site_id
 _symmetry_equiv_pos_as_xyz
  1  'x, y, z'
loop_
 _atom_site_type_symbol
 _atom_site_label
 _atom_site_symmetry_multiplicity
 _atom_site_fract_x
 _atom_site_fract_y
 _atom_site_fract_z
 _atom_site_occupancy
  Ce  Ce0  1  0.595053  0.598052  0.194422  1
  Ce  Ce1  1  0.199780  0.206611  0.407045  1
  Ce  Ce2  1  0.794057  0.796223  0.593589  1
  Ce  Ce3  1  0.397154  0.402444  0.806164  1
  Th  Th4  1  0.996512  0.000318  0.000285  1
  O  O5  1  0.550843  0.053746  0.106636  1
  O  O6  1  0.046088  0.549297  0.097805  1
  O  O7  1  0.144928  0.650471  0.303424  1
  O  O8  1  0.738627  0.244665  0.483841  1
  O  O9  1  0.255259  0.760393  0.516674  1
  O  O10  1  0.848745  0.340532  0.696329  1
  O  O11  1  0.945789  0.451161  0.901496  1
  O  O12  1  0.441817  0.947196  0.895286  1
