# generated using pymatgen
data_Li3CrPCO7
_symmetry_space_group_name_H-M   'P 1'
_cell_length_a   8.56687904
_cell_length_b   9.97812624
_cell_length_c   6.47441873
_cell_angle_alpha   90.00000000
_cell_angle_beta   90.00000000
_cell_angle_gamma   84.81540833
_symmetry_Int_Tables_number   1
_chemical_formula_structural   Li3CrPCO7
_chemical_formula_sum   'Li12 Cr4 P4 C4 O28'
_cell_volume   551.17810161
_cell_formula_units_Z   4
loop_
 _symmetry_equiv_pos_site_id
 _symmetry_equiv_pos_as_xyz
  1  'x, y, z'
loop_
 _atom_site_type_symbol
 _atom_site_label
 _atom_site_symmetry_multiplicity
 _atom_site_fract_x
 _atom_site_fract_y
 _atom_site_fract_z
 _atom_site_occupancy
  Li  Li0  1  0.108218  0.385382  0.248536  1
  Li  Li1  1  0.108218  0.885382  0.251464  1
  Li  Li2  1  0.289301  0.117533  0.480614  1
  Li  Li3  1  0.289301  0.617533  0.019386  1
  Li  Li4  1  0.354331  0.388053  0.752581  1
  Li  Li5  1  0.354331  0.888053  0.747419  1
  Li  Li6  1  0.645669  0.111947  0.247419  1
  Li  Li7  1  0.645669  0.611947  0.252581  1
  Li  Li8  1  0.710699  0.382467  0.519386  1
  Li  Li9  1  0.710699  0.882467  0.980614  1
  Li  Li10  1  0.891782  0.114618  0.751464  1
  Li  Li11  1  0.891782  0.614618  0.748536  1
  Cr  Cr12  1  0.261940  0.125232  0.985909  1
  Cr  Cr13  1  0.261940  0.625232  0.514091  1
  Cr  Cr14  1  0.738060  0.374768  0.014091  1
  Cr  Cr15  1  0.738060  0.874768  0.485909  1
  P  P16  1  0.410316  0.361470  0.249253  1
  P  P17  1  0.410316  0.861470  0.250747  1
  P  P18  1  0.589684  0.138530  0.750747  1
  P  P19  1  0.589684  0.638530  0.749253  1
  C  C20  1  0.039400  0.352769  0.759337  1
  C  C21  1  0.039400  0.852769  0.740663  1
  C  C22  1  0.960600  0.147231  0.240663  1
  C  C23  1  0.960600  0.647231  0.259337  1
  O  O24  1  0.064197  0.476211  0.747978  1
  O  O25  1  0.106016  0.182925  0.228449  1
  O  O26  1  0.064197  0.976211  0.752022  1
  O  O27  1  0.152919  0.257362  0.755255  1
  O  O28  1  0.106016  0.682925  0.271551  1
  O  O29  1  0.152919  0.757362  0.744745  1
  O  O30  1  0.311445  0.411971  0.059873  1
  O  O31  1  0.313720  0.419800  0.439310  1
  O  O32  1  0.313720  0.919800  0.060690  1
  O  O33  1  0.311445  0.911971  0.440127  1
  O  O34  1  0.422403  0.088649  0.750059  1
  O  O35  1  0.425527  0.205689  0.259736  1
  O  O36  1  0.422403  0.588649  0.749941  1
  O  O37  1  0.425527  0.705689  0.240264  1
  O  O38  1  0.574473  0.294311  0.740264  1
  O  O39  1  0.577597  0.411351  0.249941  1
  O  O40  1  0.574473  0.794311  0.759736  1
  O  O41  1  0.577597  0.911351  0.250059  1
  O  O42  1  0.688555  0.088029  0.940127  1
  O  O43  1  0.686280  0.080200  0.560690  1
  O  O44  1  0.688555  0.588029  0.559873  1
  O  O45  1  0.686280  0.580200  0.939310  1
  O  O46  1  0.847081  0.242638  0.244745  1
  O  O47  1  0.893984  0.317075  0.771551  1
  O  O48  1  0.847081  0.742638  0.255255  1
  O  O49  1  0.935803  0.023789  0.252022  1
  O  O50  1  0.893984  0.817075  0.728449  1
  O  O51  1  0.935803  0.523789  0.247978  1
