# generated using pymatgen
data_BaFeO3
_symmetry_space_group_name_H-M   'P 1'
_cell_length_a   13.05038076
_cell_length_b   13.05038081
_cell_length_c   13.05038157
_cell_angle_alpha   27.40377601
_cell_angle_beta   27.40377573
_cell_angle_gamma   27.40377618
_symmetry_Int_Tables_number   1
_chemical_formula_structural   BaFeO3
_chemical_formula_sum   'Ba4 Fe4 O12'
_cell_volume   415.52425604
_cell_formula_units_Z   4
loop_
 _symmetry_equiv_pos_site_id
 _symmetry_equiv_pos_as_xyz
  1  'x, y, z'
loop_
 _atom_site_type_symbol
 _atom_site_label
 _atom_site_symmetry_multiplicity
 _atom_site_fract_x
 _atom_site_fract_y
 _atom_site_fract_z
 _atom_site_occupancy
  Ba  Ba0  1  0.028484  0.028484  0.028484  1
  Ba  Ba1  1  0.436338  0.436338  0.436338  1
  Ba  Ba2  1  0.611832  0.611832  0.611832  1
  Ba  Ba3  1  0.799302  0.799302  0.799302  1
  Fe  Fe4  1  0.162349  0.162349  0.162349  1
  Fe  Fe5  1  0.233660  0.233660  0.233660  1
  Fe  Fe6  1  0.328690  0.328690  0.328690  1
  Fe  Fe7  1  0.706751  0.706751  0.706751  1
  O  O8  1  0.991490  0.505284  0.505284  1
  O  O9  1  0.505284  0.505284  0.991490  1
  O  O10  1  0.011168  0.599584  0.599584  1
  O  O11  1  0.599584  0.599584  0.011168  1
  O  O12  1  0.599584  0.011168  0.599584  1
  O  O13  1  0.298802  0.845507  0.298802  1
  O  O14  1  0.298802  0.298802  0.845507  1
  O  O15  1  0.845507  0.298802  0.298802  1
  O  O16  1  0.387797  0.387797  0.928196  1
  O  O17  1  0.387797  0.928196  0.387797  1
  O  O18  1  0.928196  0.387797  0.387797  1
  O  O19  1  0.505284  0.991490  0.505284  1
