# generated using pymatgen
data_Li8FeO5F
_symmetry_space_group_name_H-M   'P 1'
_cell_length_a   5.62291403
_cell_length_b   5.62291592
_cell_length_c   10.97795994
_cell_angle_alpha   89.99958786
_cell_angle_beta   90.00040217
_cell_angle_gamma   119.99815915
_symmetry_Int_Tables_number   1
_chemical_formula_structural   Li8FeO5F
_chemical_formula_sum   'Li16 Fe2 O10 F2'
_cell_volume   300.59611428
_cell_formula_units_Z   2
loop_
 _symmetry_equiv_pos_site_id
 _symmetry_equiv_pos_as_xyz
  1  'x, y, z'
loop_
 _atom_site_type_symbol
 _atom_site_label
 _atom_site_symmetry_multiplicity
 _atom_site_fract_x
 _atom_site_fract_y
 _atom_site_fract_z
 _atom_site_occupancy
  Li  Li0  1  0.971503  0.687762  0.776265  1
  Li  Li1  1  0.017031  0.623445  0.122752  1
  Li  Li2  1  0.982965  0.376585  0.622752  1
  Li  Li3  1  0.028453  0.312234  0.276267  1
  Li  Li4  1  0.333304  0.666658  0.417531  1
  Li  Li5  1  0.333333  0.666679  0.927720  1
  Li  Li6  1  0.312250  0.283774  0.776263  1
  Li  Li7  1  0.376571  0.393613  0.122752  1
  Li  Li8  1  0.623382  0.606354  0.622752  1
  Li  Li9  1  0.283758  0.971528  0.276267  1
  Li  Li10  1  0.687753  0.716251  0.276270  1
  Li  Li11  1  0.393619  0.017043  0.622749  1
  Li  Li12  1  0.666669  0.333337  0.917527  1
  Li  Li13  1  0.666645  0.333320  0.427724  1
  Li  Li14  1  0.606391  0.982959  0.122748  1
  Li  Li15  1  0.716214  0.028462  0.776261  1
  Fe  Fe16  1  0.999965  0.999980  0.495067  1
  Fe  Fe17  1  0.000008  0.000019  0.995046  1
  O  O18  1  0.001709  0.677337  0.950089  1
  O  O19  1  0.998265  0.322650  0.450101  1
  O  O20  1  0.333328  0.666663  0.214854  1
  O  O21  1  0.999998  0.999993  0.175470  1
  O  O22  1  0.000005  0.000010  0.675495  1
  O  O23  1  0.322694  0.324415  0.950088  1
  O  O24  1  0.324349  0.001705  0.450098  1
  O  O25  1  0.677287  0.675591  0.450100  1
  O  O26  1  0.666672  0.333341  0.714842  1
  O  O27  1  0.675612  0.998293  0.950088  1
  F  F28  1  0.333382  0.666696  0.707744  1
  F  F29  1  0.666685  0.333302  0.207754  1
