# generated using pymatgen
data_LiCoSiO4
_symmetry_space_group_name_H-M   'P 1'
_cell_length_a   8.65314932
_cell_length_b   8.02571309
_cell_length_c   15.11453262
_cell_angle_alpha   90.00000000
_cell_angle_beta   90.59472649
_cell_angle_gamma   90.00000000
_symmetry_Int_Tables_number   1
_chemical_formula_structural   LiCoSiO4
_chemical_formula_sum   'Li12 Co12 Si12 O48'
_cell_volume   1049.61288630
_cell_formula_units_Z   12
loop_
 _symmetry_equiv_pos_site_id
 _symmetry_equiv_pos_as_xyz
  1  'x, y, z'
loop_
 _atom_site_type_symbol
 _atom_site_label
 _atom_site_symmetry_multiplicity
 _atom_site_fract_x
 _atom_site_fract_y
 _atom_site_fract_z
 _atom_site_occupancy
  Li  Li0  1  0.204582  0.993275  0.940096  1
  Li  Li1  1  0.225034  0.008588  0.586493  1
  Li  Li2  1  0.249962  0.848904  0.245822  1
  Li  Li3  1  0.250038  0.348904  0.254178  1
  Li  Li4  1  0.274966  0.508588  0.913507  1
  Li  Li5  1  0.295418  0.493275  0.559904  1
  Li  Li6  1  0.704582  0.506725  0.440096  1
  Li  Li7  1  0.725034  0.491412  0.086493  1
  Li  Li8  1  0.749962  0.651096  0.745822  1
  Li  Li9  1  0.750038  0.151096  0.754178  1
  Li  Li10  1  0.774966  0.991412  0.413507  1
  Li  Li11  1  0.795418  0.006725  0.059904  1
  Co  Co12  1  0.050581  0.660442  0.404253  1
  Co  Co13  1  0.080106  0.832512  0.769124  1
  Co  Co14  1  0.106099  0.662524  0.076154  1
  Co  Co15  1  0.393901  0.162524  0.423846  1
  Co  Co16  1  0.419894  0.332512  0.730876  1
  Co  Co17  1  0.449419  0.160442  0.095747  1
  Co  Co18  1  0.550581  0.839558  0.904253  1
  Co  Co19  1  0.580106  0.667488  0.269124  1
  Co  Co20  1  0.606099  0.837476  0.576154  1
  Co  Co21  1  0.893901  0.337476  0.923846  1
  Co  Co22  1  0.919894  0.167488  0.230876  1
  Co  Co23  1  0.949419  0.339558  0.595747  1
  Si  Si24  1  0.044929  0.265090  0.409411  1
  Si  Si25  1  0.083339  0.219465  0.774976  1
  Si  Si26  1  0.114366  0.271051  0.072580  1
  Si  Si27  1  0.385634  0.771051  0.427420  1
  Si  Si28  1  0.416661  0.719465  0.725024  1
  Si  Si29  1  0.455071  0.765090  0.090589  1
  Si  Si30  1  0.544929  0.234910  0.909411  1
  Si  Si31  1  0.583339  0.280535  0.274976  1
  Si  Si32  1  0.614366  0.228949  0.572580  1
  Si  Si33  1  0.885634  0.728949  0.927420  1
  Si  Si34  1  0.916661  0.780535  0.225024  1
  Si  Si35  1  0.955071  0.734910  0.590589  1
  O  O36  1  0.036529  0.550769  0.604680  1
  O  O37  1  0.063405  0.869281  0.645822  1
  O  O38  1  0.050616  0.784852  0.974806  1
  O  O39  1  0.080171  0.038663  0.826511  1
  O  O40  1  0.072830  0.358984  0.855079  1
  O  O41  1  0.067525  0.757492  0.291512  1
  O  O42  1  0.059500  0.215023  0.514937  1
  O  O43  1  0.088314  0.276574  0.180442  1
  O  O44  1  0.173848  0.454690  0.037416  1
  O  O45  1  0.234405  0.229774  0.710918  1
  O  O46  1  0.221705  0.262275  0.368924  1
  O  O47  1  0.248412  0.135293  0.046607  1
  O  O48  1  0.251588  0.635293  0.453393  1
  O  O49  1  0.278295  0.762275  0.131076  1
  O  O50  1  0.265595  0.729774  0.789082  1
  O  O51  1  0.326152  0.954690  0.462584  1
  O  O52  1  0.411686  0.776574  0.319558  1
  O  O53  1  0.440500  0.715023  0.985063  1
  O  O54  1  0.427170  0.858984  0.644921  1
  O  O55  1  0.432475  0.257492  0.208488  1
  O  O56  1  0.419829  0.538663  0.673489  1
  O  O57  1  0.449384  0.284852  0.525194  1
  O  O58  1  0.436595  0.369281  0.854178  1
  O  O59  1  0.463471  0.050769  0.895320  1
  O  O60  1  0.536529  0.949231  0.104680  1
  O  O61  1  0.563405  0.630719  0.145822  1
  O  O62  1  0.550616  0.715148  0.474806  1
  O  O63  1  0.580171  0.461337  0.326511  1
  O  O64  1  0.567525  0.742508  0.791512  1
  O  O65  1  0.572830  0.141016  0.355079  1
  O  O66  1  0.559500  0.284977  0.014937  1
  O  O67  1  0.588314  0.223426  0.680442  1
  O  O68  1  0.673848  0.045310  0.537416  1
  O  O69  1  0.734405  0.270226  0.210918  1
  O  O70  1  0.721705  0.237725  0.868924  1
  O  O71  1  0.748412  0.364707  0.546607  1
  O  O72  1  0.751588  0.864707  0.953393  1
  O  O73  1  0.778295  0.737725  0.631076  1
  O  O74  1  0.765595  0.770226  0.289082  1
  O  O75  1  0.826152  0.545310  0.962584  1
  O  O76  1  0.911686  0.723426  0.819558  1
  O  O77  1  0.940500  0.784977  0.485063  1
  O  O78  1  0.932475  0.242508  0.708488  1
  O  O79  1  0.927170  0.641016  0.144921  1
  O  O80  1  0.919829  0.961337  0.173489  1
  O  O81  1  0.949384  0.215148  0.025194  1
  O  O82  1  0.936595  0.130719  0.354178  1
  O  O83  1  0.963471  0.449231  0.395320  1
