# generated using pymatgen
data_Li4Cr5FeO12
_symmetry_space_group_name_H-M   'P 1'
_cell_length_a   5.13782421
_cell_length_b   5.15336228
_cell_length_c   10.13639747
_cell_angle_alpha   89.90610464
_cell_angle_beta   89.81162733
_cell_angle_gamma   60.09968485
_symmetry_Int_Tables_number   1
_chemical_formula_structural   Li4Cr5FeO12
_chemical_formula_sum   'Li4 Cr5 Fe1 O12'
_cell_volume   232.65757653
_cell_formula_units_Z   1
loop_
 _symmetry_equiv_pos_site_id
 _symmetry_equiv_pos_as_xyz
  1  'x, y, z'
loop_
 _atom_site_type_symbol
 _atom_site_label
 _atom_site_symmetry_multiplicity
 _atom_site_fract_x
 _atom_site_fract_y
 _atom_site_fract_z
 _atom_site_occupancy
  Li  Li0  1  0.149340  0.503368  0.750283  1
  Li  Li1  1  0.347292  0.503368  0.249717  1
  Li  Li2  1  0.652708  0.496632  0.750283  1
  Li  Li3  1  0.850660  0.496632  0.249717  1
  Cr  Cr4  1  0.165309  0.669381  0.500000  1
  Cr  Cr5  1  0.665184  0.669631  0.000000  1
  Cr  Cr6  1  0.334816  0.330369  1.000000  1
  Cr  Cr7  1  0.834691  0.330619  0.500000  1
  Cr  Cr8  1  0.500000  0.000000  0.500000  1
  Fe  Fe9  1  0.000000  0.000000  0.000000  1
  O  O10  1  0.009385  0.653710  0.107086  1
  O  O11  1  0.336906  0.653710  0.892914  1
  O  O12  1  0.164839  0.343200  0.394619  1
  O  O13  1  0.508041  0.656800  0.394619  1
  O  O14  1  0.491959  0.343200  0.605381  1
  O  O15  1  0.169748  1.000000  0.593334  1
  O  O16  1  0.835161  0.656800  0.605381  1
  O  O17  1  0.663094  0.346290  0.107086  1
  O  O18  1  0.323747  1.000000  0.096229  1
  O  O19  1  0.990615  0.346290  0.892914  1
  O  O20  1  0.676253  0.000000  0.903771  1
  O  O21  1  0.830252  0.000000  0.406666  1
