# generated using pymatgen
data_Li5Fe2Cu5O12
_symmetry_space_group_name_H-M   'P 1'
_cell_length_a   5.06209805
_cell_length_b   5.06209831
_cell_length_c   9.71302776
_cell_angle_alpha   88.85246895
_cell_angle_beta   91.14753077
_cell_angle_gamma   65.85100741
_symmetry_Int_Tables_number   1
_chemical_formula_structural   Li5Fe2Cu5O12
_chemical_formula_sum   'Li5 Fe2 Cu5 O12'
_cell_volume   226.95845118
_cell_formula_units_Z   1
loop_
 _symmetry_equiv_pos_site_id
 _symmetry_equiv_pos_as_xyz
  1  'x, y, z'
loop_
 _atom_site_type_symbol
 _atom_site_label
 _atom_site_symmetry_multiplicity
 _atom_site_fract_x
 _atom_site_fract_y
 _atom_site_fract_z
 _atom_site_occupancy
  Li  Li0  1  0.167654  0.664650  0.506371  1
  Li  Li1  1  0.323494  0.846378  0.995024  1
  Li  Li2  1  0.664650  0.167654  0.993629  1
  Li  Li3  1  0.846378  0.323494  0.504976  1
  Li  Li4  1  0.913719  0.913719  0.750000  1
  Fe  Fe5  1  0.244784  0.244784  0.750000  1
  Fe  Fe6  1  0.749327  0.749327  0.250000  1
  Cu  Cu7  1  0.077871  0.077871  0.250000  1
  Cu  Cu8  1  0.993446  0.514975  0.999087  1
  Cu  Cu9  1  0.514975  0.993446  0.500913  1
  Cu  Cu10  1  0.420230  0.420230  0.250000  1
  Cu  Cu11  1  0.583884  0.583884  0.750000  1
  O  O12  1  0.983945  0.212939  0.886062  1
  O  O13  1  0.212939  0.983945  0.613938  1
  O  O14  1  0.100023  0.401729  0.348886  1
  O  O15  1  0.401729  0.100023  0.151114  1
  O  O16  1  0.304643  0.525245  0.870063  1
  O  O17  1  0.525245  0.304643  0.629937  1
  O  O18  1  0.482090  0.682442  0.378001  1
  O  O19  1  0.682442  0.482090  0.121999  1
  O  O20  1  0.574648  0.906470  0.852030  1
  O  O21  1  0.906470  0.574648  0.647970  1
  O  O22  1  0.817546  0.007867  0.384093  1
  O  O23  1  0.007867  0.817546  0.115907  1
