# generated using pymatgen
data_Sn13(O5F3)2
_symmetry_space_group_name_H-M   'P 1'
_cell_length_a   7.14868998
_cell_length_b   8.35513883
_cell_length_c   23.03688588
_cell_angle_alpha   86.83078826
_cell_angle_beta   90.00000000
_cell_angle_gamma   64.67185444
_symmetry_Int_Tables_number   1
_chemical_formula_structural   Sn13(O5F3)2
_chemical_formula_sum   'Sn26 O20 F12'
_cell_volume   1241.35840177
_cell_formula_units_Z   2
loop_
 _symmetry_equiv_pos_site_id
 _symmetry_equiv_pos_as_xyz
  1  'x, y, z'
loop_
 _atom_site_type_symbol
 _atom_site_label
 _atom_site_symmetry_multiplicity
 _atom_site_fract_x
 _atom_site_fract_y
 _atom_site_fract_z
 _atom_site_occupancy
  Sn  Sn0  1  0.869313  0.795776  0.793710  1
  Sn  Sn1  1  0.273441  0.918229  0.514031  1
  Sn  Sn2  1  0.228594  0.700823  0.917038  1
  Sn  Sn3  1  0.006448  0.829693  0.634693  1
  Sn  Sn4  1  0.839613  0.536638  0.937308  1
  Sn  Sn5  1  0.592613  0.671760  0.654626  1
  Sn  Sn6  1  0.334911  0.795776  0.293710  1
  Sn  Sn7  1  0.808331  0.918229  0.014031  1
  Sn  Sn8  1  0.070583  0.700823  0.417038  1
  Sn  Sn9  1  0.163859  0.829693  0.134693  1
  Sn  Sn10  1  0.623749  0.536638  0.437308  1
  Sn  Sn11  1  0.264371  0.328240  0.845374  1
  Sn  Sn12  1  0.735629  0.671760  0.154626  1
  Sn  Sn13  1  0.376251  0.463362  0.562692  1
  Sn  Sn14  1  0.836141  0.170307  0.865307  1
  Sn  Sn15  1  0.929417  0.299177  0.582962  1
  Sn  Sn16  1  0.191669  0.081771  0.985969  1
  Sn  Sn17  1  0.665089  0.204224  0.706290  1
  Sn  Sn18  1  0.407387  0.328240  0.345374  1
  Sn  Sn19  1  0.160387  0.463362  0.062692  1
  Sn  Sn20  1  0.993552  0.170307  0.365307  1
  Sn  Sn21  1  0.221642  0.000000  0.750000  1
  Sn  Sn22  1  0.771406  0.299177  0.082962  1
  Sn  Sn23  1  0.726559  0.081771  0.485969  1
  Sn  Sn24  1  0.130687  0.204224  0.206290  1
  Sn  Sn25  1  0.778358  1.000000  0.250000  1
  O  O26  1  0.978020  0.992845  0.941501  1
  O  O27  1  0.037484  0.946595  0.816134  1
  O  O28  1  0.029134  0.992845  0.441501  1
  O  O29  1  0.015922  0.946595  0.316134  1
  O  O30  1  0.028826  0.652545  0.982482  1
  O  O31  1  0.048680  0.606177  0.861234  1
  O  O32  1  0.332879  0.723251  0.598034  1
  O  O33  1  0.318628  0.652545  0.482482  1
  O  O34  1  0.345143  0.606177  0.361234  1
  O  O35  1  0.943871  0.723251  0.098034  1
  O  O36  1  0.056129  0.276749  0.901966  1
  O  O37  1  0.654857  0.393823  0.638766  1
  O  O38  1  0.681372  0.347455  0.517518  1
  O  O39  1  0.667121  0.276749  0.401966  1
  O  O40  1  0.951320  0.393823  0.138766  1
  O  O41  1  0.971174  0.347455  0.017518  1
  O  O42  1  0.984078  0.053405  0.683866  1
  O  O43  1  0.970866  0.007155  0.558499  1
  O  O44  1  0.962516  0.053405  0.183866  1
  O  O45  1  0.021980  0.007155  0.058499  1
  F  F46  1  0.663925  0.926344  0.858572  1
  F  F47  1  0.409733  0.926344  0.358572  1
  F  F48  1  0.302430  0.712724  0.723952  1
  F  F49  1  0.767993  0.617291  0.570985  1
  F  F50  1  0.984846  0.712724  0.223952  1
  F  F51  1  0.385284  0.382709  0.929015  1
  F  F52  1  0.614716  0.617291  0.070985  1
  F  F53  1  0.015154  0.287276  0.776048  1
  F  F54  1  0.232007  0.382709  0.429015  1
  F  F55  1  0.697570  0.287276  0.276048  1
  F  F56  1  0.590267  0.073656  0.641428  1
  F  F57  1  0.336076  0.073656  0.141428  1
