# generated using pymatgen
data_PrSiO4
_symmetry_space_group_name_H-M   'P 1'
_cell_length_a   6.08645414
_cell_length_b   6.08645414
_cell_length_c   6.08645414
_cell_angle_alpha   106.35716787
_cell_angle_beta   106.35716787
_cell_angle_gamma   115.89679935
_symmetry_Int_Tables_number   1
_chemical_formula_structural   PrSiO4
_chemical_formula_sum   'Pr2 Si2 O8'
_cell_volume   171.91340502
_cell_formula_units_Z   2
loop_
 _symmetry_equiv_pos_site_id
 _symmetry_equiv_pos_as_xyz
  1  'x, y, z'
loop_
 _atom_site_type_symbol
 _atom_site_label
 _atom_site_symmetry_multiplicity
 _atom_site_fract_x
 _atom_site_fract_y
 _atom_site_fract_z
 _atom_site_occupancy
  Pr  Pr0  1  0.875000  0.125000  0.750000  1
  Pr  Pr1  1  0.125000  0.875000  0.250000  1
  Si  Si2  1  0.625000  0.375000  0.250000  1
  Si  Si3  1  0.375000  0.625000  0.750000  1
  O  O4  1  0.785567  0.360568  0.075001  1
  O  O5  1  0.289436  0.214433  0.075001  1
  O  O6  1  0.639432  0.214433  0.424999  1
  O  O7  1  0.785567  0.710564  0.424999  1
  O  O8  1  0.214433  0.289436  0.575001  1
  O  O9  1  0.710564  0.785567  0.924999  1
  O  O10  1  0.360568  0.785567  0.575001  1
  O  O11  1  0.214433  0.639432  0.924999  1
