# generated using pymatgen
data_Li3P2WO8
_symmetry_space_group_name_H-M   'P 1'
_cell_length_a   5.06252002
_cell_length_b   18.53454542
_cell_length_c   6.36266367
_cell_angle_alpha   90.00000000
_cell_angle_beta   92.05060124
_cell_angle_gamma   90.00000000
_symmetry_Int_Tables_number   1
_chemical_formula_structural   Li3P2WO8
_chemical_formula_sum   'Li12 P8 W4 O32'
_cell_volume   596.63600103
_cell_formula_units_Z   4
loop_
 _symmetry_equiv_pos_site_id
 _symmetry_equiv_pos_as_xyz
  1  'x, y, z'
loop_
 _atom_site_type_symbol
 _atom_site_label
 _atom_site_symmetry_multiplicity
 _atom_site_fract_x
 _atom_site_fract_y
 _atom_site_fract_z
 _atom_site_occupancy
  Li  Li0  1  0.195132  0.701147  0.811412  1
  Li  Li1  1  0.222754  0.880279  0.502704  1
  Li  Li2  1  0.267239  0.049756  0.289290  1
  Li  Li3  1  0.277246  0.380279  0.997296  1
  Li  Li4  1  0.232761  0.549756  0.210710  1
  Li  Li5  1  0.304868  0.201146  0.688588  1
  Li  Li6  1  0.695132  0.798853  0.311412  1
  Li  Li7  1  0.767239  0.450244  0.789290  1
  Li  Li8  1  0.722754  0.619721  0.002704  1
  Li  Li9  1  0.732761  0.950244  0.710710  1
  Li  Li10  1  0.777246  0.119721  0.497296  1
  Li  Li11  1  0.804868  0.298853  0.188588  1
  P  P12  1  0.180350  0.714871  0.291238  1
  P  P13  1  0.219499  0.534985  0.731401  1
  P  P14  1  0.280501  0.034985  0.768599  1
  P  P15  1  0.319650  0.214871  0.208762  1
  P  P16  1  0.680350  0.785129  0.791238  1
  P  P17  1  0.719499  0.965015  0.231401  1
  P  P18  1  0.780501  0.465015  0.268599  1
  P  P19  1  0.819650  0.285129  0.708762  1
  W  W20  1  0.198583  0.873699  0.016824  1
  W  W21  1  0.301417  0.373699  0.483176  1
  W  W22  1  0.698583  0.626301  0.516824  1
  W  W23  1  0.801417  0.126301  0.983176  1
  O  O24  1  0.014335  0.201468  0.188732  1
  O  O25  1  0.052167  0.690485  0.498924  1
  O  O26  1  0.082271  0.443925  0.262711  1
  O  O27  1  0.061363  0.674638  0.100740  1
  O  O28  1  0.161666  0.062421  0.975712  1
  O  O29  1  0.131529  0.066425  0.577216  1
  O  O30  1  0.121191  0.798549  0.274848  1
  O  O31  1  0.219892  0.450008  0.737052  1
  O  O32  1  0.280108  0.950008  0.762948  1
  O  O33  1  0.378809  0.298549  0.225152  1
  O  O34  1  0.368471  0.566425  0.922784  1
  O  O35  1  0.338334  0.562421  0.524288  1
  O  O36  1  0.438637  0.174638  0.399260  1
  O  O37  1  0.417729  0.943925  0.237289  1
  O  O38  1  0.447833  0.190485  0.001076  1
  O  O39  1  0.485665  0.701468  0.311268  1
  O  O40  1  0.514335  0.298532  0.688732  1
  O  O41  1  0.552167  0.809515  0.998924  1
  O  O42  1  0.582271  0.056075  0.762711  1
  O  O43  1  0.561363  0.825362  0.600740  1
  O  O44  1  0.661666  0.437579  0.475712  1
  O  O45  1  0.631529  0.433575  0.077216  1
  O  O46  1  0.621191  0.701451  0.774848  1
  O  O47  1  0.719892  0.049992  0.237052  1
  O  O48  1  0.780108  0.549992  0.262948  1
  O  O49  1  0.878809  0.201451  0.725152  1
  O  O50  1  0.868471  0.933575  0.422784  1
  O  O51  1  0.838334  0.937579  0.024288  1
  O  O52  1  0.938637  0.325362  0.899260  1
  O  O53  1  0.917729  0.556075  0.737289  1
  O  O54  1  0.947833  0.309515  0.501076  1
  O  O55  1  0.985665  0.798532  0.811268  1
