# generated using pymatgen
data_Li4MnNb2WO12
_symmetry_space_group_name_H-M   'P 1'
_cell_length_a   5.46757168
_cell_length_b   10.94511647
_cell_length_c   9.64061590
_cell_angle_alpha   28.18580256
_cell_angle_beta   51.10749419
_cell_angle_gamma   56.33503639
_symmetry_Int_Tables_number   1
_chemical_formula_structural   Li4MnNb2WO12
_chemical_formula_sum   'Li4 Mn1 Nb2 W1 O12'
_cell_volume   212.09338407
_cell_formula_units_Z   1
loop_
 _symmetry_equiv_pos_site_id
 _symmetry_equiv_pos_as_xyz
  1  'x, y, z'
loop_
 _atom_site_type_symbol
 _atom_site_label
 _atom_site_symmetry_multiplicity
 _atom_site_fract_x
 _atom_site_fract_y
 _atom_site_fract_z
 _atom_site_occupancy
  Li  Li0  1  0.254587  0.997716  0.312602  1
  Li  Li1  1  0.323205  0.498037  0.270401  1
  Li  Li2  1  0.774771  0.006477  0.732557  1
  Li  Li3  1  0.765557  0.496300  0.812306  1
  Mn  Mn4  1  0.002040  0.500035  0.998915  1
  Nb  Nb5  1  0.488201  0.004333  0.506932  1
  Nb  Nb6  1  0.527058  0.498322  0.502325  1
  W  W7  1  0.004483  0.003635  0.004567  1
  O  O8  1  0.351370  0.298579  0.137584  1
  O  O9  1  0.224260  0.123556  0.634447  1
  O  O10  1  0.112956  0.313570  0.743212  1
  O  O11  1  0.855663  0.205319  0.231563  1
  O  O12  1  0.368525  0.819010  0.112149  1
  O  O13  1  0.729419  0.391349  0.354485  1
  O  O14  1  0.243989  0.613643  0.630833  1
  O  O15  1  0.623895  0.171400  0.885329  1
  O  O16  1  0.138083  0.803533  0.739852  1
  O  O17  1  0.887564  0.691643  0.237637  1
  O  O18  1  0.751903  0.872341  0.367258  1
  O  O19  1  0.643669  0.691203  0.856250  1
