# generated using pymatgen
data_Li5Cr17(SiO16)2
_symmetry_space_group_name_H-M   'P 1'
_cell_length_a   8.44506156
_cell_length_b   8.34534350
_cell_length_c   8.33962992
_cell_angle_alpha   91.04010329
_cell_angle_beta   90.16475331
_cell_angle_gamma   89.82246771
_symmetry_Int_Tables_number   1
_chemical_formula_structural   Li5Cr17(SiO16)2
_chemical_formula_sum   'Li5 Cr17 Si2 O32'
_cell_volume   587.64959662
_cell_formula_units_Z   1
loop_
 _symmetry_equiv_pos_site_id
 _symmetry_equiv_pos_as_xyz
  1  'x, y, z'
loop_
 _atom_site_type_symbol
 _atom_site_label
 _atom_site_symmetry_multiplicity
 _atom_site_fract_x
 _atom_site_fract_y
 _atom_site_fract_z
 _atom_site_occupancy
  Li  Li0  1  0.996436  0.501922  0.498072  1
  Li  Li1  1  0.247766  0.746669  0.745905  1
  Li  Li2  1  0.247084  0.253566  0.252708  1
  Li  Li3  1  0.754684  0.745585  0.254456  1
  Li  Li4  1  0.755827  0.253880  0.747021  1
  Cr  Cr5  1  0.124929  0.876662  0.382636  1
  Cr  Cr6  1  0.125751  0.617316  0.122439  1
  Cr  Cr7  1  0.368757  0.377742  0.621879  1
  Cr  Cr8  1  0.369810  0.123198  0.876960  1
  Cr  Cr9  1  0.376330  0.621424  0.377397  1
  Cr  Cr10  1  0.378200  0.877280  0.122245  1
  Cr  Cr11  1  0.499557  0.497862  0.995907  1
  Cr  Cr12  1  0.498301  0.002345  0.502023  1
  Cr  Cr13  1  0.625400  0.376526  0.377805  1
  Cr  Cr14  1  0.622043  0.122761  0.122605  1
  Cr  Cr15  1  0.625961  0.622191  0.622843  1
  Cr  Cr16  1  0.622461  0.877903  0.877366  1
  Cr  Cr17  1  0.880292  0.127111  0.380657  1
  Cr  Cr18  1  0.880978  0.375070  0.122085  1
  Cr  Cr19  1  0.880862  0.878745  0.625929  1
  Cr  Cr20  1  0.881331  0.620115  0.872805  1
  Cr  Cr21  1  0.002503  0.999378  0.001948  1
  Si  Si22  1  0.116764  0.129817  0.622646  1
  Si  Si23  1  0.117031  0.377060  0.870467  1
  O  O24  1  0.117688  0.123262  0.409000  1
  O  O25  1  0.118679  0.590524  0.876000  1
  O  O26  1  0.118382  0.375440  0.088864  1
  O  O27  1  0.140295  0.638673  0.360420  1
  O  O28  1  0.118072  0.911611  0.625031  1
  O  O29  1  0.125543  0.149082  0.852469  1
  O  O30  1  0.127359  0.348918  0.650798  1
  O  O31  1  0.131920  0.863772  0.135698  1
  O  O32  1  0.336527  0.130246  0.632515  1
  O  O33  1  0.366983  0.631776  0.129173  1
  O  O34  1  0.365967  0.869460  0.367742  1
  O  O35  1  0.385461  0.114630  0.113974  1
  O  O36  1  0.337229  0.367341  0.869515  1
  O  O37  1  0.386749  0.613311  0.614705  1
  O  O38  1  0.386346  0.384245  0.386210  1
  O  O39  1  0.385801  0.886283  0.884818  1
  O  O40  1  0.606354  0.383237  0.616876  1
  O  O41  1  0.611957  0.886613  0.113573  1
  O  O42  1  0.606490  0.116354  0.884113  1
  O  O43  1  0.639103  0.871470  0.631266  1
  O  O44  1  0.612712  0.612055  0.387145  1
  O  O45  1  0.639132  0.368903  0.128601  1
  O  O46  1  0.639574  0.127423  0.368230  1
  O  O47  1  0.640804  0.632664  0.872038  1
  O  O48  1  0.861839  0.362760  0.359537  1
  O  O49  1  0.867629  0.866330  0.871763  1
  O  O50  1  0.862548  0.641516  0.637095  1
  O  O51  1  0.905830  0.379760  0.878619  1
  O  O52  1  0.867073  0.129489  0.134359  1
  O  O53  1  0.892181  0.888729  0.390721  1
  O  O54  1  0.905652  0.121981  0.621120  1
  O  O55  1  0.893065  0.610104  0.111299  1
