# generated using pymatgen
data_Na2SbAsCO7
_symmetry_space_group_name_H-M   'P 1'
_cell_length_a   9.51635582
_cell_length_b   7.06393326
_cell_length_c   5.50863355
_cell_angle_alpha   90.00000000
_cell_angle_beta   94.63273794
_cell_angle_gamma   90.00000000
_symmetry_Int_Tables_number   1
_chemical_formula_structural   Na2SbAsCO7
_chemical_formula_sum   'Na4 Sb2 As2 C2 O14'
_cell_volume   369.09650431
_cell_formula_units_Z   2
loop_
 _symmetry_equiv_pos_site_id
 _symmetry_equiv_pos_as_xyz
  1  'x, y, z'
loop_
 _atom_site_type_symbol
 _atom_site_label
 _atom_site_symmetry_multiplicity
 _atom_site_fract_x
 _atom_site_fract_y
 _atom_site_fract_z
 _atom_site_occupancy
  Na  Na0  1  0.217085  0.491688  0.235003  1
  Na  Na1  1  0.217085  0.008312  0.235003  1
  Na  Na2  1  0.782915  0.508312  0.764997  1
  Na  Na3  1  0.782915  0.991688  0.764997  1
  Sb  Sb4  1  0.361185  0.750000  0.800935  1
  Sb  Sb5  1  0.638815  0.250000  0.199064  1
  As  As6  1  0.395781  0.250000  0.729045  1
  As  As7  1  0.604219  0.750000  0.270955  1
  C  C8  1  0.076517  0.750000  0.718748  1
  C  C9  1  0.923483  0.250000  0.281252  1
  O  O10  1  0.053976  0.250000  0.275753  1
  O  O11  1  0.160127  0.750000  0.931984  1
  O  O12  1  0.146809  0.750000  0.524383  1
  O  O13  1  0.322914  0.056144  0.863155  1
  O  O14  1  0.322914  0.443856  0.863155  1
  O  O15  1  0.420239  0.750000  0.186621  1
  O  O16  1  0.368214  0.250000  0.422736  1
  O  O17  1  0.631786  0.750000  0.577264  1
  O  O18  1  0.579761  0.250000  0.813379  1
  O  O19  1  0.677086  0.556144  0.136845  1
  O  O20  1  0.677086  0.943856  0.136845  1
  O  O21  1  0.853191  0.250000  0.475617  1
  O  O22  1  0.839873  0.250000  0.068016  1
  O  O23  1  0.946024  0.750000  0.724247  1
