# generated using pymatgen
data_V2SiO4
_symmetry_space_group_name_H-M   'P 1'
_cell_length_a   5.90727882
_cell_length_b   5.90648185
_cell_length_c   5.86131508
_cell_angle_alpha   60.17625802
_cell_angle_beta   60.18881431
_cell_angle_gamma   60.66772029
_symmetry_Int_Tables_number   1
_chemical_formula_structural   V2SiO4
_chemical_formula_sum   'V4 Si2 O8'
_cell_volume   145.72869001
_cell_formula_units_Z   2
loop_
 _symmetry_equiv_pos_site_id
 _symmetry_equiv_pos_as_xyz
  1  'x, y, z'
loop_
 _atom_site_type_symbol
 _atom_site_label
 _atom_site_symmetry_multiplicity
 _atom_site_fract_x
 _atom_site_fract_y
 _atom_site_fract_z
 _atom_site_occupancy
  V  V0  1  0.499980  0.000015  0.500003  1
  V  V1  1  0.500061  0.499954  0.000051  1
  V  V2  1  0.999959  0.500021  0.499984  1
  V  V3  1  0.500000  0.499996  0.499994  1
  Si  Si4  1  0.124634  0.124387  0.125506  1
  Si  Si5  1  0.875389  0.875611  0.874475  1
  O  O6  1  0.240026  0.239984  0.241356  1
  O  O7  1  0.781075  0.240114  0.238955  1
  O  O8  1  0.240143  0.780656  0.239153  1
  O  O9  1  0.240149  0.240244  0.778347  1
  O  O10  1  0.759842  0.219343  0.760851  1
  O  O11  1  0.759837  0.759772  0.221637  1
  O  O12  1  0.218945  0.759875  0.761043  1
  O  O13  1  0.759961  0.760028  0.758646  1
