# generated using pymatgen
data_LiMnF4
_symmetry_space_group_name_H-M   'P 1'
_cell_length_a   3.98063456
_cell_length_b   7.88056719
_cell_length_c   12.54865248
_cell_angle_alpha   58.26905121
_cell_angle_beta   90.00000000
_cell_angle_gamma   75.37094284
_symmetry_Int_Tables_number   1
_chemical_formula_structural   LiMnF4
_chemical_formula_sum   'Li4 Mn4 F16'
_cell_volume   319.70574206
_cell_formula_units_Z   4
loop_
 _symmetry_equiv_pos_site_id
 _symmetry_equiv_pos_as_xyz
  1  'x, y, z'
loop_
 _atom_site_type_symbol
 _atom_site_label
 _atom_site_symmetry_multiplicity
 _atom_site_fract_x
 _atom_site_fract_y
 _atom_site_fract_z
 _atom_site_occupancy
  Li  Li0  1  0.814097  0.371806  0.832733  1
  Li  Li1  1  0.649333  0.701336  0.327840  1
  Li  Li2  1  0.350667  0.298665  0.672160  1
  Li  Li3  1  0.185903  0.628193  0.167267  1
  Mn  Mn4  1  0.043914  0.912171  0.871687  1
  Mn  Mn5  1  0.145721  0.708558  0.643460  1
  Mn  Mn6  1  0.854279  0.291442  0.356540  1
  Mn  Mn7  1  0.956086  0.087829  0.128313  1
  F  F8  1  0.529422  0.941156  0.851905  1
  F  F9  1  0.095176  0.809647  0.750707  1
  F  F10  1  0.177065  0.645871  0.008942  1
  F  F11  1  0.664311  0.671380  0.665344  1
  F  F12  1  0.298019  0.403962  0.788704  1
  F  F13  1  0.198468  0.603064  0.541369  1
  F  F14  1  0.099491  0.801018  0.264485  1
  F  F15  1  0.900509  0.198982  0.735515  1
  F  F16  1  0.801532  0.396936  0.458631  1
  F  F17  1  0.701981  0.596038  0.211296  1
  F  F18  1  0.335689  0.328620  0.334656  1
  F  F19  1  0.822935  0.354129  0.991058  1
  F  F20  1  0.000000  0.000000  0.500000  1
  F  F21  1  0.904824  0.190353  0.249293  1
  F  F22  1  0.470578  0.058844  0.148095  1
  F  F23  1  0.000000  0.000000  0.000000  1
