# generated using pymatgen
data_NaLi5Fe2P2(CO7)2
_symmetry_space_group_name_H-M   'P 1'
_cell_length_a   8.53598204
_cell_length_b   6.54091433
_cell_length_c   10.09404336
_cell_angle_alpha   90.00000000
_cell_angle_beta   85.89638632
_cell_angle_gamma   90.00000000
_symmetry_Int_Tables_number   1
_chemical_formula_structural   NaLi5Fe2P2(CO7)2
_chemical_formula_sum   'Na2 Li10 Fe4 P4 C4 O28'
_cell_volume   562.13713618
_cell_formula_units_Z   2
loop_
 _symmetry_equiv_pos_site_id
 _symmetry_equiv_pos_as_xyz
  1  'x, y, z'
loop_
 _atom_site_type_symbol
 _atom_site_label
 _atom_site_symmetry_multiplicity
 _atom_site_fract_x
 _atom_site_fract_y
 _atom_site_fract_z
 _atom_site_occupancy
  Na  Na0  1  0.256806  0.001307  0.128315  1
  Na  Na1  1  0.743194  0.501307  0.371685  1
  Li  Li2  1  0.086294  0.255996  0.873182  1
  Li  Li3  1  0.092302  0.250168  0.378994  1
  Li  Li4  1  0.272447  0.019800  0.625358  1
  Li  Li5  1  0.275368  0.473338  0.621700  1
  Li  Li6  1  0.275738  0.480030  0.123325  1
  Li  Li7  1  0.727553  0.519800  0.874642  1
  Li  Li8  1  0.724632  0.973338  0.878300  1
  Li  Li9  1  0.724262  0.980030  0.376675  1
  Li  Li10  1  0.913706  0.755996  0.626818  1
  Li  Li11  1  0.907698  0.750168  0.121006  1
  Fe  Fe12  1  0.338168  0.745722  0.890874  1
  Fe  Fe13  1  0.340216  0.748707  0.396861  1
  Fe  Fe14  1  0.661832  0.245722  0.609126  1
  Fe  Fe15  1  0.659784  0.248707  0.103139  1
  P  P16  1  0.409469  0.250937  0.853167  1
  P  P17  1  0.410246  0.248206  0.359230  1
  P  P18  1  0.590531  0.750937  0.646833  1
  P  P19  1  0.589754  0.748206  0.140770  1
  C  C20  1  0.034577  0.750465  0.856430  1
  C  C21  1  0.039920  0.756877  0.355157  1
  C  C22  1  0.965423  0.250465  0.643570  1
  C  C23  1  0.960080  0.256877  0.144843  1
  O  O24  1  0.112204  0.247792  0.669189  1
  O  O25  1  0.102505  0.280750  0.178101  1
  O  O26  1  0.076990  0.756549  0.977930  1
  O  O27  1  0.074896  0.752161  0.478509  1
  O  O28  1  0.142742  0.746546  0.757824  1
  O  O29  1  0.153141  0.736512  0.261389  1
  O  O30  1  0.312312  0.059346  0.898846  1
  O  O31  1  0.303755  0.432513  0.906066  1
  O  O32  1  0.299879  0.063903  0.399435  1
  O  O33  1  0.316900  0.435550  0.419414  1
  O  O34  1  0.427684  0.255668  0.697841  1
  O  O35  1  0.424404  0.757159  0.593766  1
  O  O36  1  0.431041  0.269407  0.205099  1
  O  O37  1  0.426450  0.724587  0.085520  1
  O  O38  1  0.575596  0.257159  0.906234  1
  O  O39  1  0.572316  0.755668  0.802159  1
  O  O40  1  0.573550  0.224587  0.414480  1
  O  O41  1  0.568959  0.769407  0.294901  1
  O  O42  1  0.687688  0.559346  0.601154  1
  O  O43  1  0.696245  0.932513  0.593934  1
  O  O44  1  0.700121  0.563903  0.100565  1
  O  O45  1  0.683100  0.935550  0.080586  1
  O  O46  1  0.857258  0.246546  0.742176  1
  O  O47  1  0.846859  0.236512  0.238611  1
  O  O48  1  0.923010  0.256549  0.522070  1
  O  O49  1  0.925104  0.252161  0.021491  1
  O  O50  1  0.887796  0.747792  0.830811  1
  O  O51  1  0.897495  0.780750  0.321899  1
