# generated using pymatgen
data_Li6MnFe5(BO3)6
_symmetry_space_group_name_H-M   'P 1'
_cell_length_a   8.25404816
_cell_length_b   8.25265589
_cell_length_c   12.56644075
_cell_angle_alpha   90.00000000
_cell_angle_beta   90.00000000
_cell_angle_gamma   120.07321021
_symmetry_Int_Tables_number   1
_chemical_formula_structural   Li6MnFe5(BO3)6
_chemical_formula_sum   'Li12 Mn2 Fe10 B12 O36'
_cell_volume   740.76899473
_cell_formula_units_Z   2
loop_
 _symmetry_equiv_pos_site_id
 _symmetry_equiv_pos_as_xyz
  1  'x, y, z'
loop_
 _atom_site_type_symbol
 _atom_site_label
 _atom_site_symmetry_multiplicity
 _atom_site_fract_x
 _atom_site_fract_y
 _atom_site_fract_z
 _atom_site_occupancy
  Li  Li0  1  0.283923  0.982630  0.125000  1
  Li  Li1  1  0.284783  0.983213  0.874596  1
  Li  Li2  1  0.285451  0.983795  0.625000  1
  Li  Li3  1  0.284783  0.983213  0.375404  1
  Li  Li4  1  0.015867  0.301342  0.125000  1
  Li  Li5  1  0.016035  0.301188  0.375185  1
  Li  Li6  1  0.015950  0.301350  0.625000  1
  Li  Li7  1  0.016035  0.301188  0.874815  1
  Li  Li8  1  0.698753  0.714552  0.375617  1
  Li  Li9  1  0.698362  0.714851  0.625000  1
  Li  Li10  1  0.698065  0.713743  0.125000  1
  Li  Li11  1  0.698753  0.714552  0.874383  1
  Mn  Mn12  1  0.372423  0.360585  0.998188  1
  Mn  Mn13  1  0.372423  0.360585  0.251812  1
  Fe  Fe14  1  0.368258  0.360749  0.501237  1
  Fe  Fe15  1  0.368258  0.360749  0.748763  1
  Fe  Fe16  1  0.639889  0.007774  0.499938  1
  Fe  Fe17  1  0.640540  0.007521  0.000145  1
  Fe  Fe18  1  0.640540  0.007521  0.249855  1
  Fe  Fe19  1  0.639889  0.007774  0.750062  1
  Fe  Fe20  1  0.992421  0.632234  0.500099  1
  Fe  Fe21  1  0.992481  0.633238  0.999891  1
  Fe  Fe22  1  0.992481  0.633238  0.250109  1
  Fe  Fe23  1  0.992421  0.632234  0.749901  1
  B  B24  1  0.997639  0.999459  0.999844  1
  B  B25  1  0.997639  0.999459  0.250156  1
  B  B26  1  0.000109  0.000047  0.500245  1
  B  B27  1  0.000109  0.000047  0.749755  1
  B  B28  1  0.333460  0.667948  0.873323  1
  B  B29  1  0.333276  0.668663  0.125000  1
  B  B30  1  0.333460  0.667948  0.376677  1
  B  B31  1  0.333068  0.667005  0.625000  1
  B  B32  1  0.668290  0.332228  0.125000  1
  B  B33  1  0.667827  0.332633  0.376078  1
  B  B34  1  0.666644  0.333438  0.625000  1
  B  B35  1  0.667827  0.332633  0.873922  1
  O  O36  1  0.108857  0.916233  0.250242  1
  O  O37  1  0.108857  0.916233  0.999758  1
  O  O38  1  0.109069  0.914762  0.500184  1
  O  O39  1  0.109069  0.914762  0.749816  1
  O  O40  1  0.138969  0.581172  0.874941  1
  O  O41  1  0.138636  0.582159  0.125000  1
  O  O42  1  0.138969  0.581172  0.375059  1
  O  O43  1  0.138301  0.580464  0.625000  1
  O  O44  1  0.079780  0.193057  0.999756  1
  O  O45  1  0.085708  0.194611  0.500641  1
  O  O46  1  0.085708  0.194611  0.749359  1
  O  O47  1  0.079780  0.193057  0.250244  1
  O  O48  1  0.441748  0.862253  0.874838  1
  O  O49  1  0.441647  0.861618  0.625000  1
  O  O50  1  0.441570  0.863216  0.125000  1
  O  O51  1  0.441748  0.862253  0.375162  1
  O  O52  1  0.419802  0.560134  0.871144  1
  O  O53  1  0.419047  0.560758  0.125000  1
  O  O54  1  0.419241  0.558808  0.625000  1
  O  O55  1  0.419802  0.560134  0.378856  1
  O  O56  1  0.474191  0.251760  0.125000  1
  O  O57  1  0.472735  0.254661  0.625000  1
  O  O58  1  0.473904  0.253001  0.377543  1
  O  O59  1  0.473904  0.253001  0.872457  1
  O  O60  1  0.803381  0.887062  0.999835  1
  O  O61  1  0.803381  0.887062  0.250165  1
  O  O62  1  0.805617  0.890813  0.500150  1
  O  O63  1  0.805617  0.890813  0.749850  1
  O  O64  1  0.781893  0.526466  0.125000  1
  O  O65  1  0.781958  0.526717  0.375179  1
  O  O66  1  0.781884  0.527332  0.625000  1
  O  O67  1  0.781958  0.526717  0.874821  1
  O  O68  1  0.746454  0.217905  0.374991  1
  O  O69  1  0.747224  0.217762  0.125000  1
  O  O70  1  0.745011  0.218225  0.625000  1
  O  O71  1  0.746454  0.217905  0.875009  1
