# generated using pymatgen
data_KFe2P2H5O11
_symmetry_space_group_name_H-M   'P 1'
_cell_length_a   9.86607340
_cell_length_b   9.80068693
_cell_length_c   9.88713309
_cell_angle_alpha   90.00000000
_cell_angle_beta   102.93712922
_cell_angle_gamma   90.00000000
_symmetry_Int_Tables_number   1
_chemical_formula_structural   KFe2P2H5O11
_chemical_formula_sum   'K4 Fe8 P8 H20 O44'
_cell_volume   931.76183345
_cell_formula_units_Z   4
loop_
 _symmetry_equiv_pos_site_id
 _symmetry_equiv_pos_as_xyz
  1  'x, y, z'
loop_
 _atom_site_type_symbol
 _atom_site_label
 _atom_site_symmetry_multiplicity
 _atom_site_fract_x
 _atom_site_fract_y
 _atom_site_fract_z
 _atom_site_occupancy
  K  K0  1  0.983008  0.696029  0.601709  1
  K  K1  1  0.483008  0.803971  0.101709  1
  K  K2  1  0.016992  0.303971  0.398291  1
  K  K3  1  0.516992  0.196029  0.898291  1
  Fe  Fe4  1  0.106618  0.053713  0.128854  1
  Fe  Fe5  1  0.606618  0.446287  0.628854  1
  Fe  Fe6  1  0.893382  0.946287  0.871146  1
  Fe  Fe7  1  0.393382  0.553713  0.371146  1
  Fe  Fe8  1  0.901599  0.726072  0.192453  1
  Fe  Fe9  1  0.401599  0.773928  0.692453  1
  Fe  Fe10  1  0.098401  0.273928  0.807547  1
  Fe  Fe11  1  0.598401  0.226072  0.307547  1
  P  P12  1  0.707740  0.527702  0.354993  1
  P  P13  1  0.207740  0.972298  0.854993  1
  P  P14  1  0.292260  0.472298  0.645007  1
  P  P15  1  0.792260  0.027702  0.145007  1
  P  P16  1  0.710699  0.677170  0.871242  1
  P  P17  1  0.210699  0.822830  0.371242  1
  P  P18  1  0.289301  0.322830  0.128758  1
  P  P19  1  0.789301  0.177170  0.628758  1
  H  H20  1  0.075453  0.798779  0.033095  1
  H  H21  1  0.575453  0.701221  0.533095  1
  H  H22  1  0.924547  0.201221  0.966905  1
  H  H23  1  0.424547  0.298779  0.466905  1
  H  H24  1  0.956898  0.472016  0.103963  1
  H  H25  1  0.456898  0.027984  0.603963  1
  H  H26  1  0.043102  0.527984  0.896037  1
  H  H27  1  0.543102  0.972016  0.396037  1
  H  H28  1  0.112929  0.521412  0.180173  1
  H  H29  1  0.612929  0.978588  0.680173  1
  H  H30  1  0.887071  0.478588  0.819827  1
  H  H31  1  0.387071  0.021412  0.319827  1
  H  H32  1  0.238039  0.586727  0.040919  1
  H  H33  1  0.738039  0.913273  0.540919  1
  H  H34  1  0.761961  0.413273  0.959081  1
  H  H35  1  0.261961  0.086727  0.459081  1
  H  H36  1  0.234496  0.639871  0.888763  1
  H  H37  1  0.734496  0.860129  0.388763  1
  H  H38  1  0.765504  0.360129  0.111237  1
  H  H39  1  0.265504  0.139871  0.611237  1
  O  O40  1  0.562188  0.592742  0.299585  1
  O  O41  1  0.062188  0.907258  0.799585  1
  O  O42  1  0.437812  0.407258  0.700415  1
  O  O43  1  0.937812  0.092742  0.200415  1
  O  O44  1  0.824384  0.621433  0.329211  1
  O  O45  1  0.324384  0.878567  0.829211  1
  O  O46  1  0.175616  0.378567  0.670789  1
  O  O47  1  0.675616  0.121433  0.170789  1
  O  O48  1  0.736589  0.505777  0.515016  1
  O  O49  1  0.236589  0.994223  0.015016  1
  O  O50  1  0.263411  0.494223  0.484984  1
  O  O51  1  0.763411  0.005777  0.984984  1
  O  O52  1  0.783343  0.887735  0.218416  1
  O  O53  1  0.283343  0.612265  0.718416  1
  O  O54  1  0.216657  0.112265  0.781584  1
  O  O55  1  0.716657  0.387735  0.281584  1
  O  O56  1  0.559919  0.729658  0.844820  1
  O  O57  1  0.059919  0.770342  0.344820  1
  O  O58  1  0.440081  0.270342  0.155179  1
  O  O59  1  0.940081  0.229658  0.655180  1
  O  O60  1  0.716026  0.531022  0.807384  1
  O  O61  1  0.216026  0.968978  0.307384  1
  O  O62  1  0.283974  0.468978  0.192616  1
  O  O63  1  0.783974  0.031022  0.692616  1
  O  O64  1  0.805033  0.770669  0.805509  1
  O  O65  1  0.305033  0.729331  0.305509  1
  O  O66  1  0.194967  0.229331  0.194491  1
  O  O67  1  0.694967  0.270669  0.694491  1
  O  O68  1  0.764887  0.663643  0.029407  1
  O  O69  1  0.264887  0.836357  0.529407  1
  O  O70  1  0.235113  0.336357  0.970593  1
  O  O71  1  0.735113  0.163643  0.470593  1
  O  O72  1  0.004792  0.856387  0.062152  1
  O  O73  1  0.504792  0.643613  0.562152  1
  O  O74  1  0.995208  0.143613  0.937848  1
  O  O75  1  0.495208  0.356387  0.437848  1
  O  O76  1  0.011768  0.544609  0.160875  1
  O  O77  1  0.511768  0.955391  0.660875  1
  O  O78  1  0.988232  0.455391  0.839125  1
  O  O79  1  0.488232  0.044609  0.339125  1
  O  O80  1  0.191397  0.651859  0.969237  1
  O  O81  1  0.691397  0.848141  0.469237  1
  O  O82  1  0.808603  0.348141  0.030763  1
  O  O83  1  0.308603  0.151859  0.530763  1
