# generated using pymatgen
data_Li4Ti2Nb3V3O16
_symmetry_space_group_name_H-M   'P 1'
_cell_length_a   6.05738043
_cell_length_b   5.98479330
_cell_length_c   9.82834884
_cell_angle_alpha   89.99956524
_cell_angle_beta   89.62675124
_cell_angle_gamma   119.59727935
_symmetry_Int_Tables_number   1
_chemical_formula_structural   Li4Ti2Nb3V3O16
_chemical_formula_sum   'Li4 Ti2 Nb3 V3 O16'
_cell_volume   309.79980031
_cell_formula_units_Z   1
loop_
 _symmetry_equiv_pos_site_id
 _symmetry_equiv_pos_as_xyz
  1  'x, y, z'
loop_
 _atom_site_type_symbol
 _atom_site_label
 _atom_site_symmetry_multiplicity
 _atom_site_fract_x
 _atom_site_fract_y
 _atom_site_fract_z
 _atom_site_occupancy
  Li  Li0  1  0.335362  0.667675  0.901244  1
  Li  Li1  1  0.008765  0.004366  0.991095  1
  Li  Li2  1  0.016893  0.008349  0.492007  1
  Li  Li3  1  0.669690  0.334870  0.388482  1
  Ti  Ti4  1  0.315573  0.657739  0.495178  1
  Ti  Ti5  1  0.654475  0.327195  0.000320  1
  Nb  Nb6  1  0.653450  0.826758  0.223015  1
  Nb  Nb7  1  0.817765  0.635358  0.715820  1
  Nb  Nb8  1  0.817830  0.182394  0.715782  1
  V  V9  1  0.168497  0.818814  0.211661  1
  V  V10  1  0.168522  0.349894  0.211652  1
  V  V11  1  0.344985  0.172419  0.711648  1
  O  O12  1  0.161641  0.821365  0.594752  1
  O  O13  1  0.050115  0.525225  0.351161  1
  O  O14  1  0.353338  0.676817  0.097836  1
  O  O15  1  0.997637  0.998917  0.306451  1
  O  O16  1  0.002493  0.001165  0.806202  1
  O  O17  1  0.161585  0.340131  0.594711  1
  O  O18  1  0.487927  0.964829  0.342994  1
  O  O19  1  0.487949  0.523255  0.343048  1
  O  O20  1  0.339093  0.169599  0.092716  1
  O  O21  1  0.659134  0.829584  0.593097  1
  O  O22  1  0.529590  0.488505  0.847065  1
  O  O23  1  0.529703  0.041101  0.847102  1
  O  O24  1  0.655631  0.327838  0.581247  1
  O  O25  1  0.819156  0.656928  0.097233  1
  O  O26  1  0.973998  0.486934  0.857107  1
  O  O27  1  0.819202  0.162277  0.097211  1
