# generated using pymatgen
data_Li3ZnPCO7
_symmetry_space_group_name_H-M   'P 1'
_cell_length_a   8.38279524
_cell_length_b   5.11829627
_cell_length_c   6.49925649
_cell_angle_alpha   90.00000000
_cell_angle_beta   90.00000000
_cell_angle_gamma   88.23802094
_symmetry_Int_Tables_number   1
_chemical_formula_structural   Li3ZnPCO7
_chemical_formula_sum   'Li6 Zn2 P2 C2 O14'
_cell_volume   278.72284467
_cell_formula_units_Z   2
loop_
 _symmetry_equiv_pos_site_id
 _symmetry_equiv_pos_as_xyz
  1  'x, y, z'
loop_
 _atom_site_type_symbol
 _atom_site_label
 _atom_site_symmetry_multiplicity
 _atom_site_fract_x
 _atom_site_fract_y
 _atom_site_fract_z
 _atom_site_occupancy
  Li  Li0  1  0.995826  0.040273  0.513367  1
  Li  Li1  1  0.179528  0.438610  0.191429  1
  Li  Li2  1  0.513019  0.443437  0.423017  1
  Li  Li3  1  0.486981  0.556563  0.923017  1
  Li  Li4  1  0.820472  0.561390  0.691429  1
  Li  Li5  1  0.004174  0.959727  0.013367  1
  Zn  Zn6  1  0.288115  0.035566  0.745633  1
  Zn  Zn7  1  0.711885  0.964434  0.245633  1
  P  P8  1  0.330844  0.961295  0.248917  1
  P  P9  1  0.669156  0.038705  0.748917  1
  C  C10  1  0.136424  0.521422  0.737900  1
  C  C11  1  0.863576  0.478578  0.237900  1
  O  O12  1  0.023242  0.357754  0.713329  1
  O  O13  1  0.099649  0.769530  0.762465  1
  O  O14  1  0.235186  0.086544  0.065136  1
  O  O15  1  0.226282  0.023100  0.439917  1
  O  O16  1  0.285684  0.442449  0.742145  1
  O  O17  1  0.364234  0.664723  0.214096  1
  O  O18  1  0.491252  0.104871  0.277252  1
  O  O19  1  0.508748  0.895129  0.777252  1
  O  O20  1  0.635766  0.335277  0.714096  1
  O  O21  1  0.714316  0.557551  0.242145  1
  O  O22  1  0.773717  0.976900  0.939917  1
  O  O23  1  0.764814  0.913456  0.565136  1
  O  O24  1  0.900351  0.230470  0.262465  1
  O  O25  1  0.976758  0.642246  0.213329  1
