# generated using pymatgen
data_Mn(PO3)3
_symmetry_space_group_name_H-M   'P 1'
_cell_length_a   7.07174845
_cell_length_b   7.22859622
_cell_length_c   6.75623712
_cell_angle_alpha   99.06981354
_cell_angle_beta   88.21074658
_cell_angle_gamma   83.97820360
_symmetry_Int_Tables_number   1
_chemical_formula_structural   Mn(PO3)3
_chemical_formula_sum   'Mn2 P6 O18'
_cell_volume   338.76940181
_cell_formula_units_Z   2
loop_
 _symmetry_equiv_pos_site_id
 _symmetry_equiv_pos_as_xyz
  1  'x, y, z'
loop_
 _atom_site_type_symbol
 _atom_site_label
 _atom_site_symmetry_multiplicity
 _atom_site_fract_x
 _atom_site_fract_y
 _atom_site_fract_z
 _atom_site_occupancy
  Mn  Mn0  1  0.180395  0.149335  0.942282  1
  Mn  Mn1  1  0.819605  0.850665  0.057718  1
  P  P2  1  0.158128  0.560625  0.827012  1
  P  P3  1  0.330439  0.796280  0.146953  1
  P  P4  1  0.364857  0.801723  0.598103  1
  P  P5  1  0.635143  0.198277  0.401897  1
  P  P6  1  0.669561  0.203720  0.853047  1
  P  P7  1  0.841872  0.439374  0.172988  1
  O  O8  1  0.028341  0.313416  0.163660  1
  O  O9  1  0.138997  0.351847  0.782509  1
  O  O10  1  0.174708  0.949568  0.109543  1
  O  O11  1  0.218449  0.959873  0.700348  1
  O  O12  1  0.265631  0.599205  0.033161  1
  O  O13  1  0.300461  0.604896  0.660267  1
  O  O14  1  0.429814  0.192311  0.381892  1
  O  O15  1  0.301248  0.760852  0.368468  1
  O  O16  1  0.472332  0.187889  0.923078  1
  O  O17  1  0.527668  0.812111  0.076922  1
  O  O18  1  0.698752  0.239148  0.631532  1
  O  O19  1  0.570186  0.807689  0.618108  1
  O  O20  1  0.699539  0.395104  0.339733  1
  O  O21  1  0.734369  0.400795  0.966839  1
  O  O22  1  0.781551  0.040127  0.299652  1
  O  O23  1  0.825292  0.050432  0.890457  1
  O  O24  1  0.861003  0.648154  0.217492  1
  O  O25  1  0.971659  0.686584  0.836340  1
