# generated using pymatgen
data_Na2IrO3
_symmetry_space_group_name_H-M   'P 1'
_cell_length_a   6.45461427
_cell_length_b   5.53505956
_cell_length_c   10.77012318
_cell_angle_alpha   85.21222896
_cell_angle_beta   154.93620692
_cell_angle_gamma   106.55838867
_symmetry_Int_Tables_number   1
_chemical_formula_structural   Na2IrO3
_chemical_formula_sum   'Na4 Ir2 O6'
_cell_volume   141.04560994
_cell_formula_units_Z   2
loop_
 _symmetry_equiv_pos_site_id
 _symmetry_equiv_pos_as_xyz
  1  'x, y, z'
loop_
 _atom_site_type_symbol
 _atom_site_label
 _atom_site_symmetry_multiplicity
 _atom_site_fract_x
 _atom_site_fract_y
 _atom_site_fract_z
 _atom_site_occupancy
  Na  Na0  1  0.500523  0.500309  0.000234  1
  Na  Na1  1  0.179921  0.179544  0.339868  1
  Na  Na2  1  0.821143  0.820789  0.660487  1
  Na  Na3  1  0.000293  0.500022  0.000093  1
  Ir  Ir4  1  0.333744  0.833595  0.666766  1
  Ir  Ir5  1  0.666739  0.166449  0.333295  1
  O  O6  1  0.325324  0.129367  0.764302  1
  O  O7  1  0.675094  0.870731  0.235708  1
  O  O8  1  0.196538  0.499971  0.494786  1
  O  O9  1  0.066841  0.870691  0.135147  1
  O  O10  1  0.933734  0.129397  0.864974  1
  O  O11  1  0.803978  0.500000  0.505298  1
