# generated using pymatgen
data_Li3FeF6
_symmetry_space_group_name_H-M   'P 1'
_cell_length_a   5.12702008
_cell_length_b   5.12703963
_cell_length_c   9.64977128
_cell_angle_alpha   89.99949645
_cell_angle_beta   90.00040305
_cell_angle_gamma   120.00207729
_symmetry_Int_Tables_number   1
_chemical_formula_structural   Li3FeF6
_chemical_formula_sum   'Li6 Fe2 F12'
_cell_volume   219.66974876
_cell_formula_units_Z   2
loop_
 _symmetry_equiv_pos_site_id
 _symmetry_equiv_pos_as_xyz
  1  'x, y, z'
loop_
 _atom_site_type_symbol
 _atom_site_label
 _atom_site_symmetry_multiplicity
 _atom_site_fract_x
 _atom_site_fract_y
 _atom_site_fract_z
 _atom_site_occupancy
  Li  Li0  1  0.333355  0.666677  0.945525  1
  Li  Li1  1  0.999969  0.999975  0.250000  1
  Li  Li2  1  0.000005  0.000024  0.749999  1
  Li  Li3  1  0.333376  0.666699  0.554475  1
  Li  Li4  1  0.666635  0.333333  0.054475  1
  Li  Li5  1  0.666634  0.333295  0.445524  1
  Fe  Fe6  1  0.333273  0.666628  0.249992  1
  Fe  Fe7  1  0.666691  0.333370  0.750004  1
  F  F8  1  0.027736  0.672579  0.368393  1
  F  F9  1  0.327371  0.972215  0.131609  1
  F  F10  1  0.027708  0.355129  0.131602  1
  F  F11  1  0.327366  0.355145  0.368389  1
  F  F12  1  0.644790  0.972161  0.368404  1
  F  F13  1  0.355176  0.327395  0.868399  1
  F  F14  1  0.644777  0.672593  0.131595  1
  F  F15  1  0.355195  0.027818  0.631599  1
  F  F16  1  0.672633  0.644878  0.631624  1
  F  F17  1  0.972255  0.644855  0.868398  1
  F  F18  1  0.672615  0.027792  0.868391  1
  F  F19  1  0.972239  0.327438  0.631603  1
