# generated using pymatgen
data_Ba3AlHO4
_symmetry_space_group_name_H-M   'P 1'
_cell_length_a   10.62661884
_cell_length_b   8.27268426
_cell_length_c   7.33996057
_cell_angle_alpha   90.00000000
_cell_angle_beta   90.00000000
_cell_angle_gamma   90.00000000
_symmetry_Int_Tables_number   1
_chemical_formula_structural   Ba3AlHO4
_chemical_formula_sum   'Ba12 Al4 H4 O16'
_cell_volume   645.26079581
_cell_formula_units_Z   4
loop_
 _symmetry_equiv_pos_site_id
 _symmetry_equiv_pos_as_xyz
  1  'x, y, z'
loop_
 _atom_site_type_symbol
 _atom_site_label
 _atom_site_symmetry_multiplicity
 _atom_site_fract_x
 _atom_site_fract_y
 _atom_site_fract_z
 _atom_site_occupancy
  Ba  Ba0  1  0.834449  0.025851  0.399017  1
  Ba  Ba1  1  0.334449  0.474149  0.100983  1
  Ba  Ba2  1  0.165551  0.525851  0.600983  1
  Ba  Ba3  1  0.665551  0.974149  0.899017  1
  Ba  Ba4  1  0.165551  0.974149  0.600983  1
  Ba  Ba5  1  0.665551  0.525851  0.899017  1
  Ba  Ba6  1  0.834449  0.474149  0.399017  1
  Ba  Ba7  1  0.334449  0.025851  0.100983  1
  Ba  Ba8  1  0.963316  0.250000  0.901761  1
  Ba  Ba9  1  0.463316  0.250000  0.598239  1
  Ba  Ba10  1  0.036684  0.750000  0.098239  1
  Ba  Ba11  1  0.536684  0.750000  0.401761  1
  Al  Al12  1  0.603596  0.250000  0.189257  1
  Al  Al13  1  0.103596  0.250000  0.310743  1
  Al  Al14  1  0.396404  0.750000  0.810743  1
  Al  Al15  1  0.896404  0.750000  0.689257  1
  H  H16  1  0.730762  0.250000  0.660772  1
  H  H17  1  0.230762  0.250000  0.839228  1
  H  H18  1  0.269238  0.750000  0.339228  1
  H  H19  1  0.769238  0.750000  0.160772  1
  O  O20  1  0.572426  0.066153  0.305865  1
  O  O21  1  0.072426  0.433847  0.194135  1
  O  O22  1  0.427574  0.566153  0.694135  1
  O  O23  1  0.927574  0.933847  0.805865  1
  O  O24  1  0.427574  0.933847  0.694135  1
  O  O25  1  0.927574  0.566153  0.805865  1
  O  O26  1  0.572426  0.433847  0.305865  1
  O  O27  1  0.072426  0.066153  0.194135  1
  O  O28  1  0.512001  0.250000  0.983354  1
  O  O29  1  0.012001  0.250000  0.516646  1
  O  O30  1  0.487999  0.750000  0.016646  1
  O  O31  1  0.987999  0.750000  0.483354  1
  O  O32  1  0.767487  0.250000  0.129161  1
  O  O33  1  0.267487  0.250000  0.370839  1
  O  O34  1  0.232513  0.750000  0.870839  1
  O  O35  1  0.732513  0.750000  0.629161  1
