# generated using pymatgen
data_Li4Cr2P4H3O16
_symmetry_space_group_name_H-M   'P 1'
_cell_length_a   4.95004812
_cell_length_b   8.36833731
_cell_length_c   7.69340358
_cell_angle_alpha   90.68578422
_cell_angle_beta   103.85925820
_cell_angle_gamma   88.15120981
_symmetry_Int_Tables_number   1
_chemical_formula_structural   Li4Cr2P4H3O16
_chemical_formula_sum   'Li4 Cr2 P4 H3 O16'
_cell_volume   309.24703632
_cell_formula_units_Z   1
loop_
 _symmetry_equiv_pos_site_id
 _symmetry_equiv_pos_as_xyz
  1  'x, y, z'
loop_
 _atom_site_type_symbol
 _atom_site_label
 _atom_site_symmetry_multiplicity
 _atom_site_fract_x
 _atom_site_fract_y
 _atom_site_fract_z
 _atom_site_occupancy
  Li  Li0  1  0.115138  0.355277  0.678772  1
  Li  Li1  1  0.397112  0.877344  0.847868  1
  Li  Li2  1  0.584819  0.117223  0.156476  1
  Li  Li3  1  0.886347  0.647694  0.319458  1
  Cr  Cr4  1  0.000382  0.997647  0.497491  1
  Cr  Cr5  1  0.498066  0.500621  0.001608  1
  P  P6  1  0.104200  0.323974  0.256395  1
  P  P7  1  0.375070  0.847209  0.236682  1
  P  P8  1  0.624607  0.154461  0.757101  1
  P  P9  1  0.890661  0.675944  0.744138  1
  H  H10  1  0.955801  0.014324  0.979074  1
  H  H11  1  0.451962  0.398829  0.470524  1
  H  H12  1  0.546922  0.615288  0.520738  1
  O  O13  1  0.117406  0.551811  0.825715  1
  O  O14  1  0.976353  0.171077  0.309471  1
  O  O15  1  0.156009  0.827449  0.352388  1
  O  O16  1  0.249104  0.411383  0.447762  1
  O  O17  1  0.383785  0.050170  0.658188  1
  O  O18  1  0.516376  0.317564  0.806078  1
  O  O19  1  0.253014  0.939857  0.061492  1
  O  O20  1  0.326255  0.294743  0.154761  1
  O  O21  1  0.670457  0.706239  0.846794  1
  O  O22  1  0.754429  0.062192  0.940799  1
  O  O23  1  0.482891  0.678848  0.198444  1
  O  O24  1  0.620899  0.946392  0.346465  1
  O  O25  1  0.746205  0.586232  0.554182  1
  O  O26  1  0.849046  0.171985  0.649083  1
  O  O27  1  0.015814  0.829429  0.689918  1
  O  O28  1  0.879753  0.448696  0.174038  1
