# generated using pymatgen
data_LiMnPH2O5
_symmetry_space_group_name_H-M   'P 1'
_cell_length_a   8.24251461
_cell_length_b   10.51854201
_cell_length_c   10.70064180
_cell_angle_alpha   84.35014137
_cell_angle_beta   107.89534140
_cell_angle_gamma   71.67837900
_symmetry_Int_Tables_number   1
_chemical_formula_structural   LiMnPH2O5
_chemical_formula_sum   'Li8 Mn8 P8 H16 O40'
_cell_volume   818.33169832
_cell_formula_units_Z   8
loop_
 _symmetry_equiv_pos_site_id
 _symmetry_equiv_pos_as_xyz
  1  'x, y, z'
loop_
 _atom_site_type_symbol
 _atom_site_label
 _atom_site_symmetry_multiplicity
 _atom_site_fract_x
 _atom_site_fract_y
 _atom_site_fract_z
 _atom_site_occupancy
  Li  Li0  1  0.256703  0.162434  0.933221  1
  Li  Li1  1  0.648819  0.242794  0.786321  1
  Li  Li2  1  0.153825  0.769190  0.532710  1
  Li  Li3  1  0.735050  0.662614  0.673619  1
  Li  Li4  1  0.250557  0.335877  0.319199  1
  Li  Li5  1  0.849606  0.236126  0.466773  1
  Li  Li6  1  0.146943  0.757015  0.033424  1
  Li  Li7  1  0.738952  0.660165  0.167620  1
  Mn  Mn8  1  0.002641  0.995309  0.746480  1
  Mn  Mn9  1  0.501937  0.992353  0.747244  1
  Mn  Mn10  1  0.000203  0.501933  0.503440  1
  Mn  Mn11  1  0.497673  0.500944  0.499087  1
  Mn  Mn12  1  0.997407  0.001799  0.249167  1
  Mn  Mn13  1  0.499733  0.000543  0.251752  1
  Mn  Mn14  1  0.003340  0.492022  0.996672  1
  Mn  Mn15  1  0.501107  0.495025  0.995725  1
  P  P16  1  0.419241  0.835321  0.995766  1
  P  P17  1  0.091977  0.662059  0.755482  1
  P  P18  1  0.915550  0.332894  0.742824  1
  P  P19  1  0.416305  0.834934  0.494601  1
  P  P20  1  0.587286  0.167435  0.504577  1
  P  P21  1  0.090043  0.660864  0.254663  1
  P  P22  1  0.914843  0.340412  0.247114  1
  P  P23  1  0.587822  0.160725  0.002243  1
  H  H24  1  0.820455  0.960505  0.949618  1
  H  H25  1  0.604663  0.678392  0.874729  1
  H  H26  1  0.870054  0.828257  0.874822  1
  H  H27  1  0.662022  0.536147  0.811075  1
  H  H28  1  0.319392  0.460390  0.698548  1
  H  H29  1  0.130794  0.172127  0.624077  1
  H  H30  1  0.370775  0.326238  0.625327  1
  H  H31  1  0.182292  0.035254  0.554902  1
  H  H32  1  0.817973  0.965535  0.442809  1
  H  H33  1  0.598443  0.681112  0.368403  1
  H  H34  1  0.866733  0.830940  0.369384  1
  H  H35  1  0.659228  0.540466  0.307394  1
  H  H36  1  0.341796  0.459941  0.191565  1
  H  H37  1  0.106896  0.174469  0.126535  1
  H  H38  1  0.394625  0.322728  0.122684  1
  H  H39  1  0.161519  0.034916  0.061726  1
  O  O40  1  0.227680  0.957084  0.944298  1
  O  O41  1  0.056163  0.350796  0.867608  1
  O  O42  1  0.504916  0.826888  0.885073  1
  O  O43  1  0.605513  0.298546  0.955452  1
  O  O44  1  0.283621  0.548207  0.803291  1
  O  O45  1  0.099843  0.801422  0.700891  1
  O  O46  1  0.681814  0.575017  0.893908  1
  O  O47  1  0.827589  0.930273  0.862680  1
  O  O48  1  0.466289  0.130075  0.874013  1
  O  O49  1  0.982133  0.326004  0.620722  1
  O  O50  1  0.014057  0.671748  0.872796  1
  O  O51  1  0.550002  0.856757  0.621159  1
  O  O52  1  0.185254  0.069355  0.641359  1
  O  O53  1  0.318002  0.428480  0.610375  1
  O  O54  1  0.891254  0.195550  0.781562  1
  O  O55  1  0.726334  0.454523  0.698258  1
  O  O56  1  0.406132  0.692180  0.538329  1
  O  O57  1  0.214669  0.938708  0.451568  1
  O  O58  1  0.524291  0.168849  0.628309  1
  O  O59  1  0.956589  0.628845  0.637494  1
  O  O60  1  0.039063  0.369407  0.374867  1
  O  O61  1  0.492772  0.834140  0.380203  1
  O  O62  1  0.787141  0.062011  0.544964  1
  O  O63  1  0.598294  0.309497  0.461229  1
  O  O64  1  0.274815  0.534244  0.309497  1
  O  O65  1  0.114773  0.794400  0.206921  1
  O  O66  1  0.672369  0.577936  0.390754  1
  O  O67  1  0.814707  0.933435  0.355370  1
  O  O68  1  0.449303  0.143541  0.383385  1
  O  O69  1  0.021290  0.327076  0.147517  1
  O  O70  1  0.006861  0.676250  0.369101  1
  O  O71  1  0.550287  0.852194  0.126290  1
  O  O72  1  0.174081  0.071106  0.145998  1
  O  O73  1  0.328280  0.426369  0.105654  1
  O  O74  1  0.887097  0.206759  0.290129  1
  O  O75  1  0.728200  0.465110  0.186059  1
  O  O76  1  0.389493  0.698482  0.029138  1
  O  O77  1  0.480366  0.170578  0.101221  1
  O  O78  1  0.959776  0.630189  0.131479  1
  O  O79  1  0.779523  0.045788  0.060796  1
