# generated using pymatgen
data_LiNiPO4
_symmetry_space_group_name_H-M   'P 1'
_cell_length_a   4.82311213
_cell_length_b   8.36010041
_cell_length_c   4.82311242
_cell_angle_alpha   73.23420693
_cell_angle_beta   60.00000701
_cell_angle_gamma   90.00000395
_symmetry_Int_Tables_number   1
_chemical_formula_structural   LiNiPO4
_chemical_formula_sum   'Li2 Ni2 P2 O8'
_cell_volume   158.80385332
_cell_formula_units_Z   2
loop_
 _symmetry_equiv_pos_site_id
 _symmetry_equiv_pos_as_xyz
  1  'x, y, z'
loop_
 _atom_site_type_symbol
 _atom_site_label
 _atom_site_symmetry_multiplicity
 _atom_site_fract_x
 _atom_site_fract_y
 _atom_site_fract_z
 _atom_site_occupancy
  Li  Li0  1  0.003357  0.010070  0.993287  1
  Li  Li1  1  0.571964  0.715892  0.856073  1
  Ni  Ni2  1  0.449917  0.349750  0.100166  1
  Ni  Ni3  1  0.125588  0.376764  0.748823  1
  P  P4  1  0.861950  0.585849  0.276101  1
  P  P5  1  0.713572  0.140715  0.572857  1
  O  O6  1  0.156679  0.519345  0.020701  1
  O  O7  1  0.035420  0.207327  0.545653  1
  O  O8  1  0.540046  0.519345  0.303275  1
  O  O9  1  0.418927  0.207327  0.828093  1
  O  O10  1  0.752981  0.207327  0.211601  1
  O  O11  1  0.925316  0.775947  0.149369  1
  O  O12  1  0.650196  0.950587  0.699609  1
  O  O13  1  0.822619  0.519345  0.637334  1
