# generated using pymatgen
data_Na(WO3)9
_symmetry_space_group_name_H-M   'P 1'
_cell_length_a   8.65712660
_cell_length_b   8.65712660
_cell_length_c   8.65712660
_cell_angle_alpha   66.42269745
_cell_angle_beta   66.42269745
_cell_angle_gamma   66.42269745
_symmetry_Int_Tables_number   1
_chemical_formula_structural   Na(WO3)9
_chemical_formula_sum   'Na1 W9 O27'
_cell_volume   522.29464141
_cell_formula_units_Z   1
loop_
 _symmetry_equiv_pos_site_id
 _symmetry_equiv_pos_as_xyz
  1  'x, y, z'
loop_
 _atom_site_type_symbol
 _atom_site_label
 _atom_site_symmetry_multiplicity
 _atom_site_fract_x
 _atom_site_fract_y
 _atom_site_fract_z
 _atom_site_occupancy
  Na  Na0  1  0.111111  0.777778  0.444444  1
  W  W1  1  0.611111  0.277778  0.944444  1
  W  W2  1  0.831542  0.834644  0.834930  1
  W  W3  1  0.278777  0.945444  0.612110  1
  W  W4  1  0.720626  0.057347  0.387578  1
  W  W5  1  0.943445  0.610112  0.276778  1
  W  W6  1  0.501596  0.498209  0.501311  1
  W  W7  1  0.054245  0.387293  0.724013  1
  W  W8  1  0.167977  0.168263  0.164875  1
  W  W9  1  0.390680  0.720912  0.053959  1
  O  O10  1  0.833174  0.333151  0.833504  1
  O  O11  1  0.946087  0.612731  0.774638  1
  O  O12  1  0.611111  0.777778  0.944444  1
  O  O13  1  0.722052  0.055715  0.889071  1
  O  O14  1  0.333493  0.833336  0.833332  1
  O  O15  1  0.780918  0.942802  0.609491  1
  O  O16  1  0.111111  0.277778  0.944444  1
  O  O17  1  0.555738  0.388718  0.722381  1
  O  O18  1  0.056098  0.887860  0.719580  1
  O  O19  1  0.386246  0.722765  0.554526  1
  O  O20  1  0.276158  0.447585  0.609469  1
  O  O21  1  0.722224  0.555396  0.388886  1
  O  O22  1  0.946064  0.107971  0.279420  1
  O  O23  1  0.499998  0.000160  0.500003  1
  O  O24  1  0.835976  0.832791  0.334363  1
  O  O25  1  0.611111  0.277778  0.444444  1
  O  O26  1  0.166670  0.166665  0.666826  1
  O  O27  1  0.221193  0.052913  0.389432  1
  O  O28  1  0.888729  0.722219  0.055557  1
  O  O29  1  0.666485  0.166837  0.166508  1
  O  O30  1  0.001029  0.502642  0.499457  1
  O  O31  1  0.441304  0.612753  0.279398  1
  O  O32  1  0.276136  0.942825  0.114251  1
  O  O33  1  0.500170  0.499841  0.999818  1
  O  O34  1  0.055552  0.388891  0.222063  1
  O  O35  1  0.166124  0.667696  0.169309  1
  O  O36  1  0.389048  0.222404  0.055385  1
