# generated using pymatgen
data_CrH10C2(NO4)2
_symmetry_space_group_name_H-M   'P 1'
_cell_length_a   6.83347334
_cell_length_b   19.62317434
_cell_length_c   8.22659368
_cell_angle_alpha   90.00000000
_cell_angle_beta   106.89463366
_cell_angle_gamma   90.00000000
_symmetry_Int_Tables_number   1
_chemical_formula_structural   CrH10C2(NO4)2
_chemical_formula_sum   'Cr4 H40 C8 N8 O32'
_cell_volume   1055.52981037
_cell_formula_units_Z   4
loop_
 _symmetry_equiv_pos_site_id
 _symmetry_equiv_pos_as_xyz
  1  'x, y, z'
loop_
 _atom_site_type_symbol
 _atom_site_label
 _atom_site_symmetry_multiplicity
 _atom_site_fract_x
 _atom_site_fract_y
 _atom_site_fract_z
 _atom_site_occupancy
  Cr  Cr0  1  0.839311  0.484473  0.565703  1
  Cr  Cr1  1  0.160689  0.984473  0.934297  1
  Cr  Cr2  1  0.160689  0.515527  0.434297  1
  Cr  Cr3  1  0.839311  0.015527  0.065703  1
  H  H4  1  0.428019  0.415233  0.581496  1
  H  H5  1  0.571981  0.915233  0.918504  1
  H  H6  1  0.571981  0.584767  0.418505  1
  H  H7  1  0.428019  0.084767  0.081495  1
  H  H8  1  0.672985  0.432958  0.852002  1
  H  H9  1  0.327015  0.932958  0.647998  1
  H  H10  1  0.327015  0.567042  0.147998  1
  H  H11  1  0.672985  0.067042  0.352002  1
  H  H12  1  0.792780  0.225657  0.677012  1
  H  H13  1  0.207220  0.725657  0.822988  1
  H  H14  1  0.207220  0.774343  0.322988  1
  H  H15  1  0.792780  0.274343  0.177012  1
  H  H16  1  0.613151  0.342387  0.349748  1
  H  H17  1  0.386849  0.842387  0.150252  1
  H  H18  1  0.386849  0.657613  0.650252  1
  H  H19  1  0.613151  0.157613  0.849748  1
  H  H20  1  0.534302  0.275929  0.524644  1
  H  H21  1  0.465698  0.775929  0.975356  1
  H  H22  1  0.465698  0.724071  0.475356  1
  H  H23  1  0.534302  0.224071  0.024644  1
  H  H24  1  0.445145  0.220558  0.370641  1
  H  H25  1  0.554855  0.720558  0.129359  1
  H  H26  1  0.554855  0.779442  0.629359  1
  H  H27  1  0.445145  0.279442  0.870641  1
  H  H28  1  0.192155  0.139889  0.569298  1
  H  H29  1  0.807845  0.639889  0.930702  1
  H  H30  1  0.807845  0.860111  0.430702  1
  H  H31  1  0.192155  0.360111  0.069298  1
  H  H32  1  0.281897  0.115923  0.584176  1
  H  H33  1  0.718103  0.615923  0.915824  1
  H  H34  1  0.718103  0.884077  0.415824  1
  H  H35  1  0.281897  0.384077  0.084176  1
  H  H36  1  0.779357  0.112668  0.244487  1
  H  H37  1  0.220643  0.612668  0.255513  1
  H  H38  1  0.220643  0.887332  0.755513  1
  H  H39  1  0.779357  0.387332  0.744487  1
  H  H40  1  0.021722  0.065668  0.647159  1
  H  H41  1  0.978278  0.565668  0.852841  1
  H  H42  1  0.978278  0.934332  0.352841  1
  H  H43  1  0.021722  0.434332  0.147159  1
  C  C44  1  0.249562  0.555696  0.806564  1
  C  C45  1  0.750438  0.055696  0.693436  1
  C  C46  1  0.750438  0.444304  0.193436  1
  C  C47  1  0.249562  0.944304  0.306564  1
  C  C48  1  0.172215  0.370620  0.599779  1
  C  C49  1  0.827785  0.870620  0.900221  1
  C  C50  1  0.827785  0.629380  0.400221  1
  C  C51  1  0.172215  0.129380  0.099779  1
  N  N52  1  0.569840  0.249712  0.429556  1
  N  N53  1  0.430160  0.749712  0.070444  1
  N  N54  1  0.430160  0.750288  0.570444  1
  N  N55  1  0.569840  0.250288  0.929556  1
  N  N56  1  0.604982  0.206469  0.804623  1
  N  N57  1  0.395018  0.706469  0.695377  1
  N  N58  1  0.395018  0.793531  0.195377  1
  N  N59  1  0.604982  0.293531  0.304623  1
  O  O60  1  0.036973  0.538231  0.778987  1
  O  O61  1  0.963027  0.038231  0.721013  1
  O  O62  1  0.963027  0.461769  0.221013  1
  O  O63  1  0.036973  0.961769  0.278987  1
  O  O64  1  0.308242  0.549304  0.674569  1
  O  O65  1  0.691758  0.049304  0.825431  1
  O  O66  1  0.691758  0.450696  0.325431  1
  O  O67  1  0.308242  0.950696  0.174569  1
  O  O68  1  0.348330  0.572797  0.951423  1
  O  O69  1  0.651670  0.072797  0.548577  1
  O  O70  1  0.651670  0.427203  0.048577  1
  O  O71  1  0.348330  0.927203  0.451423  1
  O  O72  1  0.006646  0.395361  0.618097  1
  O  O73  1  0.993354  0.895361  0.881903  1
  O  O74  1  0.993354  0.604639  0.381903  1
  O  O75  1  0.006646  0.104639  0.118097  1
  O  O76  1  0.280211  0.419666  0.518790  1
  O  O77  1  0.719789  0.919666  0.981210  1
  O  O78  1  0.719789  0.580334  0.481210  1
  O  O79  1  0.280211  0.080334  0.018790  1
  O  O80  1  0.255568  0.315987  0.638621  1
  O  O81  1  0.744432  0.815987  0.861379  1
  O  O82  1  0.744432  0.684013  0.361379  1
  O  O83  1  0.255568  0.184013  0.138621  1
  O  O84  1  0.685227  0.426023  0.734275  1
  O  O85  1  0.314773  0.926023  0.765725  1
  O  O86  1  0.314773  0.573977  0.265725  1
  O  O87  1  0.685227  0.073977  0.234275  1
  O  O88  1  0.818060  0.216271  0.799022  1
  O  O89  1  0.181940  0.716271  0.700978  1
  O  O90  1  0.181940  0.783729  0.200978  1
  O  O91  1  0.818060  0.283729  0.299022  1
