# generated using pymatgen
data_Li4V2CrTeO12
_symmetry_space_group_name_H-M   'P 1'
_cell_length_a   5.32189035
_cell_length_b   10.60824949
_cell_length_c   9.34571387
_cell_angle_alpha   28.50373284
_cell_angle_beta   51.48801486
_cell_angle_gamma   56.77556596
_symmetry_Int_Tables_number   1
_chemical_formula_structural   Li4V2CrTeO12
_chemical_formula_sum   'Li4 V2 Cr1 Te1 O12'
_cell_volume   197.01914237
_cell_formula_units_Z   1
loop_
 _symmetry_equiv_pos_site_id
 _symmetry_equiv_pos_as_xyz
  1  'x, y, z'
loop_
 _atom_site_type_symbol
 _atom_site_label
 _atom_site_symmetry_multiplicity
 _atom_site_fract_x
 _atom_site_fract_y
 _atom_site_fract_z
 _atom_site_occupancy
  Li  Li0  1  0.317471  0.001537  0.276433  1
  Li  Li1  1  0.274943  0.496478  0.307871  1
  Li  Li2  1  0.771242  0.996816  0.800492  1
  Li  Li3  1  0.787097  0.508328  0.756268  1
  V  V4  1  0.508590  0.995496  0.507587  1
  V  V5  1  0.519904  0.502178  0.499353  1
  Cr  Cr6  1  0.017074  0.004394  0.000964  1
  Te  Te7  1  0.001498  0.499214  0.001053  1
  O  O8  1  0.375414  0.305073  0.116088  1
  O  O9  1  0.259174  0.110776  0.620828  1
  O  O10  1  0.127922  0.310656  0.736794  1
  O  O11  1  0.873581  0.190156  0.235331  1
  O  O12  1  0.352302  0.793104  0.146977  1
  O  O13  1  0.729560  0.371164  0.375283  1
  O  O14  1  0.225023  0.624653  0.624075  1
  O  O15  1  0.628277  0.201629  0.843237  1
  O  O16  1  0.114385  0.820574  0.737103  1
  O  O17  1  0.843963  0.698355  0.242287  1
  O  O18  1  0.725912  0.890343  0.365994  1
  O  O19  1  0.617868  0.679072  0.877183  1
