# generated using pymatgen
data_Li4MnFe3(BO3)4
_symmetry_space_group_name_H-M   'P 1'
_cell_length_a   5.23693083
_cell_length_b   9.05210478
_cell_length_c   10.40760608
_cell_angle_alpha   91.16675560
_cell_angle_beta   90.88767861
_cell_angle_gamma   89.82431410
_symmetry_Int_Tables_number   1
_chemical_formula_structural   Li4MnFe3(BO3)4
_chemical_formula_sum   'Li8 Mn2 Fe6 B8 O24'
_cell_volume   493.21177336
_cell_formula_units_Z   2
loop_
 _symmetry_equiv_pos_site_id
 _symmetry_equiv_pos_as_xyz
  1  'x, y, z'
loop_
 _atom_site_type_symbol
 _atom_site_label
 _atom_site_symmetry_multiplicity
 _atom_site_fract_x
 _atom_site_fract_y
 _atom_site_fract_z
 _atom_site_occupancy
  Li  Li0  1  0.848720  0.825404  0.669399  1
  Li  Li1  1  0.815449  0.837055  0.165788  1
  Li  Li2  1  0.679239  0.668826  0.415919  1
  Li  Li3  1  0.664168  0.675761  0.916529  1
  Li  Li4  1  0.350160  0.326826  0.665809  1
  Li  Li5  1  0.312914  0.338532  0.168992  1
  Li  Li6  1  0.181175  0.169576  0.416737  1
  Li  Li7  1  0.164947  0.173634  0.917042  1
  Mn  Mn8  1  0.325513  0.000880  0.134618  1
  Mn  Mn9  1  0.167895  0.502476  0.884364  1
  Fe  Fe10  1  0.814829  0.499968  0.132993  1
  Fe  Fe11  1  0.844096  0.160191  0.631914  1
  Fe  Fe12  1  0.679539  0.333553  0.382523  1
  Fe  Fe13  1  0.661781  0.008171  0.879268  1
  Fe  Fe14  1  0.345098  0.660027  0.631575  1
  Fe  Fe15  1  0.162230  0.833863  0.385215  1
  B  B16  1  0.828365  0.169939  0.124671  1
  B  B17  1  0.839670  0.497837  0.625361  1
  B  B18  1  0.664054  0.003006  0.377465  1
  B  B19  1  0.670752  0.332277  0.875489  1
  B  B20  1  0.324917  0.667452  0.129077  1
  B  B21  1  0.336597  0.998276  0.625197  1
  B  B22  1  0.166952  0.503010  0.376268  1
  B  B23  1  0.173779  0.834943  0.874007  1
  O  O24  1  0.903828  0.516101  0.347489  1
  O  O25  1  0.911006  0.827626  0.861896  1
  O  O26  1  0.825928  0.209281  0.844915  1
  O  O27  1  0.803968  0.127277  0.417103  1
  O  O28  1  0.786106  0.867483  0.363244  1
  O  O29  1  0.781025  0.464674  0.918711  1
  O  O30  1  0.723477  0.635800  0.612614  1
  O  O31  1  0.714260  0.033495  0.094880  1
  O  O32  1  0.696978  0.370783  0.597216  1
  O  O33  1  0.680182  0.290182  0.165794  1
  O  O34  1  0.588709  0.679074  0.115351  1
  O  O35  1  0.592630  0.988271  0.663131  1
  O  O36  1  0.403704  0.014790  0.348747  1
  O  O37  1  0.409091  0.320298  0.860406  1
  O  O38  1  0.325188  0.711195  0.843651  1
  O  O39  1  0.307028  0.627503  0.416651  1
  O  O40  1  0.286127  0.367354  0.362424  1
  O  O41  1  0.292421  0.966054  0.915799  1
  O  O42  1  0.205032  0.533200  0.098161  1
  O  O43  1  0.221732  0.136010  0.613007  1
  O  O44  1  0.193747  0.870738  0.596334  1
  O  O45  1  0.181239  0.789261  0.168393  1
  O  O46  1  0.089673  0.184644  0.111231  1
  O  O47  1  0.094682  0.488020  0.664236  1
