# generated using pymatgen
data_Na2CoBAsO7
_symmetry_space_group_name_H-M   'P 1'
_cell_length_a   9.21835171
_cell_length_b   6.41568293
_cell_length_c   5.40222126
_cell_angle_alpha   90.00000000
_cell_angle_beta   87.11260079
_cell_angle_gamma   90.00000000
_symmetry_Int_Tables_number   1
_chemical_formula_structural   Na2CoBAsO7
_chemical_formula_sum   'Na4 Co2 B2 As2 O14'
_cell_volume   319.09267085
_cell_formula_units_Z   2
loop_
 _symmetry_equiv_pos_site_id
 _symmetry_equiv_pos_as_xyz
  1  'x, y, z'
loop_
 _atom_site_type_symbol
 _atom_site_label
 _atom_site_symmetry_multiplicity
 _atom_site_fract_x
 _atom_site_fract_y
 _atom_site_fract_z
 _atom_site_occupancy
  Na  Na0  1  0.221045  0.999703  0.235082  1
  Na  Na1  1  0.221045  0.500297  0.235082  1
  Na  Na2  1  0.778955  0.499703  0.764918  1
  Na  Na3  1  0.778955  0.000297  0.764918  1
  Co  Co4  1  0.333965  0.750000  0.782101  1
  Co  Co5  1  0.666035  0.250000  0.217899  1
  B  B6  1  0.079315  0.750000  0.729809  1
  B  B7  1  0.920685  0.250000  0.270191  1
  As  As8  1  0.434206  0.250000  0.713617  1
  As  As9  1  0.565794  0.750000  0.286383  1
  O  O10  1  0.061149  0.250000  0.304784  1
  O  O11  1  0.148608  0.750000  0.952989  1
  O  O12  1  0.192690  0.750000  0.543053  1
  O  O13  1  0.317456  0.046158  0.796575  1
  O  O14  1  0.317456  0.453842  0.796575  1
  O  O15  1  0.410792  0.750000  0.125892  1
  O  O16  1  0.471403  0.250000  0.396351  1
  O  O17  1  0.528597  0.750000  0.603649  1
  O  O18  1  0.589208  0.250000  0.874108  1
  O  O19  1  0.682544  0.546158  0.203425  1
  O  O20  1  0.682544  0.953842  0.203425  1
  O  O21  1  0.807310  0.250000  0.456947  1
  O  O22  1  0.851392  0.250000  0.047011  1
  O  O23  1  0.938851  0.750000  0.695216  1
