# generated using pymatgen
data_Li3V3P8O29
_symmetry_space_group_name_H-M   'P 1'
_cell_length_a   9.75855493
_cell_length_b   9.75986878
_cell_length_c   14.42754508
_cell_angle_alpha   90.50327812
_cell_angle_beta   90.06109844
_cell_angle_gamma   60.06167245
_symmetry_Int_Tables_number   1
_chemical_formula_structural   Li3V3P8O29
_chemical_formula_sum   'Li6 V6 P16 O58'
_cell_volume   1190.69953139
_cell_formula_units_Z   2
loop_
 _symmetry_equiv_pos_site_id
 _symmetry_equiv_pos_as_xyz
  1  'x, y, z'
loop_
 _atom_site_type_symbol
 _atom_site_label
 _atom_site_symmetry_multiplicity
 _atom_site_fract_x
 _atom_site_fract_y
 _atom_site_fract_z
 _atom_site_occupancy
  Li  Li0  1  0.909567  0.321326  0.557308  1
  Li  Li1  1  0.777512  0.303334  0.059483  1
  Li  Li2  1  0.309698  0.918032  0.063291  1
  Li  Li3  1  0.321202  0.771397  0.550362  1
  Li  Li4  1  0.215568  0.697323  0.950664  1
  Li  Li5  1  0.960914  0.976312  0.498047  1
  V  V6  1  0.567339  0.428546  0.253743  1
  V  V7  1  0.437734  0.565457  0.746758  1
  V  V8  1  0.569354  0.994540  0.748040  1
  V  V9  1  0.438205  0.006104  0.253567  1
  V  V10  1  0.999087  0.566967  0.248738  1
  V  V11  1  0.001672  0.437782  0.748639  1
  P  P12  1  0.913610  0.776038  0.837952  1
  P  P13  1  0.781430  0.917998  0.336818  1
  P  P14  1  0.916134  0.312208  0.343853  1
  P  P15  1  0.663776  0.663771  0.133736  1
  P  P16  1  0.665499  0.665137  0.631104  1
  P  P17  1  0.771154  0.323146  0.842168  1
  P  P18  1  0.695745  0.217916  0.665359  1
  P  P19  1  0.318850  0.911476  0.845199  1
  P  P20  1  0.690499  0.083521  0.155159  1
  P  P21  1  0.315309  0.776652  0.339372  1
  P  P22  1  0.229424  0.679618  0.162795  1
  P  P23  1  0.328726  0.338938  0.366646  1
  P  P24  1  0.335864  0.334607  0.863342  1
  P  P25  1  0.083982  0.695603  0.656473  1
  P  P26  1  0.223311  0.081772  0.665840  1
  P  P27  1  0.088381  0.223971  0.164187  1
  O  O28  1  0.012049  0.792626  0.573487  1
  O  O29  1  0.912993  0.742151  0.327645  1
  O  O30  1  0.767623  0.003498  0.067996  1
  O  O31  1  0.742496  0.915844  0.831273  1
  O  O32  1  0.905412  0.621258  0.818090  1
  O  O33  1  0.815581  0.654578  0.179135  1
  O  O34  1  0.916745  0.468590  0.329248  1
  O  O35  1  0.993228  0.225668  0.083669  1
  O  O36  1  0.916453  0.344982  0.825243  1
  O  O37  1  0.671964  0.809136  0.675860  1
  O  O38  1  0.618020  0.924352  0.328186  1
  O  O39  1  0.813482  0.511178  0.667429  1
  O  O40  1  0.664895  0.656052  0.030888  1
  O  O41  1  0.648747  0.667109  0.528629  1
  O  O42  1  0.658362  0.517521  0.175931  1
  O  O43  1  0.478593  0.902227  0.821399  1
  O  O44  1  0.519078  0.817476  0.174612  1
  O  O45  1  0.744735  0.342034  0.327426  1
  O  O46  1  0.785274  0.200177  0.762911  1
  O  O47  1  0.800647  0.204467  0.586797  1
  O  O48  1  0.761796  0.265329  0.934614  1
  O  O49  1  0.620222  0.482630  0.816991  1
  O  O50  1  0.510017  0.674994  0.675005  1
  O  O51  1  0.659533  0.257312  0.163422  1
  O  O52  1  0.471086  0.616519  0.326923  1
  O  O53  1  0.349779  0.914472  0.328108  1
  O  O54  1  0.798626  0.000263  0.245290  1
  O  O55  1  0.800009  0.995483  0.420168  1
  O  O56  1  0.212169  0.986456  0.588400  1
  O  O57  1  0.656896  0.082511  0.667097  1
  O  O58  1  0.538062  0.379804  0.672860  1
  O  O59  1  0.335954  0.743749  0.833825  1
  O  O60  1  0.481929  0.331716  0.323303  1
  O  O61  1  0.380353  0.520126  0.180291  1
  O  O62  1  0.239816  0.757513  0.075822  1
  O  O63  1  0.231061  0.791536  0.428119  1
  O  O64  1  0.206661  0.793104  0.250909  1
  O  O65  1  0.261486  0.653304  0.664423  1
  O  O66  1  0.476536  0.183158  0.819541  1
  O  O67  1  0.529628  0.091198  0.178840  1
  O  O68  1  0.340620  0.481219  0.820945  1
  O  O69  1  0.326922  0.345124  0.965680  1
  O  O70  1  0.329844  0.337643  0.469049  1
  O  O71  1  0.185315  0.485108  0.321220  1
  O  O72  1  0.384431  0.077260  0.673673  1
  O  O73  1  0.328142  0.189765  0.321600  1
  O  O74  1  0.083446  0.657508  0.165655  1
  O  O75  1  0.001291  0.797205  0.748983  1
  O  O76  1  0.003149  0.766307  0.922551  1
  O  O77  1  0.076135  0.540957  0.667799  1
  O  O78  1  0.183692  0.344068  0.815795  1
  O  O79  1  0.093205  0.379292  0.178237  1
  O  O80  1  0.260450  0.081899  0.162350  1
  O  O81  1  0.255507  0.978818  0.938226  1
  O  O82  1  0.198799  0.017617  0.764710  1
  O  O83  1  0.086350  0.256931  0.661998  1
  O  O84  1  0.976290  0.234841  0.434823  1
  O  O85  1  0.017141  0.196860  0.259937  1
