# generated using pymatgen
data_Fe3Ni2Sb(PO4)6
_symmetry_space_group_name_H-M   'P 1'
_cell_length_a   8.50535792
_cell_length_b   8.50535770
_cell_length_c   8.50535821
_cell_angle_alpha   61.00848648
_cell_angle_beta   61.00848779
_cell_angle_gamma   61.00848687
_symmetry_Int_Tables_number   1
_chemical_formula_structural   Fe3Ni2Sb(PO4)6
_chemical_formula_sum   'Fe3 Ni2 Sb1 P6 O24'
_cell_volume   444.95624102
_cell_formula_units_Z   1
loop_
 _symmetry_equiv_pos_site_id
 _symmetry_equiv_pos_as_xyz
  1  'x, y, z'
loop_
 _atom_site_type_symbol
 _atom_site_label
 _atom_site_symmetry_multiplicity
 _atom_site_fract_x
 _atom_site_fract_y
 _atom_site_fract_z
 _atom_site_occupancy
  Fe  Fe0  1  0.145324  0.145324  0.145324  1
  Fe  Fe1  1  0.355350  0.355350  0.355350  1
  Fe  Fe2  1  0.643127  0.643127  0.643127  1
  Ni  Ni3  1  0.006311  0.006311  0.006311  1
  Ni  Ni4  1  0.499534  0.499534  0.499534  1
  Sb  Sb5  1  0.857209  0.857209  0.857209  1
  P  P6  1  0.048207  0.746015  0.450879  1
  P  P7  1  0.450879  0.048207  0.746015  1
  P  P8  1  0.746015  0.450879  0.048207  1
  P  P9  1  0.253393  0.541129  0.952480  1
  P  P10  1  0.541129  0.952480  0.253393  1
  P  P11  1  0.952480  0.253393  0.541129  1
  O  O12  1  0.110347  0.312237  0.509526  1
  O  O13  1  0.312237  0.509526  0.110347  1
  O  O14  1  0.059230  0.909640  0.258242  1
  O  O15  1  0.509526  0.110347  0.312237  1
  O  O16  1  0.011782  0.814627  0.611543  1
  O  O17  1  0.244671  0.590047  0.440741  1
  O  O18  1  0.258242  0.059230  0.909640  1
  O  O19  1  0.440741  0.244671  0.590047  1
  O  O20  1  0.178827  0.390881  0.994095  1
  O  O21  1  0.590047  0.440741  0.244671  1
  O  O22  1  0.086961  0.745472  0.939921  1
  O  O23  1  0.390881  0.994095  0.178827  1
  O  O24  1  0.611543  0.011782  0.814627  1
  O  O25  1  0.909640  0.258242  0.059230  1
  O  O26  1  0.406774  0.562074  0.753882  1
  O  O27  1  0.814627  0.611543  0.011782  1
  O  O28  1  0.562074  0.753882  0.406774  1
  O  O29  1  0.745472  0.939921  0.086961  1
  O  O30  1  0.753882  0.406774  0.562074  1
  O  O31  1  0.994095  0.178827  0.390881  1
  O  O32  1  0.499994  0.888592  0.680939  1
  O  O33  1  0.939921  0.086961  0.745472  1
  O  O34  1  0.680939  0.499994  0.888592  1
  O  O35  1  0.888592  0.680939  0.499994  1
