# generated using pymatgen
data_LiFe2(PO4)2
_symmetry_space_group_name_H-M   'P 1'
_cell_length_a   7.48661037
_cell_length_b   7.57657153
_cell_length_c   9.52521842
_cell_angle_alpha   91.65242500
_cell_angle_beta   89.74852433
_cell_angle_gamma   59.97204824
_symmetry_Int_Tables_number   1
_chemical_formula_structural   LiFe2(PO4)2
_chemical_formula_sum   'Li3 Fe6 P6 O24'
_cell_volume   467.47435653
_cell_formula_units_Z   3
loop_
 _symmetry_equiv_pos_site_id
 _symmetry_equiv_pos_as_xyz
  1  'x, y, z'
loop_
 _atom_site_type_symbol
 _atom_site_label
 _atom_site_symmetry_multiplicity
 _atom_site_fract_x
 _atom_site_fract_y
 _atom_site_fract_z
 _atom_site_occupancy
  Li  Li0  1  0.056170  0.756558  0.751596  1
  Li  Li1  1  0.246818  0.940480  0.250905  1
  Li  Li2  1  0.749413  0.209585  0.759959  1
  Fe  Fe3  1  0.060274  0.390601  0.966915  1
  Fe  Fe4  1  0.537459  0.051915  0.972502  1
  Fe  Fe5  1  0.404422  0.540459  0.982535  1
  Fe  Fe6  1  0.461722  0.595072  0.477455  1
  Fe  Fe7  1  0.608360  0.954142  0.452728  1
  Fe  Fe8  1  0.932820  0.450124  0.468331  1
  P  P9  1  0.000271  0.003715  0.505323  1
  P  P10  1  0.999696  0.003492  0.005949  1
  P  P11  1  0.317811  0.338414  0.669693  1
  P  P12  1  0.327047  0.332884  0.274857  1
  P  P13  1  0.676693  0.655563  0.773555  1
  P  P14  1  0.675048  0.673901  0.174027  1
  O  O15  1  0.986158  0.005370  0.664143  1
  O  O16  1  0.004744  0.007046  0.162653  1
  O  O17  1  0.106424  0.125567  0.946514  1
  O  O18  1  0.136982  0.319642  0.610561  1
  O  O19  1  0.105711  0.471729  0.331795  1
  O  O20  1  0.397072  0.109528  0.318665  1
  O  O21  1  0.320347  0.337482  0.107228  1
  O  O22  1  0.319999  0.328540  0.836558  1
  O  O23  1  0.127154  0.783079  0.937792  1
  O  O24  1  0.295851  0.544439  0.633340  1
  O  O25  1  0.526737  0.156425  0.611911  1
  O  O26  1  0.224129  0.885129  0.445677  1
  O  O27  1  0.477016  0.396372  0.330453  1
  O  O28  1  0.466544  0.689192  0.142159  1
  O  O29  1  0.777410  0.106838  0.943855  1
  O  O30  1  0.615369  0.500451  0.819949  1
  O  O31  1  0.524301  0.874662  0.817215  1
  O  O32  1  0.687967  0.646369  0.603134  1
  O  O33  1  0.682155  0.675826  0.345699  1
  O  O34  1  0.889258  0.226408  0.450070  1
  O  O35  1  0.856715  0.470735  0.115411  1
  O  O36  1  0.689139  0.855073  0.125082  1
  O  O37  1  0.898012  0.592477  0.824686  1
  O  O38  1  0.878590  0.899083  0.444489  1
