# generated using pymatgen
data_Li3CaPCO7
_symmetry_space_group_name_H-M   'P 1'
_cell_length_a   8.92130834
_cell_length_b   6.95336513
_cell_length_c   4.92766941
_cell_angle_alpha   90.00000000
_cell_angle_beta   85.90884342
_cell_angle_gamma   90.00000000
_symmetry_Int_Tables_number   1
_chemical_formula_structural   Li3CaPCO7
_chemical_formula_sum   'Li6 Ca2 P2 C2 O14'
_cell_volume   304.89975150
_cell_formula_units_Z   2
loop_
 _symmetry_equiv_pos_site_id
 _symmetry_equiv_pos_as_xyz
  1  'x, y, z'
loop_
 _atom_site_type_symbol
 _atom_site_label
 _atom_site_symmetry_multiplicity
 _atom_site_fract_x
 _atom_site_fract_y
 _atom_site_fract_z
 _atom_site_occupancy
  Li  Li0  1  0.078010  0.250000  0.744427  1
  Li  Li1  1  0.262188  0.049621  0.231967  1
  Li  Li2  1  0.262188  0.450379  0.231967  1
  Li  Li3  1  0.737812  0.549621  0.768033  1
  Li  Li4  1  0.737812  0.950379  0.768033  1
  Li  Li5  1  0.921990  0.750000  0.255573  1
  Ca  Ca6  1  0.349277  0.750000  0.762071  1
  Ca  Ca7  1  0.650723  0.250000  0.237929  1
  P  P8  1  0.400338  0.250000  0.712691  1
  P  P9  1  0.599662  0.750000  0.287309  1
  C  C10  1  0.036535  0.750000  0.715996  1
  C  C11  1  0.963465  0.250000  0.284004  1
  O  O12  1  0.078100  0.750000  0.961963  1
  O  O13  1  0.106396  0.250000  0.331650  1
  O  O14  1  0.135044  0.750000  0.509017  1
  O  O15  1  0.312218  0.072240  0.830598  1
  O  O16  1  0.312218  0.427760  0.830598  1
  O  O17  1  0.398695  0.250000  0.395431  1
  O  O18  1  0.430533  0.750000  0.223681  1
  O  O19  1  0.569467  0.250000  0.776319  1
  O  O20  1  0.601305  0.750000  0.604569  1
  O  O21  1  0.687782  0.572240  0.169402  1
  O  O22  1  0.687782  0.927760  0.169402  1
  O  O23  1  0.864956  0.250000  0.490983  1
  O  O24  1  0.893604  0.750000  0.668350  1
  O  O25  1  0.921900  0.250000  0.038037  1
