# generated using pymatgen
data_Mn3O5F
_symmetry_space_group_name_H-M   'P 1'
_cell_length_a   7.09839434
_cell_length_b   5.44901492
_cell_length_c   5.44549842
_cell_angle_alpha   72.28405149
_cell_angle_beta   72.74781005
_cell_angle_gamma   72.81664256
_symmetry_Int_Tables_number   1
_chemical_formula_structural   Mn3O5F
_chemical_formula_sum   'Mn6 O10 F2'
_cell_volume   186.67484476
_cell_formula_units_Z   2
loop_
 _symmetry_equiv_pos_site_id
 _symmetry_equiv_pos_as_xyz
  1  'x, y, z'
loop_
 _atom_site_type_symbol
 _atom_site_label
 _atom_site_symmetry_multiplicity
 _atom_site_fract_x
 _atom_site_fract_y
 _atom_site_fract_z
 _atom_site_occupancy
  Mn  Mn0  1  0.825408  0.668260  0.683089  1
  Mn  Mn1  1  0.668156  0.332092  0.342121  1
  Mn  Mn2  1  0.333013  0.650840  0.660434  1
  Mn  Mn3  1  0.170714  0.315870  0.330986  1
  Mn  Mn4  1  0.510670  0.005260  0.008001  1
  Mn  Mn5  1  0.990618  0.021606  0.980608  1
  O  O6  1  0.664446  0.027802  0.646901  1
  O  O7  1  0.334915  0.354012  0.971685  1
  O  O8  1  0.627852  0.567632  0.566301  1
  O  O9  1  0.962005  0.231022  0.228234  1
  O  O10  1  0.701635  0.106184  0.108434  1
  O  O11  1  0.037244  0.770677  0.766870  1
  O  O12  1  0.371638  0.432041  0.428871  1
  O  O13  1  0.336236  0.964301  0.360365  1
  O  O14  1  0.663250  0.641345  0.034916  1
  O  O15  1  0.000187  0.314092  0.687479  1
  F  F16  1  0.301036  0.895320  0.897949  1
  F  F17  1  0.000978  0.701646  0.296755  1
