# generated using pymatgen
data_Li4FeTe2WO12
_symmetry_space_group_name_H-M   'P 1'
_cell_length_a   5.48864545
_cell_length_b   10.96501765
_cell_length_c   9.65370633
_cell_angle_alpha   28.35230397
_cell_angle_beta   51.21932888
_cell_angle_gamma   56.49116746
_symmetry_Int_Tables_number   1
_chemical_formula_structural   Li4FeTe2WO12
_chemical_formula_sum   'Li4 Fe1 Te2 W1 O12'
_cell_volume   215.08279454
_cell_formula_units_Z   1
loop_
 _symmetry_equiv_pos_site_id
 _symmetry_equiv_pos_as_xyz
  1  'x, y, z'
loop_
 _atom_site_type_symbol
 _atom_site_label
 _atom_site_symmetry_multiplicity
 _atom_site_fract_x
 _atom_site_fract_y
 _atom_site_fract_z
 _atom_site_occupancy
  Li  Li0  1  0.250733  0.995107  0.308847  1
  Li  Li1  1  0.317085  0.498334  0.265011  1
  Li  Li2  1  0.774011  0.008751  0.737372  1
  Li  Li3  1  0.785761  0.496055  0.814516  1
  Fe  Fe4  1  0.011559  0.500335  0.000584  1
  Te  Te5  1  0.495162  0.002804  0.500994  1
  Te  Te6  1  0.510331  0.500399  0.500109  1
  W  W7  1  0.996500  0.000839  0.003313  1
  O  O8  1  0.383467  0.293539  0.134872  1
  O  O9  1  0.229932  0.127651  0.625370  1
  O  O10  1  0.100752  0.310953  0.749733  1
  O  O11  1  0.856456  0.191428  0.242882  1
  O  O12  1  0.372546  0.826175  0.103917  1
  O  O13  1  0.719032  0.383056  0.369740  1
  O  O14  1  0.234910  0.620219  0.627401  1
  O  O15  1  0.618519  0.160558  0.899287  1
  O  O16  1  0.140807  0.828705  0.719592  1
  O  O17  1  0.896898  0.688105  0.239297  1
  O  O18  1  0.752829  0.870088  0.373974  1
  O  O19  1  0.623909  0.696899  0.854389  1
