# generated using pymatgen
data_P2H4RhO9
_symmetry_space_group_name_H-M   'P 1'
_cell_length_a   7.66722423
_cell_length_b   7.66722423
_cell_length_c   7.31117739
_cell_angle_alpha   87.78666326
_cell_angle_beta   92.21333674
_cell_angle_gamma   57.11347276
_symmetry_Int_Tables_number   1
_chemical_formula_structural   P2H4RhO9
_chemical_formula_sum   'P4 H8 Rh2 O18'
_cell_volume   359.74138162
_cell_formula_units_Z   2
loop_
 _symmetry_equiv_pos_site_id
 _symmetry_equiv_pos_as_xyz
  1  'x, y, z'
loop_
 _atom_site_type_symbol
 _atom_site_label
 _atom_site_symmetry_multiplicity
 _atom_site_fract_x
 _atom_site_fract_y
 _atom_site_fract_z
 _atom_site_occupancy
  P  P0  1  0.983132  0.719084  0.764196  1
  P  P1  1  0.719084  0.983132  0.235804  1
  P  P2  1  0.294385  0.029982  0.760793  1
  P  P3  1  0.029982  0.294385  0.239207  1
  H  H4  1  0.711225  0.060956  0.532837  1
  H  H5  1  0.060956  0.711225  0.467163  1
  H  H6  1  0.932550  0.295914  0.524255  1
  H  H7  1  0.295914  0.932550  0.475745  1
  H  H8  1  0.508689  0.565433  0.750387  1
  H  H9  1  0.565433  0.508689  0.249613  1
  H  H10  1  0.459180  0.389797  0.743481  1
  H  H11  1  0.389797  0.459180  0.256519  1
  Rh  Rh12  1  0.855625  0.160119  0.908907  1
  Rh  Rh13  1  0.160119  0.855625  0.091093  1
  O  O14  1  0.844013  0.967248  0.741824  1
  O  O15  1  0.967248  0.844013  0.258176  1
  O  O16  1  0.664861  0.148791  0.072277  1
  O  O17  1  0.148791  0.664861  0.927723  1
  O  O18  1  0.120125  0.643946  0.593500  1
  O  O19  1  0.643946  0.120125  0.406500  1
  O  O20  1  0.858577  0.626739  0.788737  1
  O  O21  1  0.626739  0.858577  0.211263  1
  O  O22  1  0.045339  0.168993  0.737081  1
  O  O23  1  0.168993  0.045339  0.262919  1
  O  O24  1  0.873907  0.350490  0.066405  1
  O  O25  1  0.350490  0.873907  0.933595  1
  O  O26  1  0.385329  0.157249  0.768952  1
  O  O27  1  0.157249  0.385329  0.231048  1
  O  O28  1  0.365525  0.875483  0.601317  1
  O  O29  1  0.875483  0.365525  0.398683  1
  O  O30  1  0.571563  0.415551  0.741442  1
  O  O31  1  0.415551  0.571563  0.258558  1
