# generated using pymatgen
data_NaAl11O17
_symmetry_space_group_name_H-M   'P 1'
_cell_length_a   5.65255955
_cell_length_b   11.79235995
_cell_length_c   5.65256029
_cell_angle_alpha   103.86708947
_cell_angle_beta   59.99999851
_cell_angle_gamma   103.86709115
_symmetry_Int_Tables_number   1
_chemical_formula_structural   NaAl11O17
_chemical_formula_sum   'Na1 Al11 O17'
_cell_volume   313.55892759
_cell_formula_units_Z   1
loop_
 _symmetry_equiv_pos_site_id
 _symmetry_equiv_pos_as_xyz
  1  'x, y, z'
loop_
 _atom_site_type_symbol
 _atom_site_label
 _atom_site_symmetry_multiplicity
 _atom_site_fract_x
 _atom_site_fract_y
 _atom_site_fract_z
 _atom_site_occupancy
  Na  Na0  1  0.827898  0.483694  0.827898  1
  Al  Al1  1  0.096206  0.784031  0.096206  1
  Al  Al2  1  0.999864  0.999590  0.999864  1
  Al  Al3  1  0.096206  0.784031  0.591620  1
  Al  Al4  1  0.591620  0.784031  0.096206  1
  Al  Al5  1  0.450417  0.351251  0.450417  1
  Al  Al6  1  0.549871  0.649613  0.549871  1
  Al  Al7  1  0.349976  0.049926  0.349976  1
  Al  Al8  1  0.649407  0.948220  0.649407  1
  Al  Al9  1  0.405732  0.214674  0.904470  1
  Al  Al10  1  0.904470  0.214674  0.405732  1
  Al  Al11  1  0.904470  0.214674  0.904470  1
  O  O12  1  0.296463  0.889388  0.296463  1
  O  O13  1  0.095324  0.285974  0.095324  1
  O  O14  1  0.278481  0.899143  0.810331  1
  O  O15  1  0.190775  0.101089  0.190775  1
  O  O16  1  0.089925  0.294152  0.602114  1
  O  O17  1  0.401100  0.708948  0.401100  1
  O  O18  1  0.602114  0.294152  0.089925  1
  O  O19  1  0.500251  0.500754  0.500251  1
  O  O20  1  0.190775  0.101089  0.719541  1
  O  O21  1  0.810331  0.899143  0.278481  1
  O  O22  1  0.401100  0.708948  0.906746  1
  O  O23  1  0.602114  0.294152  0.602114  1
  O  O24  1  0.906746  0.708948  0.401100  1
  O  O25  1  0.810331  0.899143  0.810331  1
  O  O26  1  0.719541  0.101089  0.190775  1
  O  O27  1  0.703539  0.110616  0.703539  1
  O  O28  1  0.903272  0.709814  0.903272  1
