# generated using pymatgen
data_Li3Mn2VO6
_symmetry_space_group_name_H-M   'P 1'
_cell_length_a   16.25700551
_cell_length_b   10.10004132
_cell_length_c   10.10004121
_cell_angle_alpha   16.49517606
_cell_angle_beta   16.47746629
_cell_angle_gamma   16.47746947
_symmetry_Int_Tables_number   1
_chemical_formula_structural   Li3Mn2VO6
_chemical_formula_sum   'Li3 Mn2 V1 O6'
_cell_volume   116.42170114
_cell_formula_units_Z   1
loop_
 _symmetry_equiv_pos_site_id
 _symmetry_equiv_pos_as_xyz
  1  'x, y, z'
loop_
 _atom_site_type_symbol
 _atom_site_label
 _atom_site_symmetry_multiplicity
 _atom_site_fract_x
 _atom_site_fract_y
 _atom_site_fract_z
 _atom_site_occupancy
  Li  Li0  1  0.166667  0.500000  0.500000  1
  Li  Li1  1  0.536860  0.475745  0.475745  1
  Li  Li2  1  0.796473  0.524255  0.524255  1
  Mn  Mn3  1  0.002800  0.000494  0.000494  1
  Mn  Mn4  1  0.330534  -0.000494  -0.000494  1
  V  V5  1  0.666667  0.000000  0.000000  1
  O  O6  1  0.260910  0.253196  0.253196  1
  O  O7  1  0.573686  0.261731  0.261731  1
  O  O8  1  0.072423  0.746804  0.746804  1
  O  O9  1  0.899857  0.263919  0.263919  1
  O  O10  1  0.433476  0.736081  0.736081  1
  O  O11  1  0.759647  0.738269  0.738269  1
