# generated using pymatgen
data_LiV3F10
_symmetry_space_group_name_H-M   'P 1'
_cell_length_a   7.45816020
_cell_length_b   6.56416126
_cell_length_c   7.88364985
_cell_angle_alpha   89.98623262
_cell_angle_beta   90.00030773
_cell_angle_gamma   90.00013277
_symmetry_Int_Tables_number   1
_chemical_formula_structural   LiV3F10
_chemical_formula_sum   'Li2 V6 F20'
_cell_volume   385.95641477
_cell_formula_units_Z   2
loop_
 _symmetry_equiv_pos_site_id
 _symmetry_equiv_pos_as_xyz
  1  'x, y, z'
loop_
 _atom_site_type_symbol
 _atom_site_label
 _atom_site_symmetry_multiplicity
 _atom_site_fract_x
 _atom_site_fract_y
 _atom_site_fract_z
 _atom_site_occupancy
  Li  Li0  1  0.500026  0.182815  0.250160  1
  Li  Li1  1  0.500028  0.817186  0.749839  1
  V  V2  1  0.999859  -0.000000  0.499999  1
  V  V3  1  0.000120  -0.000000  0.000001  1
  V  V4  1  0.265098  0.500002  0.499996  1
  V  V5  1  0.265312  0.500005  0.999998  1
  V  V6  1  0.734692  0.500001  0.500001  1
  V  V7  1  0.734869  0.499996  0.000001  1
  F  F8  1  0.000015  0.038690  0.749981  1
  F  F9  1  0.000016  0.961306  0.250018  1
  F  F10  1  0.000106  0.500000  0.000004  1
  F  F11  1  0.198881  0.198598  0.029092  1
  F  F12  1  0.198884  0.801401  0.970908  1
  F  F13  1  0.198617  0.198651  0.471201  1
  F  F14  1  0.198616  0.801355  0.528798  1
  F  F15  1  0.268859  0.547826  0.249988  1
  F  F16  1  0.268856  0.452175  0.750006  1
  F  F17  1  0.499894  0.333891  0.449759  1
  F  F18  1  0.499900  0.666109  0.550240  1
  F  F19  1  0.500118  0.333823  0.050333  1
  F  F20  1  0.500120  0.666178  0.949667  1
  F  F21  1  0.731119  0.452148  0.750004  1
  F  F22  1  0.731113  0.547856  0.249998  1
  F  F23  1  0.801348  0.198606  0.028746  1
  F  F24  1  0.801357  0.801391  0.971257  1
  F  F25  1  0.801147  0.198632  0.470817  1
  F  F26  1  0.801150  0.801360  0.529185  1
  F  F27  1  0.999883  0.499999  0.500003  1
