# generated using pymatgen
data_CuH8CN5Cl3
_symmetry_space_group_name_H-M   'P 1'
_cell_length_a   8.86667275
_cell_length_b   12.74363576
_cell_length_c   9.95876076
_cell_angle_alpha   90.00000000
_cell_angle_beta   96.78995065
_cell_angle_gamma   90.00000000
_symmetry_Int_Tables_number   1
_chemical_formula_structural   CuH8CN5Cl3
_chemical_formula_sum   'Cu4 H32 C4 N20 Cl12'
_cell_volume   1117.38430913
_cell_formula_units_Z   4
loop_
 _symmetry_equiv_pos_site_id
 _symmetry_equiv_pos_as_xyz
  1  'x, y, z'
loop_
 _atom_site_type_symbol
 _atom_site_label
 _atom_site_symmetry_multiplicity
 _atom_site_fract_x
 _atom_site_fract_y
 _atom_site_fract_z
 _atom_site_occupancy
  Cu  Cu0  1  0.479877  0.878289  0.119148  1
  Cu  Cu1  1  0.979877  0.621711  0.619148  1
  Cu  Cu2  1  0.520123  0.121711  0.880852  1
  Cu  Cu3  1  0.020123  0.378289  0.380852  1
  H  H4  1  0.393240  0.889690  0.492388  1
  H  H5  1  0.893240  0.610310  0.992388  1
  H  H6  1  0.606760  0.110310  0.507612  1
  H  H7  1  0.106760  0.389690  0.007612  1
  H  H8  1  0.220497  0.837259  0.502530  1
  H  H9  1  0.720497  0.662741  0.002530  1
  H  H10  1  0.779503  0.162741  0.497470  1
  H  H11  1  0.279503  0.337259  0.997470  1
  H  H12  1  0.104853  0.101552  0.370482  1
  H  H13  1  0.604853  0.398448  0.870482  1
  H  H14  1  0.895147  0.898448  0.629518  1
  H  H15  1  0.395147  0.601552  0.129518  1
  H  H16  1  0.827422  0.869218  0.867609  1
  H  H17  1  0.327422  0.630782  0.367609  1
  H  H18  1  0.172578  0.130782  0.132391  1
  H  H19  1  0.672578  0.369218  0.632391  1
  H  H20  1  0.361034  0.761713  0.856820  1
  H  H21  1  0.861034  0.738287  0.356820  1
  H  H22  1  0.638966  0.238287  0.143180  1
  H  H23  1  0.138966  0.261713  0.643180  1
  H  H24  1  0.673342  0.052097  0.705823  1
  H  H25  1  0.173342  0.447903  0.205823  1
  H  H26  1  0.326658  0.947903  0.294177  1
  H  H27  1  0.826658  0.552097  0.794177  1
  H  H28  1  0.011893  0.016946  0.530083  1
  H  H29  1  0.511893  0.483054  0.030083  1
  H  H30  1  0.988107  0.983054  0.469917  1
  H  H31  1  0.488107  0.516946  0.969917  1
  H  H32  1  0.440894  0.760818  0.839324  1
  H  H33  1  0.940894  0.739182  0.339324  1
  H  H34  1  0.559106  0.239182  0.160676  1
  H  H35  1  0.059106  0.260818  0.660676  1
  C  C36  1  0.178109  0.829907  0.154482  1
  C  C37  1  0.678109  0.670093  0.654482  1
  C  C38  1  0.821891  0.170093  0.845518  1
  C  C39  1  0.321891  0.329907  0.345518  1
  N  N40  1  0.146072  0.843869  0.274712  1
  N  N41  1  0.646072  0.656131  0.774712  1
  N  N42  1  0.853928  0.156131  0.725288  1
  N  N43  1  0.353928  0.343869  0.225288  1
  N  N44  1  0.279154  0.853190  0.059501  1
  N  N45  1  0.779154  0.646810  0.559501  1
  N  N46  1  0.720846  0.146810  0.940499  1
  N  N47  1  0.220846  0.353190  0.440499  1
  N  N48  1  0.234376  0.923718  0.340687  1
  N  N49  1  0.734376  0.576282  0.840687  1
  N  N50  1  0.765624  0.076282  0.659313  1
  N  N51  1  0.265624  0.423718  0.159313  1
  N  N52  1  0.778588  0.598193  0.976389  1
  N  N53  1  0.278588  0.901807  0.476389  1
  N  N54  1  0.221412  0.401807  0.023611  1
  N  N55  1  0.721412  0.098193  0.523611  1
  N  N56  1  0.175945  0.769957  0.044766  1
  N  N57  1  0.675945  0.730043  0.544766  1
  N  N58  1  0.824055  0.230043  0.955234  1
  N  N59  1  0.324055  0.269957  0.455234  1
  Cl  Cl60  1  0.759863  0.893015  0.973642  1
  Cl  Cl61  1  0.259863  0.606985  0.473642  1
  Cl  Cl62  1  0.240137  0.106985  0.026358  1
  Cl  Cl63  1  0.740137  0.393015  0.526358  1
  Cl  Cl64  1  0.627557  0.924990  0.288030  1
  Cl  Cl65  1  0.127557  0.575010  0.788030  1
  Cl  Cl66  1  0.372443  0.075010  0.711970  1
  Cl  Cl67  1  0.872443  0.424990  0.211970  1
  Cl  Cl68  1  0.490612  0.646186  0.220347  1
  Cl  Cl69  1  0.990612  0.853814  0.720347  1
  Cl  Cl70  1  0.509388  0.353814  0.779653  1
  Cl  Cl71  1  0.009388  0.146186  0.279653  1
