# generated using pymatgen
data_Li10Ti11Cr9O40
_symmetry_space_group_name_H-M   'P 1'
_cell_length_a   5.95284993
_cell_length_b   5.95717783
_cell_length_c   24.58701024
_cell_angle_alpha   90.23136359
_cell_angle_beta   97.03605969
_cell_angle_gamma   119.75220215
_symmetry_Int_Tables_number   1
_chemical_formula_structural   Li10Ti11Cr9O40
_chemical_formula_sum   'Li10 Ti11 Cr9 O40'
_cell_volume   749.14401958
_cell_formula_units_Z   1
loop_
 _symmetry_equiv_pos_site_id
 _symmetry_equiv_pos_as_xyz
  1  'x, y, z'
loop_
 _atom_site_type_symbol
 _atom_site_label
 _atom_site_symmetry_multiplicity
 _atom_site_fract_x
 _atom_site_fract_y
 _atom_site_fract_z
 _atom_site_occupancy
  Li  Li0  1  0.849902  0.676464  0.024164  1
  Li  Li1  1  0.949506  0.723301  0.174957  1
  Li  Li2  1  0.450494  0.476699  0.425043  1
  Li  Li3  1  0.249973  0.876361  0.625463  1
  Li  Li4  1  0.651481  0.077242  0.225480  1
  Li  Li5  1  0.748519  0.122759  0.374520  1
  Li  Li6  1  0.550098  0.523536  0.575836  1
  Li  Li7  1  0.351318  0.923723  0.775530  1
  Li  Li8  1  0.048682  0.276277  0.824470  1
  Li  Li9  1  0.150027  0.323639  0.974537  1
  Ti  Ti10  1  0.200000  0.600000  0.300000  1
  Ti  Ti11  1  0.492637  0.998386  0.999288  1
  Ti  Ti12  1  0.402505  0.205190  0.101342  1
  Ti  Ti13  1  0.902547  0.202487  0.100604  1
  Ti  Ti14  1  0.700000  0.600000  0.300000  1
  Ti  Ti15  1  0.997495  0.994810  0.498658  1
  Ti  Ti16  1  0.497453  0.997513  0.499396  1
  Ti  Ti17  1  0.601925  0.801805  0.899943  1
  Ti  Ti18  1  0.798075  0.398195  0.700057  1
  Ti  Ti19  1  0.907363  0.201614  0.600712  1
  Ti  Ti20  1  0.700000  0.600000  0.800000  1
  Cr  Cr21  1  0.399765  0.699908  0.099503  1
  Cr  Cr22  1  0.300296  0.400876  0.200391  1
  Cr  Cr23  1  0.099704  0.799124  0.399609  1
  Cr  Cr24  1  0.200000  0.100000  0.300000  1
  Cr  Cr25  1  0.000235  0.500092  0.500497  1
  Cr  Cr26  1  0.300688  0.400815  0.700214  1
  Cr  Cr27  1  0.099312  0.799185  0.899786  1
  Cr  Cr28  1  0.799308  0.899425  0.700042  1
  Cr  Cr29  1  0.600692  0.300575  0.899958  1
  O  O30  1  0.236840  0.873920  0.051544  1
  O  O31  1  0.688897  0.874710  0.051894  1
  O  O32  1  0.000574  0.744770  0.257300  1
  O  O33  1  0.201747  0.346140  0.057303  1
  O  O34  1  0.109614  0.528178  0.146313  1
  O  O35  1  0.364295  0.925947  0.346811  1
  O  O36  1  0.113236  0.078594  0.146522  1
  O  O37  1  0.565351  0.528287  0.146632  1
  O  O38  1  0.487144  0.721457  0.253911  1
  O  O39  1  0.684612  0.317736  0.052568  1
  O  O40  1  0.035705  0.274053  0.253189  1
  O  O41  1  0.399426  0.455230  0.342700  1
  O  O42  1  0.290386  0.671822  0.453687  1
  O  O43  1  0.491429  0.273522  0.253391  1
  O  O44  1  0.198253  0.853860  0.542697  1
  O  O45  1  0.597981  0.053271  0.142382  1
  O  O46  1  0.908571  0.926478  0.346609  1
  O  O47  1  0.163160  0.326080  0.548456  1
  O  O48  1  0.715388  0.882264  0.547432  1
  O  O49  1  0.912856  0.478543  0.346089  1
  O  O50  1  0.286764  0.121406  0.453478  1
  O  O51  1  0.079359  0.517340  0.651611  1
  O  O52  1  0.834649  0.671713  0.453368  1
  O  O53  1  0.082044  0.067698  0.650924  1
  O  O54  1  0.711103  0.325290  0.548106  1
  O  O55  1  0.802019  0.146729  0.457618  1
  O  O56  1  0.518252  0.731640  0.748962  1
  O  O57  1  0.608376  0.548198  0.657726  1
  O  O58  1  0.408624  0.948111  0.857905  1
  O  O59  1  0.964801  0.727050  0.748399  1
  O  O60  1  0.520847  0.282522  0.748197  1
  O  O61  1  0.320641  0.682660  0.948389  1
  O  O62  1  0.435199  0.472950  0.851601  1
  O  O63  1  0.879153  0.917478  0.851803  1
  O  O64  1  0.635384  0.072953  0.651564  1
  O  O65  1  0.881748  0.468360  0.851038  1
  O  O66  1  0.991376  0.251889  0.742095  1
  O  O67  1  0.791624  0.651802  0.942274  1
  O  O68  1  0.317956  0.132302  0.949076  1
  O  O69  1  0.764616  0.127047  0.948436  1
