# generated using pymatgen
data_RbP(HO2)2
_symmetry_space_group_name_H-M   'P 1'
_cell_length_a   9.42381514
_cell_length_b   6.53382711
_cell_length_c   8.36102104
_cell_angle_alpha   90.00000000
_cell_angle_beta   112.55758878
_cell_angle_gamma   90.00000000
_symmetry_Int_Tables_number   1
_chemical_formula_structural   RbP(HO2)2
_chemical_formula_sum   'Rb4 P4 H8 O16'
_cell_volume   475.43154230
_cell_formula_units_Z   4
loop_
 _symmetry_equiv_pos_site_id
 _symmetry_equiv_pos_as_xyz
  1  'x, y, z'
loop_
 _atom_site_type_symbol
 _atom_site_label
 _atom_site_symmetry_multiplicity
 _atom_site_fract_x
 _atom_site_fract_y
 _atom_site_fract_z
 _atom_site_occupancy
  Rb  Rb0  1  0.779148  0.237022  0.257214  1
  Rb  Rb1  1  0.720852  0.737022  0.742786  1
  Rb  Rb2  1  0.220852  0.762978  0.742786  1
  Rb  Rb3  1  0.279148  0.262978  0.257214  1
  P  P4  1  0.986334  0.291105  0.732014  1
  P  P5  1  0.513666  0.791105  0.267986  1
  P  P6  1  0.013666  0.708895  0.267986  1
  P  P7  1  0.486334  0.208895  0.732014  1
  H  H8  1  0.962371  0.922585  0.061370  1
  H  H9  1  0.537629  0.422585  0.938630  1
  H  H10  1  0.037629  0.077415  0.938630  1
  H  H11  1  0.462371  0.577415  0.061370  1
  H  H12  1  0.839703  0.783597  0.384259  1
  H  H13  1  0.660297  0.283597  0.615741  1
  H  H14  1  0.160297  0.216403  0.615741  1
  H  H15  1  0.339703  0.716403  0.384259  1
  O  O16  1  0.954748  0.752611  0.419236  1
  O  O17  1  0.545252  0.252611  0.580764  1
  O  O18  1  0.045252  0.247389  0.580764  1
  O  O19  1  0.454748  0.747389  0.419236  1
  O  O20  1  0.404491  0.918236  0.123534  1
  O  O21  1  0.095509  0.418236  0.876466  1
  O  O22  1  0.595509  0.081764  0.876466  1
  O  O23  1  0.904491  0.581764  0.123534  1
  O  O24  1  0.179551  0.642334  0.358860  1
  O  O25  1  0.320449  0.142334  0.641140  1
  O  O26  1  0.820449  0.357666  0.641140  1
  O  O27  1  0.679551  0.857666  0.358860  1
  O  O28  1  0.514351  0.558001  0.185996  1
  O  O29  1  0.985649  0.058001  0.814004  1
  O  O30  1  0.485649  0.441999  0.814004  1
  O  O31  1  0.014351  0.941999  0.185996  1
