# generated using pymatgen
data_LiFePO5
_symmetry_space_group_name_H-M   'P 1'
_cell_length_a   5.31996451
_cell_length_b   10.65976606
_cell_length_c   7.16529057
_cell_angle_alpha   70.78411001
_cell_angle_beta   68.20840688
_cell_angle_gamma   75.55001608
_symmetry_Int_Tables_number   1
_chemical_formula_structural   LiFePO5
_chemical_formula_sum   'Li4 Fe4 P4 O20'
_cell_volume   352.50408122
_cell_formula_units_Z   4
loop_
 _symmetry_equiv_pos_site_id
 _symmetry_equiv_pos_as_xyz
  1  'x, y, z'
loop_
 _atom_site_type_symbol
 _atom_site_label
 _atom_site_symmetry_multiplicity
 _atom_site_fract_x
 _atom_site_fract_y
 _atom_site_fract_z
 _atom_site_occupancy
  Li  Li0  1  0.510223  0.000000  0.500000  1
  Li  Li1  1  0.000000  0.250000  0.750000  1
  Li  Li2  1  0.489777  0.500000  0.000000  1
  Li  Li3  1  0.500000  0.750000  0.250000  1
  Fe  Fe4  1  0.500000  0.250000  0.750000  1
  Fe  Fe5  1  0.500000  0.250000  0.250000  1
  Fe  Fe6  1  0.500000  0.750000  0.750000  1
  Fe  Fe7  1  0.000000  0.750000  0.250000  1
  P  P8  1  0.129428  0.065960  0.185878  1
  P  P9  1  0.118735  0.565960  0.685878  1
  P  P10  1  0.870572  0.434040  0.314122  1
  P  P11  1  0.881265  0.934040  0.814122  1
  O  O12  1  0.817639  0.086582  0.785450  1
  O  O13  1  0.211918  0.146315  0.951966  1
  O  O14  1  0.592023  0.291762  0.953510  1
  O  O15  1  0.291161  0.102605  0.297217  1
  O  O16  1  0.816764  0.103317  0.277431  1
  O  O17  1  0.407977  0.208238  0.546490  1
  O  O18  1  0.182361  0.413418  0.714550  1
  O  O19  1  0.788082  0.353685  0.548034  1
  O  O20  1  0.809017  0.602605  0.797217  1
  O  O21  1  0.302488  0.603317  0.777431  1
  O  O22  1  0.708839  0.397395  0.202783  1
  O  O23  1  0.183236  0.396683  0.222569  1
  O  O24  1  0.810327  0.586582  0.285450  1
  O  O25  1  0.189801  0.646315  0.451966  1
  O  O26  1  0.662705  0.791762  0.453510  1
  O  O27  1  0.190983  0.897395  0.702783  1
  O  O28  1  0.697512  0.896683  0.722569  1
  O  O29  1  0.337295  0.708238  0.046490  1
  O  O30  1  0.810199  0.853685  0.048034  1
  O  O31  1  0.189673  0.913418  0.214550  1
