# generated using pymatgen
data_LiFeSiO4
_symmetry_space_group_name_H-M   'P 1'
_cell_length_a   5.16942285
_cell_length_b   5.42866906
_cell_length_c   8.80782118
_cell_angle_alpha   89.97890156
_cell_angle_beta   89.95410747
_cell_angle_gamma   61.56791312
_symmetry_Int_Tables_number   1
_chemical_formula_structural   LiFeSiO4
_chemical_formula_sum   'Li2 Fe2 Si2 O8'
_cell_volume   217.36088003
_cell_formula_units_Z   2
loop_
 _symmetry_equiv_pos_site_id
 _symmetry_equiv_pos_as_xyz
  1  'x, y, z'
loop_
 _atom_site_type_symbol
 _atom_site_label
 _atom_site_symmetry_multiplicity
 _atom_site_fract_x
 _atom_site_fract_y
 _atom_site_fract_z
 _atom_site_occupancy
  Li  Li0  1  0.148905  0.621451  0.507575  1
  Li  Li1  1  0.770329  0.378576  0.007577  1
  Fe  Fe2  1  0.295182  0.343288  0.818962  1
  Fe  Fe3  1  0.638499  0.656714  0.318964  1
  Si  Si4  1  0.299550  0.334548  0.193603  1
  Si  Si5  1  0.634092  0.665462  0.693600  1
  O  O6  1  0.511847  0.014588  0.248299  1
  O  O7  1  0.399766  0.381228  0.022288  1
  O  O8  1  0.332813  0.553672  0.313033  1
  O  O9  1  0.356343  0.595431  0.690354  1
  O  O10  1  0.526431  0.985400  0.748294  1
  O  O11  1  0.781002  0.618773  0.522295  1
  O  O12  1  0.886459  0.446324  0.813031  1
  O  O13  1  0.951794  0.404566  0.190356  1
