# generated using pymatgen
data_LiSi4NiO10
_symmetry_space_group_name_H-M   'P 1'
_cell_length_a   11.42887692
_cell_length_b   5.17931243
_cell_length_c   7.81520152
_cell_angle_alpha   90.00000000
_cell_angle_beta   73.75197825
_cell_angle_gamma   90.00000000
_symmetry_Int_Tables_number   1
_chemical_formula_structural   LiSi4NiO10
_chemical_formula_sum   'Li2 Si8 Ni2 O20'
_cell_volume   444.13398094
_cell_formula_units_Z   2
loop_
 _symmetry_equiv_pos_site_id
 _symmetry_equiv_pos_as_xyz
  1  'x, y, z'
loop_
 _atom_site_type_symbol
 _atom_site_label
 _atom_site_symmetry_multiplicity
 _atom_site_fract_x
 _atom_site_fract_y
 _atom_site_fract_z
 _atom_site_occupancy
  Li  Li0  1  0.250000  0.258777  0.750000  1
  Li  Li1  1  0.750000  0.741223  0.250000  1
  Si  Si2  1  -0.000287  0.476385  0.706821  1
  Si  Si3  1  0.148673  0.021233  0.144938  1
  Si  Si4  1  0.351327  0.021233  0.355062  1
  Si  Si5  1  0.500287  0.476385  0.793179  1
  Si  Si6  1  0.499713  0.523615  0.206821  1
  Si  Si7  1  0.648673  0.978767  0.644938  1
  Si  Si8  1  0.851327  0.978767  0.855062  1
  Si  Si9  1  0.000287  0.523615  0.293179  1
  Ni  Ni10  1  0.250000  0.758323  0.750000  1
  Ni  Ni11  1  0.750000  0.241677  0.250000  1
  O  O12  1  0.000000  0.500000  0.500000  1
  O  O13  1  0.135665  0.520453  0.727380  1
  O  O14  1  0.209238  0.996954  0.931410  1
  O  O15  1  0.037437  0.816285  0.218848  1
  O  O16  1  0.098672  0.317387  0.177100  1
  O  O17  1  0.290762  0.996954  0.568590  1
  O  O18  1  0.364335  0.520453  0.772620  1
  O  O19  1  0.250000  0.965777  0.250000  1
  O  O20  1  0.401328  0.317387  0.322900  1
  O  O21  1  0.537437  0.183715  0.718848  1
  O  O22  1  0.462563  0.816285  0.281152  1
  O  O23  1  0.598672  0.682613  0.677100  1
  O  O24  1  0.500000  0.500000  0.000000  1
  O  O25  1  0.750000  0.034223  0.750000  1
  O  O26  1  0.635665  0.479547  0.227380  1
  O  O27  1  0.709238  0.003046  0.431410  1
  O  O28  1  0.901328  0.682613  0.822900  1
  O  O29  1  0.962563  0.183715  0.781152  1
  O  O30  1  0.790762  0.003046  0.068590  1
  O  O31  1  0.864335  0.479547  0.272620  1
