# generated using pymatgen
data_NaHoO2
_symmetry_space_group_name_H-M   'P 1'
_cell_length_a   8.31482234
_cell_length_b   8.31482234
_cell_length_c   6.09725872
_cell_angle_alpha   59.56318076
_cell_angle_beta   120.43681924
_cell_angle_gamma   74.39703726
_symmetry_Int_Tables_number   1
_chemical_formula_structural   NaHoO2
_chemical_formula_sum   'Na4 Ho4 O8'
_cell_volume   221.59652210
_cell_formula_units_Z   4
loop_
 _symmetry_equiv_pos_site_id
 _symmetry_equiv_pos_as_xyz
  1  'x, y, z'
loop_
 _atom_site_type_symbol
 _atom_site_label
 _atom_site_symmetry_multiplicity
 _atom_site_fract_x
 _atom_site_fract_y
 _atom_site_fract_z
 _atom_site_occupancy
  Na  Na0  1  0.694262  0.694262  0.750000  1
  Na  Na1  1  0.930089  0.930089  0.750000  1
  Na  Na2  1  0.069911  0.069911  0.250000  1
  Na  Na3  1  0.305738  0.305738  0.250000  1
  Ho  Ho4  1  0.182847  0.182847  0.750000  1
  Ho  Ho5  1  0.443198  0.443198  0.750000  1
  Ho  Ho6  1  0.817153  0.817153  0.250000  1
  Ho  Ho7  1  0.556802  0.556802  0.250000  1
  O  O8  1  0.209949  0.666261  0.749470  1
  O  O9  1  0.436625  0.936395  0.796454  1
  O  O10  1  0.333739  0.790051  0.249470  1
  O  O11  1  0.063605  0.563375  0.296454  1
  O  O12  1  0.936395  0.436625  0.703546  1
  O  O13  1  0.666261  0.209949  0.750530  1
  O  O14  1  0.563375  0.063605  0.203546  1
  O  O15  1  0.790051  0.333739  0.250530  1
