# generated using pymatgen
data_V2O3F
_symmetry_space_group_name_H-M   'P 1'
_cell_length_a   7.09110286
_cell_length_b   5.58839437
_cell_length_c   5.58839437
_cell_angle_alpha   75.85896376
_cell_angle_beta   73.21961580
_cell_angle_gamma   73.21961580
_symmetry_Int_Tables_number   1
_chemical_formula_structural   V2O3F
_chemical_formula_sum   'V6 O9 F3'
_cell_volume   199.84374073
_cell_formula_units_Z   3
loop_
 _symmetry_equiv_pos_site_id
 _symmetry_equiv_pos_as_xyz
  1  'x, y, z'
loop_
 _atom_site_type_symbol
 _atom_site_label
 _atom_site_symmetry_multiplicity
 _atom_site_fract_x
 _atom_site_fract_y
 _atom_site_fract_z
 _atom_site_occupancy
  V  V0  1  0.833179  0.663006  0.670576  1
  V  V1  1  0.667389  0.372660  0.293057  1
  V  V2  1  0.332610  0.706943  0.627340  1
  V  V3  1  0.166821  0.329424  0.336994  1
  V  V4  1  0.500000  0.994838  0.005162  1
  V  V5  1  0.000000  0.952939  0.047061  1
  O  O6  1  0.961864  0.226986  0.233644  1
  O  O7  1  0.628540  0.563549  0.564820  1
  O  O8  1  0.294293  0.898548  0.898296  1
  O  O9  1  0.705707  0.101704  0.101452  1
  O  O10  1  0.038136  0.766356  0.773014  1
  O  O11  1  0.371460  0.435180  0.436451  1
  O  O12  1  0.667404  0.634796  0.032440  1
  O  O13  1  0.332596  0.967560  0.365204  1
  O  O14  1  0.000000  0.692094  0.307906  1
  F  F15  1  0.665076  0.032171  0.634381  1
  F  F16  1  0.334924  0.365619  0.967829  1
  F  F17  1  0.000000  0.295627  0.704373  1
