# generated using pymatgen
data_LiCoPO4
_symmetry_space_group_name_H-M   'P 1'
_cell_length_a   7.58550629
_cell_length_b   7.58596297
_cell_length_c   9.71994999
_cell_angle_alpha   90.00204364
_cell_angle_beta   89.99897464
_cell_angle_gamma   120.00199483
_symmetry_Int_Tables_number   1
_chemical_formula_structural   LiCoPO4
_chemical_formula_sum   'Li6 Co6 P6 O24'
_cell_volume   484.37444623
_cell_formula_units_Z   6
loop_
 _symmetry_equiv_pos_site_id
 _symmetry_equiv_pos_as_xyz
  1  'x, y, z'
loop_
 _atom_site_type_symbol
 _atom_site_label
 _atom_site_symmetry_multiplicity
 _atom_site_fract_x
 _atom_site_fract_y
 _atom_site_fract_z
 _atom_site_occupancy
  Li  Li0  1  0.056458  0.590936  0.486732  1
  Li  Li1  1  0.534509  0.943580  0.486734  1
  Li  Li2  1  0.409068  0.465499  0.486773  1
  Li  Li3  1  0.465491  0.409071  0.986734  1
  Li  Li4  1  0.590932  0.056431  0.986773  1
  Li  Li5  1  0.943542  0.534478  0.986732  1
  Co  Co6  1  0.223811  0.949465  0.267068  1
  Co  Co7  1  0.050524  0.274344  0.267073  1
  Co  Co8  1  0.274332  0.050510  0.767066  1
  Co  Co9  1  0.725668  0.776178  0.267066  1
  Co  Co10  1  0.776189  0.725655  0.767068  1
  Co  Co11  1  0.949476  0.223819  0.767073  1
  P  P12  1  0.333354  0.666691  0.185830  1
  P  P13  1  0.000036  0.000049  0.001064  1
  P  P14  1  -0.000036  0.000013  0.501064  1
  P  P15  1  0.333346  0.666655  0.769972  1
  P  P16  1  0.666646  0.333335  0.685830  1
  P  P17  1  0.666654  0.333310  0.269972  1
  O  O18  1  0.085433  0.864926  0.449274  1
  O  O19  1  0.190730  0.744410  0.131049  1
  O  O20  1  0.376864  0.876435  0.828548  1
  O  O21  1  0.123601  0.500455  0.828549  1
  O  O22  1  0.255579  0.446281  0.131052  1
  O  O23  1  0.333313  0.666664  0.344309  1
  O  O24  1  0.000007  0.000019  0.165888  1
  O  O25  1  0.999993  0.000011  0.665888  1
  O  O26  1  0.333348  0.666657  0.612017  1
  O  O27  1  0.135067  0.220496  0.449276  1
  O  O28  1  0.220473  0.135057  0.949273  1
  O  O29  1  0.553688  0.809253  0.131065  1
  O  O30  1  0.499565  0.623171  0.828556  1
  O  O31  1  0.779527  0.914583  0.449273  1
  O  O32  1  0.446312  0.255565  0.631065  1
  O  O33  1  0.500435  0.123607  0.328556  1
  O  O34  1  0.623136  0.499571  0.328548  1
  O  O35  1  0.809270  0.553680  0.631049  1
  O  O36  1  0.666687  0.333351  0.844309  1
  O  O37  1  0.666652  0.333310  0.112017  1
  O  O38  1  0.914567  0.779493  0.949274  1
  O  O39  1  0.744421  0.190702  0.631052  1
  O  O40  1  0.876399  0.376854  0.328549  1
  O  O41  1  0.864933  0.085430  0.949276  1
