# generated using pymatgen
data_Na5Cr2P(CO4)4
_symmetry_space_group_name_H-M   'P 1'
_cell_length_a   9.88391398
_cell_length_b   9.75869364
_cell_length_c   9.88391398
_cell_angle_alpha   60.34063007
_cell_angle_beta   89.33319571
_cell_angle_gamma   119.65936993
_symmetry_Int_Tables_number   1
_chemical_formula_structural   Na5Cr2P(CO4)4
_chemical_formula_sum   'Na10 Cr4 P2 C8 O32'
_cell_volume   677.09355272
_cell_formula_units_Z   2
loop_
 _symmetry_equiv_pos_site_id
 _symmetry_equiv_pos_as_xyz
  1  'x, y, z'
loop_
 _atom_site_type_symbol
 _atom_site_label
 _atom_site_symmetry_multiplicity
 _atom_site_fract_x
 _atom_site_fract_y
 _atom_site_fract_z
 _atom_site_occupancy
  Na  Na0  1  0.917381  0.236642  0.337729  1
  Na  Na1  1  0.662530  0.343090  0.082742  1
  Na  Na2  1  0.662271  0.736642  0.082619  1
  Na  Na3  1  0.923821  0.250000  0.923821  1
  Na  Na4  1  0.917258  0.843090  0.337470  1
  Na  Na5  1  0.076179  0.750000  0.076179  1
  Na  Na6  1  0.082742  0.156910  0.662530  1
  Na  Na7  1  0.337729  0.263358  0.917381  1
  Na  Na8  1  0.337470  0.656910  0.917258  1
  Na  Na9  1  0.082619  0.763358  0.662271  1
  Cr  Cr10  1  0.500000  0.000000  0.000000  1
  Cr  Cr11  1  0.500000  0.000000  0.500000  1
  Cr  Cr12  1  0.500000  0.500000  0.500000  1
  Cr  Cr13  1  0.000000  0.500000  0.500000  1
  P  P14  1  0.127529  0.250000  0.127529  1
  P  P15  1  0.872471  0.750000  0.872471  1
  C  C16  1  0.711426  0.072995  0.712913  1
  C  C17  1  0.715446  0.427341  0.361212  1
  C  C18  1  0.361212  0.072659  0.715446  1
  C  C19  1  0.712913  0.427005  0.711426  1
  C  C20  1  0.638788  0.927341  0.284554  1
  C  C21  1  0.287087  0.572995  0.288574  1
  C  C22  1  0.284554  0.572659  0.638788  1
  C  C23  1  0.288574  0.927005  0.287087  1
  O  O24  1  0.643586  0.047016  0.139477  1
  O  O25  1  0.691251  0.285404  0.358261  1
  O  O26  1  0.856808  0.212849  0.598258  1
  O  O27  1  0.406562  0.038873  0.312953  1
  O  O28  1  0.860523  0.547016  0.356414  1
  O  O29  1  0.318648  0.380714  0.056538  1
  O  O30  1  0.061054  0.118961  0.061863  1
  O  O31  1  0.601490  0.455820  0.359863  1
  O  O32  1  0.688420  0.043726  0.857888  1
  O  O33  1  0.359863  0.044180  0.601490  1
  O  O34  1  0.857888  0.456274  0.688420  1
  O  O35  1  0.061863  0.381039  0.061054  1
  O  O36  1  0.056538  0.119286  0.318648  1
  O  O37  1  0.641739  0.785404  0.308749  1
  O  O38  1  0.401742  0.712849  0.143192  1
  O  O39  1  0.687047  0.538873  0.593438  1
  O  O40  1  0.312953  0.461127  0.406562  1
  O  O41  1  0.598258  0.287151  0.856808  1
  O  O42  1  0.358261  0.214596  0.691251  1
  O  O43  1  0.938137  0.618961  0.938946  1
  O  O44  1  0.943462  0.880714  0.681352  1
  O  O45  1  0.142112  0.543726  0.311580  1
  O  O46  1  0.640137  0.955820  0.398510  1
  O  O47  1  0.311580  0.956274  0.142112  1
  O  O48  1  0.398510  0.544180  0.640137  1
  O  O49  1  0.938946  0.881039  0.938137  1
  O  O50  1  0.681352  0.619286  0.943462  1
  O  O51  1  0.139477  0.452984  0.643586  1
  O  O52  1  0.593438  0.961127  0.687047  1
  O  O53  1  0.308749  0.714596  0.641739  1
  O  O54  1  0.143192  0.787151  0.401742  1
  O  O55  1  0.356414  0.952984  0.860523  1
