# generated using pymatgen
data_Na6Bi2B4AsO16
_symmetry_space_group_name_H-M   'P 1'
_cell_length_a   10.28802330
_cell_length_b   10.28802250
_cell_length_c   10.28802249
_cell_angle_alpha   60.00000229
_cell_angle_beta   60.00000062
_cell_angle_gamma   60.00000065
_symmetry_Int_Tables_number   1
_chemical_formula_structural   Na6Bi2B4AsO16
_chemical_formula_sum   'Na12 Bi4 B8 As2 O32'
_cell_volume   769.98233831
_cell_formula_units_Z   2
loop_
 _symmetry_equiv_pos_site_id
 _symmetry_equiv_pos_as_xyz
  1  'x, y, z'
loop_
 _atom_site_type_symbol
 _atom_site_label
 _atom_site_symmetry_multiplicity
 _atom_site_fract_x
 _atom_site_fract_y
 _atom_site_fract_z
 _atom_site_occupancy
  Na  Na0  1  0.079643  0.670357  0.079643  1
  Na  Na1  1  0.079643  0.079643  0.670357  1
  Na  Na2  1  0.079643  0.670357  0.670357  1
  Na  Na3  1  0.670357  0.079643  0.079643  1
  Na  Na4  1  0.329643  0.920357  0.329643  1
  Na  Na5  1  0.329643  0.329643  0.920357  1
  Na  Na6  1  0.670357  0.670357  0.079643  1
  Na  Na7  1  0.670357  0.079643  0.670357  1
  Na  Na8  1  0.920357  0.329643  0.329643  1
  Na  Na9  1  0.329643  0.920357  0.920357  1
  Na  Na10  1  0.920357  0.329643  0.920357  1
  Na  Na11  1  0.920357  0.920357  0.329643  1
  Bi  Bi12  1  0.000000  0.500000  0.500000  1
  Bi  Bi13  1  0.500000  0.500000  0.000000  1
  Bi  Bi14  1  0.500000  0.000000  0.500000  1
  Bi  Bi15  1  0.500000  0.500000  0.500000  1
  B  B16  1  0.281039  0.281039  0.281039  1
  B  B17  1  0.281039  0.656882  0.281039  1
  B  B18  1  0.281039  0.281039  0.656882  1
  B  B19  1  0.656882  0.281039  0.281039  1
  B  B20  1  0.343118  0.718961  0.718961  1
  B  B21  1  0.718961  0.718961  0.343118  1
  B  B22  1  0.718961  0.343118  0.718961  1
  B  B23  1  0.718961  0.718961  0.718961  1
  As  As24  1  0.125000  0.125000  0.125000  1
  As  As25  1  0.875000  0.875000  0.875000  1
  O  O26  1  0.056511  0.056511  0.056511  1
  O  O27  1  0.056511  0.056511  0.330467  1
  O  O28  1  0.056511  0.330467  0.056511  1
  O  O29  1  0.330467  0.056511  0.056511  1
  O  O30  1  0.138445  0.407520  0.294213  1
  O  O31  1  0.294213  0.138445  0.407520  1
  O  O32  1  0.138445  0.294213  0.659822  1
  O  O33  1  0.407520  0.294213  0.138445  1
  O  O34  1  0.138445  0.659822  0.407520  1
  O  O35  1  0.294213  0.659822  0.138445  1
  O  O36  1  0.407520  0.138445  0.659822  1
  O  O37  1  0.294213  0.407520  0.659822  1
  O  O38  1  0.659822  0.138445  0.294213  1
  O  O39  1  0.407520  0.659822  0.294213  1
  O  O40  1  0.659822  0.407520  0.138445  1
  O  O41  1  0.340178  0.705787  0.592480  1
  O  O42  1  0.659822  0.294213  0.407520  1
  O  O43  1  0.340178  0.592480  0.861555  1
  O  O44  1  0.592480  0.340178  0.705787  1
  O  O45  1  0.340178  0.861555  0.705787  1
  O  O46  1  0.705787  0.592480  0.340178  1
  O  O47  1  0.592480  0.861555  0.340178  1
  O  O48  1  0.705787  0.340178  0.861555  1
  O  O49  1  0.861555  0.340178  0.592480  1
  O  O50  1  0.592480  0.705787  0.861555  1
  O  O51  1  0.861555  0.705787  0.340178  1
  O  O52  1  0.705787  0.861555  0.592480  1
  O  O53  1  0.861555  0.592480  0.705787  1
  O  O54  1  0.669533  0.943489  0.943489  1
  O  O55  1  0.943489  0.669533  0.943489  1
  O  O56  1  0.943489  0.943489  0.669533  1
  O  O57  1  0.943489  0.943489  0.943489  1
