# generated using pymatgen
data_Na2CdO3
_symmetry_space_group_name_H-M   'P 1'
_cell_length_a   6.69317483
_cell_length_b   5.81042451
_cell_length_c   11.09976576
_cell_angle_alpha   85.08069909
_cell_angle_beta   154.63282660
_cell_angle_gamma   106.79149720
_symmetry_Int_Tables_number   1
_chemical_formula_structural   Na2CdO3
_chemical_formula_sum   'Na4 Cd2 O6'
_cell_volume   160.06805549
_cell_formula_units_Z   2
loop_
 _symmetry_equiv_pos_site_id
 _symmetry_equiv_pos_as_xyz
  1  'x, y, z'
loop_
 _atom_site_type_symbol
 _atom_site_label
 _atom_site_symmetry_multiplicity
 _atom_site_fract_x
 _atom_site_fract_y
 _atom_site_fract_z
 _atom_site_occupancy
  Na  Na0  1  0.500172  0.500627  0.000051  1
  Na  Na1  1  0.176136  0.176628  0.337990  1
  Na  Na2  1  0.823255  0.824008  0.661522  1
  Na  Na3  1  0.999792  0.500098  0.999798  1
  Cd  Cd4  1  0.332251  0.832485  0.666111  1
  Cd  Cd5  1  0.667571  0.167921  0.333759  1
  O  O6  1  0.360645  0.143374  0.793650  1
  O  O7  1  0.639420  0.857288  0.206355  1
  O  O8  1  0.213668  0.500231  0.491420  1
  O  O9  1  0.074391  0.857006  0.150557  1
  O  O10  1  0.925230  0.143058  0.849259  1
  O  O11  1  0.785797  0.500230  0.508175  1
