# generated using pymatgen
data_Ca2Al2FeSi3HO13
_symmetry_space_group_name_H-M   'P 1'
_cell_length_a   9.00140407
_cell_length_b   5.71789551
_cell_length_c   10.25793288
_cell_angle_alpha   90.00000000
_cell_angle_beta   115.35447661
_cell_angle_gamma   90.00000000
_symmetry_Int_Tables_number   1
_chemical_formula_structural   Ca2Al2FeSi3HO13
_chemical_formula_sum   'Ca4 Al4 Fe2 Si6 H2 O26'
_cell_volume   477.11050909
_cell_formula_units_Z   2
loop_
 _symmetry_equiv_pos_site_id
 _symmetry_equiv_pos_as_xyz
  1  'x, y, z'
loop_
 _atom_site_type_symbol
 _atom_site_label
 _atom_site_symmetry_multiplicity
 _atom_site_fract_x
 _atom_site_fract_y
 _atom_site_fract_z
 _atom_site_occupancy
  Ca  Ca0  1  0.755156  0.750000  0.150749  1
  Ca  Ca1  1  0.244844  0.250000  0.849251  1
  Ca  Ca2  1  0.605909  0.750000  0.423816  1
  Ca  Ca3  1  0.394091  0.250000  0.576184  1
  Al  Al4  1  0.000000  0.500000  0.000000  1
  Al  Al5  1  0.000000  0.000000  0.000000  1
  Al  Al6  1  0.000000  0.500000  0.500000  1
  Al  Al7  1  0.000000  0.000000  0.500000  1
  Fe  Fe8  1  0.293894  0.250000  0.225113  1
  Fe  Fe9  1  0.706106  0.750000  0.774887  1
  Si  Si10  1  0.339038  0.750000  0.047474  1
  Si  Si11  1  0.660962  0.250000  0.952526  1
  Si  Si12  1  0.686216  0.250000  0.274855  1
  Si  Si13  1  0.313784  0.750000  0.725145  1
  Si  Si14  1  0.183536  0.750000  0.318732  1
  Si  Si15  1  0.816464  0.250000  0.681268  1
  H  H16  1  0.054708  0.250000  0.325732  1
  H  H17  1  0.945292  0.750000  0.674268  1
  O  O18  1  0.232623  0.507011  0.039291  1
  O  O19  1  0.767377  0.007011  0.960709  1
  O  O20  1  0.767377  0.492989  0.960709  1
  O  O21  1  0.232623  0.992989  0.039291  1
  O  O22  1  0.304735  0.519849  0.357255  1
  O  O23  1  0.695265  0.019849  0.642745  1
  O  O24  1  0.695265  0.480151  0.642745  1
  O  O25  1  0.304735  0.980151  0.357255  1
  O  O26  1  0.796441  0.486247  0.338579  1
  O  O27  1  0.203559  0.986247  0.661421  1
  O  O28  1  0.203559  0.513753  0.661421  1
  O  O29  1  0.796441  0.013753  0.338579  1
  O  O30  1  0.051273  0.250000  0.128491  1
  O  O31  1  0.948727  0.750000  0.871509  1
  O  O32  1  0.041546  0.750000  0.145864  1
  O  O33  1  0.958454  0.250000  0.854136  1
  O  O34  1  0.067544  0.750000  0.408173  1
  O  O35  1  0.932456  0.250000  0.591827  1
  O  O36  1  0.514799  0.750000  0.181530  1
  O  O37  1  0.485201  0.250000  0.818470  1
  O  O38  1  0.528356  0.250000  0.310815  1
  O  O39  1  0.471644  0.750000  0.689185  1
  O  O40  1  0.625482  0.250000  0.098333  1
  O  O41  1  0.374518  0.750000  0.901667  1
  O  O42  1  0.083648  0.250000  0.429731  1
  O  O43  1  0.916352  0.750000  0.570269  1
