# generated using pymatgen
data_NbOF2
_symmetry_space_group_name_H-M   'P 1'
_cell_length_a   3.88675525
_cell_length_b   5.48324669
_cell_length_c   3.41568406
_cell_angle_alpha   71.37411389
_cell_angle_beta   90.00190816
_cell_angle_gamma   111.09632798
_symmetry_Int_Tables_number   1
_chemical_formula_structural   NbOF2
_chemical_formula_sum   'Nb1 O1 F2'
_cell_volume   63.81297106
_cell_formula_units_Z   1
loop_
 _symmetry_equiv_pos_site_id
 _symmetry_equiv_pos_as_xyz
  1  'x, y, z'
loop_
 _atom_site_type_symbol
 _atom_site_label
 _atom_site_symmetry_multiplicity
 _atom_site_fract_x
 _atom_site_fract_y
 _atom_site_fract_z
 _atom_site_occupancy
  Nb  Nb0  1  0.000861  0.997267  0.992118  1
  O  O1  1  0.503788  0.004573  0.987136  1
  F  F2  1  0.136366  0.260166  0.358065  1
  F  F3  1  0.862602  0.733842  0.628075  1
