# generated using pymatgen
data_LiCo2CuO6
_symmetry_space_group_name_H-M   'P 1'
_cell_length_a   2.84452281
_cell_length_b   6.49731937
_cell_length_c   5.87478458
_cell_angle_alpha   103.84717520
_cell_angle_beta   89.99999255
_cell_angle_gamma   102.64441576
_symmetry_Int_Tables_number   1
_chemical_formula_structural   LiCo2CuO6
_chemical_formula_sum   'Li1 Co2 Cu1 O6'
_cell_volume   102.70680414
_cell_formula_units_Z   1
loop_
 _symmetry_equiv_pos_site_id
 _symmetry_equiv_pos_as_xyz
  1  'x, y, z'
loop_
 _atom_site_type_symbol
 _atom_site_label
 _atom_site_symmetry_multiplicity
 _atom_site_fract_x
 _atom_site_fract_y
 _atom_site_fract_z
 _atom_site_occupancy
  Li  Li0  1  0.333333  0.666667  0.166667  1
  Co  Co1  1  0.006226  0.012453  0.994276  1
  Co  Co2  1  0.660440  0.320880  0.339058  1
  Cu  Cu3  1  0.333333  0.666667  0.666667  1
  O  O4  1  0.497870  0.995740  0.786430  1
  O  O5  1  0.812637  0.625274  0.422003  1
  O  O6  1  0.158680  0.317361  0.120202  1
  O  O7  1  0.854029  0.708059  0.911330  1
  O  O8  1  0.168797  0.337593  0.546903  1
  O  O9  1  0.507987  0.015972  0.213131  1
