# generated using pymatgen
data_Cr2Ni3Sb(PO4)6
_symmetry_space_group_name_H-M   'P 1'
_cell_length_a   8.41683242
_cell_length_b   8.41683259
_cell_length_c   8.41683199
_cell_angle_alpha   61.86728707
_cell_angle_beta   61.86728260
_cell_angle_gamma   61.86728071
_symmetry_Int_Tables_number   1
_chemical_formula_structural   Cr2Ni3Sb(PO4)6
_chemical_formula_sum   'Cr2 Ni3 Sb1 P6 O24'
_cell_volume   439.25644389
_cell_formula_units_Z   1
loop_
 _symmetry_equiv_pos_site_id
 _symmetry_equiv_pos_as_xyz
  1  'x, y, z'
loop_
 _atom_site_type_symbol
 _atom_site_label
 _atom_site_symmetry_multiplicity
 _atom_site_fract_x
 _atom_site_fract_y
 _atom_site_fract_z
 _atom_site_occupancy
  Cr  Cr0  1  0.005348  0.005348  0.005348  1
  Cr  Cr1  1  0.499808  0.499808  0.499808  1
  Ni  Ni2  1  0.145145  0.145145  0.145145  1
  Ni  Ni3  1  0.356212  0.356212  0.356212  1
  Ni  Ni4  1  0.642456  0.642456  0.642456  1
  Sb  Sb5  1  0.856003  0.856003  0.856003  1
  P  P6  1  0.744731  0.448342  0.050671  1
  P  P7  1  0.255988  0.541764  0.949958  1
  P  P8  1  0.541764  0.949958  0.255988  1
  P  P9  1  0.949958  0.255988  0.541764  1
  P  P10  1  0.050671  0.744731  0.448342  1
  P  P11  1  0.448342  0.050671  0.744731  1
  O  O12  1  0.102038  0.320929  0.514126  1
  O  O13  1  0.320929  0.514126  0.102038  1
  O  O14  1  0.064127  0.903774  0.250410  1
  O  O15  1  0.514126  0.102038  0.320929  1
  O  O16  1  0.011263  0.821252  0.607277  1
  O  O17  1  0.252580  0.597930  0.438461  1
  O  O18  1  0.250410  0.064127  0.903774  1
  O  O19  1  0.438461  0.252580  0.597930  1
  O  O20  1  0.175137  0.396896  0.988513  1
  O  O21  1  0.597930  0.438461  0.252580  1
  O  O22  1  0.091557  0.754203  0.935260  1
  O  O23  1  0.396896  0.988513  0.175137  1
  O  O24  1  0.607277  0.011263  0.821252  1
  O  O25  1  0.903774  0.250410  0.064127  1
  O  O26  1  0.400268  0.567304  0.744840  1
  O  O27  1  0.821252  0.607277  0.011263  1
  O  O28  1  0.567304  0.744840  0.400268  1
  O  O29  1  0.754203  0.935260  0.091557  1
  O  O30  1  0.744840  0.400268  0.567304  1
  O  O31  1  0.988513  0.175137  0.396896  1
  O  O32  1  0.495647  0.895930  0.673853  1
  O  O33  1  0.935260  0.091557  0.754203  1
  O  O34  1  0.673853  0.495647  0.895930  1
  O  O35  1  0.895930  0.673853  0.495647  1
