# generated using pymatgen
data_VOF2
_symmetry_space_group_name_H-M   'P 1'
_cell_length_a   5.06041936
_cell_length_b   7.65219933
_cell_length_c   5.24336761
_cell_angle_alpha   92.63474898
_cell_angle_beta   90.00000000
_cell_angle_gamma   90.00000000
_symmetry_Int_Tables_number   1
_chemical_formula_structural   VOF2
_chemical_formula_sum   'V4 O4 F8'
_cell_volume   202.82605476
_cell_formula_units_Z   4
loop_
 _symmetry_equiv_pos_site_id
 _symmetry_equiv_pos_as_xyz
  1  'x, y, z'
loop_
 _atom_site_type_symbol
 _atom_site_label
 _atom_site_symmetry_multiplicity
 _atom_site_fract_x
 _atom_site_fract_y
 _atom_site_fract_z
 _atom_site_occupancy
  V  V0  1  0.500000  0.500000  0.500000  1
  V  V1  1  0.500000  0.000000  0.500000  1
  V  V2  1  0.000000  0.500000  0.000000  1
  V  V3  1  0.000000  0.000000  0.000000  1
  O  O4  1  0.789575  0.532862  0.288954  1
  O  O5  1  0.789575  0.967138  0.711046  1
  O  O6  1  0.210425  0.032862  0.288954  1
  O  O7  1  0.210425  0.467138  0.711046  1
  F  F8  1  0.897819  0.250000  0.000000  1
  F  F9  1  0.698676  0.933663  0.197858  1
  F  F10  1  0.698676  0.566337  0.802142  1
  F  F11  1  0.598876  0.250000  0.500000  1
  F  F12  1  0.401124  0.750000  0.500000  1
  F  F13  1  0.301324  0.433663  0.197858  1
  F  F14  1  0.301324  0.066337  0.802142  1
  F  F15  1  0.102181  0.750000  0.000000  1
