# generated using pymatgen
data_HN
_symmetry_space_group_name_H-M   'P 1'
_cell_length_a   5.78999952
_cell_length_b   12.65945159
_cell_length_c   5.49909456
_cell_angle_alpha   90.00000000
_cell_angle_beta   90.00000000
_cell_angle_gamma   114.91188469
_symmetry_Int_Tables_number   1
_chemical_formula_structural   HN
_chemical_formula_sum   'H20 N20'
_cell_volume   365.57049971
_cell_formula_units_Z   20
loop_
 _symmetry_equiv_pos_site_id
 _symmetry_equiv_pos_as_xyz
  1  'x, y, z'
loop_
 _atom_site_type_symbol
 _atom_site_label
 _atom_site_symmetry_multiplicity
 _atom_site_fract_x
 _atom_site_fract_y
 _atom_site_fract_z
 _atom_site_occupancy
  H  H0  1  0.274724  0.934864  0.322310  1
  H  H1  1  0.725276  0.565136  0.822310  1
  H  H2  1  0.725276  0.065136  0.677690  1
  H  H3  1  0.274724  0.434864  0.177690  1
  H  H4  1  0.632669  0.642141  0.027827  1
  H  H5  1  0.367331  0.857859  0.527827  1
  H  H6  1  0.367331  0.357859  0.972173  1
  H  H7  1  0.632669  0.142141  0.472173  1
  H  H8  1  0.132112  0.649884  0.992732  1
  H  H9  1  0.867888  0.850116  0.492732  1
  H  H10  1  0.867888  0.350116  0.007268  1
  H  H11  1  0.132112  0.149884  0.507268  1
  H  H12  1  0.086294  0.914821  0.700044  1
  H  H13  1  0.913706  0.585179  0.200044  1
  H  H14  1  0.913706  0.085179  0.299956  1
  H  H15  1  0.086294  0.414821  0.799956  1
  H  H16  1  0.854493  0.716712  0.801936  1
  H  H17  1  0.145507  0.783288  0.301936  1
  H  H18  1  0.145507  0.283288  0.198064  1
  H  H19  1  0.854493  0.216712  0.698064  1
  N  N20  1  0.344923  0.599399  0.476570  1
  N  N21  1  0.655077  0.900601  0.976570  1
  N  N22  1  0.655077  0.400601  0.523430  1
  N  N23  1  0.344923  0.099399  0.023430  1
  N  N24  1  0.406343  0.575047  0.284898  1
  N  N25  1  0.593657  0.924953  0.784898  1
  N  N26  1  0.593657  0.424953  0.715102  1
  N  N27  1  0.406343  0.075047  0.215102  1
  N  N28  1  0.282465  0.622717  0.665520  1
  N  N29  1  0.717535  0.877283  0.165520  1
  N  N30  1  0.717535  0.377283  0.334480  1
  N  N31  1  0.282465  0.122717  0.834480  1
  N  N32  1  0.212648  0.854798  0.423008  1
  N  N33  1  0.787352  0.645202  0.923008  1
  N  N34  1  0.787352  0.145202  0.576992  1
  N  N35  1  0.212648  0.354798  0.076992  1
  N  N36  1  0.989447  0.658019  0.092088  1
  N  N37  1  0.010553  0.841981  0.592088  1
  N  N38  1  0.010553  0.341981  0.907912  1
  N  N39  1  0.989447  0.158019  0.407912  1
