# generated using pymatgen
data_ReH22C4S4N8Cl8O3
_symmetry_space_group_name_H-M   'P 1'
_cell_length_a   17.08616197
_cell_length_b   9.00240563
_cell_length_c   9.00240563
_cell_angle_alpha   99.69923543
_cell_angle_beta   90.00000000
_cell_angle_gamma   90.00000000
_symmetry_Int_Tables_number   1
_chemical_formula_structural   ReH22C4S4N8Cl8O3
_chemical_formula_sum   'Re2 H44 C8 S8 N16 Cl16 O6'
_cell_volume   1364.92550731
_cell_formula_units_Z   2
loop_
 _symmetry_equiv_pos_site_id
 _symmetry_equiv_pos_as_xyz
  1  'x, y, z'
loop_
 _atom_site_type_symbol
 _atom_site_label
 _atom_site_symmetry_multiplicity
 _atom_site_fract_x
 _atom_site_fract_y
 _atom_site_fract_z
 _atom_site_occupancy
  Re  Re0  1  0.250000  0.152787  0.847213  1
  Re  Re1  1  0.750000  0.847213  0.152787  1
  H  H2  1  0.378463  0.916500  0.369246  1
  H  H3  1  0.621537  0.369246  0.916500  1
  H  H4  1  0.121537  0.916500  0.369246  1
  H  H5  1  0.878463  0.369246  0.916500  1
  H  H6  1  0.621537  0.083500  0.630754  1
  H  H7  1  0.378463  0.630754  0.083500  1
  H  H8  1  0.878463  0.083500  0.630754  1
  H  H9  1  0.121537  0.630754  0.083500  1
  H  H10  1  0.330189  0.096383  0.382420  1
  H  H11  1  0.669811  0.382420  0.096383  1
  H  H12  1  0.169811  0.096383  0.382420  1
  H  H13  1  0.830189  0.382420  0.096383  1
  H  H14  1  0.669811  0.903617  0.617580  1
  H  H15  1  0.330189  0.617580  0.903617  1
  H  H16  1  0.830189  0.903617  0.617580  1
  H  H17  1  0.169811  0.617580  0.903617  1
  H  H18  1  0.512457  0.899264  0.311346  1
  H  H19  1  0.487543  0.311346  0.899264  1
  H  H20  1  0.987543  0.899264  0.311346  1
  H  H21  1  0.012457  0.311346  0.899264  1
  H  H22  1  0.487543  0.100736  0.688654  1
  H  H23  1  0.512457  0.688654  0.100736  1
  H  H24  1  0.012457  0.100736  0.688654  1
  H  H25  1  0.987543  0.688654  0.100736  1
  H  H26  1  0.563687  0.061287  0.284404  1
  H  H27  1  0.436313  0.284404  0.061287  1
  H  H28  1  0.936313  0.061287  0.284404  1
  H  H29  1  0.063687  0.284404  0.061287  1
  H  H30  1  0.436313  0.938713  0.715596  1
  H  H31  1  0.563687  0.715596  0.938713  1
  H  H32  1  0.063687  0.938713  0.715596  1
  H  H33  1  0.936313  0.715596  0.938713  1
  H  H34  1  0.250000  0.307061  0.466152  1
  H  H35  1  0.750000  0.466152  0.307061  1
  H  H36  1  0.750000  0.692939  0.533848  1
  H  H37  1  0.250000  0.533848  0.692939  1
  H  H38  1  0.250000  0.284512  0.291169  1
  H  H39  1  0.750000  0.291169  0.284512  1
  H  H40  1  0.750000  0.715488  0.708831  1
  H  H41  1  0.250000  0.708831  0.715488  1
  H  H42  1  0.296118  0.594912  0.405088  1
  H  H43  1  0.703882  0.405088  0.594912  1
  H  H44  1  0.203882  0.594912  0.405088  1
  H  H45  1  0.796118  0.405088  0.594912  1
  C  C46  1  0.447504  0.091905  0.339443  1
  C  C47  1  0.552496  0.339443  0.091905  1
  C  C48  1  0.052496  0.091905  0.339443  1
  C  C49  1  0.947504  0.339443  0.091905  1
  C  C50  1  0.552496  0.908095  0.660557  1
  C  C51  1  0.447504  0.660557  0.908095  1
  C  C52  1  0.947504  0.908095  0.660557  1
  C  C53  1  0.052496  0.660557  0.908095  1
  S  S54  1  0.444231  0.291188  0.342592  1
  S  S55  1  0.555769  0.342592  0.291188  1
  S  S56  1  0.055769  0.291188  0.342592  1
  S  S57  1  0.944231  0.342592  0.291188  1
  S  S58  1  0.555769  0.708812  0.657408  1
  S  S59  1  0.444231  0.657408  0.708812  1
  S  S60  1  0.944231  0.708812  0.657408  1
  S  S61  1  0.055769  0.657408  0.708812  1
  N  N62  1  0.380827  0.031996  0.371466  1
  N  N63  1  0.619173  0.371466  0.031996  1
  N  N64  1  0.119173  0.031996  0.371466  1
  N  N65  1  0.880827  0.371466  0.031996  1
  N  N66  1  0.619173  0.968004  0.628534  1
  N  N67  1  0.380827  0.628534  0.968004  1
  N  N68  1  0.880827  0.968004  0.628534  1
  N  N69  1  0.119173  0.628534  0.968004  1
  N  N70  1  0.512915  0.013036  0.311726  1
  N  N71  1  0.487085  0.311726  0.013036  1
  N  N72  1  0.987085  0.013036  0.311726  1
  N  N73  1  0.012915  0.311726  0.013036  1
  N  N74  1  0.487085  0.986964  0.688274  1
  N  N75  1  0.512915  0.688274  0.986964  1
  N  N76  1  0.012915  0.986964  0.688274  1
  N  N77  1  0.987085  0.688274  0.986964  1
  Cl  Cl78  1  0.347291  0.276368  0.723632  1
  Cl  Cl79  1  0.652709  0.723632  0.276368  1
  Cl  Cl80  1  0.152709  0.276368  0.723632  1
  Cl  Cl81  1  0.847291  0.723632  0.276368  1
  Cl  Cl82  1  0.348850  0.031757  0.968243  1
  Cl  Cl83  1  0.651150  0.968243  0.031757  1
  Cl  Cl84  1  0.151150  0.031757  0.968243  1
  Cl  Cl85  1  0.848850  0.968243  0.031757  1
  Cl  Cl86  1  0.250000  0.945266  0.641728  1
  Cl  Cl87  1  0.750000  0.641728  0.945266  1
  Cl  Cl88  1  0.750000  0.054734  0.358272  1
  Cl  Cl89  1  0.250000  0.358272  0.054734  1
  Cl  Cl90  1  0.415876  0.678877  0.321123  1
  Cl  Cl91  1  0.584124  0.321123  0.678877  1
  Cl  Cl92  1  0.084124  0.678877  0.321123  1
  Cl  Cl93  1  0.915876  0.321123  0.678877  1
  O  O94  1  0.250000  0.228340  0.376276  1
  O  O95  1  0.750000  0.376276  0.228340  1
  O  O96  1  0.750000  0.771660  0.623724  1
  O  O97  1  0.250000  0.623724  0.771660  1
  O  O98  1  0.250000  0.552113  0.447887  1
  O  O99  1  0.750000  0.447887  0.552113  1
