# generated using pymatgen
data_Li8ScFe7(SiO3)16
_symmetry_space_group_name_H-M   'P 1'
_cell_length_a   9.52392120
_cell_length_b   13.20693761
_cell_length_c   7.35465130
_cell_angle_alpha   84.91873368
_cell_angle_beta   77.77871179
_cell_angle_gamma   102.86508026
_symmetry_Int_Tables_number   1
_chemical_formula_structural   Li8ScFe7(SiO3)16
_chemical_formula_sum   'Li8 Sc1 Fe7 Si16 O48'
_cell_volume   872.43526133
_cell_formula_units_Z   1
loop_
 _symmetry_equiv_pos_site_id
 _symmetry_equiv_pos_as_xyz
  1  'x, y, z'
loop_
 _atom_site_type_symbol
 _atom_site_label
 _atom_site_symmetry_multiplicity
 _atom_site_fract_x
 _atom_site_fract_y
 _atom_site_fract_z
 _atom_site_occupancy
  Li  Li0  1  0.003488  0.628450  0.253532  1
  Li  Li1  1  0.495063  0.870083  0.245526  1
  Li  Li2  1  0.503349  0.628249  0.753501  1
  Li  Li3  1  0.005526  0.128850  0.252879  1
  Li  Li4  1  0.496561  0.371525  0.246639  1
  Li  Li5  1  0.996259  0.871332  0.746265  1
  Li  Li6  1  0.502412  0.129181  0.754774  1
  Li  Li7  1  0.996556  0.371571  0.746201  1
  Sc  Sc8  1  0.675270  0.050300  0.425254  1
  Fe  Fe9  1  0.321122  0.947682  0.574848  1
  Fe  Fe10  1  0.824599  0.947831  0.071530  1
  Fe  Fe11  1  0.176532  0.551511  0.926600  1
  Fe  Fe12  1  0.323509  0.448508  0.573396  1
  Fe  Fe13  1  0.676622  0.551099  0.426452  1
  Fe  Fe14  1  0.823584  0.448832  0.073109  1
  Fe  Fe15  1  0.176185  0.051712  0.926356  1
  Si  Si16  1  0.059358  0.896461  0.325837  1
  Si  Si17  1  0.220112  0.806995  0.986950  1
  Si  Si18  1  0.279503  0.692561  0.513834  1
  Si  Si19  1  0.558268  0.895624  0.828083  1
  Si  Si20  1  0.059769  0.396741  0.325557  1
  Si  Si21  1  0.440236  0.603365  0.174429  1
  Si  Si22  1  0.720538  0.806105  0.486380  1
  Si  Si23  1  0.779545  0.692445  0.013353  1
  Si  Si24  1  0.220517  0.307500  0.986302  1
  Si  Si25  1  0.280805  0.193070  0.513619  1
  Si  Si26  1  0.559571  0.397252  0.826420  1
  Si  Si27  1  0.439029  0.103461  0.173408  1
  Si  Si28  1  0.940322  0.603347  0.674312  1
  Si  Si29  1  0.720313  0.309495  0.487251  1
  Si  Si30  1  0.780617  0.193181  0.010682  1
  Si  Si31  1  0.943059  0.103914  0.675083  1
  O  O32  1  0.026374  0.984607  0.176522  1
  O  O33  1  0.147428  0.944285  0.476793  1
  O  O34  1  0.148970  0.821801  0.204435  1
  O  O35  1  0.189755  0.898114  0.840823  1
  O  O36  1  0.099322  0.676611  0.544461  1
  O  O37  1  0.521884  0.983445  0.682882  1
  O  O38  1  0.026653  0.484884  0.176089  1
  O  O39  1  0.357978  0.812162  0.530942  1
  O  O40  1  0.350921  0.678118  0.296053  1
  O  O41  1  0.690408  0.895486  0.337449  1
  O  O42  1  0.351398  0.555484  0.024015  1
  O  O43  1  0.141455  0.687473  0.969221  1
  O  O44  1  0.599320  0.676669  0.044400  1
  O  O45  1  0.399951  0.821721  0.958425  1
  O  O46  1  0.858839  0.811981  0.029461  1
  O  O47  1  0.148757  0.444559  0.475870  1
  O  O48  1  0.648587  0.944041  0.976690  1
  O  O49  1  0.309707  0.601295  0.659964  1
  O  O50  1  0.148901  0.321768  0.204207  1
  O  O51  1  0.648877  0.822351  0.703328  1
  O  O52  1  0.641437  0.686507  0.470782  1
  O  O53  1  0.473392  0.515208  0.323684  1
  O  O54  1  0.900665  0.822764  0.455962  1
  O  O55  1  0.190212  0.398722  0.840182  1
  O  O56  1  0.810070  0.601561  0.159684  1
  O  O57  1  0.101107  0.178099  0.545651  1
  O  O58  1  0.526141  0.484889  0.676581  1
  O  O59  1  0.359238  0.312747  0.530666  1
  O  O60  1  0.350745  0.178629  0.295349  1
  O  O61  1  0.850668  0.677989  0.795557  1
  O  O62  1  0.690818  0.400636  0.340347  1
  O  O63  1  0.851557  0.555413  0.524006  1
  O  O64  1  0.350884  0.056122  0.022513  1
  O  O65  1  0.142395  0.187979  0.968842  1
  O  O66  1  0.599649  0.175981  0.044857  1
  O  O67  1  0.400743  0.323455  0.955770  1
  O  O68  1  0.857950  0.312756  0.030010  1
  O  O69  1  0.648254  0.444966  0.977021  1
  O  O70  1  0.309913  0.101221  0.659361  1
  O  O71  1  0.650601  0.323373  0.705629  1
  O  O72  1  0.639886  0.190968  0.469616  1
  O  O73  1  0.468978  0.013925  0.322189  1
  O  O74  1  0.973603  0.515252  0.823691  1
  O  O75  1  0.900449  0.324047  0.455398  1
  O  O76  1  0.814024  0.102429  0.153030  1
  O  O77  1  0.851597  0.179069  0.792849  1
  O  O78  1  0.855888  0.054524  0.525510  1
  O  O79  1  0.975450  0.015682  0.824869  1
