# generated using pymatgen
data_Sr2LaI7
_symmetry_space_group_name_H-M   'P 1'
_cell_length_a   8.39234880
_cell_length_b   14.80282907
_cell_length_c   15.28727035
_cell_angle_alpha   90.00000000
_cell_angle_beta   100.23024079
_cell_angle_gamma   90.00000000
_symmetry_Int_Tables_number   1
_chemical_formula_structural   Sr2LaI7
_chemical_formula_sum   'Sr8 La4 I28'
_cell_volume   1868.95271080
_cell_formula_units_Z   4
loop_
 _symmetry_equiv_pos_site_id
 _symmetry_equiv_pos_as_xyz
  1  'x, y, z'
loop_
 _atom_site_type_symbol
 _atom_site_label
 _atom_site_symmetry_multiplicity
 _atom_site_fract_x
 _atom_site_fract_y
 _atom_site_fract_z
 _atom_site_occupancy
  Sr  Sr0  1  0.222308  0.467061  0.749501  1
  Sr  Sr1  1  0.249845  0.872892  0.671750  1
  Sr  Sr2  1  0.237688  0.203224  0.168905  1
  Sr  Sr3  1  0.378728  0.627255  0.255574  1
  Sr  Sr4  1  0.621272  0.127255  0.744426  1
  Sr  Sr5  1  0.762312  0.703224  0.831095  1
  Sr  Sr6  1  0.750155  0.372892  0.328250  1
  Sr  Sr7  1  0.777692  0.967061  0.250499  1
  La  La8  1  0.151920  0.151254  0.555516  1
  La  La9  1  0.165208  0.929862  0.054146  1
  La  La10  1  0.834792  0.429862  0.945854  1
  La  La11  1  0.848080  0.651254  0.444484  1
  I  I12  1  0.111587  0.316972  0.886388  1
  I  I13  1  0.059261  0.595543  0.994277  1
  I  I14  1  0.024573  0.472818  0.513463  1
  I  I15  1  0.107985  0.833581  0.864496  1
  I  I16  1  0.163582  0.730706  0.393548  1
  I  I17  1  0.112384  0.251435  0.368891  1
  I  I18  1  0.212219  0.079835  0.755569  1
  I  I19  1  0.176809  0.002620  0.256148  1
  I  I20  1  0.389303  0.662523  0.691817  1
  I  I21  1  0.395599  0.410136  0.187798  1
  I  I22  1  0.390227  0.310782  0.631932  1
  I  I23  1  0.573296  0.280532  0.887986  1
  I  I24  1  0.465596  0.023073  0.557743  1
  I  I25  1  0.537850  0.564840  0.938498  1
  I  I26  1  0.462150  0.064840  0.061502  1
  I  I27  1  0.534404  0.523073  0.442257  1
  I  I28  1  0.426704  0.780532  0.112014  1
  I  I29  1  0.609773  0.810782  0.368068  1
  I  I30  1  0.604401  0.910136  0.812202  1
  I  I31  1  0.610697  0.162523  0.308183  1
  I  I32  1  0.823191  0.502620  0.743852  1
  I  I33  1  0.787781  0.579835  0.244431  1
  I  I34  1  0.887616  0.751435  0.631109  1
  I  I35  1  0.836418  0.230706  0.606452  1
  I  I36  1  0.892015  0.333581  0.135504  1
  I  I37  1  0.975427  0.972818  0.486537  1
  I  I38  1  0.940739  0.095543  0.005723  1
  I  I39  1  0.888413  0.816972  0.113612  1
