# generated using pymatgen
data_Na6TeP6(H2O5)6
_symmetry_space_group_name_H-M   'P 1'
_cell_length_a   11.73884553
_cell_length_b   11.73884513
_cell_length_c   11.96691489
_cell_angle_alpha   90.00000000
_cell_angle_beta   90.00000000
_cell_angle_gamma   120.00000113
_symmetry_Int_Tables_number   1
_chemical_formula_structural   Na6TeP6(H2O5)6
_chemical_formula_sum   'Na12 Te2 P12 H24 O60'
_cell_volume   1428.11634511
_cell_formula_units_Z   2
loop_
 _symmetry_equiv_pos_site_id
 _symmetry_equiv_pos_as_xyz
  1  'x, y, z'
loop_
 _atom_site_type_symbol
 _atom_site_label
 _atom_site_symmetry_multiplicity
 _atom_site_fract_x
 _atom_site_fract_y
 _atom_site_fract_z
 _atom_site_occupancy
  Na  Na0  1  0.431940  0.868969  0.250000  1
  Na  Na1  1  0.437029  0.568060  0.250000  1
  Na  Na2  1  0.131031  0.562971  0.250000  1
  Na  Na3  1  0.568060  0.131031  0.750000  1
  Na  Na4  1  0.562971  0.431940  0.750000  1
  Na  Na5  1  0.868969  0.437029  0.750000  1
  Na  Na6  1  0.725806  0.844506  0.250000  1
  Na  Na7  1  0.118700  0.274194  0.250000  1
  Na  Na8  1  0.155494  0.881300  0.250000  1
  Na  Na9  1  0.274194  0.155494  0.750000  1
  Na  Na10  1  0.881300  0.725806  0.750000  1
  Na  Na11  1  0.844506  0.118700  0.750000  1
  Te  Te12  1  0.000000  0.000000  0.500000  1
  Te  Te13  1  0.000000  0.000000  0.000000  1
  P  P14  1  0.250265  0.501278  0.005989  1
  P  P15  1  0.251013  0.749735  0.005989  1
  P  P16  1  0.498722  0.748987  0.005989  1
  P  P17  1  0.749735  0.498722  0.505989  1
  P  P18  1  0.748987  0.250265  0.505989  1
  P  P19  1  0.501278  0.251013  0.505989  1
  P  P20  1  0.749735  0.498722  0.994011  1
  P  P21  1  0.748987  0.250265  0.994011  1
  P  P22  1  0.501278  0.251013  0.994011  1
  P  P23  1  0.250265  0.501278  0.494011  1
  P  P24  1  0.251013  0.749735  0.494011  1
  P  P25  1  0.498722  0.748987  0.494011  1
  H  H26  1  0.697933  0.601767  0.315114  1
  H  H27  1  0.903834  0.302067  0.315114  1
  H  H28  1  0.398233  0.096166  0.315114  1
  H  H29  1  0.302067  0.398233  0.815114  1
  H  H30  1  0.096166  0.697933  0.815114  1
  H  H31  1  0.601767  0.903834  0.815114  1
  H  H32  1  0.302067  0.398233  0.684886  1
  H  H33  1  0.096166  0.697933  0.684886  1
  H  H34  1  0.601767  0.903834  0.684886  1
  H  H35  1  0.697933  0.601767  0.184886  1
  H  H36  1  0.903834  0.302067  0.184886  1
  H  H37  1  0.398233  0.096166  0.184886  1
  H  H38  1  0.848433  0.776448  0.425992  1
  H  H39  1  0.928015  0.151567  0.425992  1
  H  H40  1  0.223552  0.071985  0.425992  1
  H  H41  1  0.151567  0.223552  0.925992  1
  H  H42  1  0.071985  0.848433  0.925992  1
  H  H43  1  0.776448  0.928015  0.925992  1
  H  H44  1  0.151567  0.223552  0.574008  1
  H  H45  1  0.071985  0.848433  0.574008  1
  H  H46  1  0.776448  0.928015  0.574008  1
  H  H47  1  0.848433  0.776448  0.074008  1
  H  H48  1  0.928015  0.151567  0.074008  1
  H  H49  1  0.223552  0.071985  0.074008  1
  O  O50  1  0.237711  0.760213  0.369760  1
  O  O51  1  0.522503  0.762289  0.369760  1
  O  O52  1  0.239787  0.477497  0.369760  1
  O  O53  1  0.762289  0.239787  0.869760  1
  O  O54  1  0.477497  0.237711  0.869760  1
  O  O55  1  0.760213  0.522503  0.869760  1
  O  O56  1  0.762289  0.239787  0.630240  1
  O  O57  1  0.477497  0.237711  0.630240  1
  O  O58  1  0.760213  0.522503  0.630240  1
  O  O59  1  0.237711  0.760213  0.130240  1
  O  O60  1  0.522503  0.762289  0.130240  1
  O  O61  1  0.239787  0.477497  0.130240  1
  O  O62  1  0.189787  0.594827  0.973129  1
  O  O63  1  0.405039  0.810213  0.973129  1
  O  O64  1  0.405173  0.594961  0.973129  1
  O  O65  1  0.810213  0.405173  0.473129  1
  O  O66  1  0.594961  0.189787  0.473129  1
  O  O67  1  0.594827  0.405039  0.473129  1
  O  O68  1  0.810213  0.405173  0.026871  1
  O  O69  1  0.594961  0.189787  0.026871  1
  O  O70  1  0.594827  0.405039  0.026871  1
  O  O71  1  0.189787  0.594827  0.526871  1
  O  O72  1  0.405039  0.810213  0.526871  1
  O  O73  1  0.405173  0.594961  0.526871  1
  O  O74  1  0.193960  0.387653  0.926226  1
  O  O75  1  0.193693  0.806040  0.926226  1
  O  O76  1  0.612347  0.806307  0.926226  1
  O  O77  1  0.806040  0.612347  0.426226  1
  O  O78  1  0.806307  0.193960  0.426226  1
  O  O79  1  0.387653  0.193693  0.426226  1
  O  O80  1  0.806040  0.612347  0.073774  1
  O  O81  1  0.806307  0.193960  0.073774  1
  O  O82  1  0.387653  0.193693  0.073774  1
  O  O83  1  0.193960  0.387653  0.573774  1
  O  O84  1  0.193693  0.806040  0.573774  1
  O  O85  1  0.612347  0.806307  0.573774  1
  O  O86  1  0.863750  0.865731  0.405159  1
  O  O87  1  0.001981  0.136250  0.405159  1
  O  O88  1  0.134269  0.998019  0.405159  1
  O  O89  1  0.136250  0.134269  0.905159  1
  O  O90  1  0.998019  0.863750  0.905159  1
  O  O91  1  0.865731  0.001981  0.905159  1
  O  O92  1  0.136250  0.134269  0.594841  1
  O  O93  1  0.998019  0.863750  0.594841  1
  O  O94  1  0.865731  0.001981  0.594841  1
  O  O95  1  0.863750  0.865731  0.094841  1
  O  O96  1  0.001981  0.136250  0.094841  1
  O  O97  1  0.134269  0.998019  0.094841  1
  O  O98  1  0.654457  0.615896  0.250000  1
  O  O99  1  0.961439  0.345543  0.250000  1
  O  O100  1  0.384104  0.038561  0.250000  1
  O  O101  1  0.345543  0.384104  0.750000  1
  O  O102  1  0.038561  0.654457  0.750000  1
  O  O103  1  0.615896  0.961439  0.750000  1
  O  O104  1  0.971391  0.649520  0.250000  1
  O  O105  1  0.678129  0.028609  0.250000  1
  O  O106  1  0.350479  0.321871  0.250000  1
  O  O107  1  0.028609  0.350479  0.750000  1
  O  O108  1  0.321871  0.971391  0.750000  1
  O  O109  1  0.649520  0.678129  0.750000  1
