# generated using pymatgen
data_Li3SiBiCO7
_symmetry_space_group_name_H-M   'P 1'
_cell_length_a   9.07079222
_cell_length_b   7.14501011
_cell_length_c   4.97442217
_cell_angle_alpha   90.00000000
_cell_angle_beta   87.88778704
_cell_angle_gamma   90.00000000
_symmetry_Int_Tables_number   1
_chemical_formula_structural   Li3SiBiCO7
_chemical_formula_sum   'Li6 Si2 Bi2 C2 O14'
_cell_volume   322.17773940
_cell_formula_units_Z   2
loop_
 _symmetry_equiv_pos_site_id
 _symmetry_equiv_pos_as_xyz
  1  'x, y, z'
loop_
 _atom_site_type_symbol
 _atom_site_label
 _atom_site_symmetry_multiplicity
 _atom_site_fract_x
 _atom_site_fract_y
 _atom_site_fract_z
 _atom_site_occupancy
  Li  Li0  1  0.078705  0.250000  0.751577  1
  Li  Li1  1  0.263134  0.070031  0.221036  1
  Li  Li2  1  0.263134  0.429969  0.221036  1
  Li  Li3  1  0.736866  0.570031  0.778964  1
  Li  Li4  1  0.736866  0.929969  0.778964  1
  Li  Li5  1  0.921295  0.750000  0.248423  1
  Si  Si6  1  0.395861  0.250000  0.715681  1
  Si  Si7  1  0.604139  0.750000  0.284319  1
  Bi  Bi8  1  0.350514  0.750000  0.769058  1
  Bi  Bi9  1  0.649486  0.250000  0.230942  1
  C  C10  1  0.031575  0.750000  0.713741  1
  C  C11  1  0.968425  0.250000  0.286259  1
  O  O12  1  0.109600  0.250000  0.329616  1
  O  O13  1  0.078937  0.750000  0.956189  1
  O  O14  1  0.121712  0.750000  0.506240  1
  O  O15  1  0.299285  0.069755  0.831807  1
  O  O16  1  0.299285  0.430245  0.831807  1
  O  O17  1  0.401210  0.250000  0.381496  1
  O  O18  1  0.427291  0.750000  0.206621  1
  O  O19  1  0.572709  0.250000  0.793379  1
  O  O20  1  0.598790  0.750000  0.618504  1
  O  O21  1  0.700715  0.569755  0.168193  1
  O  O22  1  0.700715  0.930245  0.168193  1
  O  O23  1  0.878288  0.250000  0.493760  1
  O  O24  1  0.921063  0.250000  0.043811  1
  O  O25  1  0.890400  0.750000  0.670384  1
