# generated using pymatgen
data_K2Li3CrO4
_symmetry_space_group_name_H-M   'P 1'
_cell_length_a   5.58478780
_cell_length_b   8.97562437
_cell_length_c   11.06204124
_cell_angle_alpha   90.00000000
_cell_angle_beta   109.78146899
_cell_angle_gamma   90.00000000
_symmetry_Int_Tables_number   1
_chemical_formula_structural   K2Li3CrO4
_chemical_formula_sum   'K8 Li12 Cr4 O16'
_cell_volume   521.78519812
_cell_formula_units_Z   4
loop_
 _symmetry_equiv_pos_site_id
 _symmetry_equiv_pos_as_xyz
  1  'x, y, z'
loop_
 _atom_site_type_symbol
 _atom_site_label
 _atom_site_symmetry_multiplicity
 _atom_site_fract_x
 _atom_site_fract_y
 _atom_site_fract_z
 _atom_site_occupancy
  K  K0  1  0.283619  0.773325  0.892215  1
  K  K1  1  0.294679  0.506883  0.637709  1
  K  K2  1  0.283619  0.726675  0.392215  1
  K  K3  1  0.705321  0.006883  0.862291  1
  K  K4  1  0.294679  0.993117  0.137709  1
  K  K5  1  0.716381  0.273325  0.607785  1
  K  K6  1  0.705321  0.493117  0.362291  1
  K  K7  1  0.716381  0.226675  0.107785  1
  Li  Li8  1  0.103119  0.036766  0.705630  1
  Li  Li9  1  0.383198  0.266275  0.800648  1
  Li  Li10  1  0.103119  0.463234  0.205630  1
  Li  Li11  1  0.622016  0.497460  0.927674  1
  Li  Li12  1  0.377984  0.997460  0.572326  1
  Li  Li13  1  0.616802  0.766275  0.699352  1
  Li  Li14  1  0.383198  0.233725  0.300648  1
  Li  Li15  1  0.622016  0.002540  0.427674  1
  Li  Li16  1  0.377984  0.502540  0.072326  1
  Li  Li17  1  0.896881  0.536766  0.794370  1
  Li  Li18  1  0.616802  0.733725  0.199352  1
  Li  Li19  1  0.896881  0.963234  0.294370  1
  Cr  Cr20  1  0.094110  0.291253  0.937032  1
  Cr  Cr21  1  0.094110  0.208747  0.437032  1
  Cr  Cr22  1  0.905890  0.791253  0.562968  1
  Cr  Cr23  1  0.905890  0.708747  0.062968  1
  O  O24  1  0.228597  0.109715  0.893233  1
  O  O25  1  0.247402  0.456381  0.876415  1
  O  O26  1  0.249138  0.197611  0.622973  1
  O  O27  1  0.255319  0.838029  0.651531  1
  O  O28  1  0.228597  0.390285  0.393233  1
  O  O29  1  0.247402  0.043619  0.376415  1
  O  O30  1  0.744681  0.338029  0.848469  1
  O  O31  1  0.750862  0.697611  0.877027  1
  O  O32  1  0.249138  0.302389  0.122973  1
  O  O33  1  0.255319  0.661971  0.151531  1
  O  O34  1  0.752598  0.956381  0.623585  1
  O  O35  1  0.771403  0.609715  0.606767  1
  O  O36  1  0.744681  0.161971  0.348469  1
  O  O37  1  0.750862  0.802389  0.377027  1
  O  O38  1  0.752598  0.543619  0.123585  1
  O  O39  1  0.771403  0.890285  0.106767  1
