# generated using pymatgen
data_Cs3TmO3
_symmetry_space_group_name_H-M   'P 1'
_cell_length_a   12.17406848
_cell_length_b   7.59865400
_cell_length_c   8.34533702
_cell_angle_alpha   90.00000000
_cell_angle_beta   95.82413826
_cell_angle_gamma   90.00000000
_symmetry_Int_Tables_number   1
_chemical_formula_structural   Cs3TmO3
_chemical_formula_sum   'Cs12 Tm4 O12'
_cell_volume   768.01318453
_cell_formula_units_Z   4
loop_
 _symmetry_equiv_pos_site_id
 _symmetry_equiv_pos_as_xyz
  1  'x, y, z'
loop_
 _atom_site_type_symbol
 _atom_site_label
 _atom_site_symmetry_multiplicity
 _atom_site_fract_x
 _atom_site_fract_y
 _atom_site_fract_z
 _atom_site_occupancy
  Cs  Cs0  1  0.075345  0.338269  0.651505  1
  Cs  Cs1  1  0.155474  0.618537  0.054117  1
  Cs  Cs2  1  0.194359  0.820956  0.619658  1
  Cs  Cs3  1  0.305641  0.320956  0.380342  1
  Cs  Cs4  1  0.344526  0.118537  0.945883  1
  Cs  Cs5  1  0.424655  0.838269  0.348495  1
  Cs  Cs6  1  0.575345  0.161731  0.651505  1
  Cs  Cs7  1  0.655474  0.881463  0.054117  1
  Cs  Cs8  1  0.694359  0.679044  0.619658  1
  Cs  Cs9  1  0.805641  0.179044  0.380342  1
  Cs  Cs10  1  0.844526  0.381463  0.945883  1
  Cs  Cs11  1  0.924655  0.661731  0.348495  1
  Tm  Tm12  1  0.066855  0.084309  0.155840  1
  Tm  Tm13  1  0.433145  0.584310  0.844160  1
  Tm  Tm14  1  0.566855  0.415691  0.155840  1
  Tm  Tm15  1  0.933145  0.915690  0.844160  1
  O  O16  1  0.043223  0.339483  0.243520  1
  O  O17  1  0.086836  0.056617  0.900511  1
  O  O18  1  0.189860  0.944845  0.295576  1
  O  O19  1  0.310140  0.444845  0.704424  1
  O  O20  1  0.413164  0.556617  0.099489  1
  O  O21  1  0.456777  0.839483  0.756480  1
  O  O22  1  0.543223  0.160517  0.243520  1
  O  O23  1  0.586836  0.443383  0.900511  1
  O  O24  1  0.689860  0.555155  0.295576  1
  O  O25  1  0.810140  0.055155  0.704424  1
  O  O26  1  0.913164  0.943383  0.099489  1
  O  O27  1  0.956777  0.660517  0.756480  1
