# generated using pymatgen
data_Na4Sb2C4SO16
_symmetry_space_group_name_H-M   'P 1'
_cell_length_a   10.34452875
_cell_length_b   10.10870097
_cell_length_c   10.18594013
_cell_angle_alpha   118.74844090
_cell_angle_beta   59.50821453
_cell_angle_gamma   119.29980485
_symmetry_Int_Tables_number   1
_chemical_formula_structural   Na4Sb2C4SO16
_chemical_formula_sum   'Na8 Sb4 C8 S2 O32'
_cell_volume   761.09205227
_cell_formula_units_Z   2
loop_
 _symmetry_equiv_pos_site_id
 _symmetry_equiv_pos_as_xyz
  1  'x, y, z'
loop_
 _atom_site_type_symbol
 _atom_site_label
 _atom_site_symmetry_multiplicity
 _atom_site_fract_x
 _atom_site_fract_y
 _atom_site_fract_z
 _atom_site_occupancy
  Na  Na0  1  0.919093  0.164398  0.321131  1
  Na  Na1  1  0.916781  0.161625  0.924855  1
  Na  Na2  1  0.920364  0.574888  0.327967  1
  Na  Na3  1  0.668530  0.430205  0.078308  1
  Na  Na4  1  0.330542  0.171691  0.918071  1
  Na  Na5  1  0.340143  0.580918  0.924588  1
  Na  Na6  1  0.077165  0.427140  0.668106  1
  Na  Na7  1  0.080946  0.817589  0.668092  1
  Sb  Sb8  1  0.495858  0.993652  0.000444  1
  Sb  Sb9  1  0.507111  0.995261  0.488630  1
  Sb  Sb10  1  0.497679  0.499478  0.501472  1
  Sb  Sb11  1  0.999857  0.993327  0.491672  1
  C  C12  1  0.722371  0.160862  0.716950  1
  C  C13  1  0.670839  0.227671  0.272322  1
  C  C14  1  0.268429  0.217993  0.669908  1
  C  C15  1  0.282897  0.226692  0.278673  1
  C  C16  1  0.718506  0.780002  0.718133  1
  C  C17  1  0.728386  0.783881  0.340204  1
  C  C18  1  0.337192  0.780482  0.729851  1
  C  C19  1  0.271458  0.833454  0.285139  1
  S  S20  1  0.876178  0.623571  0.872261  1
  S  S21  1  0.121977  0.370400  0.121229  1
  O  O22  1  0.855529  0.171943  0.711814  1
  O  O23  1  0.672811  0.108698  0.289585  1
  O  O24  1  0.711739  0.145532  0.588822  1
  O  O25  1  0.677153  0.214530  0.136554  1
  O  O26  1  0.599696  0.164006  0.851645  1
  O  O27  1  0.942527  0.565564  0.690644  1
  O  O28  1  0.931656  0.554257  0.929948  1
  O  O29  1  0.667029  0.360360  0.390491  1
  O  O30  1  0.292330  0.112938  0.143758  1
  O  O31  1  0.385233  0.202805  0.668938  1
  O  O32  1  0.700093  0.564024  0.932031  1
  O  O33  1  0.940636  0.800965  0.925670  1
  O  O34  1  0.854163  0.782904  0.596707  1
  O  O35  1  0.724086  0.647969  0.328511  1
  O  O36  1  0.409640  0.349193  0.293906  1
  O  O37  1  0.133841  0.102443  0.676284  1
  O  O38  1  0.594873  0.655568  0.712179  1
  O  O39  1  0.855156  0.908746  0.347158  1
  O  O40  1  0.282508  0.354171  0.667478  1
  O  O41  1  0.148049  0.218742  0.398811  1
  O  O42  1  0.298183  0.424961  0.057734  1
  O  O43  1  0.061754  0.190543  0.062140  1
  O  O44  1  0.605317  0.794989  0.347376  1
  O  O45  1  0.711690  0.907378  0.842780  1
  O  O46  1  0.324741  0.644570  0.617849  1
  O  O47  1  0.055501  0.425521  0.299591  1
  O  O48  1  0.064896  0.432368  0.058878  1
  O  O49  1  0.386601  0.824384  0.147814  1
  O  O50  1  0.354228  0.794670  0.855877  1
  O  O51  1  0.288197  0.852821  0.411475  1
  O  O52  1  0.333562  0.900770  0.718491  1
  O  O53  1  0.134274  0.822941  0.297504  1
