# generated using pymatgen
data_LiTiSiO4
_symmetry_space_group_name_H-M   'P 1'
_cell_length_a   9.36038744
_cell_length_b   6.10274909
_cell_length_c   4.98098017
_cell_angle_alpha   90.00164612
_cell_angle_beta   89.99291081
_cell_angle_gamma   89.99747793
_symmetry_Int_Tables_number   1
_chemical_formula_structural   LiTiSiO4
_chemical_formula_sum   'Li4 Ti4 Si4 O16'
_cell_volume   284.53398660
_cell_formula_units_Z   4
loop_
 _symmetry_equiv_pos_site_id
 _symmetry_equiv_pos_as_xyz
  1  'x, y, z'
loop_
 _atom_site_type_symbol
 _atom_site_label
 _atom_site_symmetry_multiplicity
 _atom_site_fract_x
 _atom_site_fract_y
 _atom_site_fract_z
 _atom_site_occupancy
  Li  Li0  1  0.169640  0.750015  0.480254  1
  Li  Li1  1  0.330388  0.249994  0.980246  1
  Li  Li2  1  0.669612  0.750006  0.019754  1
  Li  Li3  1  0.830360  0.249986  0.519746  1
  Ti  Ti4  1  1.000000  0.000002  1.000000  1
  Ti  Ti5  1  0.000000  0.500000  0.000001  1
  Ti  Ti6  1  0.500000  0.000003  0.499999  1
  Ti  Ti7  1  0.500000  0.499998  0.499998  1
  Si  Si8  1  0.177576  0.249990  0.475435  1
  Si  Si9  1  0.322418  0.749998  0.975446  1
  Si  Si10  1  0.677582  0.250003  0.024554  1
  Si  Si11  1  0.822424  0.750008  0.524565  1
  O  O12  1  0.129091  0.249980  0.798431  1
  O  O13  1  0.115549  0.031500  0.327926  1
  O  O14  1  0.115551  0.468522  0.327934  1
  O  O15  1  0.147190  0.750018  0.901330  1
  O  O16  1  0.352821  0.249996  0.401326  1
  O  O17  1  0.384455  0.968515  0.827937  1
  O  O18  1  0.384463  0.531489  0.827914  1
  O  O19  1  0.370908  0.749998  0.298415  1
  O  O20  1  0.629092  0.250002  0.701585  1
  O  O21  1  0.615546  0.031482  0.172064  1
  O  O22  1  0.615537  0.468509  0.172088  1
  O  O23  1  0.647179  0.750004  0.598675  1
  O  O24  1  0.852810  0.249983  0.098667  1
  O  O25  1  0.884448  0.531478  0.672065  1
  O  O26  1  0.884451  0.968500  0.672076  1
  O  O27  1  0.870909  0.750020  0.201569  1
