# generated using pymatgen
data_Nd7V(Se2O)4
_symmetry_space_group_name_H-M   'P 1'
_cell_length_a   4.04792521
_cell_length_b   14.48293329
_cell_length_c   15.84763103
_cell_angle_alpha   90.00000000
_cell_angle_beta   90.00000000
_cell_angle_gamma   90.00000000
_symmetry_Int_Tables_number   1
_chemical_formula_structural   Nd7V(Se2O)4
_chemical_formula_sum   'Nd14 V2 Se16 O8'
_cell_volume   929.08053502
_cell_formula_units_Z   2
loop_
 _symmetry_equiv_pos_site_id
 _symmetry_equiv_pos_as_xyz
  1  'x, y, z'
loop_
 _atom_site_type_symbol
 _atom_site_label
 _atom_site_symmetry_multiplicity
 _atom_site_fract_x
 _atom_site_fract_y
 _atom_site_fract_z
 _atom_site_occupancy
  Nd  Nd0  1  0.000000  0.790752  0.881551  1
  Nd  Nd1  1  0.500000  0.993224  0.811035  1
  Nd  Nd2  1  0.000000  0.290752  0.618449  1
  Nd  Nd3  1  0.000000  0.000000  0.500000  1
  Nd  Nd4  1  0.500000  0.493224  0.688965  1
  Nd  Nd5  1  0.500000  0.219678  0.336171  1
  Nd  Nd6  1  0.500000  0.506776  0.311035  1
  Nd  Nd7  1  0.000000  0.209248  0.118449  1
  Nd  Nd8  1  0.500000  0.780322  0.663829  1
  Nd  Nd9  1  0.500000  0.006776  0.188965  1
  Nd  Nd10  1  0.000000  0.500000  0.000000  1
  Nd  Nd11  1  0.000000  0.709248  0.381551  1
  Nd  Nd12  1  0.500000  0.719678  0.163829  1
  Nd  Nd13  1  0.500000  0.280322  0.836171  1
  V  V14  1  0.000000  0.500000  0.500000  1
  V  V15  1  0.000000  0.000000  0.000000  1
  Se  Se16  1  0.500000  0.381810  0.468514  1
  Se  Se17  1  0.500000  0.118190  0.968514  1
  Se  Se18  1  0.000000  0.656014  0.735579  1
  Se  Se19  1  0.500000  0.881810  0.031486  1
  Se  Se20  1  0.500000  0.854189  0.471836  1
  Se  Se21  1  0.000000  0.156014  0.764421  1
  Se  Se22  1  0.000000  0.843986  0.235579  1
  Se  Se23  1  0.000000  0.343986  0.264421  1
  Se  Se24  1  0.000000  0.569797  0.172597  1
  Se  Se25  1  0.500000  0.354189  0.028164  1
  Se  Se26  1  0.000000  0.069797  0.327403  1
  Se  Se27  1  0.500000  0.645811  0.971836  1
  Se  Se28  1  0.000000  0.430203  0.827403  1
  Se  Se29  1  0.000000  0.930203  0.672597  1
  Se  Se30  1  0.500000  0.145811  0.528164  1
  Se  Se31  1  0.500000  0.618190  0.531486  1
  O  O32  1  0.000000  0.544731  0.382054  1
  O  O33  1  0.000000  0.455269  0.617946  1
  O  O34  1  0.500000  0.827532  0.811951  1
  O  O35  1  0.000000  0.044731  0.117946  1
  O  O36  1  0.000000  0.955269  0.882054  1
  O  O37  1  0.500000  0.172468  0.188049  1
  O  O38  1  0.500000  0.327532  0.688049  1
  O  O39  1  0.500000  0.672468  0.311951  1
