# generated using pymatgen
data_LiFeSiO4
_symmetry_space_group_name_H-M   'P 1'
_cell_length_a   8.49908906
_cell_length_b   5.33554025
_cell_length_c   8.28780138
_cell_angle_alpha   90.00000000
_cell_angle_beta   105.70427865
_cell_angle_gamma   90.00000000
_symmetry_Int_Tables_number   1
_chemical_formula_structural   LiFeSiO4
_chemical_formula_sum   'Li4 Fe4 Si4 O16'
_cell_volume   361.79973637
_cell_formula_units_Z   4
loop_
 _symmetry_equiv_pos_site_id
 _symmetry_equiv_pos_as_xyz
  1  'x, y, z'
loop_
 _atom_site_type_symbol
 _atom_site_label
 _atom_site_symmetry_multiplicity
 _atom_site_fract_x
 _atom_site_fract_y
 _atom_site_fract_z
 _atom_site_occupancy
  Li  Li0  1  0.077258  0.850248  0.971227  1
  Li  Li1  1  0.284501  0.333961  0.503628  1
  Li  Li2  1  0.577258  0.149752  0.971227  1
  Li  Li3  1  0.784501  0.666039  0.503628  1
  Fe  Fe4  1  0.210042  0.335732  0.865390  1
  Fe  Fe5  1  0.380930  0.827029  0.367635  1
  Fe  Fe6  1  0.710042  0.664268  0.865390  1
  Fe  Fe7  1  0.880930  0.172971  0.367635  1
  Si  Si8  1  0.005771  0.671127  0.246817  1
  Si  Si9  1  0.331395  0.832466  0.740402  1
  Si  Si10  1  0.505771  0.328873  0.246817  1
  Si  Si11  1  0.831395  0.167534  0.740402  1
  O  O12  1  0.012927  0.183543  0.877667  1
  O  O13  1  0.040768  0.382198  0.317465  1
  O  O14  1  0.196935  0.685657  0.818168  1
  O  O15  1  0.281303  0.131599  0.705483  1
  O  O16  1  0.174553  0.786253  0.213987  1
  O  O17  1  0.341524  0.692435  0.566459  1
  O  O18  1  0.512927  0.816457  0.877667  1
  O  O19  1  0.436056  0.171194  0.384863  1
  O  O20  1  0.379836  0.291780  0.059608  1
  O  O21  1  0.540768  0.617802  0.317465  1
  O  O22  1  0.696935  0.314343  0.818168  1
  O  O23  1  0.781303  0.868401  0.705483  1
  O  O24  1  0.674553  0.213747  0.213987  1
  O  O25  1  0.841524  0.307565  0.566459  1
  O  O26  1  0.936056  0.828806  0.384863  1
  O  O27  1  0.879836  0.708220  0.059608  1
