# generated using pymatgen
data_Na3Ni2P2(CO7)2
_symmetry_space_group_name_H-M   'P 1'
_cell_length_a   8.84816432
_cell_length_b   5.16493904
_cell_length_c   13.03304251
_cell_angle_alpha   89.91667331
_cell_angle_beta   90.90556955
_cell_angle_gamma   88.41934219
_symmetry_Int_Tables_number   1
_chemical_formula_structural   Na3Ni2P2(CO7)2
_chemical_formula_sum   'Na6 Ni4 P4 C4 O28'
_cell_volume   595.31096312
_cell_formula_units_Z   2
loop_
 _symmetry_equiv_pos_site_id
 _symmetry_equiv_pos_as_xyz
  1  'x, y, z'
loop_
 _atom_site_type_symbol
 _atom_site_label
 _atom_site_symmetry_multiplicity
 _atom_site_fract_x
 _atom_site_fract_y
 _atom_site_fract_z
 _atom_site_occupancy
  Na  Na0  1  0.250787  0.245167  0.001504  1
  Na  Na1  1  0.251790  0.246634  0.243157  1
  Na  Na2  1  0.257172  0.243644  0.516788  1
  Na  Na3  1  0.742828  0.756356  0.483212  1
  Na  Na4  1  0.748210  0.753366  0.756843  1
  Na  Na5  1  0.749213  0.754833  0.998495  1
  Ni  Ni6  1  0.344979  0.781474  0.374969  1
  Ni  Ni7  1  0.342382  0.782664  0.870613  1
  Ni  Ni8  1  0.657618  0.217336  0.129387  1
  Ni  Ni9  1  0.655021  0.218526  0.625031  1
  P  P10  1  0.426404  0.721085  0.125415  1
  P  P11  1  0.423960  0.717228  0.624988  1
  P  P12  1  0.576040  0.282772  0.375012  1
  P  P13  1  0.573596  0.278915  0.874585  1
  C  C14  1  0.071937  0.714307  0.373431  1
  C  C15  1  0.071429  0.714054  0.874988  1
  C  C16  1  0.928063  0.285693  0.626569  1
  C  C17  1  0.928571  0.285946  0.125012  1
  O  O18  1  0.068367  0.323801  0.122020  1
  O  O19  1  0.066916  0.324120  0.626600  1
  O  O20  1  0.130142  0.942468  0.372408  1
  O  O21  1  0.129336  0.941291  0.874744  1
  O  O22  1  0.173512  0.524609  0.374902  1
  O  O23  1  0.173037  0.527663  0.871749  1
  O  O24  1  0.320971  0.790830  0.531295  1
  O  O25  1  0.322419  0.786224  0.031103  1
  O  O26  1  0.326211  0.791154  0.218483  1
  O  O27  1  0.323857  0.786714  0.716782  1
  O  O28  1  0.424395  0.138642  0.375801  1
  O  O29  1  0.424669  0.132806  0.876480  1
  O  O30  1  0.463798  0.421991  0.125616  1
  O  O31  1  0.464998  0.422123  0.620793  1
  O  O32  1  0.535002  0.577877  0.379207  1
  O  O33  1  0.536202  0.578009  0.874384  1
  O  O34  1  0.575605  0.861358  0.624199  1
  O  O35  1  0.575331  0.867194  0.123520  1
  O  O36  1  0.673789  0.208846  0.781517  1
  O  O37  1  0.677581  0.213776  0.968897  1
  O  O38  1  0.676143  0.213286  0.283218  1
  O  O39  1  0.679029  0.209170  0.468705  1
  O  O40  1  0.826963  0.472337  0.128251  1
  O  O41  1  0.826488  0.475391  0.625098  1
  O  O42  1  0.869857  0.057532  0.627592  1
  O  O43  1  0.870664  0.058708  0.125256  1
  O  O44  1  0.931633  0.676199  0.877980  1
  O  O45  1  0.933084  0.675880  0.373400  1
