# generated using pymatgen
data_Li4Si2NiO7
_symmetry_space_group_name_H-M   'P 1'
_cell_length_a   5.37872917
_cell_length_b   7.20483908
_cell_length_c   8.15524451
_cell_angle_alpha   85.95148752
_cell_angle_beta   90.00000000
_cell_angle_gamma   68.08244888
_symmetry_Int_Tables_number   1
_chemical_formula_structural   Li4Si2NiO7
_chemical_formula_sum   'Li8 Si4 Ni2 O14'
_cell_volume   292.34625219
_cell_formula_units_Z   2
loop_
 _symmetry_equiv_pos_site_id
 _symmetry_equiv_pos_as_xyz
  1  'x, y, z'
loop_
 _atom_site_type_symbol
 _atom_site_label
 _atom_site_symmetry_multiplicity
 _atom_site_fract_x
 _atom_site_fract_y
 _atom_site_fract_z
 _atom_site_occupancy
  Li  Li0  1  0.736158  0.851359  0.875409  1
  Li  Li1  1  0.412484  0.851359  0.375409  1
  Li  Li2  1  0.882664  0.585150  0.593728  1
  Li  Li3  1  0.532186  0.585150  0.093728  1
  Li  Li4  1  0.123047  0.443185  0.947500  1
  Li  Li5  1  0.433768  0.443185  0.447500  1
  Li  Li6  1  0.185315  0.999308  0.019566  1
  Li  Li7  1  0.815378  0.999308  0.519566  1
  Si  Si8  1  0.307438  0.726864  0.739689  1
  Si  Si9  1  0.965699  0.726864  0.239689  1
  Si  Si10  1  0.254810  0.147508  0.668991  1
  Si  Si11  1  0.597683  0.147508  0.168991  1
  Ni  Ni12  1  0.680306  0.303868  0.798528  1
  Ni  Ni13  1  0.015825  0.303868  0.298528  1
  O  O14  1  0.219078  0.939483  0.605585  1
  O  O15  1  0.841439  0.939483  0.105585  1
  O  O16  1  0.427217  0.779639  0.905371  1
  O  O17  1  0.793144  0.779639  0.405371  1
  O  O18  1  0.046766  0.669460  0.773707  1
  O  O19  1  0.283774  0.669460  0.273707  1
  O  O20  1  0.538767  0.549888  0.643373  1
  O  O21  1  0.911345  0.549888  0.143373  1
  O  O22  1  0.145131  0.323446  0.518895  1
  O  O23  1  0.531423  0.323446  0.018895  1
  O  O24  1  0.071752  0.216470  0.832200  1
  O  O25  1  0.711778  0.216470  0.332200  1
  O  O26  1  0.575399  0.095355  0.707138  1
  O  O27  1  0.329246  0.095355  0.207138  1
