# generated using pymatgen
data_Li3V3P8O29
_symmetry_space_group_name_H-M   'P 1'
_cell_length_a   9.78057295
_cell_length_b   9.71697527
_cell_length_c   14.34837231
_cell_angle_alpha   90.08478019
_cell_angle_beta   90.98964724
_cell_angle_gamma   60.20666192
_symmetry_Int_Tables_number   1
_chemical_formula_structural   Li3V3P8O29
_chemical_formula_sum   'Li6 V6 P16 O58'
_cell_volume   1183.17767815
_cell_formula_units_Z   2
loop_
 _symmetry_equiv_pos_site_id
 _symmetry_equiv_pos_as_xyz
  1  'x, y, z'
loop_
 _atom_site_type_symbol
 _atom_site_label
 _atom_site_symmetry_multiplicity
 _atom_site_fract_x
 _atom_site_fract_y
 _atom_site_fract_z
 _atom_site_occupancy
  Li  Li0  1  0.321027  0.905136  0.056428  1
  Li  Li1  1  0.670390  0.232297  0.446152  1
  Li  Li2  1  0.328327  0.766533  0.564887  1
  Li  Li3  1  0.326723  0.335488  0.095689  1
  Li  Li4  1  0.937045  0.015379  0.989106  1
  Li  Li5  1  0.000489  0.003352  0.517224  1
  V  V6  1  0.570931  0.434950  0.246591  1
  V  V7  1  0.437296  0.559893  0.755719  1
  V  V8  1  0.567695  0.995058  0.750251  1
  V  V9  1  0.433693  0.002894  0.253650  1
  V  V10  1  0.999791  0.564000  0.253188  1
  V  V11  1  0.998116  0.441668  0.746427  1
  P  P12  1  0.920234  0.781063  0.841070  1
  P  P13  1  0.780678  0.916478  0.337565  1
  P  P14  1  0.922835  0.296953  0.341760  1
  P  P15  1  0.664329  0.672274  0.131865  1
  P  P16  1  0.659699  0.668394  0.632827  1
  P  P17  1  0.787174  0.304162  0.837215  1
  P  P18  1  0.686161  0.224274  0.658402  1
  P  P19  1  0.315043  0.911970  0.844744  1
  P  P20  1  0.688965  0.087614  0.154840  1
  P  P21  1  0.317536  0.769822  0.344949  1
  P  P22  1  0.218323  0.690185  0.166149  1
  P  P23  1  0.339099  0.334937  0.367570  1
  P  P24  1  0.334159  0.328212  0.865003  1
  P  P25  1  0.084037  0.701402  0.658121  1
  P  P26  1  0.216869  0.087044  0.664815  1
  P  P27  1  0.085243  0.219729  0.157589  1
  O  O28  1  0.013509  0.804341  0.574766  1
  O  O29  1  0.914435  0.740455  0.332737  1
  O  O30  1  0.777464  0.018219  0.069376  1
  O  O31  1  0.742566  0.910551  0.828411  1
  O  O32  1  0.928569  0.618068  0.828095  1
  O  O33  1  0.815393  0.658815  0.179955  1
  O  O34  1  0.929051  0.453773  0.327708  1
  O  O35  1  0.008509  0.201364  0.073014  1
  O  O36  1  0.915641  0.352021  0.828840  1
  O  O37  1  0.661088  0.815111  0.678526  1
  O  O38  1  0.620058  0.919799  0.324652  1
  O  O39  1  0.809965  0.523684  0.677771  1
  O  O40  1  0.656983  0.671330  0.028993  1
  O  O41  1  0.650453  0.673951  0.529475  1
  O  O42  1  0.656386  0.526618  0.177301  1
  O  O43  1  0.470805  0.912059  0.828729  1
  O  O44  1  0.519368  0.821487  0.173870  1
  O  O45  1  0.744724  0.341531  0.331487  1
  O  O46  1  0.804246  0.205775  0.742442  1
  O  O47  1  0.764363  0.210177  0.567698  1
  O  O48  1  0.805884  0.205509  0.919444  1
  O  O49  1  0.622552  0.459414  0.827541  1
  O  O50  1  0.512300  0.667739  0.674702  1
  O  O51  1  0.650205  0.264110  0.168879  1
  O  O52  1  0.471880  0.615050  0.324363  1
  O  O53  1  0.347543  0.911713  0.326611  1
  O  O54  1  0.799268  0.995920  0.244064  1
  O  O55  1  0.790950  0.004326  0.419536  1
  O  O56  1  0.194775  0.996778  0.587115  1
  O  O57  1  0.648558  0.088246  0.671174  1
  O  O58  1  0.532411  0.383210  0.673603  1
  O  O59  1  0.349035  0.738463  0.829069  1
  O  O60  1  0.489294  0.331294  0.327761  1
  O  O61  1  0.373294  0.524560  0.173944  1
  O  O62  1  0.215435  0.790781  0.087881  1
  O  O63  1  0.249694  0.780654  0.437835  1
  O  O64  1  0.196605  0.783623  0.263739  1
  O  O65  1  0.263211  0.650201  0.666799  1
  O  O66  1  0.478398  0.181576  0.823548  1
  O  O67  1  0.527316  0.095886  0.167484  1
  O  O68  1  0.338406  0.477567  0.824989  1
  O  O69  1  0.334146  0.329328  0.968870  1
  O  O70  1  0.344484  0.326230  0.470569  1
  O  O71  1  0.190126  0.480106  0.321563  1
  O  O72  1  0.379925  0.075464  0.671242  1
  O  O73  1  0.337942  0.187292  0.318979  1
  O  O74  1  0.080608  0.653729  0.166209  1
  O  O75  1  0.005033  0.801861  0.750840  1
  O  O76  1  0.989942  0.808167  0.926507  1
  O  O77  1  0.070113  0.548901  0.667161  1
  O  O78  1  0.185271  0.336471  0.819329  1
  O  O79  1  0.091733  0.376753  0.171200  1
  O  O80  1  0.263839  0.083386  0.163882  1
  O  O81  1  0.241029  0.973249  0.936029  1
  O  O82  1  0.195316  0.014258  0.762116  1
  O  O83  1  0.085542  0.263900  0.666298  1
  O  O84  1  0.992827  0.202104  0.427407  1
  O  O85  1  0.006533  0.196057  0.250129  1
