# generated using pymatgen
data_TmAsO4
_symmetry_space_group_name_H-M   'P 1'
_cell_length_a   5.90904255
_cell_length_b   5.90904255
_cell_length_c   5.90904255
_cell_angle_alpha   106.55008884
_cell_angle_beta   106.54312297
_cell_angle_gamma   115.49355980
_symmetry_Int_Tables_number   1
_chemical_formula_structural   TmAsO4
_chemical_formula_sum   'Tm2 As2 O8'
_cell_volume   157.49910742
_cell_formula_units_Z   2
loop_
 _symmetry_equiv_pos_site_id
 _symmetry_equiv_pos_as_xyz
  1  'x, y, z'
loop_
 _atom_site_type_symbol
 _atom_site_label
 _atom_site_symmetry_multiplicity
 _atom_site_fract_x
 _atom_site_fract_y
 _atom_site_fract_z
 _atom_site_occupancy
  Tm  Tm0  1  0.875030  0.125030  0.750000  1
  Tm  Tm1  1  0.124970  0.874970  0.250000  1
  As  As2  1  0.625103  0.375103  0.250000  1
  As  As3  1  0.374897  0.624897  0.750000  1
  O  O4  1  0.805306  0.372761  0.067455  1
  O  O5  1  0.262152  0.194755  0.067397  1
  O  O6  1  0.627358  0.194755  0.432603  1
  O  O7  1  0.805306  0.737852  0.432545  1
  O  O8  1  0.194694  0.262148  0.567455  1
  O  O9  1  0.372642  0.805245  0.567397  1
  O  O10  1  0.737848  0.805245  0.932603  1
  O  O11  1  0.194694  0.627239  0.932545  1
