# generated using pymatgen
data_LiNiPO4
_symmetry_space_group_name_H-M   'P 1'
_cell_length_a   6.82531136
_cell_length_b   8.04719491
_cell_length_c   5.22010848
_cell_angle_alpha   90.00000000
_cell_angle_beta   90.00000000
_cell_angle_gamma   90.00000000
_symmetry_Int_Tables_number   1
_chemical_formula_structural   LiNiPO4
_chemical_formula_sum   'Li4 Ni4 P4 O16'
_cell_volume   286.71242678
_cell_formula_units_Z   4
loop_
 _symmetry_equiv_pos_site_id
 _symmetry_equiv_pos_as_xyz
  1  'x, y, z'
loop_
 _atom_site_type_symbol
 _atom_site_label
 _atom_site_symmetry_multiplicity
 _atom_site_fract_x
 _atom_site_fract_y
 _atom_site_fract_z
 _atom_site_occupancy
  Li  Li0  1  0.248726  0.554188  0.218219  1
  Li  Li1  1  0.251274  0.054188  0.718219  1
  Li  Li2  1  0.748726  0.945812  0.218219  1
  Li  Li3  1  0.751274  0.445812  0.718219  1
  Ni  Ni4  1  0.964114  0.755524  0.738916  1
  Ni  Ni5  1  0.535886  0.255524  0.238916  1
  Ni  Ni6  1  0.464114  0.744476  0.738916  1
  Ni  Ni7  1  0.035886  0.244476  0.238916  1
  P  P8  1  0.216945  0.408548  0.723040  1
  P  P9  1  0.283055  0.908548  0.223040  1
  P  P10  1  0.716945  0.091452  0.723040  1
  P  P11  1  0.783055  0.591452  0.223040  1
  O  O12  1  0.030810  0.513450  0.685651  1
  O  O13  1  0.275803  0.336175  0.450661  1
  O  O14  1  0.184694  0.255503  0.900860  1
  O  O15  1  0.380658  0.515632  0.843652  1
  O  O16  1  0.119342  0.015632  0.343652  1
  O  O17  1  0.315306  0.755503  0.400860  1
  O  O18  1  0.224197  0.836175  0.950661  1
  O  O19  1  0.469190  0.013450  0.185651  1
  O  O20  1  0.530810  0.986550  0.685651  1
  O  O21  1  0.775803  0.163825  0.450661  1
  O  O22  1  0.684694  0.244497  0.900860  1
  O  O23  1  0.880658  0.984368  0.843652  1
  O  O24  1  0.619342  0.484368  0.343652  1
  O  O25  1  0.815306  0.744497  0.400860  1
  O  O26  1  0.724197  0.663825  0.950661  1
  O  O27  1  0.969190  0.486550  0.185651  1
