# generated using pymatgen
data_Li2Mn3F8
_symmetry_space_group_name_H-M   'P 1'
_cell_length_a   9.39371421
_cell_length_b   9.39371421
_cell_length_c   9.39371421
_cell_angle_alpha   107.38978134
_cell_angle_beta   107.38978134
_cell_angle_gamma   113.71946319
_symmetry_Int_Tables_number   1
_chemical_formula_structural   Li2Mn3F8
_chemical_formula_sum   'Li8 Mn12 F32'
_cell_volume   635.45061143
_cell_formula_units_Z   4
loop_
 _symmetry_equiv_pos_site_id
 _symmetry_equiv_pos_as_xyz
  1  'x, y, z'
loop_
 _atom_site_type_symbol
 _atom_site_label
 _atom_site_symmetry_multiplicity
 _atom_site_fract_x
 _atom_site_fract_y
 _atom_site_fract_z
 _atom_site_occupancy
  Li  Li0  1  0.564531  0.714075  0.037465  1
  Li  Li1  1  0.823390  0.472935  0.537465  1
  Li  Li2  1  0.785925  0.323390  0.850455  1
  Li  Li3  1  0.027065  0.064531  0.350455  1
  Li  Li4  1  0.972935  0.935469  0.649545  1
  Li  Li5  1  0.214075  0.676610  0.149545  1
  Li  Li6  1  0.435469  0.285925  0.962535  1
  Li  Li7  1  0.176610  0.527065  0.462535  1
  Mn  Mn8  1  0.736199  0.157439  0.186854  1
  Mn  Mn9  1  0.875000  0.625000  0.250000  1
  Mn  Mn10  1  0.375000  0.125000  0.250000  1
  Mn  Mn11  1  0.342561  0.029415  0.578761  1
  Mn  Mn12  1  0.049346  0.236199  0.078761  1
  Mn  Mn13  1  0.470585  0.549346  0.313146  1
  Mn  Mn14  1  0.529415  0.450654  0.686854  1
  Mn  Mn15  1  0.657439  0.970585  0.421239  1
  Mn  Mn16  1  0.950654  0.763801  0.921239  1
  Mn  Mn17  1  0.125000  0.375000  0.750000  1
  Mn  Mn18  1  0.625000  0.875000  0.750000  1
  Mn  Mn19  1  0.263801  0.842561  0.813146  1
  F  F20  1  0.787578  0.187820  0.991695  1
  F  F21  1  0.960967  0.618701  0.076834  1
  F  F22  1  0.958133  0.115867  0.576834  1
  F  F23  1  0.485317  0.136084  0.080161  1
  F  F24  1  0.687820  0.196123  0.400241  1
  F  F25  1  0.881299  0.458133  0.342266  1
  F  F26  1  0.615867  0.539033  0.157734  1
  F  F27  1  0.636084  0.055924  0.650767  1
  F  F28  1  0.094843  0.014683  0.150767  1
  F  F29  1  0.295882  0.287578  0.099759  1
  F  F30  1  0.555924  0.405157  0.419839  1
  F  F31  1  0.784046  0.476835  0.733363  1
  F  F32  1  0.756528  0.949317  0.233363  1
  F  F33  1  0.303877  0.204118  0.491695  1
  F  F34  1  0.449317  0.715954  0.192789  1
  F  F35  1  0.976835  0.743472  0.692789  1
  F  F36  1  0.023165  0.256528  0.307211  1
  F  F37  1  0.550683  0.284046  0.807211  1
  F  F38  1  0.696123  0.795882  0.508305  1
  F  F39  1  0.215954  0.523165  0.266637  1
  F  F40  1  0.243472  0.050683  0.766637  1
  F  F41  1  0.444076  0.594843  0.580161  1
  F  F42  1  0.704118  0.712422  0.900241  1
  F  F43  1  0.905157  0.985317  0.849233  1
  F  F44  1  0.363916  0.944076  0.349233  1
  F  F45  1  0.384133  0.460967  0.842266  1
  F  F46  1  0.118701  0.541867  0.657734  1
  F  F47  1  0.312180  0.803877  0.599759  1
  F  F48  1  0.514683  0.863916  0.919839  1
  F  F49  1  0.039033  0.381299  0.923166  1
  F  F50  1  0.041867  0.884133  0.423166  1
  F  F51  1  0.212422  0.812180  0.008305  1
