# generated using pymatgen
data_CuH10SO9
_symmetry_space_group_name_H-M   'P 1'
_cell_length_a   6.45380462
_cell_length_b   10.96476919
_cell_length_c   6.43076760
_cell_angle_alpha   87.47736852
_cell_angle_beta   109.13004408
_cell_angle_gamma   98.47806579
_symmetry_Int_Tables_number   1
_chemical_formula_structural   CuH10SO9
_chemical_formula_sum   'Cu2 H20 S2 O18'
_cell_volume   425.23695423
_cell_formula_units_Z   2
loop_
 _symmetry_equiv_pos_site_id
 _symmetry_equiv_pos_as_xyz
  1  'x, y, z'
loop_
 _atom_site_type_symbol
 _atom_site_label
 _atom_site_symmetry_multiplicity
 _atom_site_fract_x
 _atom_site_fract_y
 _atom_site_fract_z
 _atom_site_occupancy
  Cu  Cu0  1  0.000000  0.000000  0.000000  1
  Cu  Cu1  1  0.500000  0.500000  0.000000  1
  H  H2  1  0.104788  0.857460  0.747606  1
  H  H3  1  0.895212  0.142540  0.252394  1
  H  H4  1  0.263943  0.983730  0.759525  1
  H  H5  1  0.736057  0.016270  0.240475  1
  H  H6  1  0.705223  0.819359  0.988475  1
  H  H7  1  0.294777  0.180641  0.011525  1
  H  H8  1  0.692893  0.794060  0.752757  1
  H  H9  1  0.307107  0.205940  0.247243  1
  H  H10  1  0.674920  0.619377  0.593731  1
  H  H11  1  0.325080  0.380623  0.406269  1
  H  H12  1  0.431514  0.638948  0.552807  1
  H  H13  1  0.568486  0.361052  0.447193  1
  H  H14  1  0.214173  0.607408  0.119250  1
  H  H15  1  0.785827  0.392592  0.880750  1
  H  H16  1  0.150772  0.613209  0.851158  1
  H  H17  1  0.849228  0.386791  0.148842  1
  H  H18  1  0.426472  0.886022  0.300232  1
  H  H19  1  0.573528  0.113978  0.699768  1
  H  H20  1  0.607447  0.090489  0.815610  1
  H  H21  1  0.392553  0.909511  0.184390  1
  S  S22  1  0.018690  0.719935  0.403012  1
  S  S23  1  0.981310  0.280065  0.596988  1
  O  O24  1  0.061629  0.848234  0.344836  1
  O  O25  1  0.938371  0.151766  0.655164  1
  O  O26  1  0.762232  0.689387  0.241258  1
  O  O27  1  0.237768  0.310613  0.758742  1
  O  O28  1  0.150896  0.634965  0.351914  1
  O  O29  1  0.849104  0.365034  0.648086  1
  O  O30  1  0.013148  0.703419  0.630377  1
  O  O31  1  0.986852  0.296581  0.369623  1
  O  O32  1  0.177834  0.931832  0.838378  1
  O  O33  1  0.822166  0.068168  0.161622  1
  O  O34  1  0.731821  0.864279  0.862481  1
  O  O35  1  0.268179  0.135721  0.137519  1
  O  O36  1  0.580350  0.652328  0.663370  1
  O  O37  1  0.419650  0.347672  0.336630  1
  O  O38  1  0.247165  0.581148  0.989572  1
  O  O39  1  0.752835  0.418852  0.010428  1
  O  O40  1  0.339107  0.433385  0.715234  1
  O  O41  1  0.660893  0.566615  0.284766  1
