# generated using pymatgen
data_MnV3Ni2(PO4)6
_symmetry_space_group_name_H-M   'P 1'
_cell_length_a   8.47950079
_cell_length_b   8.65826545
_cell_length_c   8.65826556
_cell_angle_alpha   59.99999987
_cell_angle_beta   59.30012276
_cell_angle_gamma   59.30012479
_symmetry_Int_Tables_number   1
_chemical_formula_structural   MnV3Ni2(PO4)6
_chemical_formula_sum   'Mn1 V3 Ni2 P6 O24'
_cell_volume   444.67315731
_cell_formula_units_Z   1
loop_
 _symmetry_equiv_pos_site_id
 _symmetry_equiv_pos_as_xyz
  1  'x, y, z'
loop_
 _atom_site_type_symbol
 _atom_site_label
 _atom_site_symmetry_multiplicity
 _atom_site_fract_x
 _atom_site_fract_y
 _atom_site_fract_z
 _atom_site_occupancy
  Mn  Mn0  1  0.570223  0.143259  0.143259  1
  V  V1  1  0.069097  0.643634  0.643634  1
  V  V2  1  0.426392  0.857870  0.857870  1
  V  V3  1  0.929818  0.356728  0.356728  1
  Ni  Ni4  1  0.996549  0.001150  0.001150  1
  Ni  Ni5  1  0.496397  0.501201  0.501201  1
  P  P6  1  0.251079  0.247716  0.547434  1
  P  P7  1  0.251079  0.953771  0.247716  1
  P  P8  1  0.251079  0.547434  0.953771  1
  P  P9  1  0.751945  0.457726  0.043313  1
  P  P10  1  0.751945  0.043313  0.747017  1
  P  P11  1  0.751945  0.747017  0.457726  1
  O  O12  1  0.066082  0.118798  0.311349  1
  O  O13  1  0.066082  0.503772  0.118798  1
  O  O14  1  0.066082  0.311349  0.503772  1
  O  O15  1  0.223624  0.089525  0.747869  1
  O  O16  1  0.437785  0.183238  0.397667  1
  O  O17  1  0.262695  0.410741  0.570722  1
  O  O18  1  0.223624  0.938982  0.089525  1
  O  O19  1  0.262695  0.755842  0.410741  1
  O  O20  1  0.565186  0.618369  0.002047  1
  O  O21  1  0.262695  0.570722  0.755842  1
  O  O22  1  0.786008  0.263568  0.049627  1
  O  O23  1  0.565186  0.002047  0.814398  1
  O  O24  1  0.437785  0.981310  0.183238  1
  O  O25  1  0.223624  0.747869  0.938982  1
  O  O26  1  0.727001  0.446220  0.241503  1
  O  O27  1  0.437785  0.397667  0.981310  1
  O  O28  1  0.727001  0.241503  0.585277  1
  O  O29  1  0.786008  0.049627  0.900798  1
  O  O30  1  0.727001  0.585277  0.446220  1
  O  O31  1  0.565186  0.814398  0.618369  1
  O  O32  1  0.786008  0.900798  0.263568  1
  O  O33  1  0.932436  0.666448  0.512481  1
  O  O34  1  0.932436  0.512481  0.888635  1
  O  O35  1  0.932436  0.888635  0.666448  1
