# generated using pymatgen
data_Ba2Sm2Fe4O11
_symmetry_space_group_name_H-M   'P 1'
_cell_length_a   3.94164052
_cell_length_b   8.05248978
_cell_length_c   15.76706339
_cell_angle_alpha   89.99990945
_cell_angle_beta   89.99987030
_cell_angle_gamma   90.00001486
_symmetry_Int_Tables_number   1
_chemical_formula_structural   Ba2Sm2Fe4O11
_chemical_formula_sum   'Ba4 Sm4 Fe8 O22'
_cell_volume   500.44690740
_cell_formula_units_Z   2
loop_
 _symmetry_equiv_pos_site_id
 _symmetry_equiv_pos_as_xyz
  1  'x, y, z'
loop_
 _atom_site_type_symbol
 _atom_site_label
 _atom_site_symmetry_multiplicity
 _atom_site_fract_x
 _atom_site_fract_y
 _atom_site_fract_z
 _atom_site_occupancy
  Ba  Ba0  1  0.500046  0.249984  0.750002  1
  Ba  Ba1  1  0.499959  0.749994  0.249996  1
  Ba  Ba2  1  0.500046  0.250006  0.249995  1
  Ba  Ba3  1  0.499950  0.750016  0.750001  1
  Sm  Sm4  1  0.500808  0.728530  0.999991  1
  Sm  Sm5  1  0.499186  0.228542  0.500010  1
  Sm  Sm6  1  0.499191  0.271469  0.999992  1
  Sm  Sm7  1  0.500813  0.771460  0.500010  1
  Fe  Fe8  1  0.000001  0.499999  0.376083  1
  Fe  Fe9  1  -0.000000  0.000001  0.876093  1
  Fe  Fe10  1  0.000004  0.500000  0.122910  1
  Fe  Fe11  1  0.000001  0.500002  0.877082  1
  Fe  Fe12  1  -0.000004  0.000002  0.377095  1
  Fe  Fe13  1  0.000002  0.000001  0.622913  1
  Fe  Fe14  1  0.000002  0.999998  0.123925  1
  Fe  Fe15  1  0.999997  0.500001  0.623923  1
  O  O16  1  0.000062  0.241211  0.897047  1
  O  O17  1  0.000062  0.258792  0.602956  1
  O  O18  1  0.999999  0.500001  0.747488  1
  O  O19  1  0.499999  0.000001  0.909663  1
  O  O20  1  0.500000  0.500001  0.883955  1
  O  O21  1  0.000061  0.258791  0.397052  1
  O  O22  1  0.999937  0.741207  0.602958  1
  O  O23  1  0.000001  0.000001  0.752521  1
  O  O24  1  0.500002  0.499996  0.116026  1
  O  O25  1  0.500000  0.499997  0.409704  1
  O  O26  1  0.000001  0.000000  0.247487  1
  O  O27  1  0.500000  0.000001  0.383962  1
  O  O28  1  0.000064  0.241204  0.102946  1
  O  O29  1  0.000001  0.499999  0.252518  1
  O  O30  1  -0.000000  0.500002  -0.000003  1
  O  O31  1  0.999933  0.758793  0.897048  1
  O  O32  1  0.500002  -0.000000  0.616037  1
  O  O33  1  0.499997  0.500001  0.590321  1
  O  O34  1  0.000006  0.999999  0.500005  1
  O  O35  1  0.999937  0.741209  0.397055  1
  O  O36  1  0.999937  0.758792  0.102948  1
  O  O37  1  0.500000  0.999997  0.090282  1
