# generated using pymatgen
data_Li4Cr3Cu3(TeO8)2
_symmetry_space_group_name_H-M   'P 1'
_cell_length_a   5.97317132
_cell_length_b   5.87925526
_cell_length_c   9.76651354
_cell_angle_alpha   89.99950955
_cell_angle_beta   87.20236781
_cell_angle_gamma   119.49332181
_symmetry_Int_Tables_number   1
_chemical_formula_structural   Li4Cr3Cu3(TeO8)2
_chemical_formula_sum   'Li4 Cr3 Cu3 Te2 O16'
_cell_volume   298.06313129
_cell_formula_units_Z   1
loop_
 _symmetry_equiv_pos_site_id
 _symmetry_equiv_pos_as_xyz
  1  'x, y, z'
loop_
 _atom_site_type_symbol
 _atom_site_label
 _atom_site_symmetry_multiplicity
 _atom_site_fract_x
 _atom_site_fract_y
 _atom_site_fract_z
 _atom_site_occupancy
  Li  Li0  1  0.328060  0.663999  0.914054  1
  Li  Li1  1  0.995908  0.997937  0.987227  1
  Li  Li2  1  0.008008  0.004012  0.479886  1
  Li  Li3  1  0.683902  0.342020  0.413865  1
  Cr  Cr4  1  0.654788  0.827339  0.214365  1
  Cr  Cr5  1  0.826923  0.659451  0.712665  1
  Cr  Cr6  1  0.826881  0.167478  0.712667  1
  Cu  Cu7  1  0.165074  0.828218  0.209622  1
  Cu  Cu8  1  0.164712  0.336750  0.209547  1
  Cu  Cu9  1  0.336346  0.168203  0.711165  1
  Te  Te10  1  0.343084  0.671592  0.484511  1
  Te  Te11  1  0.652413  0.326167  0.982815  1
  O  O12  1  0.166647  0.829495  0.588081  1
  O  O13  1  0.057877  0.529123  0.354278  1
  O  O14  1  0.333180  0.666653  0.119567  1
  O  O15  1  0.996249  0.998070  0.291666  1
  O  O16  1  0.995408  0.997764  0.800090  1
  O  O17  1  0.166556  0.337217  0.588047  1
  O  O18  1  0.515940  0.977812  0.360495  1
  O  O19  1  0.515710  0.538017  0.360502  1
  O  O20  1  0.318826  0.159329  0.085249  1
  O  O21  1  0.660963  0.830480  0.599097  1
  O  O22  1  0.522906  0.488958  0.851196  1
  O  O23  1  0.522932  0.033881  0.851196  1
  O  O24  1  0.670014  0.335017  0.614158  1
  O  O25  1  0.806599  0.646444  0.084952  1
  O  O26  1  0.957400  0.478716  0.841921  1
  O  O27  1  0.806694  0.160158  0.084956  1
