# generated using pymatgen
data_Fe2OF3
_symmetry_space_group_name_H-M   'P 1'
_cell_length_a   4.87715702
_cell_length_b   10.26861324
_cell_length_c   6.15777893
_cell_angle_alpha   72.50189505
_cell_angle_beta   90.02955081
_cell_angle_gamma   88.30052977
_symmetry_Int_Tables_number   1
_chemical_formula_structural   Fe2OF3
_chemical_formula_sum   'Fe8 O4 F12'
_cell_volume   293.97765676
_cell_formula_units_Z   4
loop_
 _symmetry_equiv_pos_site_id
 _symmetry_equiv_pos_as_xyz
  1  'x, y, z'
loop_
 _atom_site_type_symbol
 _atom_site_label
 _atom_site_symmetry_multiplicity
 _atom_site_fract_x
 _atom_site_fract_y
 _atom_site_fract_z
 _atom_site_occupancy
  Fe  Fe0  1  0.500159  0.249605  0.620766  1
  Fe  Fe1  1  0.499891  0.750894  0.869328  1
  Fe  Fe2  1  0.499841  0.750395  0.379234  1
  Fe  Fe3  1  0.500109  0.249106  0.130672  1
  Fe  Fe4  1  0.000000  0.000000  0.500000  1
  Fe  Fe5  1  0.033081  0.482321  0.759153  1
  Fe  Fe6  1  0.000000  0.000000  0.000000  1
  Fe  Fe7  1  0.966919  0.517679  0.240847  1
  O  O8  1  0.681761  0.160068  0.420733  1
  O  O9  1  0.666989  0.667437  0.165996  1
  O  O10  1  0.318239  0.839932  0.579267  1
  O  O11  1  0.333011  0.332563  0.834004  1
  F  F12  1  0.795266  0.398238  0.549749  1
  F  F13  1  0.795574  0.397804  0.052655  1
  F  F14  1  0.790427  0.898025  0.805544  1
  F  F15  1  0.794193  0.895832  0.297826  1
  F  F16  1  0.698602  0.149056  0.926025  1
  F  F17  1  0.706532  0.645285  0.677718  1
  F  F18  1  0.301398  0.850944  0.073975  1
  F  F19  1  0.293468  0.354715  0.322282  1
  F  F20  1  0.204426  0.602196  0.947345  1
  F  F21  1  0.209573  0.101975  0.194456  1
  F  F22  1  0.204734  0.601762  0.450251  1
  F  F23  1  0.205807  0.104168  0.702174  1
