# generated using pymatgen
data_Na3Ni2P2(CO7)2
_symmetry_space_group_name_H-M   'P 1'
_cell_length_a   8.80231927
_cell_length_b   10.27206499
_cell_length_c   6.49951614
_cell_angle_alpha   90.00000000
_cell_angle_beta   90.00000000
_cell_angle_gamma   88.37108527
_symmetry_Int_Tables_number   1
_chemical_formula_structural   Na3Ni2P2(CO7)2
_chemical_formula_sum   'Na6 Ni4 P4 C4 O28'
_cell_volume   587.43574114
_cell_formula_units_Z   2
loop_
 _symmetry_equiv_pos_site_id
 _symmetry_equiv_pos_as_xyz
  1  'x, y, z'
loop_
 _atom_site_type_symbol
 _atom_site_label
 _atom_site_symmetry_multiplicity
 _atom_site_fract_x
 _atom_site_fract_y
 _atom_site_fract_z
 _atom_site_occupancy
  Na  Na0  1  0.256442  0.127029  0.014669  1
  Na  Na1  1  0.255632  0.124255  0.487532  1
  Na  Na2  1  0.256425  0.622199  0.471777  1
  Na  Na3  1  0.743575  0.377801  0.971777  1
  Na  Na4  1  0.743558  0.872971  0.514669  1
  Na  Na5  1  0.744368  0.875745  0.987532  1
  Ni  Ni6  1  0.342527  0.393267  0.754602  1
  Ni  Ni7  1  0.343340  0.888029  0.754544  1
  Ni  Ni8  1  0.656660  0.111971  0.254544  1
  Ni  Ni9  1  0.657473  0.606733  0.254602  1
  P  P10  1  0.425065  0.360097  0.250727  1
  P  P11  1  0.423481  0.859662  0.251753  1
  P  P12  1  0.576519  0.140338  0.751753  1
  P  P13  1  0.574935  0.639903  0.750727  1
  C  C14  1  0.070315  0.357067  0.746350  1
  C  C15  1  0.071762  0.855991  0.750897  1
  C  C16  1  0.928238  0.144009  0.250897  1
  C  C17  1  0.929685  0.642933  0.246350  1
  O  O18  1  0.068519  0.160099  0.250481  1
  O  O19  1  0.068050  0.664312  0.247007  1
  O  O20  1  0.127219  0.471231  0.744513  1
  O  O21  1  0.132533  0.970206  0.753495  1
  O  O22  1  0.173885  0.262684  0.748865  1
  O  O23  1  0.172729  0.761702  0.748696  1
  O  O24  1  0.319772  0.386784  0.064765  1
  O  O25  1  0.324074  0.395283  0.437892  1
  O  O26  1  0.324360  0.898920  0.065384  1
  O  O27  1  0.322200  0.896050  0.438722  1
  O  O28  1  0.425122  0.066417  0.752349  1
  O  O29  1  0.425885  0.567404  0.743011  1
  O  O30  1  0.463187  0.209629  0.254247  1
  O  O31  1  0.466299  0.712439  0.257876  1
  O  O32  1  0.533701  0.287561  0.757876  1
  O  O33  1  0.536813  0.790371  0.754247  1
  O  O34  1  0.574114  0.432596  0.243011  1
  O  O35  1  0.574878  0.933583  0.252349  1
  O  O36  1  0.675640  0.101080  0.565384  1
  O  O37  1  0.677800  0.103950  0.938722  1
  O  O38  1  0.680228  0.613216  0.564765  1
  O  O39  1  0.675926  0.604716  0.937892  1
  O  O40  1  0.827271  0.238298  0.248696  1
  O  O41  1  0.826115  0.737316  0.248865  1
  O  O42  1  0.867467  0.029794  0.253495  1
  O  O43  1  0.872781  0.528769  0.244513  1
  O  O44  1  0.931950  0.335688  0.747007  1
  O  O45  1  0.931481  0.839901  0.750481  1
