# generated using pymatgen
data_Ta7(P2O7)8
_symmetry_space_group_name_H-M   'P 1'
_cell_length_a   11.83698227
_cell_length_b   11.78461160
_cell_length_c   11.78461160
_cell_angle_alpha   60.29423036
_cell_angle_beta   59.85288484
_cell_angle_gamma   90.00000003
_symmetry_Int_Tables_number   1
_chemical_formula_structural   Ta7(P2O7)8
_chemical_formula_sum   'Ta7 P16 O56'
_cell_volume   1164.96523689
_cell_formula_units_Z   1
loop_
 _symmetry_equiv_pos_site_id
 _symmetry_equiv_pos_as_xyz
  1  'x, y, z'
loop_
 _atom_site_type_symbol
 _atom_site_label
 _atom_site_symmetry_multiplicity
 _atom_site_fract_x
 _atom_site_fract_y
 _atom_site_fract_z
 _atom_site_occupancy
  Ta  Ta0  1  0.000000  0.000000  0.500000  1
  Ta  Ta1  1  0.000000  0.500000  0.000000  1
  Ta  Ta2  1  0.500000  0.000000  0.000000  1
  Ta  Ta3  1  0.500000  0.000000  0.500000  1
  Ta  Ta4  1  0.500000  0.500000  0.000000  1
  Ta  Ta5  1  0.000000  0.500000  0.500000  1
  Ta  Ta6  1  0.500000  0.500000  0.500000  1
  P  P7  1  0.303751  0.198799  0.105213  1
  P  P8  1  0.697254  0.079644  0.113096  1
  P  P9  1  0.079644  0.189651  0.617610  1
  P  P10  1  0.198799  0.591036  0.104951  1
  P  P11  1  0.408964  0.303751  0.392237  1
  P  P12  1  0.805363  0.194637  0.389273  1
  P  P13  1  0.189651  0.302746  0.889993  1
  P  P14  1  0.304873  0.695127  0.390254  1
  P  P15  1  0.695127  0.304873  0.609746  1
  P  P16  1  0.810349  0.697254  0.110007  1
  P  P17  1  0.194637  0.805363  0.610727  1
  P  P18  1  0.591036  0.696249  0.607763  1
  P  P19  1  0.801201  0.408964  0.895049  1
  P  P20  1  0.920356  0.810349  0.382390  1
  P  P21  1  0.302746  0.920356  0.886904  1
  P  P22  1  0.696249  0.801201  0.894787  1
  O  O23  1  0.256626  0.263006  0.991973  1
  O  O24  1  0.376553  0.098196  0.080238  1
  O  O25  1  0.180188  0.124484  0.279529  1
  O  O26  1  0.612323  0.039951  0.062273  1
  O  O27  1  0.040211  0.127159  0.546296  1
  O  O28  1  0.124484  0.540283  0.055705  1
  O  O29  1  0.405372  0.320137  0.059245  1
  O  O30  1  0.098196  0.543210  0.278357  1
  O  O31  1  0.586507  0.040211  0.286335  1
  O  O32  1  0.032324  0.091833  0.783199  1
  O  O33  1  0.815523  0.032324  0.092644  1
  O  O34  1  0.039951  0.325404  0.572372  1
  O  O35  1  0.320137  0.535383  0.085235  1
  O  O36  1  0.736994  0.248600  0.006379  1
  O  O37  1  0.248600  0.256626  0.488394  1
  O  O38  1  0.263006  0.751400  0.993621  1
  O  O39  1  0.459717  0.180188  0.415800  1
  O  O40  1  0.464617  0.405372  0.215246  1
  O  O41  1  0.680639  0.095186  0.441930  1
  O  O42  1  0.180308  0.593710  0.444665  1
  O  O43  1  0.091833  0.184477  0.940491  1
  O  O44  1  0.456790  0.376553  0.445014  1
  O  O45  1  0.877431  0.319361  0.217755  1
  O  O46  1  0.325404  0.387677  0.714546  1
  O  O47  1  0.375027  0.819692  0.218683  1
  O  O48  1  0.406290  0.624973  0.413403  1
  O  O49  1  0.904814  0.122569  0.414547  1
  O  O50  1  0.127159  0.413493  0.913051  1
  O  O51  1  0.249800  0.750200  0.500400  1
  O  O52  1  0.743374  0.736994  0.008027  1
  O  O53  1  0.750200  0.249800  0.499600  1
  O  O54  1  0.095186  0.877431  0.585453  1
  O  O55  1  0.872841  0.586507  0.086949  1
  O  O56  1  0.593710  0.375027  0.586597  1
  O  O57  1  0.674596  0.612323  0.285454  1
  O  O58  1  0.624973  0.180308  0.781317  1
  O  O59  1  0.122569  0.680639  0.782245  1
  O  O60  1  0.543210  0.623447  0.554986  1
  O  O61  1  0.908167  0.815523  0.059509  1
  O  O62  1  0.319361  0.904814  0.558070  1
  O  O63  1  0.819692  0.406290  0.555335  1
  O  O64  1  0.535383  0.594628  0.784754  1
  O  O65  1  0.540283  0.819812  0.584200  1
  O  O66  1  0.751400  0.743374  0.511606  1
  O  O67  1  0.679863  0.464617  0.914765  1
  O  O68  1  0.184477  0.967676  0.907356  1
  O  O69  1  0.960049  0.674596  0.427628  1
  O  O70  1  0.967676  0.908167  0.216801  1
  O  O71  1  0.901804  0.456790  0.721643  1
  O  O72  1  0.413493  0.959789  0.713665  1
  O  O73  1  0.594628  0.679863  0.940755  1
  O  O74  1  0.387677  0.960049  0.937727  1
  O  O75  1  0.875516  0.459717  0.944295  1
  O  O76  1  0.959789  0.872841  0.453704  1
  O  O77  1  0.819812  0.875516  0.720471  1
  O  O78  1  0.623447  0.901804  0.919762  1
