# generated using pymatgen
data_BaBePO4F
_symmetry_space_group_name_H-M   'P 1'
_cell_length_a   4.93450860
_cell_length_b   4.93218933
_cell_length_c   9.14937105
_cell_angle_alpha   74.63978601
_cell_angle_beta   105.33296184
_cell_angle_gamma   89.88407634
_symmetry_Int_Tables_number   1
_chemical_formula_structural   BaBePO4F
_chemical_formula_sum   'Ba2 Be2 P2 O8 F2'
_cell_volume   206.45695752
_cell_formula_units_Z   2
loop_
 _symmetry_equiv_pos_site_id
 _symmetry_equiv_pos_as_xyz
  1  'x, y, z'
loop_
 _atom_site_type_symbol
 _atom_site_label
 _atom_site_symmetry_multiplicity
 _atom_site_fract_x
 _atom_site_fract_y
 _atom_site_fract_z
 _atom_site_occupancy
  Ba  Ba0  1  0.000512  0.999505  0.000604  1
  Ba  Ba1  1  0.250545  0.250193  0.499644  1
  Be  Be2  1  0.651025  0.832610  0.336462  1
  Be  Be3  1  0.417780  0.600022  0.835884  1
  P  P4  1  0.562289  0.417191  0.165507  1
  P  P5  1  0.834055  0.687874  0.665427  1
  O  O6  1  0.736045  0.159859  0.296982  1
  O  O7  1  0.604118  0.397676  0.005016  1
  O  O8  1  0.833068  0.000831  0.658978  1
  O  O9  1  0.686168  0.693090  0.198679  1
  O  O10  1  0.853664  0.645367  0.505228  1
  O  O11  1  0.248792  0.417911  0.159378  1
  O  O12  1  0.557978  0.563257  0.698854  1
  O  O13  1  0.091149  0.513706  0.797283  1
  F  F14  1  0.337003  0.826358  0.348202  1
  F  F15  1  0.423727  0.914250  0.847132  1
