# generated using pymatgen
data_Mn6O5F7
_symmetry_space_group_name_H-M   'P 1'
_cell_length_a   7.90982583
_cell_length_b   5.73949074
_cell_length_c   5.73949074
_cell_angle_alpha   67.41616398
_cell_angle_beta   68.52441912
_cell_angle_gamma   68.52441912
_symmetry_Int_Tables_number   1
_chemical_formula_structural   Mn6O5F7
_chemical_formula_sum   'Mn6 O5 F7'
_cell_volume   216.03190471
_cell_formula_units_Z   1
loop_
 _symmetry_equiv_pos_site_id
 _symmetry_equiv_pos_as_xyz
  1  'x, y, z'
loop_
 _atom_site_type_symbol
 _atom_site_label
 _atom_site_symmetry_multiplicity
 _atom_site_fract_x
 _atom_site_fract_y
 _atom_site_fract_z
 _atom_site_occupancy
  Mn  Mn0  1  0.833333  0.661571  0.671763  1
  Mn  Mn1  1  0.668120  0.326685  0.336369  1
  Mn  Mn2  1  0.333333  0.690709  0.642624  1
  Mn  Mn3  1  0.158415  0.336965  0.346886  1
  Mn  Mn4  1  0.508251  0.986448  0.996369  1
  Mn  Mn5  1  0.998547  0.996965  0.006649  1
  O  O6  1  0.669882  0.022451  0.638398  1
  O  O7  1  0.333333  0.986186  0.347147  1
  O  O8  1  0.670576  0.626214  0.032806  1
  O  O9  1  0.996090  0.300528  0.707119  1
  O  O10  1  0.996785  0.694935  0.310882  1
  F  F11  1  0.333333  0.371567  0.961766  1
  F  F12  1  0.293831  0.899746  0.896126  1
  F  F13  1  0.621709  0.559898  0.562064  1
  F  F14  1  0.962776  0.226637  0.229312  1
  F  F15  1  0.703891  0.104021  0.106697  1
  F  F16  1  0.044958  0.771270  0.773436  1
  F  F17  1  0.372836  0.437207  0.433588  1
