# generated using pymatgen
data_Li24Mn7Cr5O36
_symmetry_space_group_name_H-M   'P 1'
_cell_length_a   4.99903856
_cell_length_b   13.26916400
_cell_length_c   9.72357520
_cell_angle_alpha   97.12802265
_cell_angle_beta   94.64342588
_cell_angle_gamma   100.46865705
_symmetry_Int_Tables_number   1
_chemical_formula_structural   Li24Mn7Cr5O36
_chemical_formula_sum   'Li24 Mn7 Cr5 O36'
_cell_volume   625.80571038
_cell_formula_units_Z   1
loop_
 _symmetry_equiv_pos_site_id
 _symmetry_equiv_pos_as_xyz
  1  'x, y, z'
loop_
 _atom_site_type_symbol
 _atom_site_label
 _atom_site_symmetry_multiplicity
 _atom_site_fract_x
 _atom_site_fract_y
 _atom_site_fract_z
 _atom_site_occupancy
  Li  Li0  1  0.833113  0.166725  0.000092  1
  Li  Li1  1  0.945251  0.384952  0.998892  1
  Li  Li2  1  0.000565  0.749657  0.250529  1
  Li  Li3  1  0.666892  0.082411  0.249784  1
  Li  Li4  1  0.953478  0.888340  0.501242  1
  Li  Li5  1  0.620114  0.222284  0.499162  1
  Li  Li6  1  0.834167  0.666331  0.499344  1
  Li  Li7  1  0.497809  0.999877  0.500008  1
  Li  Li8  1  0.714560  0.445593  0.500292  1
  Li  Li9  1  0.668387  0.582745  0.748809  1
  Li  Li10  1  0.499231  0.499962  0.000441  1
  Li  Li11  1  0.719808  0.947208  0.000071  1
  Li  Li12  1  0.385700  0.281956  0.001967  1
  Li  Li13  1  0.618977  0.720613  0.001628  1
  Li  Li14  1  0.281395  0.051452  0.998455  1
  Li  Li15  1  0.336365  0.415482  0.249686  1
  Li  Li16  1  0.285988  0.555787  0.500334  1
  Li  Li17  1  0.169397  0.333473  0.499853  1
  Li  Li18  1  0.377541  0.777306  0.497152  1
  Li  Li19  1  0.046317  0.110623  0.500419  1
  Li  Li20  1  0.332212  0.917883  0.750797  1
  Li  Li21  1  0.168051  0.833596  0.000048  1
  Li  Li22  1  0.998521  0.250757  0.750383  1
  Li  Li23  1  0.047436  0.614418  0.000239  1
  Mn  Mn24  1  0.890310  0.027298  0.750144  1
  Mn  Mn25  1  0.775409  0.305672  0.248960  1
  Mn  Mn26  1  0.557437  0.362200  0.751172  1
  Mn  Mn27  1  0.556143  0.860906  0.250009  1
  Mn  Mn28  1  0.446379  0.640241  0.251281  1
  Mn  Mn29  1  0.108263  0.471730  0.748546  1
  Mn  Mn30  1  0.109131  0.970944  0.249718  1
  Cr  Cr31  1  0.895528  0.526739  0.249662  1
  Cr  Cr32  1  0.774988  0.807394  0.752020  1
  Cr  Cr33  1  0.440250  0.140873  0.749856  1
  Cr  Cr34  1  0.223478  0.192095  0.250366  1
  Cr  Cr35  1  0.226070  0.692534  0.748329  1
  O  O36  1  0.998584  0.069385  0.137784  1
  O  O37  1  0.932356  0.215995  0.364041  1
  O  O38  1  0.995563  0.568550  0.636013  1
  O  O39  1  0.857380  0.356422  0.638326  1
  O  O40  1  0.735181  0.117318  0.635849  1
  O  O41  1  0.662487  0.402536  0.136603  1
  O  O42  1  0.931043  0.715998  0.864962  1
  O  O43  1  0.808766  0.477110  0.861792  1
  O  O44  1  0.598583  0.048536  0.864361  1
  O  O45  1  0.856977  0.856546  0.138284  1
  O  O46  1  0.734993  0.617857  0.135445  1
  O  O47  1  0.520401  0.191065  0.138286  1
  O  O48  1  0.669266  0.264498  0.862773  1
  O  O49  1  0.808660  0.976069  0.361800  1
  O  O50  1  0.597195  0.549452  0.363622  1
  O  O51  1  0.479959  0.310975  0.363310  1
  O  O52  1  0.668909  0.762641  0.361992  1
  O  O53  1  0.330991  0.094242  0.362243  1
  O  O54  1  0.669152  0.904047  0.639058  1
  O  O55  1  0.336833  0.238497  0.638176  1
  O  O56  1  0.517488  0.690290  0.637604  1
  O  O57  1  0.403348  0.452403  0.636232  1
  O  O58  1  0.185578  0.021761  0.636450  1
  O  O59  1  0.333705  0.738603  0.138144  1
  O  O60  1  0.482589  0.809703  0.862859  1
  O  O61  1  0.262874  0.381652  0.863758  1
  O  O62  1  0.146433  0.141979  0.861581  1
  O  O63  1  0.403630  0.951732  0.136469  1
  O  O64  1  0.188804  0.525794  0.138092  1
  O  O65  1  0.067844  0.285319  0.135245  1
  O  O66  1  0.327531  0.595351  0.861308  1
  O  O67  1  0.263373  0.881137  0.364060  1
  O  O68  1  0.149329  0.644930  0.363380  1
  O  O69  1  0.996311  0.429134  0.360959  1
  O  O70  1  0.068079  0.783429  0.635751  1
  O  O71  1  0.005139  0.930984  0.863704  1
