# generated using pymatgen
data_Nb3Co(PO4)6
_symmetry_space_group_name_H-M   'P 1'
_cell_length_a   8.91444373
_cell_length_b   8.91444384
_cell_length_c   8.91444389
_cell_angle_alpha   58.46254356
_cell_angle_beta   58.46254925
_cell_angle_gamma   58.46254681
_symmetry_Int_Tables_number   1
_chemical_formula_structural   Nb3Co(PO4)6
_chemical_formula_sum   'Nb3 Co1 P6 O24'
_cell_volume   483.29797908
_cell_formula_units_Z   1
loop_
 _symmetry_equiv_pos_site_id
 _symmetry_equiv_pos_as_xyz
  1  'x, y, z'
loop_
 _atom_site_type_symbol
 _atom_site_label
 _atom_site_symmetry_multiplicity
 _atom_site_fract_x
 _atom_site_fract_y
 _atom_site_fract_z
 _atom_site_occupancy
  Nb  Nb0  1  0.140060  0.140060  0.140060  1
  Nb  Nb1  1  0.358330  0.358330  0.358330  1
  Nb  Nb2  1  0.638627  0.638627  0.638627  1
  Co  Co3  1  0.855769  0.855769  0.855769  1
  P  P4  1  0.029749  0.750484  0.477003  1
  P  P5  1  0.477003  0.029749  0.750484  1
  P  P6  1  0.750484  0.477003  0.029749  1
  P  P7  1  0.235341  0.544763  0.964741  1
  P  P8  1  0.544763  0.964741  0.235341  1
  P  P9  1  0.964741  0.235341  0.544763  1
  O  O10  1  0.133351  0.277860  0.504396  1
  O  O11  1  0.277860  0.504396  0.133351  1
  O  O12  1  0.060117  0.919796  0.292517  1
  O  O13  1  0.504396  0.133351  0.277860  1
  O  O14  1  0.209130  0.579408  0.439191  1
  O  O15  1  0.009930  0.775706  0.642177  1
  O  O16  1  0.292517  0.060117  0.919796  1
  O  O17  1  0.439191  0.209130  0.579408  1
  O  O18  1  0.579408  0.439191  0.209130  1
  O  O19  1  0.217692  0.366088  0.995513  1
  O  O20  1  0.068556  0.720905  0.940295  1
  O  O21  1  0.366088  0.995513  0.217692  1
  O  O22  1  0.642177  0.009930  0.775706  1
  O  O23  1  0.919796  0.292517  0.060117  1
  O  O24  1  0.775706  0.642177  0.009930  1
  O  O25  1  0.416766  0.563414  0.789832  1
  O  O26  1  0.563414  0.789832  0.416766  1
  O  O27  1  0.720905  0.940295  0.068556  1
  O  O28  1  0.995513  0.217692  0.366088  1
  O  O29  1  0.789832  0.416766  0.563414  1
  O  O30  1  0.499070  0.863441  0.719981  1
  O  O31  1  0.940295  0.068556  0.720905  1
  O  O32  1  0.719981  0.499070  0.863441  1
  O  O33  1  0.863441  0.719981  0.499070  1
