# generated using pymatgen
data_CsLiH4SO5
_symmetry_space_group_name_H-M   'P 1'
_cell_length_a   5.74034789
_cell_length_b   6.71011798
_cell_length_c   4.81221922
_cell_angle_alpha   72.86935121
_cell_angle_beta   90.00000000
_cell_angle_gamma   64.67589241
_symmetry_Int_Tables_number   1
_chemical_formula_structural   CsLiH4SO5
_chemical_formula_sum   'Cs1 Li1 H4 S1 O5'
_cell_volume   158.40113716
_cell_formula_units_Z   1
loop_
 _symmetry_equiv_pos_site_id
 _symmetry_equiv_pos_as_xyz
  1  'x, y, z'
loop_
 _atom_site_type_symbol
 _atom_site_label
 _atom_site_symmetry_multiplicity
 _atom_site_fract_x
 _atom_site_fract_y
 _atom_site_fract_z
 _atom_site_occupancy
  Cs  Cs0  1  0.000372  0.999255  0.000125  1
  Li  Li1  1  0.676902  0.646196  0.629491  1
  H  H2  1  0.899711  0.470582  0.233323  1
  H  H3  1  0.629707  0.470582  0.233323  1
  H  H4  1  0.458381  0.083239  0.555674  1
  H  H5  1  0.457966  0.084067  0.219384  1
  S  S6  1  0.259155  0.481691  0.725957  1
  O  O7  1  0.509161  0.981677  0.429452  1
  O  O8  1  0.008813  0.552716  0.871450  1
  O  O9  1  0.438470  0.552716  0.871450  1
  O  O10  1  0.775766  0.448469  0.369261  1
  O  O11  1  0.394615  0.210770  0.837412  1
