# generated using pymatgen
data_LiNi5O3F5
_symmetry_space_group_name_H-M   'P 1'
_cell_length_a   6.08645643
_cell_length_b   6.03193802
_cell_length_c   6.03193802
_cell_angle_alpha   60.00000000
_cell_angle_beta   90.00000000
_cell_angle_gamma   119.70412591
_symmetry_Int_Tables_number   1
_chemical_formula_structural   LiNi5O3F5
_chemical_formula_sum   'Li1 Ni5 O3 F5'
_cell_volume   157.28636544
_cell_formula_units_Z   1
loop_
 _symmetry_equiv_pos_site_id
 _symmetry_equiv_pos_as_xyz
  1  'x, y, z'
loop_
 _atom_site_type_symbol
 _atom_site_label
 _atom_site_symmetry_multiplicity
 _atom_site_fract_x
 _atom_site_fract_y
 _atom_site_fract_z
 _atom_site_occupancy
  Li  Li0  1  0.259553  0.506368  0.246815  1
  Ni  Ni1  1  0.643581  0.266165  0.111249  1
  Ni  Ni2  1  0.941244  0.960829  0.019586  1
  Ni  Ni3  1  0.643581  0.266165  0.622585  1
  Ni  Ni4  1  0.643581  0.754829  0.622585  1
  Ni  Ni5  1  0.104678  0.736452  0.631774  1
  O  O6  1  0.859885  0.263654  0.868173  1
  O  O7  1  0.859885  0.728057  0.403769  1
  O  O8  1  0.859885  0.728057  0.868173  1
  F  F9  1  0.862293  0.241529  0.379235  1
  F  F10  1  0.391557  0.234264  0.382868  1
  F  F11  1  0.397163  0.264776  0.867613  1
  F  F12  1  0.391557  0.774425  0.382868  1
  F  F13  1  0.391557  0.774425  0.842707  1
