# generated using pymatgen
data_Li8Mn5Fe3(BO3)8
_symmetry_space_group_name_H-M   'P 1'
_cell_length_a   6.03024155
_cell_length_b   5.23084414
_cell_length_c   16.20807173
_cell_angle_alpha   90.79713769
_cell_angle_beta   97.99712073
_cell_angle_gamma   89.35763114
_symmetry_Int_Tables_number   1
_chemical_formula_structural   Li8Mn5Fe3(BO3)8
_chemical_formula_sum   'Li8 Mn5 Fe3 B8 O24'
_cell_volume   506.21218040
_cell_formula_units_Z   1
loop_
 _symmetry_equiv_pos_site_id
 _symmetry_equiv_pos_as_xyz
  1  'x, y, z'
loop_
 _atom_site_type_symbol
 _atom_site_label
 _atom_site_symmetry_multiplicity
 _atom_site_fract_x
 _atom_site_fract_y
 _atom_site_fract_z
 _atom_site_occupancy
  Li  Li0  1  0.064488  0.850253  0.611271  1
  Li  Li1  1  0.435338  0.150354  0.888852  1
  Li  Li2  1  0.186676  0.650351  0.140439  1
  Li  Li3  1  0.313129  0.348702  0.360620  1
  Li  Li4  1  0.687191  0.649366  0.642314  1
  Li  Li5  1  0.812797  0.348886  0.857554  1
  Li  Li6  1  0.563468  0.848944  0.108421  1
  Li  Li7  1  0.936131  0.151502  0.392057  1
  Mn  Mn8  1  0.272216  0.668880  0.958680  1
  Mn  Mn9  1  0.024784  0.168149  0.210217  1
  Mn  Mn10  1  0.475717  0.831626  0.289532  1
  Mn  Mn11  1  0.775269  0.666956  0.460621  1
  Mn  Mn12  1  0.724162  0.331736  0.039487  1
  Fe  Fe13  1  0.225848  0.332950  0.539342  1
  Fe  Fe14  1  0.521498  0.172540  0.707822  1
  Fe  Fe15  1  0.971222  0.838314  0.790183  1
  B  B16  1  0.038778  0.331135  0.702816  1
  B  B17  1  0.287131  0.827420  0.454434  1
  B  B18  1  0.462360  0.672133  0.795656  1
  B  B19  1  0.214708  0.169622  0.047487  1
  B  B20  1  0.784359  0.831894  0.950429  1
  B  B21  1  0.535421  0.330481  0.202148  1
  B  B22  1  0.714842  0.167186  0.548728  1
  B  B23  1  0.965578  0.668947  0.298343  1
  O  O24  1  0.012839  0.590395  0.691436  1
  O  O25  1  0.170995  0.185302  0.654476  1
  O  O26  1  0.172388  0.705374  0.511423  1
  O  O27  1  0.333102  0.286423  0.990831  1
  O  O28  1  0.083793  0.784949  0.241558  1
  O  O29  1  0.326771  0.816942  0.842639  1
  O  O30  1  0.080269  0.319932  0.093605  1
  O  O31  1  0.263795  0.088207  0.442956  1
  O  O32  1  0.486063  0.409715  0.807929  1
  O  O33  1  0.235470  0.910048  0.061313  1
  O  O34  1  0.418324  0.682495  0.406147  1
  O  O35  1  0.416685  0.215219  0.259219  1
  O  O36  1  0.582192  0.795035  0.740864  1
  O  O37  1  0.579428  0.314287  0.595375  1
  O  O38  1  0.763917  0.091961  0.937704  1
  O  O39  1  0.515194  0.589795  0.187957  1
  O  O40  1  0.737426  0.907609  0.561830  1
  O  O41  1  0.916884  0.683368  0.903045  1
  O  O42  1  0.669338  0.179146  0.156385  1
  O  O43  1  0.925351  0.206221  0.759570  1
  O  O44  1  0.668837  0.713978  0.007738  1
  O  O45  1  0.830597  0.285952  0.491826  1
  O  O46  1  0.831416  0.820008  0.344334  1
  O  O47  1  0.985815  0.409311  0.312388  1
