# generated using pymatgen
data_Nb3Cr(PO4)6
_symmetry_space_group_name_H-M   'P 1'
_cell_length_a   8.97174518
_cell_length_b   8.97174487
_cell_length_c   8.97174519
_cell_angle_alpha   58.53179194
_cell_angle_beta   58.53179416
_cell_angle_gamma   58.53179391
_symmetry_Int_Tables_number   1
_chemical_formula_structural   Nb3Cr(PO4)6
_chemical_formula_sum   'Nb3 Cr1 P6 O24'
_cell_volume   493.49353438
_cell_formula_units_Z   1
loop_
 _symmetry_equiv_pos_site_id
 _symmetry_equiv_pos_as_xyz
  1  'x, y, z'
loop_
 _atom_site_type_symbol
 _atom_site_label
 _atom_site_symmetry_multiplicity
 _atom_site_fract_x
 _atom_site_fract_y
 _atom_site_fract_z
 _atom_site_occupancy
  Nb  Nb0  1  0.140546  0.140546  0.140546  1
  Nb  Nb1  1  0.358438  0.358438  0.358438  1
  Nb  Nb2  1  0.639530  0.639530  0.639530  1
  Cr  Cr3  1  0.857162  0.857162  0.857162  1
  P  P4  1  0.032130  0.750450  0.471908  1
  P  P5  1  0.471908  0.032130  0.750450  1
  P  P6  1  0.750450  0.471908  0.032130  1
  P  P7  1  0.241421  0.540988  0.965214  1
  P  P8  1  0.540988  0.965214  0.241421  1
  P  P9  1  0.965214  0.241421  0.540988  1
  O  O10  1  0.133036  0.282226  0.501570  1
  O  O11  1  0.282226  0.501570  0.133036  1
  O  O12  1  0.062036  0.919846  0.289692  1
  O  O13  1  0.501570  0.133036  0.282226  1
  O  O14  1  0.210226  0.580115  0.435359  1
  O  O15  1  0.009580  0.776939  0.635327  1
  O  O16  1  0.289692  0.062036  0.919846  1
  O  O17  1  0.435359  0.210226  0.580115  1
  O  O18  1  0.580115  0.435359  0.210226  1
  O  O19  1  0.219830  0.364971  0.996367  1
  O  O20  1  0.076951  0.715030  0.940016  1
  O  O21  1  0.364971  0.996367  0.219830  1
  O  O22  1  0.635327  0.009580  0.776939  1
  O  O23  1  0.919846  0.289692  0.062036  1
  O  O24  1  0.776939  0.635327  0.009580  1
  O  O25  1  0.420136  0.561339  0.790097  1
  O  O26  1  0.561339  0.790097  0.420136  1
  O  O27  1  0.715030  0.940016  0.076951  1
  O  O28  1  0.996367  0.219830  0.364971  1
  O  O29  1  0.790097  0.420136  0.561339  1
  O  O30  1  0.497021  0.865120  0.719382  1
  O  O31  1  0.940016  0.076951  0.715030  1
  O  O32  1  0.719382  0.497021  0.865120  1
  O  O33  1  0.865120  0.719382  0.497021  1
