# generated using pymatgen
data_LiFe(PO3)4
_symmetry_space_group_name_H-M   'P 1'
_cell_length_a   7.22300593
_cell_length_b   9.51162019
_cell_length_c   7.22158542
_cell_angle_alpha   90.00000000
_cell_angle_beta   84.43576196
_cell_angle_gamma   90.00000000
_symmetry_Int_Tables_number   1
_chemical_formula_structural   LiFe(PO3)4
_chemical_formula_sum   'Li2 Fe2 P8 O24'
_cell_volume   493.80313401
_cell_formula_units_Z   2
loop_
 _symmetry_equiv_pos_site_id
 _symmetry_equiv_pos_as_xyz
  1  'x, y, z'
loop_
 _atom_site_type_symbol
 _atom_site_label
 _atom_site_symmetry_multiplicity
 _atom_site_fract_x
 _atom_site_fract_y
 _atom_site_fract_z
 _atom_site_occupancy
  Li  Li0  1  0.252277  0.982973  0.726044  1
  Li  Li1  1  0.747723  0.482973  0.273956  1
  Fe  Fe2  1  0.213716  0.239677  0.287946  1
  Fe  Fe3  1  0.786284  0.739677  0.712054  1
  P  P4  1  0.103539  0.616337  0.613772  1
  P  P5  1  0.153713  0.582732  0.210128  1
  P  P6  1  0.409276  0.402423  0.609978  1
  P  P7  1  0.542319  0.279531  0.984533  1
  P  P8  1  0.457681  0.779531  0.015467  1
  P  P9  1  0.590724  0.902423  0.390022  1
  P  P10  1  0.846287  0.082732  0.789872  1
  P  P11  1  0.896461  0.116337  0.386228  1
  O  O12  1  0.040206  0.103078  0.835989  1
  O  O13  1  0.089998  0.051673  0.386850  1
  O  O14  1  0.077892  0.754288  0.720745  1
  O  O15  1  0.192147  0.653792  0.408868  1
  O  O16  1  0.248239  0.514045  0.697977  1
  O  O17  1  0.380917  0.892531  0.906474  1
  O  O18  1  0.301336  0.666708  0.078460  1
  O  O19  1  0.382924  0.189423  0.077650  1
  O  O20  1  0.306103  0.281496  0.525115  1
  O  O21  1  0.225393  0.433657  0.215435  1
  O  O22  1  0.443843  0.978925  0.504615  1
  O  O23  1  0.478798  0.339440  0.793883  1
  O  O24  1  0.521202  0.839440  0.206117  1
  O  O25  1  0.556157  0.478925  0.495385  1
  O  O26  1  0.774607  0.933657  0.784565  1
  O  O27  1  0.693897  0.781496  0.474885  1
  O  O28  1  0.617076  0.689423  0.922350  1
  O  O29  1  0.698664  0.166708  0.921540  1
  O  O30  1  0.619083  0.392531  0.093526  1
  O  O31  1  0.751761  0.014045  0.302023  1
  O  O32  1  0.807853  0.153792  0.591132  1
  O  O33  1  0.922108  0.254288  0.279255  1
  O  O34  1  0.910002  0.551673  0.613150  1
  O  O35  1  0.959794  0.603078  0.164011  1
