# generated using pymatgen
data_Li32Ti13Cr3O48
_symmetry_space_group_name_H-M   'P 1'
_cell_length_a   5.09105742
_cell_length_b   8.81240876
_cell_length_c   19.60622411
_cell_angle_alpha   98.30384535
_cell_angle_beta   94.92536147
_cell_angle_gamma   89.79577522
_symmetry_Int_Tables_number   1
_chemical_formula_structural   Li32Ti13Cr3O48
_chemical_formula_sum   'Li32 Ti13 Cr3 O48'
_cell_volume   867.15226941
_cell_formula_units_Z   1
loop_
 _symmetry_equiv_pos_site_id
 _symmetry_equiv_pos_as_xyz
  1  'x, y, z'
loop_
 _atom_site_type_symbol
 _atom_site_label
 _atom_site_symmetry_multiplicity
 _atom_site_fract_x
 _atom_site_fract_y
 _atom_site_fract_z
 _atom_site_occupancy
  Li  Li0  1  0.993014  0.167554  0.250352  1
  Li  Li1  1  0.875211  0.375115  0.375008  1
  Li  Li2  1  0.749608  0.249950  -0.000026  1
  Li  Li3  1  0.742831  0.918835  0.999793  1
  Li  Li4  1  0.992297  0.169258  0.749443  1
  Li  Li5  1  0.756173  0.580164  0.499419  1
  Li  Li6  1  0.875001  0.375145  0.874911  1
  Li  Li7  1  0.753100  0.248254  0.499718  1
  Li  Li8  1  0.741414  0.921120  0.499345  1
  Li  Li9  1  0.624980  0.125007  0.125041  1
  Li  Li10  1  0.756290  0.580595  0.999468  1
  Li  Li11  1  0.507709  0.332375  0.249920  1
  Li  Li12  1  0.625726  0.125758  0.624740  1
  Li  Li13  1  0.501260  0.999029  0.250097  1
  Li  Li14  1  0.489562  0.667704  0.249512  1
  Li  Li15  1  0.504560  0.330380  0.749535  1
  Li  Li16  1  0.375129  0.876450  0.375003  1
  Li  Li17  1  0.499520  0.000089  0.749936  1
  Li  Li18  1  0.248445  0.750767  0.000120  1
  Li  Li19  1  0.491994  0.669183  0.749732  1
  Li  Li20  1  0.243774  0.419486  0.000585  1
  Li  Li21  1  0.374975  0.874206  0.875059  1
  Li  Li22  1  0.254976  0.080028  0.500229  1
  Li  Li23  1  0.251965  0.749301  0.500166  1
  Li  Li24  1  0.124871  0.625109  0.125116  1
  Li  Li25  1  0.242823  0.420881  0.501091  1
  Li  Li26  1  0.009214  0.833373  0.251092  1
  Li  Li27  1  0.258625  0.080516  0.000157  1
  Li  Li28  1  0.125486  0.623253  0.625144  1
  Li  Li29  1  0.000220  0.500083  0.250234  1
  Li  Li30  1  0.009169  0.831049  0.750467  1
  Li  Li31  1  0.002314  0.499584  0.749704  1
  Ti  Ti32  1  0.872825  0.711072  0.374834  1
  Ti  Ti33  1  0.877075  0.039671  0.875295  1
  Ti  Ti34  1  0.626752  0.791390  0.125126  1
  Ti  Ti35  1  0.624134  0.458669  0.125078  1
  Ti  Ti36  1  0.624016  0.791778  0.625042  1
  Ti  Ti37  1  0.625168  0.458715  0.626229  1
  Ti  Ti38  1  0.375605  0.540266  0.375125  1
  Ti  Ti39  1  0.375044  0.203810  0.374945  1
  Ti  Ti40  1  0.375844  0.545722  0.874960  1
  Ti  Ti41  1  0.374119  0.209588  0.874730  1
  Ti  Ti42  1  0.123993  0.958606  0.125308  1
  Ti  Ti43  1  0.126485  0.291151  0.125282  1
  Ti  Ti44  1  0.119265  0.959442  0.623413  1
  Cr  Cr45  1  0.876637  0.043800  0.375346  1
  Cr  Cr46  1  0.873161  0.706636  0.874644  1
  Cr  Cr47  1  0.129962  0.290252  0.624636  1
  O  O48  1  0.962535  0.106416  0.068332  1
  O  O49  1  0.928990  0.784270  0.068586  1
  O  O50  1  0.927630  0.427724  0.067250  1
  O  O51  1  0.959750  0.105667  0.568215  1
  O  O52  1  0.821464  0.965747  0.181706  1
  O  O53  1  0.822636  0.322345  0.182871  1
  O  O54  1  0.929045  0.785197  0.568189  1
  O  O55  1  0.930057  0.425241  0.568054  1
  O  O56  1  0.787206  0.643512  0.181779  1
  O  O57  1  0.713128  0.860725  0.319405  1
  O  O58  1  0.821495  0.965792  0.681788  1
  O  O59  1  0.826659  0.320202  0.681637  1
  O  O60  1  0.678741  0.535399  0.318318  1
  O  O61  1  0.683393  0.174348  0.317978  1
  O  O62  1  0.786949  0.642924  0.681699  1
  O  O63  1  0.713463  0.852996  0.819171  1
  O  O64  1  0.461485  0.606433  0.068189  1
  O  O65  1  0.571573  0.715687  0.431671  1
  O  O66  1  0.569321  0.072228  0.433254  1
  O  O67  1  0.683580  0.537399  0.818797  1
  O  O68  1  0.677233  0.176343  0.816836  1
  O  O69  1  0.427185  0.927643  0.067230  1
  O  O70  1  0.428533  0.284284  0.068435  1
  O  O71  1  0.536177  0.392648  0.432029  1
  O  O72  1  0.464170  0.605701  0.568026  1
  O  O73  1  0.569738  0.715720  0.931777  1
  O  O74  1  0.572907  0.072611  0.932813  1
  O  O75  1  0.323211  0.822436  0.182943  1
  O  O76  1  0.321714  0.465764  0.181762  1
  O  O77  1  0.427190  0.927777  0.567091  1
  O  O78  1  0.418834  0.283146  0.568786  1
  O  O79  1  0.536019  0.394060  0.931808  1
  O  O80  1  0.288455  0.143523  0.181901  1
  O  O81  1  0.213939  0.355813  0.318500  1
  O  O82  1  0.324015  0.823769  0.682825  1
  O  O83  1  0.325248  0.466503  0.681794  1
  O  O84  1  0.176998  0.677603  0.317266  1
  O  O85  1  0.181641  0.034048  0.318163  1
  O  O86  1  0.286486  0.148177  0.680915  1
  O  O87  1  0.213596  0.356979  0.818177  1
  O  O88  1  0.072027  0.573578  0.432986  1
  O  O89  1  0.064056  0.211688  0.430744  1
  O  O90  1  0.179595  0.677861  0.816897  1
  O  O91  1  0.178086  0.034560  0.817973  1
  O  O92  1  0.036439  0.897058  0.430766  1
  O  O93  1  0.067091  0.575573  0.931928  1
  O  O94  1  0.070775  0.214459  0.931744  1
  O  O95  1  0.037226  0.890259  0.930893  1
