# generated using pymatgen
data_Li2CrPO4F
_symmetry_space_group_name_H-M   'P 1'
_cell_length_a   13.15328657
_cell_length_b   5.13729167
_cell_length_c   13.23913314
_cell_angle_alpha   90.00000000
_cell_angle_beta   119.56099682
_cell_angle_gamma   90.00000000
_symmetry_Int_Tables_number   1
_chemical_formula_structural   Li2CrPO4F
_chemical_formula_sum   'Li16 Cr8 P8 O32 F8'
_cell_volume   778.14928473
_cell_formula_units_Z   8
loop_
 _symmetry_equiv_pos_site_id
 _symmetry_equiv_pos_as_xyz
  1  'x, y, z'
loop_
 _atom_site_type_symbol
 _atom_site_label
 _atom_site_symmetry_multiplicity
 _atom_site_fract_x
 _atom_site_fract_y
 _atom_site_fract_z
 _atom_site_occupancy
  Li  Li0  1  0.171134  0.744041  0.830310  1
  Li  Li1  1  0.172465  0.743911  0.591221  1
  Li  Li2  1  0.327535  0.243911  0.908779  1
  Li  Li3  1  0.172445  0.719008  0.329782  1
  Li  Li4  1  0.328866  0.244041  0.669690  1
  Li  Li5  1  0.086043  0.264592  0.169834  1
  Li  Li6  1  0.413957  0.764592  0.330166  1
  Li  Li7  1  0.672445  0.780992  0.829782  1
  Li  Li8  1  0.327555  0.219008  0.170218  1
  Li  Li9  1  0.586043  0.235408  0.669834  1
  Li  Li10  1  0.913957  0.735408  0.830166  1
  Li  Li11  1  0.671134  0.755959  0.330310  1
  Li  Li12  1  0.827555  0.280992  0.670218  1
  Li  Li13  1  0.672465  0.756089  0.091221  1
  Li  Li14  1  0.827535  0.256089  0.408779  1
  Li  Li15  1  0.828866  0.255960  0.169690  1
  Cr  Cr16  1  0.099308  0.291435  0.674491  1
  Cr  Cr17  1  0.400692  0.791435  0.825509  1
  Cr  Cr18  1  0.327311  0.221578  0.397970  1
  Cr  Cr19  1  0.172689  0.721578  0.102030  1
  Cr  Cr20  1  0.827311  0.278422  0.897970  1
  Cr  Cr21  1  0.672689  0.778422  0.602030  1
  Cr  Cr22  1  0.599308  0.208565  0.174491  1
  Cr  Cr23  1  0.900692  0.708565  0.325509  1
  P  P24  1  0.083813  0.229961  0.915994  1
  P  P25  1  0.088335  0.220337  0.420898  1
  P  P26  1  0.588335  0.279663  0.920898  1
  P  P27  1  0.416187  0.729961  0.584006  1
  P  P28  1  0.583813  0.270039  0.415994  1
  P  P29  1  0.411665  0.720337  0.079102  1
  P  P30  1  0.911665  0.779663  0.579102  1
  P  P31  1  0.916187  0.770039  0.084006  1
  O  O32  1  0.076380  0.926958  0.912440  1
  O  O33  1  0.037771  0.669674  0.645406  1
  O  O34  1  0.147552  0.329373  0.851189  1
  O  O35  1  0.085363  0.916972  0.421317  1
  O  O36  1  0.151332  0.329529  0.547148  1
  O  O37  1  0.348668  0.829529  0.952852  1
  O  O38  1  0.156577  0.318073  0.359765  1
  O  O39  1  0.041496  0.649673  0.143736  1
  O  O40  1  0.352448  0.829373  0.648811  1
  O  O41  1  0.462229  0.169674  0.854594  1
  O  O42  1  0.585363  0.583028  0.921317  1
  O  O43  1  0.346471  0.829792  0.456308  1
  O  O44  1  0.423620  0.426958  0.587560  1
  O  O45  1  0.153529  0.329792  0.043692  1
  O  O46  1  0.656577  0.181927  0.859765  1
  O  O47  1  0.541496  0.850327  0.643736  1
  O  O48  1  0.458504  0.149674  0.356264  1
  O  O49  1  0.343423  0.818073  0.140235  1
  O  O50  1  0.846471  0.670208  0.956308  1
  O  O51  1  0.576380  0.573042  0.412440  1
  O  O52  1  0.653529  0.170208  0.543692  1
  O  O53  1  0.414637  0.416972  0.078683  1
  O  O54  1  0.537771  0.830326  0.145406  1
  O  O55  1  0.647552  0.170627  0.351189  1
  O  O56  1  0.958504  0.350326  0.856264  1
  O  O57  1  0.843423  0.681927  0.640235  1
  O  O58  1  0.651332  0.170471  0.047148  1
  O  O59  1  0.848668  0.670471  0.452852  1
  O  O60  1  0.914637  0.083028  0.578683  1
  O  O61  1  0.852448  0.670627  0.148811  1
  O  O62  1  0.962229  0.330326  0.354594  1
  O  O63  1  0.923620  0.073042  0.087560  1
  F  F64  1  0.212756  0.993382  0.730647  1
  F  F65  1  0.287244  0.493382  0.769353  1
  F  F66  1  0.211187  0.004479  0.223138  1
  F  F67  1  0.288813  0.504479  0.276862  1
  F  F68  1  0.711187  0.495521  0.723138  1
  F  F69  1  0.788813  0.995521  0.776862  1
  F  F70  1  0.712756  0.506618  0.230647  1
  F  F71  1  0.787244  0.006618  0.269353  1
