# generated using pymatgen
data_LiFe4(PO4)3
_symmetry_space_group_name_H-M   'P 1'
_cell_length_a   9.54416685
_cell_length_b   9.55986414
_cell_length_c   6.09371120
_cell_angle_alpha   90.39746437
_cell_angle_beta   89.39774251
_cell_angle_gamma   119.88910998
_symmetry_Int_Tables_number   1
_chemical_formula_structural   LiFe4(PO4)3
_chemical_formula_sum   'Li2 Fe8 P6 O24'
_cell_volume   482.01617676
_cell_formula_units_Z   2
loop_
 _symmetry_equiv_pos_site_id
 _symmetry_equiv_pos_as_xyz
  1  'x, y, z'
loop_
 _atom_site_type_symbol
 _atom_site_label
 _atom_site_symmetry_multiplicity
 _atom_site_fract_x
 _atom_site_fract_y
 _atom_site_fract_z
 _atom_site_occupancy
  Li  Li0  1  0.332219  0.663114  0.471597  1
  Li  Li1  1  0.669643  0.333340  0.972562  1
  Fe  Fe2  1  0.962216  0.695770  0.253642  1
  Fe  Fe3  1  0.329391  0.667330  0.004556  1
  Fe  Fe4  1  0.303425  0.268464  0.251193  1
  Fe  Fe5  1  0.732474  0.033331  0.248700  1
  Fe  Fe6  1  0.266569  0.962851  0.750719  1
  Fe  Fe7  1  0.697247  0.732851  0.752227  1
  Fe  Fe8  1  0.663446  0.330501  0.505728  1
  Fe  Fe9  1  0.033242  0.302016  0.750123  1
  P  P10  1  0.017423  0.629970  0.749477  1
  P  P11  1  0.615004  0.984099  0.751199  1
  P  P12  1  0.369105  0.387458  0.750763  1
  P  P13  1  0.630363  0.614182  0.251287  1
  P  P14  1  0.387410  0.017705  0.247302  1
  P  P15  1  0.981805  0.368563  0.252531  1
  O  O16  1  0.072005  0.749951  0.551703  1
  O  O17  1  0.065492  0.748452  0.949863  1
  O  O18  1  0.131161  0.554096  0.756301  1
  O  O19  1  0.340335  0.839709  0.241454  1
  O  O20  1  0.159071  0.500843  0.248016  1
  O  O21  1  0.426140  0.871560  0.769900  1
  O  O22  1  0.249268  0.313578  0.949141  1
  O  O23  1  0.250900  0.323452  0.551774  1
  O  O24  1  0.498991  0.659997  0.245964  1
  O  O25  1  0.443752  0.576358  0.765613  1
  O  O26  1  0.692979  0.937627  0.942457  1
  O  O27  1  0.675207  0.928920  0.546889  1
  O  O28  1  0.316552  0.065452  0.448338  1
  O  O29  1  0.321395  0.071188  0.050528  1
  O  O30  1  0.554592  0.425516  0.267733  1
  O  O31  1  0.501457  0.342597  0.741779  1
  O  O32  1  0.747559  0.674638  0.048731  1
  O  O33  1  0.752857  0.691256  0.445373  1
  O  O34  1  0.576481  0.129793  0.255033  1
  O  O35  1  0.840789  0.499624  0.744344  1
  O  O36  1  0.660847  0.160998  0.748738  1
  O  O37  1  0.867334  0.443352  0.268738  1
  O  O38  1  0.929166  0.252355  0.050749  1
  O  O39  1  0.934788  0.247143  0.447236  1
