# generated using pymatgen
data_NaH5SO4
_symmetry_space_group_name_H-M   'P 1'
_cell_length_a   5.97697679
_cell_length_b   21.33816583
_cell_length_c   7.72906339
_cell_angle_alpha   90.00000000
_cell_angle_beta   104.13519375
_cell_angle_gamma   90.00000000
_symmetry_Int_Tables_number   1
_chemical_formula_structural   NaH5SO4
_chemical_formula_sum   'Na8 H40 S8 O32'
_cell_volume   955.90087628
_cell_formula_units_Z   8
loop_
 _symmetry_equiv_pos_site_id
 _symmetry_equiv_pos_as_xyz
  1  'x, y, z'
loop_
 _atom_site_type_symbol
 _atom_site_label
 _atom_site_symmetry_multiplicity
 _atom_site_fract_x
 _atom_site_fract_y
 _atom_site_fract_z
 _atom_site_occupancy
  Na  Na0  1  0.723814  0.161071  0.584356  1
  Na  Na1  1  0.276186  0.661071  0.915644  1
  Na  Na2  1  0.276186  0.838929  0.415644  1
  Na  Na3  1  0.723814  0.338929  0.084356  1
  Na  Na4  1  0.242597  0.092327  0.707897  1
  Na  Na5  1  0.757403  0.592327  0.792103  1
  Na  Na6  1  0.757403  0.907673  0.292103  1
  Na  Na7  1  0.242597  0.407673  0.207897  1
  H  H8  1  0.467775  0.280091  0.623631  1
  H  H9  1  0.532225  0.780091  0.876369  1
  H  H10  1  0.532225  0.719909  0.376369  1
  H  H11  1  0.467775  0.219909  0.123631  1
  H  H12  1  0.732539  0.292734  0.682830  1
  H  H13  1  0.267461  0.792734  0.817170  1
  H  H14  1  0.267461  0.707266  0.317170  1
  H  H15  1  0.732539  0.207266  0.182830  1
  H  H16  1  0.128000  0.230696  0.751021  1
  H  H17  1  0.872000  0.730696  0.748979  1
  H  H18  1  0.872000  0.769304  0.248979  1
  H  H19  1  0.128000  0.269304  0.251021  1
  H  H20  1  0.100140  0.189693  0.913257  1
  H  H21  1  0.899860  0.689693  0.586743  1
  H  H22  1  0.899860  0.810307  0.086743  1
  H  H23  1  0.100140  0.310307  0.413257  1
  H  H24  1  0.596011  0.171204  0.929107  1
  H  H25  1  0.403989  0.671204  0.570893  1
  H  H26  1  0.403989  0.828796  0.070893  1
  H  H27  1  0.596011  0.328796  0.429107  1
  H  H28  1  0.725979  0.107982  0.925168  1
  H  H29  1  0.274021  0.607982  0.574832  1
  H  H30  1  0.274021  0.892018  0.074832  1
  H  H31  1  0.725979  0.392018  0.425168  1
  H  H32  1  0.843721  0.020005  0.698833  1
  H  H33  1  0.156279  0.520005  0.801167  1
  H  H34  1  0.156279  0.979995  0.301167  1
  H  H35  1  0.843721  0.479995  0.198833  1
  H  H36  1  0.766081  0.037144  0.494418  1
  H  H37  1  0.233919  0.537144  0.005582  1
  H  H38  1  0.233919  0.962856  0.505582  1
  H  H39  1  0.766081  0.462856  0.994418  1
  H  H40  1  0.761017  0.458071  0.716721  1
  H  H41  1  0.238983  0.958071  0.783279  1
  H  H42  1  0.238983  0.541929  0.283279  1
  H  H43  1  0.761017  0.041929  0.216721  1
  H  H44  1  0.496371  0.466050  0.711387  1
  H  H45  1  0.503629  0.966050  0.788613  1
  H  H46  1  0.503629  0.533950  0.288613  1
  H  H47  1  0.496371  0.033950  0.211387  1
  S  S48  1  0.111424  0.434326  0.607877  1
  S  S49  1  0.888575  0.934326  0.892123  1
  S  S50  1  0.888575  0.565674  0.392123  1
  S  S51  1  0.111424  0.065674  0.107877  1
  S  S52  1  0.146513  0.358292  0.773106  1
  S  S53  1  0.853487  0.858292  0.726894  1
  S  S54  1  0.853487  0.641708  0.226894  1
  S  S55  1  0.146513  0.141708  0.273106  1
  O  O56  1  0.336520  0.368258  0.933016  1
  O  O57  1  0.663481  0.868258  0.566984  1
  O  O58  1  0.663481  0.631742  0.066984  1
  O  O59  1  0.336520  0.131742  0.433016  1
  O  O60  1  0.922557  0.349000  0.821333  1
  O  O61  1  0.077443  0.849000  0.678667  1
  O  O62  1  0.077443  0.651000  0.178667  1
  O  O63  1  0.922557  0.151000  0.321333  1
  O  O64  1  0.196169  0.302797  0.667969  1
  O  O65  1  0.803831  0.802797  0.832031  1
  O  O66  1  0.803831  0.697203  0.332031  1
  O  O67  1  0.196169  0.197203  0.167969  1
  O  O68  1  0.614169  0.270082  0.591963  1
  O  O69  1  0.385831  0.770082  0.908037  1
  O  O70  1  0.385831  0.729918  0.408037  1
  O  O71  1  0.614169  0.229918  0.091963  1
  O  O72  1  0.082155  0.188488  0.783481  1
  O  O73  1  0.917845  0.688488  0.716519  1
  O  O74  1  0.917845  0.811512  0.216519  1
  O  O75  1  0.082155  0.311512  0.283481  1
  O  O76  1  0.600324  0.133321  0.854176  1
  O  O77  1  0.399676  0.633321  0.645824  1
  O  O78  1  0.399676  0.866679  0.145824  1
  O  O79  1  0.600324  0.366679  0.354176  1
  O  O80  1  0.848337  0.053850  0.612968  1
  O  O81  1  0.151663  0.553850  0.887032  1
  O  O82  1  0.151663  0.946150  0.387032  1
  O  O83  1  0.848337  0.446150  0.112968  1
  O  O84  1  0.652613  0.482663  0.766651  1
  O  O85  1  0.347387  0.982663  0.733349  1
  O  O86  1  0.347387  0.517337  0.233349  1
  O  O87  1  0.652613  0.017337  0.266651  1
