# generated using pymatgen
data_H4NClO5
_symmetry_space_group_name_H-M   'P 1'
_cell_length_a   7.64689541
_cell_length_b   7.23231031
_cell_length_c   16.12397422
_cell_angle_alpha   90.00000000
_cell_angle_beta   90.00000000
_cell_angle_gamma   90.00000000
_symmetry_Int_Tables_number   1
_chemical_formula_structural   H4NClO5
_chemical_formula_sum   'H32 N8 Cl8 O40'
_cell_volume   891.73188780
_cell_formula_units_Z   8
loop_
 _symmetry_equiv_pos_site_id
 _symmetry_equiv_pos_as_xyz
  1  'x, y, z'
loop_
 _atom_site_type_symbol
 _atom_site_label
 _atom_site_symmetry_multiplicity
 _atom_site_fract_x
 _atom_site_fract_y
 _atom_site_fract_z
 _atom_site_occupancy
  H  H0  1  0.413534  0.251771  0.518499  1
  H  H1  1  0.913534  0.748229  0.481501  1
  H  H2  1  0.913534  0.751771  0.981501  1
  H  H3  1  0.413534  0.248229  0.018499  1
  H  H4  1  0.459811  0.406118  0.442701  1
  H  H5  1  0.959811  0.593882  0.557299  1
  H  H6  1  0.959811  0.906118  0.057299  1
  H  H7  1  0.459811  0.093882  0.942701  1
  H  H8  1  0.625936  0.303338  0.494693  1
  H  H9  1  0.125936  0.696662  0.505307  1
  H  H10  1  0.125936  0.803338  0.005307  1
  H  H11  1  0.625936  0.196662  0.994693  1
  H  H12  1  0.038549  0.966135  0.562749  1
  H  H13  1  0.538549  0.033865  0.437251  1
  H  H14  1  0.538549  0.466135  0.937251  1
  H  H15  1  0.038549  0.533865  0.062749  1
  H  H16  1  0.570585  0.208180  0.270824  1
  H  H17  1  0.070585  0.791820  0.729176  1
  H  H18  1  0.070585  0.708180  0.229176  1
  H  H19  1  0.570585  0.291820  0.770824  1
  H  H20  1  0.778712  0.156072  0.239655  1
  H  H21  1  0.278712  0.843928  0.760345  1
  H  H22  1  0.278712  0.656072  0.260345  1
  H  H23  1  0.778712  0.343928  0.739655  1
  H  H24  1  0.607687  0.041716  0.198932  1
  H  H25  1  0.107687  0.958284  0.801068  1
  H  H26  1  0.107687  0.541716  0.301068  1
  H  H27  1  0.607687  0.458284  0.698932  1
  H  H28  1  0.170620  0.584482  0.823080  1
  H  H29  1  0.670620  0.415518  0.176920  1
  H  H30  1  0.670620  0.084482  0.676920  1
  H  H31  1  0.170620  0.915518  0.323080  1
  N  N32  1  0.500257  0.285158  0.471373  1
  N  N33  1  0.000257  0.714842  0.528627  1
  N  N34  1  0.000257  0.785158  0.028627  1
  N  N35  1  0.500257  0.214842  0.971373  1
  N  N36  1  0.649210  0.168741  0.221593  1
  N  N37  1  0.149210  0.831259  0.778407  1
  N  N38  1  0.149210  0.668741  0.278407  1
  N  N39  1  0.649210  0.331259  0.721593  1
  Cl  Cl40  1  0.147449  0.350322  0.682788  1
  Cl  Cl41  1  0.647449  0.649678  0.317212  1
  Cl  Cl42  1  0.647449  0.850322  0.817212  1
  Cl  Cl43  1  0.147449  0.149678  0.182788  1
  Cl  Cl44  1  0.000065  0.254483  0.935407  1
  Cl  Cl45  1  0.500065  0.745517  0.064593  1
  Cl  Cl46  1  0.500065  0.754483  0.564593  1
  Cl  Cl47  1  0.000065  0.245517  0.435406  1
  O  O48  1  0.003481  0.486515  0.683953  1
  O  O49  1  0.503482  0.513485  0.316047  1
  O  O50  1  0.503482  0.986515  0.816047  1
  O  O51  1  0.003481  0.013485  0.183953  1
  O  O52  1  0.264355  0.389872  0.752853  1
  O  O53  1  0.764355  0.610128  0.247147  1
  O  O54  1  0.764355  0.889872  0.747147  1
  O  O55  1  0.264355  0.110128  0.252853  1
  O  O56  1  0.074027  0.165420  0.690866  1
  O  O57  1  0.574027  0.834580  0.309134  1
  O  O58  1  0.574027  0.665420  0.809134  1
  O  O59  1  0.074027  0.334580  0.190866  1
  O  O60  1  0.243236  0.367797  0.605367  1
  O  O61  1  0.743236  0.632203  0.394633  1
  O  O62  1  0.743236  0.867797  0.894633  1
  O  O63  1  0.243236  0.132203  0.105367  1
  O  O64  1  0.106738  0.409993  0.965561  1
  O  O65  1  0.606738  0.590007  0.034439  1
  O  O66  1  0.606738  0.909993  0.534439  1
  O  O67  1  0.106738  0.090007  0.465561  1
  O  O68  1  0.115844  0.099556  0.915461  1
  O  O69  1  0.615844  0.900444  0.084539  1
  O  O70  1  0.615844  0.599556  0.584539  1
  O  O71  1  0.115844  0.400444  0.415461  1
  O  O72  1  0.903150  0.311361  0.862399  1
  O  O73  1  0.403150  0.688639  0.137601  1
  O  O74  1  0.403150  0.811361  0.637601  1
  O  O75  1  0.903150  0.188639  0.362399  1
  O  O76  1  0.878795  0.198545  0.001374  1
  O  O77  1  0.378795  0.801455  0.998626  1
  O  O78  1  0.378795  0.698545  0.498626  1
  O  O79  1  0.878795  0.301455  0.501374  1
  O  O80  1  0.500594  0.148617  0.408411  1
  O  O81  1  0.000594  0.851383  0.591589  1
  O  O82  1  0.000594  0.648617  0.091589  1
  O  O83  1  0.500594  0.351383  0.908411  1
  O  O84  1  0.632665  0.293761  0.154594  1
  O  O85  1  0.132665  0.706239  0.845406  1
  O  O86  1  0.132665  0.793761  0.345406  1
  O  O87  1  0.632665  0.206239  0.654594  1
