# generated using pymatgen
data_Li3Mn2(NiO4)2
_symmetry_space_group_name_H-M   'P 1'
_cell_length_a   5.90246606
_cell_length_b   5.85715068
_cell_length_c   5.75584023
_cell_angle_alpha   60.78011459
_cell_angle_beta   60.77317150
_cell_angle_gamma   91.52545704
_symmetry_Int_Tables_number   1
_chemical_formula_structural   Li3Mn2(NiO4)2
_chemical_formula_sum   'Li3 Mn2 Ni2 O8'
_cell_volume   142.09139305
_cell_formula_units_Z   1
loop_
 _symmetry_equiv_pos_site_id
 _symmetry_equiv_pos_as_xyz
  1  'x, y, z'
loop_
 _atom_site_type_symbol
 _atom_site_label
 _atom_site_symmetry_multiplicity
 _atom_site_fract_x
 _atom_site_fract_y
 _atom_site_fract_z
 _atom_site_occupancy
  Li  Li0  1  0.000000  0.500000  0.000000  1
  Li  Li1  1  0.500000  0.000000  0.500000  1
  Li  Li2  1  0.500000  0.500000  0.000000  1
  Mn  Mn3  1  0.000000  0.000000  0.500000  1
  Mn  Mn4  1  0.000000  0.000000  0.000000  1
  Ni  Ni5  1  0.000000  0.500000  0.500000  1
  Ni  Ni6  1  0.500000  0.000000  0.000000  1
  O  O7  1  0.216854  0.763827  0.493848  1
  O  O8  1  0.780860  0.780004  0.965623  1
  O  O9  1  0.222172  0.217461  0.527253  1
  O  O10  1  0.223416  0.761309  0.017232  1
  O  O11  1  0.776584  0.238691  0.982768  1
  O  O12  1  0.777828  0.782539  0.472747  1
  O  O13  1  0.219140  0.219996  0.034377  1
  O  O14  1  0.783146  0.236173  0.506152  1
