# generated using pymatgen
data_LiFe2(PO4)2
_symmetry_space_group_name_H-M   'P 1'
_cell_length_a   8.56422557
_cell_length_b   5.25453488
_cell_length_c   8.29921579
_cell_angle_alpha   90.00000000
_cell_angle_beta   106.88056174
_cell_angle_gamma   90.00000000
_symmetry_Int_Tables_number   1
_chemical_formula_structural   LiFe2(PO4)2
_chemical_formula_sum   'Li2 Fe4 P4 O16'
_cell_volume   357.38103644
_cell_formula_units_Z   2
loop_
 _symmetry_equiv_pos_site_id
 _symmetry_equiv_pos_as_xyz
  1  'x, y, z'
loop_
 _atom_site_type_symbol
 _atom_site_label
 _atom_site_symmetry_multiplicity
 _atom_site_fract_x
 _atom_site_fract_y
 _atom_site_fract_z
 _atom_site_occupancy
  Li  Li0  1  0.282118  0.332093  0.499669  1
  Li  Li1  1  0.782118  0.667906  0.499669  1
  Fe  Fe2  1  0.214802  0.316330  0.877648  1
  Fe  Fe3  1  0.383345  0.829545  0.348616  1
  Fe  Fe4  1  0.714802  0.683670  0.877648  1
  Fe  Fe5  1  0.883345  0.170455  0.348616  1
  P  P6  1  0.009204  0.672971  0.252675  1
  P  P7  1  0.336146  0.811168  0.736461  1
  P  P8  1  0.509204  0.327029  0.252675  1
  P  P9  1  0.836146  0.188832  0.736461  1
  O  O10  1  0.060746  0.400012  0.319056  1
  O  O11  1  0.207607  0.656761  0.795239  1
  O  O12  1  0.150161  0.816058  0.217126  1
  O  O13  1  0.279512  0.098230  0.713191  1
  O  O14  1  0.350147  0.696607  0.571572  1
  O  O15  1  0.503825  0.797744  0.873343  1
  O  O16  1  0.438450  0.193280  0.383541  1
  O  O17  1  0.368391  0.339186  0.083912  1
  O  O18  1  0.560746  0.599988  0.319056  1
  O  O19  1  0.707607  0.343239  0.795239  1
  O  O20  1  0.650161  0.183942  0.217126  1
  O  O21  1  0.779512  0.901770  0.713191  1
  O  O22  1  0.850147  0.303393  0.571572  1
  O  O23  1  0.003825  0.202256  0.873343  1
  O  O24  1  0.938450  0.806720  0.383541  1
  O  O25  1  0.868391  0.660814  0.083912  1
