# generated using pymatgen
data_LiCu(PO3)3
_symmetry_space_group_name_H-M   'P 1'
_cell_length_a   6.28042125
_cell_length_b   7.68205046
_cell_length_c   6.89349039
_cell_angle_alpha   99.11379066
_cell_angle_beta   95.92829678
_cell_angle_gamma   88.94293860
_symmetry_Int_Tables_number   1
_chemical_formula_structural   LiCu(PO3)3
_chemical_formula_sum   'Li2 Cu2 P6 O18'
_cell_volume   326.63121891
_cell_formula_units_Z   2
loop_
 _symmetry_equiv_pos_site_id
 _symmetry_equiv_pos_as_xyz
  1  'x, y, z'
loop_
 _atom_site_type_symbol
 _atom_site_label
 _atom_site_symmetry_multiplicity
 _atom_site_fract_x
 _atom_site_fract_y
 _atom_site_fract_z
 _atom_site_occupancy
  Li  Li0  1  0.117171  0.177174  0.427920  1
  Li  Li1  1  0.882829  0.822826  0.572080  1
  Cu  Cu2  1  0.193278  0.138688  0.873460  1
  Cu  Cu3  1  0.806722  0.861312  0.126540  1
  P  P4  1  0.158451  0.542815  0.775998  1
  P  P5  1  0.302916  0.770427  0.140933  1
  P  P6  1  0.376414  0.794707  0.582803  1
  P  P7  1  0.623586  0.205293  0.417197  1
  P  P8  1  0.697084  0.229573  0.859067  1
  P  P9  1  0.841549  0.457185  0.224002  1
  O  O10  1  0.043711  0.360491  0.265740  1
  O  O11  1  0.158692  0.342683  0.723288  1
  O  O12  1  0.111822  0.895254  0.121327  1
  O  O13  1  0.190041  0.919925  0.628022  1
  O  O14  1  0.246139  0.581667  0.009237  1
  O  O15  1  0.352282  0.615249  0.673735  1
  O  O16  1  0.337360  0.710231  0.350059  1
  O  O17  1  0.402188  0.139562  0.366636  1
  O  O18  1  0.497031  0.161694  0.925522  1
  O  O19  1  0.502969  0.838306  0.074478  1
  O  O20  1  0.597812  0.860438  0.633364  1
  O  O21  1  0.662640  0.289769  0.649941  1
  O  O22  1  0.647718  0.384751  0.326265  1
  O  O23  1  0.753861  0.418333  0.990763  1
  O  O24  1  0.809959  0.080075  0.371978  1
  O  O25  1  0.888178  0.104746  0.878673  1
  O  O26  1  0.841308  0.657317  0.276712  1
  O  O27  1  0.956289  0.639509  0.734260  1
