# generated using pymatgen
data_Mg7Co17O32
_symmetry_space_group_name_H-M   'P 1'
_cell_length_a   5.79400624
_cell_length_b   5.79072344
_cell_length_c   19.21501015
_cell_angle_alpha   98.15862578
_cell_angle_beta   98.67141923
_cell_angle_gamma   59.98124510
_symmetry_Int_Tables_number   1
_chemical_formula_structural   Mg7Co17O32
_chemical_formula_sum   'Mg7 Co17 O32'
_cell_volume   550.16616795
_cell_formula_units_Z   1
loop_
 _symmetry_equiv_pos_site_id
 _symmetry_equiv_pos_as_xyz
  1  'x, y, z'
loop_
 _atom_site_type_symbol
 _atom_site_label
 _atom_site_symmetry_multiplicity
 _atom_site_fract_x
 _atom_site_fract_y
 _atom_site_fract_z
 _atom_site_occupancy
  Mg  Mg0  1  0.218966  0.718182  0.156115  1
  Mg  Mg1  1  0.343985  0.342261  0.030229  1
  Mg  Mg2  1  0.968534  0.469318  0.406385  1
  Mg  Mg3  1  0.843515  0.845239  0.532271  1
  Mg  Mg4  1  0.093750  0.093750  0.281250  1
  Mg  Mg5  1  0.470181  0.964861  0.905223  1
  Mg  Mg6  1  0.717319  0.222639  0.657277  1
  Co  Co7  1  0.694395  0.675626  0.064416  1
  Co  Co8  1  0.743092  0.761430  0.247615  1
  Co  Co9  1  0.994673  0.008554  0.997899  1
  Co  Co10  1  0.718547  0.218696  0.156083  1
  Co  Co11  1  0.218841  0.218696  0.156083  1
  Co  Co12  1  0.468953  0.968804  0.406417  1
  Co  Co13  1  0.968659  0.968804  0.406417  1
  Co  Co14  1  0.444408  0.426070  0.314885  1
  Co  Co15  1  0.493105  0.511874  0.498084  1
  Co  Co16  1  0.220258  0.720696  0.657283  1
  Co  Co17  1  0.716330  0.720696  0.657283  1
  Co  Co18  1  0.192827  0.178946  0.564601  1
  Co  Co19  1  0.942797  0.926473  0.812068  1
  Co  Co20  1  0.593750  0.593750  0.781250  1
  Co  Co21  1  0.244703  0.261027  0.750432  1
  Co  Co22  1  0.967242  0.466804  0.905217  1
  Co  Co23  1  0.471170  0.466804  0.905217  1
  O  O24  1  0.385804  0.925639  0.214763  1
  O  O25  1  0.903320  0.925639  0.214763  1
  O  O26  1  0.052033  0.511276  0.097149  1
  O  O27  1  0.533839  0.511276  0.097149  1
  O  O28  1  0.526279  0.047603  0.100162  1
  O  O29  1  0.413956  0.384971  0.212882  1
  O  O30  1  0.276500  0.797573  0.350573  1
  O  O31  1  0.023526  0.052329  0.099382  1
  O  O32  1  0.911000  0.389927  0.211927  1
  O  O33  1  0.773544  0.802529  0.349618  1
  O  O34  1  0.135467  0.676224  0.465351  1
  O  O35  1  0.653661  0.676224  0.465351  1
  O  O36  1  0.801696  0.261861  0.347737  1
  O  O37  1  0.284180  0.261861  0.347737  1
  O  O38  1  0.163974  0.135171  0.463118  1
  O  O39  1  0.027412  0.546834  0.601659  1
  O  O40  1  0.913510  0.883803  0.710822  1
  O  O41  1  0.661221  0.139897  0.462338  1
  O  O42  1  0.420560  0.874878  0.715997  1
  O  O43  1  0.523531  0.553039  0.600101  1
  O  O44  1  0.870101  0.436564  0.719125  1
  O  O45  1  0.412460  0.436564  0.719125  1
  O  O46  1  0.035198  0.014594  0.598972  1
  O  O47  1  0.549179  0.014594  0.598972  1
  O  O48  1  0.317399  0.750936  0.843375  1
  O  O49  1  0.775040  0.750936  0.843375  1
  O  O50  1  0.766940  0.312622  0.846503  1
  O  O51  1  0.663969  0.634461  0.962399  1
  O  O52  1  0.160088  0.640666  0.960841  1
  O  O53  1  0.273990  0.303697  0.851678  1
  O  O54  1  0.638321  0.172906  0.963528  1
  O  O55  1  0.152302  0.172906  0.963528  1
