# generated using pymatgen
data_LiFe(PO3)4
_symmetry_space_group_name_H-M   'P 1'
_cell_length_a   7.26403609
_cell_length_b   7.68813370
_cell_length_c   8.46221935
_cell_angle_alpha   90.00000000
_cell_angle_beta   90.00000000
_cell_angle_gamma   92.06361068
_symmetry_Int_Tables_number   1
_chemical_formula_structural   LiFe(PO3)4
_chemical_formula_sum   'Li2 Fe2 P8 O24'
_cell_volume   472.28206426
_cell_formula_units_Z   2
loop_
 _symmetry_equiv_pos_site_id
 _symmetry_equiv_pos_as_xyz
  1  'x, y, z'
loop_
 _atom_site_type_symbol
 _atom_site_label
 _atom_site_symmetry_multiplicity
 _atom_site_fract_x
 _atom_site_fract_y
 _atom_site_fract_z
 _atom_site_occupancy
  Li  Li0  1  0.264812  0.851873  0.696917  1
  Li  Li1  1  0.735188  0.148126  0.196917  1
  Fe  Fe2  1  0.255174  0.329906  0.493984  1
  Fe  Fe3  1  0.744826  0.670094  0.993984  1
  P  P4  1  0.081831  0.976348  0.290221  1
  P  P5  1  0.067787  0.372927  0.879014  1
  P  P6  1  0.351446  0.805509  0.070617  1
  P  P7  1  0.373872  0.438410  0.124801  1
  P  P8  1  0.626128  0.561590  0.624801  1
  P  P9  1  0.648554  0.194491  0.570617  1
  P  P10  1  0.932213  0.627073  0.379014  1
  P  P11  1  0.918169  0.023652  0.790221  1
  O  O12  1  0.062174  0.800792  0.398536  1
  O  O13  1  0.050691  0.479108  0.424742  1
  O  O14  1  0.269214  0.804534  0.911116  1
  O  O15  1  0.079949  0.011368  0.686264  1
  O  O16  1  0.163123  0.380452  0.722351  1
  O  O17  1  0.268120  0.943346  0.189821  1
  O  O18  1  0.130149  0.124332  0.398903  1
  O  O19  1  0.216253  0.342338  0.018164  1
  O  O20  1  0.292893  0.625420  0.161967  1
  O  O21  1  0.382582  0.339144  0.276844  1
  O  O22  1  0.559412  0.832801  0.084062  1
  O  O23  1  0.446538  0.543465  0.535344  1
  O  O24  1  0.553462  0.456535  0.035344  1
  O  O25  1  0.440588  0.167199  0.584062  1
  O  O26  1  0.617418  0.660856  0.776844  1
  O  O27  1  0.707107  0.374580  0.661967  1
  O  O28  1  0.783747  0.657662  0.518164  1
  O  O29  1  0.869851  0.875668  0.898903  1
  O  O30  1  0.731880  0.056654  0.689821  1
  O  O31  1  0.836877  0.619548  0.222351  1
  O  O32  1  0.920051  0.988632  0.186264  1
  O  O33  1  0.730786  0.195466  0.411116  1
  O  O34  1  0.949309  0.520892  0.924742  1
  O  O35  1  0.937826  0.199208  0.898536  1
