# generated using pymatgen
data_Li2Fe2Si4O11
_symmetry_space_group_name_H-M   'P 1'
_cell_length_a   8.76793302
_cell_length_b   7.54028027
_cell_length_c   7.05239070
_cell_angle_alpha   104.71999288
_cell_angle_beta   101.17079952
_cell_angle_gamma   99.45609719
_symmetry_Int_Tables_number   1
_chemical_formula_structural   Li2Fe2Si4O11
_chemical_formula_sum   'Li4 Fe4 Si8 O22'
_cell_volume   431.05922677
_cell_formula_units_Z   2
loop_
 _symmetry_equiv_pos_site_id
 _symmetry_equiv_pos_as_xyz
  1  'x, y, z'
loop_
 _atom_site_type_symbol
 _atom_site_label
 _atom_site_symmetry_multiplicity
 _atom_site_fract_x
 _atom_site_fract_y
 _atom_site_fract_z
 _atom_site_occupancy
  Li  Li0  1  0.198496  0.795912  0.609748  1
  Li  Li1  1  0.150797  0.754353  0.144519  1
  Li  Li2  1  0.849203  0.245646  0.855481  1
  Li  Li3  1  0.801504  0.204088  0.390252  1
  Fe  Fe4  1  0.389343  0.621055  0.881935  1
  Fe  Fe5  1  0.398160  0.617545  0.370983  1
  Fe  Fe6  1  0.601840  0.382455  0.629017  1
  Fe  Fe7  1  0.610657  0.378945  0.118065  1
  Si  Si8  1  0.032828  0.389598  0.239947  1
  Si  Si9  1  0.232707  0.223498  0.957847  1
  Si  Si10  1  0.224949  0.221883  0.521033  1
  Si  Si11  1  0.595972  0.974671  0.768136  1
  Si  Si12  1  0.404028  0.025329  0.231864  1
  Si  Si13  1  0.775051  0.778117  0.478967  1
  Si  Si14  1  0.767293  0.776502  0.042153  1
  Si  Si15  1  0.967172  0.610402  0.760053  1
  O  O16  1  0.154616  0.617885  0.816116  1
  O  O17  1  0.058877  0.260227  0.399000  1
  O  O18  1  0.155356  0.595193  0.323445  1
  O  O19  1  0.067221  0.261117  0.025033  1
  O  O20  1  0.181532  0.151395  0.709659  1
  O  O21  1  0.273535  0.038436  0.380435  1
  O  O22  1  0.435172  0.808464  0.677083  1
  O  O23  1  0.369025  0.408229  0.582260  1
  O  O24  1  0.415064  0.806463  0.183102  1
  O  O25  1  0.292141  0.046850  0.021792  1
  O  O26  1  0.373344  0.413487  0.061371  1
  O  O27  1  0.626656  0.586513  0.938629  1
  O  O28  1  0.707859  0.953150  0.978208  1
  O  O29  1  0.584936  0.193538  0.816898  1
  O  O30  1  0.630975  0.591771  0.417740  1
  O  O31  1  0.564828  0.191536  0.322917  1
  O  O32  1  0.726465  0.961564  0.619565  1
  O  O33  1  0.818468  0.848605  0.290341  1
  O  O34  1  0.932779  0.738883  0.974967  1
  O  O35  1  0.844644  0.404807  0.676556  1
  O  O36  1  0.941123  0.739773  0.601000  1
  O  O37  1  0.845383  0.382115  0.183884  1
