# generated using pymatgen
data_Li4MnV(PO4)3
_symmetry_space_group_name_H-M   'P 1'
_cell_length_a   9.24522632
_cell_length_b   8.45104984
_cell_length_c   8.43967398
_cell_angle_alpha   60.76000606
_cell_angle_beta   63.27029417
_cell_angle_gamma   90.79336874
_symmetry_Int_Tables_number   1
_chemical_formula_structural   Li4MnV(PO4)3
_chemical_formula_sum   'Li8 Mn2 V2 P6 O24'
_cell_volume   490.28099527
_cell_formula_units_Z   2
loop_
 _symmetry_equiv_pos_site_id
 _symmetry_equiv_pos_as_xyz
  1  'x, y, z'
loop_
 _atom_site_type_symbol
 _atom_site_label
 _atom_site_symmetry_multiplicity
 _atom_site_fract_x
 _atom_site_fract_y
 _atom_site_fract_z
 _atom_site_occupancy
  Li  Li0  1  0.860539  0.269484  0.809155  1
  Li  Li1  1  0.898780  0.932512  0.377029  1
  Li  Li2  1  0.853730  0.661019  0.062785  1
  Li  Li3  1  0.587155  0.791029  0.674175  1
  Li  Li4  1  0.412845  0.208971  0.325825  1
  Li  Li5  1  0.146270  0.338981  0.937215  1
  Li  Li6  1  0.101220  0.067488  0.622971  1
  Li  Li7  1  0.139461  0.730516  0.190845  1
  Mn  Mn8  1  0.965311  0.648756  0.690410  1
  Mn  Mn9  1  0.034689  0.351244  0.309590  1
  V  V10  1  0.440960  0.150206  0.706674  1
  V  V11  1  0.559040  0.849794  0.293326  1
  P  P12  1  0.743452  0.953108  0.795297  1
  P  P13  1  0.748061  0.544090  0.500876  1
  P  P14  1  0.756184  0.242188  0.204993  1
  P  P15  1  0.243816  0.757812  0.795007  1
  P  P16  1  0.251939  0.455910  0.499124  1
  P  P17  1  0.256548  0.046892  0.204703  1
  O  O18  1  0.891472  0.141531  0.658597  1
  O  O19  1  0.801022  0.497058  0.663329  1
  O  O20  1  0.793705  0.836133  0.692262  1
  O  O21  1  0.897497  0.569126  0.295383  1
  O  O22  1  0.902822  0.196146  0.248546  1
  O  O23  1  0.709951  0.742059  0.430876  1
  O  O24  1  0.579072  0.990695  0.802570  1
  O  O25  1  0.587174  0.390008  0.601421  1
  O  O26  1  0.807322  0.454106  0.032941  1
  O  O27  1  0.729747  0.116852  0.125931  1
  O  O28  1  0.586617  0.187541  0.406832  1
  O  O29  1  0.718603  0.842000  0.020506  1
  O  O30  1  0.281397  0.158000  0.979494  1
  O  O31  1  0.413383  0.812459  0.593168  1
  O  O32  1  0.270253  0.883148  0.874069  1
  O  O33  1  0.192678  0.545894  0.967059  1
  O  O34  1  0.412826  0.609992  0.398579  1
  O  O35  1  0.420928  0.009305  0.197430  1
  O  O36  1  0.290049  0.257941  0.569124  1
  O  O37  1  0.097178  0.803854  0.751454  1
  O  O38  1  0.102503  0.430874  0.704617  1
  O  O39  1  0.206295  0.163867  0.307738  1
  O  O40  1  0.198978  0.502942  0.336671  1
  O  O41  1  0.108528  0.858469  0.341403  1
