# generated using pymatgen
data_Li9Fe3(OF7)2
_symmetry_space_group_name_H-M   'P 1'
_cell_length_a   5.93126608
_cell_length_b   5.99153534
_cell_length_c   10.36696289
_cell_angle_alpha   107.20618317
_cell_angle_beta   72.78997203
_cell_angle_gamma   119.53694101
_symmetry_Int_Tables_number   1
_chemical_formula_structural   Li9Fe3(OF7)2
_chemical_formula_sum   'Li9 Fe3 O2 F14'
_cell_volume   301.15853266
_cell_formula_units_Z   1
loop_
 _symmetry_equiv_pos_site_id
 _symmetry_equiv_pos_as_xyz
  1  'x, y, z'
loop_
 _atom_site_type_symbol
 _atom_site_label
 _atom_site_symmetry_multiplicity
 _atom_site_fract_x
 _atom_site_fract_y
 _atom_site_fract_z
 _atom_site_occupancy
  Li  Li0  1  0.292506  0.668420  0.053856  1
  Li  Li1  1  0.062500  0.937500  0.312500  1
  Li  Li2  1  0.006196  0.026050  0.005395  1
  Li  Li3  1  0.118804  0.848950  0.619605  1
  Li  Li4  1  0.633198  0.359219  0.120712  1
  Li  Li5  1  0.491802  0.515781  0.504288  1
  Li  Li6  1  0.062500  0.437500  0.812500  1
  Li  Li7  1  0.832494  0.206580  0.571144  1
  Li  Li8  1  0.562500  0.437500  0.812500  1
  Fe  Fe9  1  0.562500  0.937500  0.312500  1
  Fe  Fe10  1  0.062500  0.437500  0.312500  1
  Fe  Fe11  1  0.562500  0.937500  0.812500  1
  O  O12  1  0.208726  0.787734  0.413389  1
  O  O13  1  0.916274  0.087266  0.211611  1
  F  F14  1  0.434761  0.566376  0.185276  1
  F  F15  1  0.696679  0.836301  0.434315  1
  F  F16  1  0.171435  0.306803  0.433291  1
  F  F17  1  0.953565  0.568197  0.191709  1
  F  F18  1  0.428321  0.038699  0.190685  1
  F  F19  1  0.690239  0.308624  0.439724  1
  F  F20  1  0.212382  0.817621  0.929942  1
  F  F21  1  0.442267  0.585107  0.701268  1
  F  F22  1  0.668445  0.815304  0.929500  1
  F  F23  1  0.201580  0.338532  0.929037  1
  F  F24  1  0.923420  0.536468  0.695963  1
  F  F25  1  0.456555  0.059696  0.695500  1
  F  F26  1  0.682733  0.289893  0.923732  1
  F  F27  1  0.912618  0.057379  0.695058  1
