# generated using pymatgen
data_Li2VCrO4
_symmetry_space_group_name_H-M   'P 1'
_cell_length_a   5.15992029
_cell_length_b   8.94967411
_cell_length_c   5.17925807
_cell_angle_alpha   90.10136609
_cell_angle_beta   80.51103146
_cell_angle_gamma   73.31362594
_symmetry_Int_Tables_number   1
_chemical_formula_structural   Li2VCrO4
_chemical_formula_sum   'Li6 V3 Cr3 O12'
_cell_volume   225.66440019
_cell_formula_units_Z   3
loop_
 _symmetry_equiv_pos_site_id
 _symmetry_equiv_pos_as_xyz
  1  'x, y, z'
loop_
 _atom_site_type_symbol
 _atom_site_label
 _atom_site_symmetry_multiplicity
 _atom_site_fract_x
 _atom_site_fract_y
 _atom_site_fract_z
 _atom_site_occupancy
  Li  Li0  1  0.997876  0.001118  0.007639  1
  Li  Li1  1  0.998500  0.167235  0.494842  1
  Li  Li2  1  0.000903  0.331902  0.001338  1
  Li  Li3  1  0.002161  0.496397  0.502101  1
  Li  Li4  1  0.001415  0.667407  0.999106  1
  Li  Li5  1  0.999235  0.836256  0.494673  1
  V  V6  1  0.500104  0.082023  0.750142  1
  V  V7  1  0.499973  0.583774  0.250694  1
  V  V8  1  0.499446  0.750707  0.749332  1
  Cr  Cr9  1  0.500388  0.249290  0.250755  1
  Cr  Cr10  1  0.500354  0.414994  0.750570  1
  Cr  Cr11  1  0.499557  0.918720  0.248935  1
  O  O12  1  0.271759  0.121654  0.127823  1
  O  O13  1  0.727611  0.045465  0.372199  1
  O  O14  1  0.276570  0.286094  0.620432  1
  O  O15  1  0.723434  0.212197  0.881373  1
  O  O16  1  0.275777  0.453236  0.120717  1
  O  O17  1  0.726163  0.376921  0.383465  1
  O  O18  1  0.273342  0.617841  0.620398  1
  O  O19  1  0.725403  0.545245  0.878562  1
  O  O20  1  0.726576  0.714031  0.377857  1
  O  O21  1  0.272218  0.791508  0.117962  1
  O  O22  1  0.273057  0.955286  0.617792  1
  O  O23  1  0.728178  0.880699  0.881296  1
