# generated using pymatgen
data_V6O11F
_symmetry_space_group_name_H-M   'P 1'
_cell_length_a   10.47401320
_cell_length_b   6.47002724
_cell_length_c   2.94611743
_cell_angle_alpha   90.00000000
_cell_angle_beta   90.00000000
_cell_angle_gamma   107.99042480
_symmetry_Int_Tables_number   1
_chemical_formula_structural   V6O11F
_chemical_formula_sum   'V6 O11 F1'
_cell_volume   189.88872584
_cell_formula_units_Z   1
loop_
 _symmetry_equiv_pos_site_id
 _symmetry_equiv_pos_as_xyz
  1  'x, y, z'
loop_
 _atom_site_type_symbol
 _atom_site_label
 _atom_site_symmetry_multiplicity
 _atom_site_fract_x
 _atom_site_fract_y
 _atom_site_fract_z
 _atom_site_occupancy
  V  V0  1  0.017230  0.008561  0.000000  1
  V  V1  1  0.342664  0.171364  0.500000  1
  V  V2  1  0.997536  0.498701  0.500000  1
  V  V3  1  0.322093  0.661074  0.000000  1
  V  V4  1  0.670623  0.335317  0.000000  1
  V  V5  1  0.642753  0.821388  0.500000  1
  O  O6  1  0.137851  0.068941  0.500000  1
  O  O7  1  0.998491  0.290281  0.000000  1
  O  O8  1  0.998469  0.708117  0.000000  1
  O  O9  1  0.335750  0.364942  0.000000  1
  O  O10  1  0.668655  0.029035  0.000000  1
  O  O11  1  0.193840  0.596885  0.500000  1
  O  O12  1  0.538566  0.269279  0.500000  1
  O  O13  1  0.462628  0.731340  0.500000  1
  O  O14  1  0.797539  0.398753  0.500000  1
  O  O15  1  0.335754  0.970837  0.000000  1
  O  O16  1  0.668627  0.639621  0.000000  1
  F  F17  1  0.870934  0.935564  0.500000  1
