# generated using pymatgen
data_FeOF
_symmetry_space_group_name_H-M   'P 1'
_cell_length_a   9.46672965
_cell_length_b   14.25578009
_cell_length_c   3.11601599
_cell_angle_alpha   90.00000000
_cell_angle_beta   90.00000000
_cell_angle_gamma   90.20119892
_symmetry_Int_Tables_number   1
_chemical_formula_structural   FeOF
_chemical_formula_sum   'Fe12 O12 F12'
_cell_volume   420.52126457
_cell_formula_units_Z   12
loop_
 _symmetry_equiv_pos_site_id
 _symmetry_equiv_pos_as_xyz
  1  'x, y, z'
loop_
 _atom_site_type_symbol
 _atom_site_label
 _atom_site_symmetry_multiplicity
 _atom_site_fract_x
 _atom_site_fract_y
 _atom_site_fract_z
 _atom_site_occupancy
  Fe  Fe0  1  0.015064  0.999927  0.000000  1
  Fe  Fe1  1  0.021747  0.324867  0.000000  1
  Fe  Fe2  1  0.002749  0.673357  0.000000  1
  Fe  Fe3  1  0.232950  0.162467  0.500000  1
  Fe  Fe4  1  0.214900  0.501146  0.500000  1
  Fe  Fe5  1  0.220337  0.833820  0.500000  1
  Fe  Fe6  1  0.513025  0.330302  0.000000  1
  Fe  Fe7  1  0.523261  0.989263  0.000000  1
  Fe  Fe8  1  0.503917  0.673637  0.000000  1
  Fe  Fe9  1  0.761546  0.186758  0.500000  1
  Fe  Fe10  1  0.742260  0.487868  0.500000  1
  Fe  Fe11  1  0.749878  0.822394  0.500000  1
  O  O12  1  0.106092  0.267832  0.500000  1
  O  O13  1  0.089041  0.603709  0.500000  1
  O  O14  1  0.093295  0.938392  0.500000  1
  O  O15  1  0.153938  0.100884  0.000000  1
  O  O16  1  0.156774  0.769905  0.000000  1
  O  O17  1  0.148903  0.434667  0.000000  1
  O  O18  1  0.594365  0.267933  0.500000  1
  O  O19  1  0.605231  0.931362  0.500000  1
  O  O20  1  0.649760  0.436359  0.000000  1
  O  O21  1  0.646911  0.762823  0.000000  1
  O  O22  1  0.855268  0.236353  0.000000  1
  O  O23  1  0.898135  0.733375  0.500000  1
  F  F24  1  0.350343  0.230662  0.000000  1
  F  F25  1  0.352634  0.570180  0.000000  1
  F  F26  1  0.350724  0.900170  0.000000  1
  F  F27  1  0.411913  0.063358  0.500000  1
  F  F28  1  0.399324  0.399025  0.500000  1
  F  F29  1  0.400444  0.732887  0.500000  1
  F  F30  1  0.593492  0.600582  0.500000  1
  F  F31  1  0.656953  0.103034  0.000000  1
  F  F32  1  0.848315  0.901133  0.000000  1
  F  F33  1  0.837115  0.562556  0.000000  1
  F  F34  1  0.895323  0.066037  0.500000  1
  F  F35  1  0.904081  0.400977  0.500000  1
