# generated using pymatgen
data_Li3MnV(PO4)3
_symmetry_space_group_name_H-M   'P 1'
_cell_length_a   8.73991818
_cell_length_b   8.65260344
_cell_length_c   8.81358113
_cell_angle_alpha   89.99999759
_cell_angle_beta   59.72079812
_cell_angle_gamma   60.81299752
_symmetry_Int_Tables_number   1
_chemical_formula_structural   Li3MnV(PO4)3
_chemical_formula_sum   'Li6 Mn2 V2 P6 O24'
_cell_volume   475.02761721
_cell_formula_units_Z   2
loop_
 _symmetry_equiv_pos_site_id
 _symmetry_equiv_pos_as_xyz
  1  'x, y, z'
loop_
 _atom_site_type_symbol
 _atom_site_label
 _atom_site_symmetry_multiplicity
 _atom_site_fract_x
 _atom_site_fract_y
 _atom_site_fract_z
 _atom_site_occupancy
  Li  Li0  1  0.629204  0.710189  0.108284  1
  Li  Li1  1  0.389308  0.675275  0.651339  1
  Li  Li2  1  0.629204  0.210189  0.262511  1
  Li  Li3  1  0.978960  0.752790  0.639804  1
  Li  Li4  1  0.978960  0.252790  0.381237  1
  Li  Li5  1  0.389308  0.175275  0.959354  1
  Mn  Mn6  1  0.802881  0.638697  0.350027  1
  Mn  Mn7  1  0.802881  0.138697  0.847092  1
  V  V8  1  0.209273  0.859956  0.147531  1
  V  V9  1  0.209273  0.359956  0.643196  1
  P  P10  1  0.281951  0.954321  0.470392  1
  P  P11  1  0.281951  0.454321  0.247657  1
  P  P12  1  -0.000814  0.256691  0.050105  1
  P  P13  1  0.720765  0.537481  0.753857  1
  P  P14  1  -0.000814  0.756691  0.950710  1
  P  P15  1  0.720765  0.037481  0.525379  1
  O  O16  1  0.321406  0.919317  0.277106  1
  O  O17  1  0.095351  0.939721  0.619137  1
  O  O18  1  0.232637  0.648624  0.245547  1
  O  O19  1  0.095351  0.439721  0.285512  1
  O  O20  1  0.483523  0.791959  0.451909  1
  O  O21  1  0.171911  0.101075  0.072906  1
  O  O22  1  0.483523  0.291959  0.064568  1
  O  O23  1  0.124716  0.807697  0.989486  1
  O  O24  1  0.866392  0.700785  0.101973  1
  O  O25  1  0.321406  0.419317  0.401488  1
  O  O26  1  0.171911  0.601075  0.755182  1
  O  O27  1  0.785105  0.834259  0.472694  1
  O  O28  1  0.232637  0.148624  0.521816  1
  O  O29  1  0.826461  0.425144  0.238260  1
  O  O30  1  0.666532  0.578711  0.611436  1
  O  O31  1  0.124716  0.307697  0.885798  1
  O  O32  1  0.866392  0.200785  0.031636  1
  O  O33  1  0.533111  0.682539  0.949917  1
  O  O34  1  0.826461  0.925144  0.935279  1
  O  O35  1  0.533111  0.182539  0.516973  1
  O  O36  1  0.912327  0.549228  0.706548  1
  O  O37  1  0.785105  0.334259  0.742200  1
  O  O38  1  0.912327  0.049228  0.381124  1
  O  O39  1  0.666532  0.078711  0.722032  1
