# generated using pymatgen
data_Y5O4F7
_symmetry_space_group_name_H-M   'P 1'
_cell_length_a   10.95314263
_cell_length_b   14.28694618
_cell_length_c   5.61586938
_cell_angle_alpha   78.66538864
_cell_angle_beta   90.00000000
_cell_angle_gamma   90.00000000
_symmetry_Int_Tables_number   1
_chemical_formula_structural   Y5O4F7
_chemical_formula_sum   'Y20 O16 F28'
_cell_volume   861.67010464
_cell_formula_units_Z   4
loop_
 _symmetry_equiv_pos_site_id
 _symmetry_equiv_pos_as_xyz
  1  'x, y, z'
loop_
 _atom_site_type_symbol
 _atom_site_label
 _atom_site_symmetry_multiplicity
 _atom_site_fract_x
 _atom_site_fract_y
 _atom_site_fract_z
 _atom_site_occupancy
  Y  Y0  1  0.147715  0.099127  0.697294  1
  Y  Y1  1  0.146077  0.901539  0.300629  1
  Y  Y2  1  0.138249  0.499010  0.483038  1
  Y  Y3  1  0.146932  0.705088  0.956525  1
  Y  Y4  1  0.142467  0.295243  0.131314  1
  Y  Y5  1  0.357533  0.704757  0.426557  1
  Y  Y6  1  0.353068  0.294912  0.661613  1
  Y  Y7  1  0.361751  0.500990  0.982048  1
  Y  Y8  1  0.353923  0.098461  0.202169  1
  Y  Y9  1  0.352285  0.900873  0.796422  1
  Y  Y10  1  0.646077  0.098461  0.702169  1
  Y  Y11  1  0.647715  0.900873  0.296422  1
  Y  Y12  1  0.638249  0.500990  0.482048  1
  Y  Y13  1  0.642467  0.704757  0.926557  1
  Y  Y14  1  0.646932  0.294912  0.161613  1
  Y  Y15  1  0.853068  0.705088  0.456525  1
  Y  Y16  1  0.857533  0.295243  0.631314  1
  Y  Y17  1  0.861751  0.499010  0.983038  1
  Y  Y18  1  0.852285  0.099127  0.197294  1
  Y  Y19  1  0.853923  0.901539  0.800629  1
  O  O20  1  0.235591  0.199894  0.931935  1
  O  O21  1  0.237262  0.794467  0.632474  1
  O  O22  1  0.231293  0.404640  0.810209  1
  O  O23  1  0.250000  0.000000  0.486648  1
  O  O24  1  0.250000  0.000000  0.986728  1
  O  O25  1  0.268708  0.595360  0.214849  1
  O  O26  1  0.262738  0.205533  0.426941  1
  O  O27  1  0.264409  0.800106  0.131830  1
  O  O28  1  0.735591  0.800106  0.631830  1
  O  O29  1  0.737262  0.205533  0.926941  1
  O  O30  1  0.731293  0.595360  0.714849  1
  O  O31  1  0.750000  0.000000  0.486728  1
  O  O32  1  0.750000  0.000000  0.986648  1
  O  O33  1  0.768707  0.404640  0.310209  1
  O  O34  1  0.764409  0.199894  0.431935  1
  O  O35  1  0.762738  0.794467  0.132474  1
  F  F36  1  0.999040  0.999989  0.099355  1
  F  F37  1  0.000960  0.999989  0.599355  1
  F  F38  1  0.021043  0.174296  0.322403  1
  F  F39  1  0.024660  0.827307  0.004852  1
  F  F40  1  0.050463  0.345022  0.474855  1
  F  F41  1  0.041779  0.654318  0.339707  1
  F  F42  1  0.055392  0.497244  0.113234  1
  F  F43  1  0.225643  0.599897  0.711406  1
  F  F44  1  0.274357  0.400103  0.311302  1
  F  F45  1  0.444608  0.502756  0.610479  1
  F  F46  1  0.458221  0.345682  0.994025  1
  F  F47  1  0.449537  0.654978  0.819877  1
  F  F48  1  0.475340  0.172693  0.832159  1
  F  F49  1  0.478957  0.825704  0.496698  1
  F  F50  1  0.500960  0.000011  0.099343  1
  F  F51  1  0.499040  0.000011  0.599343  1
  F  F52  1  0.521043  0.825704  0.996699  1
  F  F53  1  0.524660  0.172693  0.332159  1
  F  F54  1  0.541779  0.345682  0.494025  1
  F  F55  1  0.550463  0.654978  0.319877  1
  F  F56  1  0.555392  0.502756  0.110479  1
  F  F57  1  0.725643  0.400103  0.811302  1
  F  F58  1  0.774357  0.599897  0.211406  1
  F  F59  1  0.944608  0.497244  0.613234  1
  F  F60  1  0.949537  0.345022  0.974855  1
  F  F61  1  0.958221  0.654318  0.839707  1
  F  F62  1  0.975340  0.827307  0.504852  1
  F  F63  1  0.978957  0.174296  0.822403  1
