# generated using pymatgen
data_Li4NbFe3O8
_symmetry_space_group_name_H-M   'P 1'
_cell_length_a   5.75137913
_cell_length_b   6.60304481
_cell_length_c   5.16308864
_cell_angle_alpha   89.80317648
_cell_angle_beta   90.18704208
_cell_angle_gamma   90.77821117
_symmetry_Int_Tables_number   1
_chemical_formula_structural   Li4NbFe3O8
_chemical_formula_sum   'Li4 Nb1 Fe3 O8'
_cell_volume   196.05636738
_cell_formula_units_Z   1
loop_
 _symmetry_equiv_pos_site_id
 _symmetry_equiv_pos_as_xyz
  1  'x, y, z'
loop_
 _atom_site_type_symbol
 _atom_site_label
 _atom_site_symmetry_multiplicity
 _atom_site_fract_x
 _atom_site_fract_y
 _atom_site_fract_z
 _atom_site_occupancy
  Li  Li0  1  0.084812  0.612295  0.996074  1
  Li  Li1  1  0.426264  0.133286  0.493764  1
  Li  Li2  1  0.562686  0.874525  0.996783  1
  Li  Li3  1  0.906121  0.377291  0.494345  1
  Nb  Nb4  1  0.915439  0.876546  0.505460  1
  Fe  Fe5  1  0.098135  0.150319  0.974634  1
  Fe  Fe6  1  0.425574  0.605238  0.512015  1
  Fe  Fe7  1  0.584773  0.372447  0.993365  1
  O  O8  1  0.075184  0.111567  0.388202  1
  O  O9  1  0.074653  0.645177  0.393271  1
  O  O10  1  0.425576  0.130619  0.879798  1
  O  O11  1  0.416680  0.612276  0.895604  1
  O  O12  1  0.585147  0.373914  0.362808  1
  O  O13  1  0.603666  0.875211  0.389344  1
  O  O14  1  0.898560  0.376178  0.878627  1
  O  O15  1  0.916728  0.873113  0.872303  1
