# generated using pymatgen
data_LiFeSiO4
_symmetry_space_group_name_H-M   'P 1'
_cell_length_a   10.28465661
_cell_length_b   13.54305060
_cell_length_c   5.13785485
_cell_angle_alpha   90.00000000
_cell_angle_beta   90.00000000
_cell_angle_gamma   90.00000000
_symmetry_Int_Tables_number   1
_chemical_formula_structural   LiFeSiO4
_chemical_formula_sum   'Li8 Fe8 Si8 O32'
_cell_volume   715.62932329
_cell_formula_units_Z   8
loop_
 _symmetry_equiv_pos_site_id
 _symmetry_equiv_pos_as_xyz
  1  'x, y, z'
loop_
 _atom_site_type_symbol
 _atom_site_label
 _atom_site_symmetry_multiplicity
 _atom_site_fract_x
 _atom_site_fract_y
 _atom_site_fract_z
 _atom_site_occupancy
  Li  Li0  1  0.034621  0.752464  0.064521  1
  Li  Li1  1  0.215067  0.001921  0.550216  1
  Li  Li2  1  0.284933  0.501921  0.550216  1
  Li  Li3  1  0.465379  0.252464  0.064521  1
  Li  Li4  1  0.534621  0.752464  0.935479  1
  Li  Li5  1  0.715067  0.001921  0.449784  1
  Li  Li6  1  0.784933  0.501921  0.449784  1
  Li  Li7  1  0.965379  0.252464  0.935479  1
  Fe  Fe8  1  0.032438  0.502216  0.921641  1
  Fe  Fe9  1  0.214754  0.750609  0.556015  1
  Fe  Fe10  1  0.285246  0.250609  0.556015  1
  Fe  Fe11  1  0.467562  0.002216  0.921641  1
  Fe  Fe12  1  0.532438  0.502216  0.078359  1
  Fe  Fe13  1  0.714754  0.750609  0.443985  1
  Fe  Fe14  1  0.785246  0.250609  0.443985  1
  Fe  Fe15  1  0.967562  0.002216  0.078359  1
  Si  Si16  1  0.033325  0.375653  0.431794  1
  Si  Si17  1  0.215980  0.127719  0.054354  1
  Si  Si18  1  0.284020  0.627719  0.054354  1
  Si  Si19  1  0.466675  0.875653  0.431794  1
  Si  Si20  1  0.533325  0.375653  0.568206  1
  Si  Si21  1  0.715980  0.127719  0.945646  1
  Si  Si22  1  0.784020  0.627719  0.945646  1
  Si  Si23  1  0.966675  0.875653  0.568206  1
  O  O24  1  0.998457  0.884342  0.881089  1
  O  O25  1  0.974658  0.474406  0.577413  1
  O  O26  1  0.040692  0.777644  0.450379  1
  O  O27  1  0.059096  0.120612  0.990684  1
  O  O28  1  0.190060  0.368745  0.490155  1
  O  O29  1  0.213977  0.529260  0.928229  1
  O  O30  1  0.280898  0.226297  0.920677  1
  O  O31  1  0.240492  0.133713  0.370760  1
  O  O32  1  0.259508  0.633713  0.370760  1
  O  O33  1  0.219102  0.726297  0.920677  1
  O  O34  1  0.286023  0.029260  0.928229  1
  O  O35  1  0.309940  0.868745  0.490155  1
  O  O36  1  0.440904  0.620612  0.990684  1
  O  O37  1  0.459308  0.277644  0.450379  1
  O  O38  1  0.525342  0.974406  0.577413  1
  O  O39  1  0.501543  0.384342  0.881089  1
  O  O40  1  0.498457  0.884342  0.118911  1
  O  O41  1  0.474658  0.474406  0.422587  1
  O  O42  1  0.540692  0.777644  0.549621  1
  O  O43  1  0.559096  0.120612  0.009316  1
  O  O44  1  0.690060  0.368745  0.509845  1
  O  O45  1  0.713977  0.529260  0.071771  1
  O  O46  1  0.780898  0.226297  0.079323  1
  O  O47  1  0.740492  0.133713  0.629240  1
  O  O48  1  0.759508  0.633713  0.629240  1
  O  O49  1  0.719102  0.726297  0.079323  1
  O  O50  1  0.786023  0.029260  0.071771  1
  O  O51  1  0.809940  0.868745  0.509845  1
  O  O52  1  0.940904  0.620612  0.009316  1
  O  O53  1  0.959308  0.277644  0.549621  1
  O  O54  1  0.025342  0.974406  0.422587  1
  O  O55  1  0.001543  0.384342  0.118911  1
