# generated using pymatgen
data_LiCo2OF3
_symmetry_space_group_name_H-M   'P 1'
_cell_length_a   6.02703401
_cell_length_b   6.02703401
_cell_length_c   6.13753445
_cell_angle_alpha   60.59380311
_cell_angle_beta   90.00000000
_cell_angle_gamma   120.00000000
_symmetry_Int_Tables_number   1
_chemical_formula_structural   LiCo2OF3
_chemical_formula_sum   'Li2 Co4 O2 F6'
_cell_volume   159.04733906
_cell_formula_units_Z   2
loop_
 _symmetry_equiv_pos_site_id
 _symmetry_equiv_pos_as_xyz
  1  'x, y, z'
loop_
 _atom_site_type_symbol
 _atom_site_label
 _atom_site_symmetry_multiplicity
 _atom_site_fract_x
 _atom_site_fract_y
 _atom_site_fract_z
 _atom_site_occupancy
  Li  Li0  1  0.499055  0.998110  0.002835  1
  Li  Li1  1  0.139456  0.278910  0.081634  1
  Co  Co2  1  0.496458  0.992916  0.496834  1
  Co  Co3  1  0.496458  0.506708  0.496834  1
  Co  Co4  1  0.853588  0.707178  0.939234  1
  Co  Co5  1  0.010250  0.506708  0.496834  1
  O  O6  1  0.728558  0.457116  0.314327  1
  O  O7  1  0.268580  0.537159  0.694261  1
  F  F8  1  0.741299  0.998362  0.760339  1
  F  F9  1  0.741299  0.482598  0.760339  1
  F  F10  1  0.257063  0.998362  0.760339  1
  F  F11  1  0.263577  0.527154  0.232064  1
  F  F12  1  0.740782  0.004359  0.232064  1
  F  F13  1  0.263577  0.004359  0.232064  1
