# generated using pymatgen
data_Li3V2CoO6
_symmetry_space_group_name_H-M   'P 1'
_cell_length_a   15.47634508
_cell_length_b   9.93950028
_cell_length_c   9.93950014
_cell_angle_alpha   17.38315468
_cell_angle_beta   16.56635973
_cell_angle_gamma   16.56636199
_symmetry_Int_Tables_number   1
_chemical_formula_structural   Li3V2CoO6
_chemical_formula_sum   'Li3 V2 Co1 O6'
_cell_volume   111.72972533
_cell_formula_units_Z   1
loop_
 _symmetry_equiv_pos_site_id
 _symmetry_equiv_pos_as_xyz
  1  'x, y, z'
loop_
 _atom_site_type_symbol
 _atom_site_label
 _atom_site_symmetry_multiplicity
 _atom_site_fract_x
 _atom_site_fract_y
 _atom_site_fract_z
 _atom_site_occupancy
  Li  Li0  1  0.166667  0.500000  0.500000  1
  Li  Li1  1  0.504193  0.498671  0.498671  1
  Li  Li2  1  0.829140  0.501329  0.501329  1
  V  V3  1  0.014585  0.989041  0.989041  1
  V  V4  1  0.318749  0.010959  0.010959  1
  Co  Co5  1  0.666667  0.000000  0.000000  1
  O  O6  1  0.228519  0.269662  0.269662  1
  O  O7  1  0.579136  0.260691  0.260691  1
  O  O8  1  0.104814  0.730338  0.730338  1
  O  O9  1  0.939174  0.236588  0.236588  1
  O  O10  1  0.394159  0.763412  0.763412  1
  O  O11  1  0.754197  0.739309  0.739309  1
