# generated using pymatgen
data_Li2MnV(P2O7)2
_symmetry_space_group_name_H-M   'P 1'
_cell_length_a   9.61145197
_cell_length_b   9.61491824
_cell_length_c   7.15811405
_cell_angle_alpha   79.51001700
_cell_angle_beta   79.54227449
_cell_angle_gamma   119.31362999
_symmetry_Int_Tables_number   1
_chemical_formula_structural   Li2MnV(P2O7)2
_chemical_formula_sum   'Li4 Mn2 V2 P8 O28'
_cell_volume   538.16210509
_cell_formula_units_Z   2
loop_
 _symmetry_equiv_pos_site_id
 _symmetry_equiv_pos_as_xyz
  1  'x, y, z'
loop_
 _atom_site_type_symbol
 _atom_site_label
 _atom_site_symmetry_multiplicity
 _atom_site_fract_x
 _atom_site_fract_y
 _atom_site_fract_z
 _atom_site_occupancy
  Li  Li0  1  0.070523  0.431820  0.325041  1
  Li  Li1  1  0.319271  0.180690  0.674270  1
  Li  Li2  1  0.567130  0.928440  0.325728  1
  Li  Li3  1  0.820174  0.680856  0.675924  1
  Mn  Mn4  1  0.257717  0.257216  0.269945  1
  Mn  Mn5  1  0.991912  0.490065  0.730712  1
  V  V6  1  0.757672  0.756958  0.271786  1
  V  V7  1  0.493979  0.994247  0.727520  1
  P  P8  1  0.350585  0.529665  0.518451  1
  P  P9  1  0.850972  0.030179  0.521760  1
  P  P10  1  0.666973  0.454929  0.087097  1
  P  P11  1  0.172425  0.955431  0.088447  1
  P  P12  1  0.294034  0.580251  0.910920  1
  P  P13  1  0.795276  0.079504  0.913650  1
  P  P14  1  0.219104  0.897682  0.483367  1
  P  P15  1  0.721543  0.401500  0.476991  1
  O  O16  1  0.191075  0.124673  0.084628  1
  O  O17  1  0.017102  0.193609  0.391859  1
  O  O18  1  0.201910  0.043321  0.505214  1
  O  O19  1  0.278927  0.481569  0.112379  1
  O  O20  1  0.482750  0.309914  0.150131  1
  O  O21  1  0.336951  0.371103  0.480916  1
  O  O22  1  0.205124  0.545616  0.494919  1
  O  O23  1  0.700173  0.043218  0.506672  1
  O  O24  1  0.557483  0.234732  0.604432  1
  O  O25  1  0.055537  0.728629  0.609297  1
  O  O26  1  0.627513  0.060274  0.916120  1
  O  O27  1  0.125199  0.561709  0.911232  1
  O  O28  1  0.344280  0.499232  0.750921  1
  O  O29  1  0.750120  0.404740  0.246231  1
  O  O30  1  0.250500  0.904390  0.250566  1
  O  O31  1  0.686485  0.623570  0.087571  1
  O  O32  1  0.519863  0.693723  0.395710  1
  O  O33  1  0.708509  0.551314  0.492299  1
  O  O34  1  0.878768  0.415836  0.517976  1
  O  O35  1  0.378984  0.915476  0.517829  1
  O  O36  1  0.938889  0.263253  0.855700  1
  O  O37  1  0.437981  0.764612  0.846257  1
  O  O38  1  0.276797  0.970700  0.888252  1
  O  O39  1  0.766394  0.471165  0.885817  1
  O  O40  1  0.778761  0.974583  0.113531  1
  O  O41  1  0.989102  0.814583  0.147054  1
  O  O42  1  0.833396  0.871464  0.482542  1
  O  O43  1  0.846556  0.999141  0.752333  1
