# generated using pymatgen
data_Li3Co2(SiO4)2
_symmetry_space_group_name_H-M   'P 1'
_cell_length_a   5.21622871
_cell_length_b   5.21620931
_cell_length_c   6.74235372
_cell_angle_alpha   92.36927163
_cell_angle_beta   92.36913088
_cell_angle_gamma   87.15765614
_symmetry_Int_Tables_number   1
_chemical_formula_structural   Li3Co2(SiO4)2
_chemical_formula_sum   'Li3 Co2 Si2 O8'
_cell_volume   182.92805083
_cell_formula_units_Z   1
loop_
 _symmetry_equiv_pos_site_id
 _symmetry_equiv_pos_as_xyz
  1  'x, y, z'
loop_
 _atom_site_type_symbol
 _atom_site_label
 _atom_site_symmetry_multiplicity
 _atom_site_fract_x
 _atom_site_fract_y
 _atom_site_fract_z
 _atom_site_occupancy
  Li  Li0  1  0.579718  0.103341  0.549617  1
  Li  Li1  1  0.896655  0.420274  0.450384  1
  Li  Li2  1  0.138322  0.861675  0.499998  1
  Co  Co3  1  0.806397  0.193603  0.999999  1
  Co  Co4  1  0.200308  0.799694  -0.000000  1
  Si  Si5  1  0.331814  0.318594  0.250161  1
  Si  Si6  1  0.681409  0.668185  0.749838  1
  O  O7  1  0.192503  0.167501  0.053240  1
  O  O8  1  0.645049  0.277846  0.251734  1
  O  O9  1  0.224717  0.212185  0.451275  1
  O  O10  1  0.722155  0.354949  0.748263  1
  O  O11  1  0.237470  0.628090  0.232842  1
  O  O12  1  0.787815  0.775282  0.548723  1
  O  O13  1  0.371915  0.762532  0.767159  1
  O  O14  1  0.832504  0.807495  0.946758  1
