# generated using pymatgen
data_Li3VPCO7
_symmetry_space_group_name_H-M   'P 1'
_cell_length_a   8.50891993
_cell_length_b   9.97820876
_cell_length_c   6.61646607
_cell_angle_alpha   90.57103611
_cell_angle_beta   90.92960341
_cell_angle_gamma   85.09826767
_symmetry_Int_Tables_number   1
_chemical_formula_structural   Li3VPCO7
_chemical_formula_sum   'Li12 V4 P4 C4 O28'
_cell_volume   559.61402426
_cell_formula_units_Z   4
loop_
 _symmetry_equiv_pos_site_id
 _symmetry_equiv_pos_as_xyz
  1  'x, y, z'
loop_
 _atom_site_type_symbol
 _atom_site_label
 _atom_site_symmetry_multiplicity
 _atom_site_fract_x
 _atom_site_fract_y
 _atom_site_fract_z
 _atom_site_occupancy
  Li  Li0  1  0.099514  0.390603  0.256371  1
  Li  Li1  1  0.098286  0.882499  0.258308  1
  Li  Li2  1  0.281039  0.108106  0.486012  1
  Li  Li3  1  0.278432  0.639183  0.017829  1
  Li  Li4  1  0.280404  0.638722  0.478472  1
  Li  Li5  1  0.347388  0.877062  0.740238  1
  Li  Li6  1  0.716944  0.377154  0.529609  1
  Li  Li7  1  0.717191  0.377854  0.970350  1
  Li  Li8  1  0.716532  0.872947  0.534492  1
  Li  Li9  1  0.719129  0.873205  0.966504  1
  Li  Li10  1  0.891771  0.108034  0.748768  1
  Li  Li11  1  0.907642  0.622803  0.746832  1
  V  V12  1  0.259103  0.112208  0.991003  1
  V  V13  1  0.329186  0.401027  0.747500  1
  V  V14  1  0.669396  0.103250  0.250739  1
  V  V15  1  0.671207  0.603309  0.250471  1
  P  P16  1  0.407799  0.360217  0.244210  1
  P  P17  1  0.411950  0.859316  0.254267  1
  P  P18  1  0.586528  0.140324  0.750082  1
  P  P19  1  0.591815  0.639790  0.749497  1
  C  C20  1  0.034522  0.347853  0.754063  1
  C  C21  1  0.042594  0.855818  0.759113  1
  C  C22  1  0.962524  0.152772  0.251780  1
  C  C23  1  0.964893  0.652803  0.249813  1
  O  O24  1  0.070512  0.470580  0.745691  1
  O  O25  1  0.109556  0.181521  0.245163  1
  O  O26  1  0.075943  0.981345  0.772744  1
  O  O27  1  0.153270  0.253769  0.759926  1
  O  O28  1  0.110781  0.680291  0.249207  1
  O  O29  1  0.152254  0.758622  0.752088  1
  O  O30  1  0.304359  0.417146  0.064572  1
  O  O31  1  0.307894  0.407413  0.429741  1
  O  O32  1  0.314475  0.907828  0.063481  1
  O  O33  1  0.308858  0.908293  0.436071  1
  O  O34  1  0.421530  0.085864  0.744107  1
  O  O35  1  0.425963  0.201297  0.228960  1
  O  O36  1  0.423718  0.591084  0.745838  1
  O  O37  1  0.432987  0.702063  0.249426  1
  O  O38  1  0.567229  0.297825  0.751061  1
  O  O39  1  0.575860  0.408187  0.250136  1
  O  O40  1  0.575080  0.795454  0.750085  1
  O  O41  1  0.578482  0.911194  0.257148  1
  O  O42  1  0.689820  0.088248  0.933405  1
  O  O43  1  0.688496  0.088412  0.568372  1
  O  O44  1  0.693609  0.583576  0.568374  1
  O  O45  1  0.693397  0.583870  0.933091  1
  O  O46  1  0.850465  0.249092  0.256454  1
  O  O47  1  0.891461  0.314205  0.753354  1
  O  O48  1  0.851156  0.748956  0.249618  1
  O  O49  1  0.926771  0.029392  0.253552  1
  O  O50  1  0.894130  0.828260  0.750741  1
  O  O51  1  0.926153  0.529353  0.251271  1
