# generated using pymatgen
data_Sr5La2Cl16
_symmetry_space_group_name_H-M   'P 1'
_cell_length_a   9.04014798
_cell_length_b   9.04014798
_cell_length_c   19.16307987
_cell_angle_alpha   90.00000000
_cell_angle_beta   90.00000000
_cell_angle_gamma   67.83804393
_symmetry_Int_Tables_number   1
_chemical_formula_structural   Sr5La2Cl16
_chemical_formula_sum   'Sr10 La4 Cl32'
_cell_volume   1450.38815508
_cell_formula_units_Z   2
loop_
 _symmetry_equiv_pos_site_id
 _symmetry_equiv_pos_as_xyz
  1  'x, y, z'
loop_
 _atom_site_type_symbol
 _atom_site_label
 _atom_site_symmetry_multiplicity
 _atom_site_fract_x
 _atom_site_fract_y
 _atom_site_fract_z
 _atom_site_occupancy
  Sr  Sr0  1  0.250000  0.750000  0.383343  1
  Sr  Sr1  1  0.250000  0.750000  0.883343  1
  Sr  Sr2  1  0.250000  0.250000  0.478998  1
  Sr  Sr3  1  0.250000  0.250000  0.021002  1
  Sr  Sr4  1  0.750000  0.750000  0.521002  1
  Sr  Sr5  1  0.250000  0.250000  0.750000  1
  Sr  Sr6  1  0.750000  0.750000  0.978998  1
  Sr  Sr7  1  0.750000  0.750000  0.250000  1
  Sr  Sr8  1  0.750000  0.250000  0.116657  1
  Sr  Sr9  1  0.750000  0.250000  0.616657  1
  La  La10  1  0.250000  0.750000  0.132501  1
  La  La11  1  0.250000  0.750000  0.632501  1
  La  La12  1  0.750000  0.250000  0.367499  1
  La  La13  1  0.750000  0.250000  0.867499  1
  Cl  Cl14  1  0.050183  0.781572  0.021022  1
  Cl  Cl15  1  0.218428  0.949817  0.521022  1
  Cl  Cl16  1  0.277713  0.924083  0.745555  1
  Cl  Cl17  1  0.075917  0.722287  0.245555  1
  Cl  Cl18  1  0.029289  0.360723  0.596852  1
  Cl  Cl19  1  0.139277  0.470711  0.903148  1
  Cl  Cl20  1  0.529289  0.860723  0.403148  1
  Cl  Cl21  1  0.639277  0.970711  0.096852  1
  Cl  Cl22  1  0.424083  0.777713  0.245555  1
  Cl  Cl23  1  0.222287  0.575917  0.745555  1
  Cl  Cl24  1  0.449817  0.718428  0.021022  1
  Cl  Cl25  1  0.281572  0.550183  0.521022  1
  Cl  Cl26  1  0.087121  0.117937  0.364509  1
  Cl  Cl27  1  0.382063  0.412879  0.135491  1
  Cl  Cl28  1  0.587121  0.617937  0.635491  1
  Cl  Cl29  1  0.882063  0.912879  0.864509  1
  Cl  Cl30  1  0.117937  0.087121  0.135491  1
  Cl  Cl31  1  0.412879  0.382063  0.364509  1
  Cl  Cl32  1  0.912879  0.882063  0.635491  1
  Cl  Cl33  1  0.617937  0.587121  0.864509  1
  Cl  Cl34  1  0.718428  0.449817  0.478978  1
  Cl  Cl35  1  0.550183  0.281572  0.978978  1
  Cl  Cl36  1  0.575917  0.222287  0.754445  1
  Cl  Cl37  1  0.777713  0.424083  0.254445  1
  Cl  Cl38  1  0.860723  0.529289  0.096852  1
  Cl  Cl39  1  0.360723  0.029289  0.903148  1
  Cl  Cl40  1  0.970711  0.639277  0.403148  1
  Cl  Cl41  1  0.470711  0.139277  0.596852  1
  Cl  Cl42  1  0.924083  0.277713  0.754445  1
  Cl  Cl43  1  0.722287  0.075917  0.254445  1
  Cl  Cl44  1  0.781572  0.050183  0.478978  1
  Cl  Cl45  1  0.949817  0.218428  0.978978  1
