# generated using pymatgen
data_LiFeF3
_symmetry_space_group_name_H-M   'P 1'
_cell_length_a   6.30477552
_cell_length_b   6.30375326
_cell_length_c   3.23539558
_cell_angle_alpha   90.18555137
_cell_angle_beta   90.19839319
_cell_angle_gamma   70.40473778
_symmetry_Int_Tables_number   1
_chemical_formula_structural   LiFeF3
_chemical_formula_sum   'Li2 Fe2 F6'
_cell_volume   121.13865249
_cell_formula_units_Z   2
loop_
 _symmetry_equiv_pos_site_id
 _symmetry_equiv_pos_as_xyz
  1  'x, y, z'
loop_
 _atom_site_type_symbol
 _atom_site_label
 _atom_site_symmetry_multiplicity
 _atom_site_fract_x
 _atom_site_fract_y
 _atom_site_fract_z
 _atom_site_occupancy
  Li  Li0  1  0.995017  0.000120  0.501118  1
  Li  Li1  1  0.501589  0.498996  0.500315  1
  Fe  Fe2  1  0.000703  0.497678  0.002420  1
  Fe  Fe3  1  0.500705  0.000146  0.002469  1
  F  F4  1  0.186631  0.553258  0.501549  1
  F  F5  1  0.447366  0.813658  0.503634  1
  F  F6  1  0.862255  0.857382  0.011556  1
  F  F7  1  0.142164  0.137288  0.011310  1
  F  F8  1  0.818682  0.436217  0.504001  1
  F  F9  1  0.564356  0.181402  0.502040  1
