# generated using pymatgen
data_Li5Fe(SiO4)2
_symmetry_space_group_name_H-M   'P 1'
_cell_length_a   5.25361704
_cell_length_b   5.25361704
_cell_length_c   6.32003315
_cell_angle_alpha   89.81911678
_cell_angle_beta   90.18088322
_cell_angle_gamma   89.09899509
_symmetry_Int_Tables_number   1
_chemical_formula_structural   Li5Fe(SiO4)2
_chemical_formula_sum   'Li5 Fe1 Si2 O8'
_cell_volume   174.41269069
_cell_formula_units_Z   1
loop_
 _symmetry_equiv_pos_site_id
 _symmetry_equiv_pos_as_xyz
  1  'x, y, z'
loop_
 _atom_site_type_symbol
 _atom_site_label
 _atom_site_symmetry_multiplicity
 _atom_site_fract_x
 _atom_site_fract_y
 _atom_site_fract_z
 _atom_site_occupancy
  Li  Li0  1  0.198152  0.826140  0.512309  1
  Li  Li1  1  0.670235  0.670235  0.750000  1
  Li  Li2  1  0.319055  0.319055  0.750000  1
  Li  Li3  1  0.303802  0.303802  0.250000  1
  Li  Li4  1  0.826140  0.198152  0.987691  1
  Fe  Fe5  1  0.676441  0.676441  0.250000  1
  Si  Si6  1  0.180949  0.832445  0.993461  1
  Si  Si7  1  0.832445  0.180949  0.506539  1
  O  O8  1  0.314198  0.703496  0.214457  1
  O  O9  1  0.299972  0.696689  0.785415  1
  O  O10  1  0.139614  0.199073  0.500038  1
  O  O11  1  0.775475  0.864265  0.489629  1
  O  O12  1  0.199073  0.139614  0.999962  1
  O  O13  1  0.864265  0.775475  0.010370  1
  O  O14  1  0.696689  0.299972  0.714585  1
  O  O15  1  0.703496  0.314198  0.285543  1
