# generated using pymatgen
data_Na2HoPCO7
_symmetry_space_group_name_H-M   'P 1'
_cell_length_a   9.22181204
_cell_length_b   6.97827621
_cell_length_c   5.24057822
_cell_angle_alpha   90.00000000
_cell_angle_beta   90.95416238
_cell_angle_gamma   90.00000000
_symmetry_Int_Tables_number   1
_chemical_formula_structural   Na2HoPCO7
_chemical_formula_sum   'Na4 Ho2 P2 C2 O14'
_cell_volume   337.19676900
_cell_formula_units_Z   2
loop_
 _symmetry_equiv_pos_site_id
 _symmetry_equiv_pos_as_xyz
  1  'x, y, z'
loop_
 _atom_site_type_symbol
 _atom_site_label
 _atom_site_symmetry_multiplicity
 _atom_site_fract_x
 _atom_site_fract_y
 _atom_site_fract_z
 _atom_site_occupancy
  Na  Na0  1  0.212087  0.498539  0.232119  1
  Na  Na1  1  0.212087  0.001461  0.232119  1
  Na  Na2  1  0.787913  0.501461  0.767881  1
  Na  Na3  1  0.787913  0.998539  0.767881  1
  Ho  Ho4  1  0.366546  0.750000  0.776287  1
  Ho  Ho5  1  0.633454  0.250000  0.223713  1
  P  P6  1  0.417664  0.250000  0.705305  1
  P  P7  1  0.582336  0.750000  0.294695  1
  C  C8  1  0.069976  0.750000  0.732227  1
  C  C9  1  0.930024  0.250000  0.267773  1
  O  O10  1  0.065532  0.250000  0.299040  1
  O  O11  1  0.134787  0.750000  0.957128  1
  O  O12  1  0.160455  0.750000  0.536169  1
  O  O13  1  0.344043  0.067811  0.810122  1
  O  O14  1  0.344043  0.432189  0.810122  1
  O  O15  1  0.417113  0.750000  0.210715  1
  O  O16  1  0.413031  0.250000  0.407474  1
  O  O17  1  0.586969  0.750000  0.592526  1
  O  O18  1  0.582887  0.250000  0.789285  1
  O  O19  1  0.655957  0.567811  0.189878  1
  O  O20  1  0.655957  0.932189  0.189878  1
  O  O21  1  0.839545  0.250000  0.463831  1
  O  O22  1  0.865213  0.250000  0.042872  1
  O  O23  1  0.934468  0.750000  0.700960  1
