# generated using pymatgen
data_Li3Sn2(PO4)3
_symmetry_space_group_name_H-M   'P 1'
_cell_length_a   9.35433618
_cell_length_b   9.35866482
_cell_length_c   16.29934003
_cell_angle_alpha   77.68297718
_cell_angle_beta   86.99900627
_cell_angle_gamma   122.41563169
_symmetry_Int_Tables_number   1
_chemical_formula_structural   Li3Sn2(PO4)3
_chemical_formula_sum   'Li12 Sn8 P12 O48'
_cell_volume   1152.55442830
_cell_formula_units_Z   4
loop_
 _symmetry_equiv_pos_site_id
 _symmetry_equiv_pos_as_xyz
  1  'x, y, z'
loop_
 _atom_site_type_symbol
 _atom_site_label
 _atom_site_symmetry_multiplicity
 _atom_site_fract_x
 _atom_site_fract_y
 _atom_site_fract_z
 _atom_site_occupancy
  Li  Li0  1  0.124161  0.677132  0.341875  1
  Li  Li1  1  0.901942  0.234890  0.964880  1
  Li  Li2  1  0.182321  0.428438  0.249919  1
  Li  Li3  1  0.700373  0.866005  0.534019  1
  Li  Li4  1  0.530938  0.478002  0.155822  1
  Li  Li5  1  0.497289  0.491909  0.499532  1
  Li  Li6  1  0.472530  0.525223  0.844169  1
  Li  Li7  1  0.299819  0.131101  0.463995  1
  Li  Li8  1  0.817806  0.568965  0.749686  1
  Li  Li9  1  0.098605  0.764691  0.033851  1
  Li  Li10  1  0.867334  0.316187  0.656086  1
  Li  Li11  1  0.498004  0.002721  0.003986  1
  Sn  Sn12  1  0.263905  0.716150  0.529325  1
  Sn  Sn13  1  0.291988  0.775788  0.835891  1
  Sn  Sn14  1  0.112362  0.127930  0.663409  1
  Sn  Sn15  1  0.745044  0.792138  0.969490  1
  Sn  Sn16  1  0.253263  0.206849  0.029696  1
  Sn  Sn17  1  0.888028  0.872593  0.336195  1
  Sn  Sn18  1  0.708237  0.224203  0.163173  1
  Sn  Sn19  1  0.738407  0.284683  0.470392  1
  P  P20  1  0.592149  0.952964  0.381389  1
  P  P21  1  0.317773  0.554243  0.676675  1
  P  P22  1  0.329499  0.587777  0.047962  1
  P  P23  1  0.137435  0.378384  0.451033  1
  P  P24  1  0.730632  0.993963  0.822498  1
  P  P25  1  0.832967  0.972623  0.117941  1
  P  P26  1  0.166061  0.026349  0.881873  1
  P  P27  1  0.268806  0.005434  0.176347  1
  P  P28  1  0.864053  0.621936  0.548472  1
  P  P29  1  0.669708  0.411183  0.951601  1
  P  P30  1  0.683937  0.446443  0.323108  1
  P  P31  1  0.409825  0.049387  0.617906  1
  O  O32  1  0.149330  0.878709  0.261652  1
  O  O33  1  0.183624  0.945825  0.096758  1
  O  O34  1  0.296345  0.976803  0.897356  1
  O  O35  1  0.321784  0.950367  0.548885  1
  O  O36  1  0.044007  0.683215  0.491661  1
  O  O37  1  0.327879  0.918925  0.706260  1
  O  O38  1  0.392990  0.868930  0.403744  1
  O  O39  1  0.146899  0.541700  0.655229  1
  O  O40  1  0.195665  0.630177  0.033489  1
  O  O41  1  0.556627  0.975514  0.829394  1
  O  O42  1  0.322289  0.507321  0.141689  1
  O  O43  1  0.360106  0.590188  0.761622  1
  O  O44  1  0.275226  0.521304  0.491015  1
  O  O45  1  0.457231  0.717908  0.596924  1
  O  O46  1  0.512278  0.765302  0.007331  1
  O  O47  1  0.627135  0.807319  0.396502  1
  O  O48  1  0.148349  0.462377  0.357306  1
  O  O49  1  0.000256  0.130398  0.048912  1
  O  O50  1  0.305246  0.386980  0.669506  1
  O  O51  1  0.323743  0.463832  0.991300  1
  O  O52  1  0.876479  0.966321  0.206295  1
  O  O53  1  0.167537  0.231155  0.465224  1
  O  O54  1  0.771491  0.795764  0.095526  1
  O  O55  1  0.695791  0.801490  0.843645  1
  O  O56  1  0.303170  0.197582  0.155458  1
  O  O57  1  0.227153  0.203545  0.903866  1
  O  O58  1  0.837019  0.770986  0.534472  1
  O  O59  1  0.123038  0.033077  0.793226  1
  O  O60  1  0.675601  0.534958  0.008402  1
  O  O61  1  0.694588  0.612807  0.330506  1
  O  O62  1  0.998082  0.868901  0.950581  1
  O  O63  1  0.849881  0.534802  0.642069  1
  O  O64  1  0.376442  0.196036  0.602172  1
  O  O65  1  0.486187  0.233946  0.991873  1
  O  O66  1  0.544743  0.282289  0.402698  1
  O  O67  1  0.726546  0.480476  0.507453  1
  O  O68  1  0.642673  0.410952  0.237860  1
  O  O69  1  0.678395  0.493176  0.857917  1
  O  O70  1  0.443106  0.024326  0.167717  1
  O  O71  1  0.801396  0.366015  0.966224  1
  O  O72  1  0.855177  0.460206  0.344460  1
  O  O73  1  0.609573  0.133128  0.596106  1
  O  O74  1  0.673564  0.083531  0.292912  1
  O  O75  1  0.957245  0.315459  0.508275  1
  O  O76  1  0.680661  0.051440  0.450471  1
  O  O77  1  0.701724  0.021651  0.103147  1
  O  O78  1  0.814923  0.053106  0.902248  1
  O  O79  1  0.851625  0.121040  0.737413  1
