# generated using pymatgen
data_Li2ScFe(SiO3)4
_symmetry_space_group_name_H-M   'P 1'
_cell_length_a   6.65927478
_cell_length_b   6.65927478
_cell_length_c   5.38657916
_cell_angle_alpha   75.01758480
_cell_angle_beta   104.98241520
_cell_angle_gamma   96.10740810
_symmetry_Int_Tables_number   1
_chemical_formula_structural   Li2ScFe(SiO3)4
_chemical_formula_sum   'Li2 Sc1 Fe1 Si4 O12'
_cell_volume   222.70772395
_cell_formula_units_Z   1
loop_
 _symmetry_equiv_pos_site_id
 _symmetry_equiv_pos_as_xyz
  1  'x, y, z'
loop_
 _atom_site_type_symbol
 _atom_site_label
 _atom_site_symmetry_multiplicity
 _atom_site_fract_x
 _atom_site_fract_y
 _atom_site_fract_z
 _atom_site_occupancy
  Li  Li0  1  0.742165  0.742165  0.750000  1
  Li  Li1  1  0.255650  0.255650  0.250000  1
  Sc  Sc2  1  0.101592  0.101592  0.750000  1
  Fe  Fe3  1  0.893232  0.893232  0.250000  1
  Si  Si4  1  0.208196  0.616551  0.767558  1
  Si  Si5  1  0.386038  0.792191  0.271525  1
  Si  Si6  1  0.616551  0.208196  0.732442  1
  Si  Si7  1  0.792191  0.386038  0.228475  1
  O  O8  1  0.029288  0.794219  0.645723  1
  O  O9  1  0.204465  0.966205  0.160956  1
  O  O10  1  0.114418  0.380217  0.832054  1
  O  O11  1  0.357603  0.645390  0.558870  1
  O  O12  1  0.625010  0.884674  0.332112  1
  O  O13  1  0.352883  0.650015  0.054115  1
  O  O14  1  0.645390  0.357603  0.941130  1
  O  O15  1  0.380217  0.114418  0.667946  1
  O  O16  1  0.650015  0.352883  0.445885  1
  O  O17  1  0.884674  0.625010  0.167888  1
  O  O18  1  0.794219  0.029288  0.854277  1
  O  O19  1  0.966205  0.204465  0.339044  1
