# generated using pymatgen
data_LiFeF3
_symmetry_space_group_name_H-M   'P 1'
_cell_length_a   6.89802927
_cell_length_b   7.90953666
_cell_length_c   16.50510519
_cell_angle_alpha   88.57321065
_cell_angle_beta   83.46222227
_cell_angle_gamma   90.86812764
_symmetry_Int_Tables_number   1
_chemical_formula_structural   LiFeF3
_chemical_formula_sum   'Li14 Fe14 F42'
_cell_volume   894.24194333
_cell_formula_units_Z   14
loop_
 _symmetry_equiv_pos_site_id
 _symmetry_equiv_pos_as_xyz
  1  'x, y, z'
loop_
 _atom_site_type_symbol
 _atom_site_label
 _atom_site_symmetry_multiplicity
 _atom_site_fract_x
 _atom_site_fract_y
 _atom_site_fract_z
 _atom_site_occupancy
  Li  Li0  1  0.218007  0.835952  0.032790  1
  Li  Li1  1  0.122130  0.222450  0.755243  1
  Li  Li2  1  0.258465  0.292490  0.569929  1
  Li  Li3  1  0.323704  0.451134  0.308916  1
  Li  Li4  1  0.435036  0.534655  0.121358  1
  Li  Li5  1  0.320208  0.926399  0.837881  1
  Li  Li6  1  0.487565  0.843513  0.600064  1
  Li  Li7  1  0.512435  0.156487  0.399936  1
  Li  Li8  1  0.679792  0.073601  0.162119  1
  Li  Li9  1  0.564964  0.465345  0.878642  1
  Li  Li10  1  0.676296  0.548866  0.691084  1
  Li  Li11  1  0.741535  0.707510  0.430071  1
  Li  Li12  1  0.877870  0.777550  0.244757  1
  Li  Li13  1  0.781993  0.164048  0.967210  1
  Fe  Fe14  1  0.053104  0.042910  0.391071  1
  Fe  Fe15  1  0.166829  0.141948  0.187247  1
  Fe  Fe16  1  0.047087  0.543317  0.900474  1
  Fe  Fe17  1  0.231626  0.701635  0.488249  1
  Fe  Fe18  1  0.163873  0.625806  0.695176  1
  Fe  Fe19  1  0.409265  0.821078  0.284791  1
  Fe  Fe20  1  0.296026  0.187794  0.960543  1
  Fe  Fe21  1  0.703974  0.812206  0.039457  1
  Fe  Fe22  1  0.590735  0.178922  0.715209  1
  Fe  Fe23  1  0.836127  0.374194  0.304824  1
  Fe  Fe24  1  0.768374  0.298365  0.511751  1
  Fe  Fe25  1  0.952913  0.456683  0.099526  1
  Fe  Fe26  1  0.833171  0.858052  0.812753  1
  Fe  Fe27  1  0.946896  0.957090  0.608929  1
  F  F28  1  0.006080  0.681030  0.017914  1
  F  F29  1  0.076489  0.935443  0.273821  1
  F  F30  1  0.033395  0.167552  0.521582  1
  F  F31  1  0.168158  0.060929  0.073287  1
  F  F32  1  0.122125  0.273103  0.307819  1
  F  F33  1  0.056093  0.444643  0.777069  1
  F  F34  1  0.223173  0.377224  0.120610  1
  F  F35  1  0.155352  0.517029  0.577486  1
  F  F36  1  0.127919  0.766053  0.809359  1
  F  F37  1  0.250345  0.640787  0.372556  1
  F  F38  1  0.208673  0.856816  0.600102  1
  F  F39  1  0.427472  0.743975  0.073235  1
  F  F40  1  0.416155  0.605963  0.227727  1
  F  F41  1  0.322720  0.203698  0.669060  1
  F  F42  1  0.228389  0.148976  0.843161  1
  F  F43  1  0.329101  0.980823  0.394162  1
  F  F44  1  0.355383  0.931505  0.943131  1
  F  F45  1  0.430224  0.052092  0.224135  1
  F  F46  1  0.310816  0.491302  0.923636  1
  F  F47  1  0.485884  0.273484  0.497935  1
  F  F48  1  0.550859  0.338648  0.325077  1
  F  F49  1  0.449141  0.661352  0.674923  1
  F  F50  1  0.514116  0.726516  0.502065  1
  F  F51  1  0.689184  0.508698  0.076364  1
  F  F52  1  0.569776  0.947908  0.775865  1
  F  F53  1  0.644617  0.068495  0.056869  1
  F  F54  1  0.670899  0.019177  0.605838  1
  F  F55  1  0.771611  0.851024  0.156839  1
  F  F56  1  0.677280  0.796302  0.330940  1
  F  F57  1  0.583845  0.394037  0.772273  1
  F  F58  1  0.572528  0.256025  0.926765  1
  F  F59  1  0.791327  0.143184  0.399898  1
  F  F60  1  0.749655  0.359213  0.627444  1
  F  F61  1  0.872081  0.233947  0.190641  1
  F  F62  1  0.844648  0.482971  0.422514  1
  F  F63  1  0.776827  0.622776  0.879390  1
  F  F64  1  0.943907  0.555357  0.222931  1
  F  F65  1  0.877875  0.726897  0.692181  1
  F  F66  1  0.831842  0.939071  0.926713  1
  F  F67  1  0.966605  0.832448  0.478418  1
  F  F68  1  0.923511  0.064557  0.726179  1
  F  F69  1  0.993920  0.318970  0.982086  1
