# generated using pymatgen
data_MgH40C10Br2(N2O)10
_symmetry_space_group_name_H-M   'P 1'
_cell_length_a   9.83681041
_cell_length_b   7.19237123
_cell_length_c   23.96428776
_cell_angle_alpha   90.00000000
_cell_angle_beta   94.10223768
_cell_angle_gamma   90.00000000
_symmetry_Int_Tables_number   1
_chemical_formula_structural   MgH40C10Br2(N2O)10
_chemical_formula_sum   'Mg2 H80 C20 Br4 N40 O20'
_cell_volume   1691.12935283
_cell_formula_units_Z   2
loop_
 _symmetry_equiv_pos_site_id
 _symmetry_equiv_pos_as_xyz
  1  'x, y, z'
loop_
 _atom_site_type_symbol
 _atom_site_label
 _atom_site_symmetry_multiplicity
 _atom_site_fract_x
 _atom_site_fract_y
 _atom_site_fract_z
 _atom_site_occupancy
  Mg  Mg0  1  0.000000  0.500000  0.500000  1
  Mg  Mg1  1  0.000000  0.000000  0.000000  1
  H  H2  1  0.093248  0.579527  0.872039  1
  H  H3  1  0.131081  0.710321  0.932667  1
  H  H4  1  0.107092  0.215042  0.831101  1
  H  H5  1  0.125921  0.391000  0.738358  1
  H  H6  1  0.127756  0.956444  0.752538  1
  H  H7  1  0.136591  0.072380  0.666103  1
  H  H8  1  0.093248  0.920473  0.372038  1
  H  H9  1  0.230740  0.261898  0.994797  1
  H  H10  1  0.144944  0.582199  0.604424  1
  H  H11  1  0.131081  0.789679  0.432667  1
  H  H12  1  0.107092  0.284958  0.331101  1
  H  H13  1  0.266031  0.305133  0.848961  1
  H  H14  1  0.125921  0.109000  0.238358  1
  H  H15  1  0.127756  0.543556  0.252538  1
  H  H16  1  0.282783  0.510209  0.739391  1
  H  H17  1  0.320844  0.378952  0.944859  1
  H  H18  1  0.282791  0.838452  0.741941  1
  H  H19  1  0.263638  0.169797  0.628350  1
  H  H20  1  0.136591  0.427620  0.166103  1
  H  H21  1  0.230740  0.238102  0.494797  1
  H  H22  1  0.315118  0.626768  0.627434  1
  H  H23  1  0.395674  0.660888  0.000487  1
  H  H24  1  0.144944  0.917801  0.104424  1
  H  H25  1  0.367150  0.937254  0.941785  1
  H  H26  1  0.266031  0.194867  0.348961  1
  H  H27  1  0.429214  0.015877  0.879584  1
  H  H28  1  0.282783  0.989791  0.239391  1
  H  H29  1  0.320844  0.121048  0.444859  1
  H  H30  1  0.282791  0.661548  0.241941  1
  H  H31  1  0.263638  0.330203  0.128350  1
  H  H32  1  0.315118  0.873232  0.127434  1
  H  H33  1  0.395674  0.839112  0.500487  1
  H  H34  1  0.367150  0.562746  0.441785  1
  H  H35  1  0.499801  0.572222  0.828912  1
  H  H36  1  0.429379  0.848302  0.573086  1
  H  H37  1  0.502025  0.807540  0.815170  1
  H  H38  1  0.497975  0.307540  0.684830  1
  H  H39  1  0.429214  0.484123  0.379584  1
  H  H40  1  0.570621  0.348302  0.926914  1
  H  H41  1  0.500199  0.072222  0.671088  1
  H  H42  1  0.499801  0.927778  0.328912  1
  H  H43  1  0.429379  0.651698  0.073086  1
  H  H44  1  0.570786  0.515877  0.620416  1
  H  H45  1  0.502025  0.692460  0.315170  1
  H  H46  1  0.497975  0.192460  0.184830  1
  H  H47  1  0.570621  0.151698  0.426914  1
  H  H48  1  0.500199  0.427778  0.171088  1
  H  H49  1  0.632850  0.437254  0.558215  1
  H  H50  1  0.604326  0.160888  0.499513  1
  H  H51  1  0.684882  0.126768  0.872566  1
  H  H52  1  0.736362  0.669798  0.871650  1
  H  H53  1  0.717209  0.338452  0.758059  1
  H  H54  1  0.679156  0.878952  0.555141  1
  H  H55  1  0.717217  0.010209  0.760609  1
  H  H56  1  0.570786  0.984123  0.120416  1
  H  H57  1  0.733969  0.805133  0.651039  1
  H  H58  1  0.632850  0.062746  0.058215  1
  H  H59  1  0.855056  0.082199  0.895576  1
  H  H60  1  0.604326  0.339112  0.999513  1
  H  H61  1  0.684882  0.373232  0.372566  1
  H  H62  1  0.769260  0.761898  0.505203  1
  H  H63  1  0.863409  0.572380  0.833897  1
  H  H64  1  0.736362  0.830202  0.371650  1
  H  H65  1  0.717209  0.161549  0.258059  1
  H  H66  1  0.679156  0.621048  0.055141  1
  H  H67  1  0.717217  0.489791  0.260609  1
  H  H68  1  0.872244  0.456444  0.747462  1
  H  H69  1  0.874079  0.891000  0.761642  1
  H  H70  1  0.733969  0.694867  0.151039  1
  H  H71  1  0.892908  0.715042  0.668899  1
  H  H72  1  0.868919  0.210321  0.567333  1
  H  H73  1  0.855056  0.417801  0.395576  1
  H  H74  1  0.769260  0.738102  0.005203  1
  H  H75  1  0.906752  0.079527  0.627961  1
  H  H76  1  0.863409  0.927620  0.333897  1
  H  H77  1  0.872244  0.043556  0.247462  1
  H  H78  1  0.874079  0.609000  0.261642  1
  H  H79  1  0.892908  0.784958  0.168899  1
  H  H80  1  0.868919  0.289679  0.067333  1
  H  H81  1  0.906752  0.420473  0.127962  1
  C  C82  1  0.068714  0.206214  0.592839  1
  C  C83  1  0.110483  0.673689  0.744462  1
  C  C84  1  0.158690  0.219459  0.915041  1
  C  C85  1  0.068714  0.293786  0.092839  1
  C  C86  1  0.110483  0.826311  0.244462  1
  C  C87  1  0.158690  0.280541  0.415041  1
  C  C88  1  0.258518  0.701047  0.546118  1
  C  C89  1  0.444232  0.732603  0.893684  1
  C  C90  1  0.258518  0.798953  0.046118  1
  C  C91  1  0.444232  0.767397  0.393684  1
  C  C92  1  0.555768  0.232603  0.606316  1
  C  C93  1  0.741482  0.201047  0.953882  1
  C  C94  1  0.555768  0.267397  0.106316  1
  C  C95  1  0.741482  0.298953  0.453882  1
  C  C96  1  0.841310  0.719459  0.584959  1
  C  C97  1  0.889517  0.173689  0.755538  1
  C  C98  1  0.931286  0.706214  0.907161  1
  C  C99  1  0.841310  0.780541  0.084959  1
  C  C100  1  0.889517  0.326311  0.255538  1
  C  C101  1  0.931286  0.793786  0.407161  1
  Br  Br102  1  0.475799  0.225759  0.800771  1
  Br  Br103  1  0.524201  0.725759  0.699229  1
  Br  Br104  1  0.475799  0.274241  0.300771  1
  Br  Br105  1  0.524201  0.774241  0.199229  1
  N  N106  1  0.064210  0.677609  0.899341  1
  N  N107  1  0.170624  0.276819  0.861261  1
  N  N108  1  0.064210  0.822391  0.399341  1
  N  N109  1  0.181045  0.835365  0.747292  1
  N  N110  1  0.179122  0.513541  0.736957  1
  N  N111  1  0.163728  0.136853  0.630959  1
  N  N112  1  0.256750  0.273349  0.954245  1
  N  N113  1  0.170624  0.223181  0.361261  1
  N  N114  1  0.235975  0.642127  0.598180  1
  N  N115  1  0.181045  0.664635  0.247292  1
  N  N116  1  0.179122  0.986459  0.236957  1
  N  N117  1  0.163728  0.363147  0.130959  1
  N  N118  1  0.256750  0.226651  0.454245  1
  N  N119  1  0.419786  0.910607  0.907672  1
  N  N120  1  0.235975  0.857873  0.098180  1
  N  N121  1  0.377660  0.788977  0.539504  1
  N  N122  1  0.505551  0.704716  0.844587  1
  N  N123  1  0.419786  0.589393  0.407672  1
  N  N124  1  0.494449  0.204716  0.655413  1
  N  N125  1  0.377660  0.711023  0.039504  1
  N  N126  1  0.622340  0.288976  0.960496  1
  N  N127  1  0.505551  0.795284  0.344587  1
  N  N128  1  0.580214  0.410607  0.592328  1
  N  N129  1  0.494449  0.295284  0.155413  1
  N  N130  1  0.622340  0.211024  0.460496  1
  N  N131  1  0.764025  0.142127  0.901820  1
  N  N132  1  0.580214  0.089393  0.092328  1
  N  N133  1  0.743250  0.773349  0.545755  1
  N  N134  1  0.836272  0.636853  0.869041  1
  N  N135  1  0.820878  0.013541  0.763043  1
  N  N136  1  0.818955  0.335365  0.752708  1
  N  N137  1  0.764025  0.357873  0.401820  1
  N  N138  1  0.829376  0.776819  0.638739  1
  N  N139  1  0.743250  0.726651  0.045755  1
  N  N140  1  0.836272  0.863147  0.369041  1
  N  N141  1  0.820878  0.486459  0.263043  1
  N  N142  1  0.818955  0.164635  0.252708  1
  N  N143  1  0.935790  0.177609  0.600659  1
  N  N144  1  0.829376  0.723181  0.138739  1
  N  N145  1  0.935790  0.322391  0.100659  1
  O  O146  1  0.018400  0.172193  0.752078  1
  O  O147  1  0.058658  0.120677  0.927071  1
  O  O148  1  0.018400  0.327807  0.252078  1
  O  O149  1  0.058658  0.379323  0.427071  1
  O  O150  1  0.105238  0.299018  0.551204  1
  O  O151  1  0.172283  0.673430  0.504633  1
  O  O152  1  0.105238  0.200982  0.051204  1
  O  O153  1  0.172283  0.826570  0.004633  1
  O  O154  1  0.419627  0.597417  0.925098  1
  O  O155  1  0.419627  0.902583  0.425098  1
  O  O156  1  0.580373  0.097417  0.574902  1
  O  O157  1  0.580373  0.402583  0.074902  1
  O  O158  1  0.827717  0.173430  0.995367  1
  O  O159  1  0.894762  0.799018  0.948796  1
  O  O160  1  0.827717  0.326570  0.495367  1
  O  O161  1  0.894762  0.700982  0.448796  1
  O  O162  1  0.941342  0.620677  0.572929  1
  O  O163  1  0.981600  0.672193  0.747922  1
  O  O164  1  0.941342  0.879323  0.072929  1
  O  O165  1  0.981600  0.827807  0.247922  1
