# generated using pymatgen
data_CaMg2H24(ClO2)6
_symmetry_space_group_name_H-M   'P 1'
_cell_length_a   17.24270389
_cell_length_b   8.27782397
_cell_length_c   8.95491639
_cell_angle_alpha   107.10080408
_cell_angle_beta   116.24104690
_cell_angle_gamma   50.26427054
_symmetry_Int_Tables_number   1
_chemical_formula_structural   CaMg2H24(ClO2)6
_chemical_formula_sum   'Ca1 Mg2 H24 Cl6 O12'
_cell_volume   881.48490111
_cell_formula_units_Z   1
loop_
 _symmetry_equiv_pos_site_id
 _symmetry_equiv_pos_as_xyz
  1  'x, y, z'
loop_
 _atom_site_type_symbol
 _atom_site_label
 _atom_site_symmetry_multiplicity
 _atom_site_fract_x
 _atom_site_fract_y
 _atom_site_fract_z
 _atom_site_occupancy
  Ca  Ca0  1  0.000000  0.000000  0.000000  1
  Mg  Mg1  1  0.487786  0.701217  0.113471  1
  Mg  Mg2  1  0.512214  0.298783  0.886529  1
  H  H3  1  0.975088  0.124648  0.284553  1
  H  H4  1  0.025160  0.542027  0.396650  1
  H  H5  1  0.597612  0.760385  0.219921  1
  H  H6  1  0.024912  0.875352  0.715447  1
  H  H7  1  0.974840  0.457973  0.603350  1
  H  H8  1  0.402388  0.239615  0.780079  1
  H  H9  1  0.434003  0.376242  0.541192  1
  H  H10  1  0.097123  0.100177  0.597041  1
  H  H11  1  0.981617  0.988959  0.688633  1
  H  H12  1  0.565997  0.623758  0.458808  1
  H  H13  1  0.902877  0.899823  0.402959  1
  H  H14  1  0.018383  0.011041  0.311367  1
  H  H15  1  0.792275  0.793628  0.155992  1
  H  H16  1  0.421571  0.742563  0.542482  1
  H  H17  1  0.634948  0.129768  0.132003  1
  H  H18  1  0.207725  0.206372  0.844008  1
  H  H19  1  0.578429  0.257437  0.457518  1
  H  H20  1  0.365052  0.870232  0.867997  1
  H  H21  1  0.921880  0.546079  0.550113  1
  H  H22  1  0.415642  0.313038  0.537645  1
  H  H23  1  0.377595  0.774678  0.458971  1
  H  H24  1  0.078120  0.453921  0.449887  1
  H  H25  1  0.584358  0.686962  0.462355  1
  H  H26  1  0.622405  0.225322  0.541029  1
  Cl  Cl27  1  0.988080  0.356135  0.045996  1
  Cl  Cl28  1  0.566506  0.965160  0.804799  1
  Cl  Cl29  1  0.564160  0.504617  0.896300  1
  Cl  Cl30  1  0.011920  0.643865  0.954004  1
  Cl  Cl31  1  0.433494  0.034840  0.195201  1
  Cl  Cl32  1  0.435840  0.495383  0.103700  1
  O  O33  1  0.185459  0.114948  0.814698  1
  O  O34  1  0.160430  0.097931  0.632980  1
  O  O35  1  0.896945  0.342566  0.054452  1
  O  O36  1  0.814541  0.885052  0.185302  1
  O  O37  1  0.839570  0.902069  0.367020  1
  O  O38  1  0.103055  0.657434  0.945548  1
  O  O39  1  0.758010  0.400779  0.765220  1
  O  O40  1  0.802528  0.407729  0.568597  1
  O  O41  1  0.794098  0.306672  0.641739  1
  O  O42  1  0.241990  0.599221  0.234780  1
  O  O43  1  0.197472  0.592271  0.431403  1
  O  O44  1  0.205902  0.693328  0.358261  1
