# generated using pymatgen
data_Li2CoBO4
_symmetry_space_group_name_H-M   'P 1'
_cell_length_a   5.79388056
_cell_length_b   10.34494683
_cell_length_c   5.00254898
_cell_angle_alpha   89.97910600
_cell_angle_beta   89.99997263
_cell_angle_gamma   89.99983224
_symmetry_Int_Tables_number   1
_chemical_formula_structural   Li2CoBO4
_chemical_formula_sum   'Li8 Co4 B4 O16'
_cell_volume   299.83969117
_cell_formula_units_Z   4
loop_
 _symmetry_equiv_pos_site_id
 _symmetry_equiv_pos_as_xyz
  1  'x, y, z'
loop_
 _atom_site_type_symbol
 _atom_site_label
 _atom_site_symmetry_multiplicity
 _atom_site_fract_x
 _atom_site_fract_y
 _atom_site_fract_z
 _atom_site_occupancy
  Li  Li0  1  0.003495  0.333426  0.175957  1
  Li  Li1  1  0.003456  0.833388  0.324094  1
  Li  Li2  1  0.496506  0.333426  0.175957  1
  Li  Li3  1  0.496544  0.833387  0.324094  1
  Li  Li4  1  0.503437  0.166610  0.675886  1
  Li  Li5  1  0.503471  0.666579  0.824059  1
  Li  Li6  1  0.996528  0.666579  0.824059  1
  Li  Li7  1  0.996563  0.166610  0.675886  1
  Co  Co8  1  0.249999  0.417708  0.681158  1
  Co  Co9  1  0.250000  0.917749  0.818930  1
  Co  Co10  1  0.750000  0.082245  0.181061  1
  Co  Co11  1  0.750000  0.582290  0.318854  1
  B  B12  1  0.250001  0.084591  0.165054  1
  B  B13  1  0.250000  0.584597  0.334943  1
  B  B14  1  0.750000  0.415400  0.665075  1
  B  B15  1  0.750000  0.915408  0.834936  1
  O  O16  1  0.037741  0.146050  0.282006  1
  O  O17  1  0.037753  0.646079  0.217929  1
  O  O18  1  0.250002  0.099599  0.869393  1
  O  O19  1  0.250001  0.441976  0.298031  1
  O  O20  1  0.250000  0.941960  0.202052  1
  O  O21  1  0.250000  0.599562  0.630591  1
  O  O22  1  0.462259  0.146049  0.282006  1
  O  O23  1  0.462246  0.646079  0.217927  1
  O  O24  1  0.537740  0.853954  0.717982  1
  O  O25  1  0.537755  0.353923  0.782079  1
  O  O26  1  0.750000  0.058040  0.797943  1
  O  O27  1  0.750001  0.400437  0.369417  1
  O  O28  1  0.750000  0.558028  0.701978  1
  O  O29  1  0.749999  0.900397  0.130596  1
  O  O30  1  0.962244  0.353923  0.782080  1
  O  O31  1  0.962260  0.853953  0.717982  1
