# generated using pymatgen
data_Li2MnPHO5
_symmetry_space_group_name_H-M   'P 1'
_cell_length_a   8.48066452
_cell_length_b   9.61201881
_cell_length_c   5.55731942
_cell_angle_alpha   90.00000000
_cell_angle_beta   104.79108396
_cell_angle_gamma   90.00000000
_symmetry_Int_Tables_number   1
_chemical_formula_structural   Li2MnPHO5
_chemical_formula_sum   'Li8 Mn4 P4 H4 O20'
_cell_volume   438.00074934
_cell_formula_units_Z   4
loop_
 _symmetry_equiv_pos_site_id
 _symmetry_equiv_pos_as_xyz
  1  'x, y, z'
loop_
 _atom_site_type_symbol
 _atom_site_label
 _atom_site_symmetry_multiplicity
 _atom_site_fract_x
 _atom_site_fract_y
 _atom_site_fract_z
 _atom_site_occupancy
  Li  Li0  1  0.314239  0.157405  0.729620  1
  Li  Li1  1  0.413715  0.829965  0.663898  1
  Li  Li2  1  0.314239  0.342595  0.229620  1
  Li  Li3  1  0.413715  0.670035  0.163898  1
  Li  Li4  1  0.586285  0.329965  0.836102  1
  Li  Li5  1  0.685761  0.657405  0.770380  1
  Li  Li6  1  0.586285  0.170035  0.336102  1
  Li  Li7  1  0.685761  0.842595  0.270380  1
  Mn  Mn8  1  0.017307  0.868851  0.797121  1
  Mn  Mn9  1  0.017307  0.631149  0.297121  1
  Mn  Mn10  1  0.982693  0.368851  0.702879  1
  Mn  Mn11  1  0.982693  0.131149  0.202879  1
  P  P12  1  0.314332  0.521731  0.627326  1
  P  P13  1  0.314332  0.978269  0.127326  1
  P  P14  1  0.685668  0.021731  0.872674  1
  P  P15  1  0.685668  0.478269  0.372674  1
  H  H16  1  0.027224  0.621730  0.848999  1
  H  H17  1  0.027224  0.878270  0.348999  1
  H  H18  1  0.972776  0.121730  0.651001  1
  H  H19  1  0.972776  0.378270  0.151001  1
  O  O20  1  0.049231  0.178306  0.583127  1
  O  O21  1  0.049231  0.321694  0.083127  1
  O  O22  1  0.148902  0.530703  0.706310  1
  O  O23  1  0.269871  0.926421  0.848560  1
  O  O24  1  0.148902  0.969297  0.206310  1
  O  O25  1  0.269871  0.573579  0.348560  1
  O  O26  1  0.366913  0.367164  0.630175  1
  O  O27  1  0.439322  0.619967  0.794415  1
  O  O28  1  0.366913  0.132836  0.130175  1
  O  O29  1  0.439322  0.880033  0.294415  1
  O  O30  1  0.560678  0.119967  0.705585  1
  O  O31  1  0.633087  0.867164  0.869825  1
  O  O32  1  0.560678  0.380033  0.205585  1
  O  O33  1  0.633087  0.632836  0.369825  1
  O  O34  1  0.730129  0.426421  0.651440  1
  O  O35  1  0.851098  0.030703  0.793690  1
  O  O36  1  0.730129  0.073579  0.151440  1
  O  O37  1  0.851098  0.469297  0.293690  1
  O  O38  1  0.950769  0.678306  0.916873  1
  O  O39  1  0.950769  0.821694  0.416873  1
