# generated using pymatgen
data_Ca3La5Mn6(CuO12)2
_symmetry_space_group_name_H-M   'P 1'
_cell_length_a   5.46895402
_cell_length_b   5.47602286
_cell_length_c   15.67773510
_cell_angle_alpha   90.01666811
_cell_angle_beta   90.02641904
_cell_angle_gamma   89.98158717
_symmetry_Int_Tables_number   1
_chemical_formula_structural   Ca3La5Mn6(CuO12)2
_chemical_formula_sum   'Ca3 La5 Mn6 Cu2 O24'
_cell_volume   469.51855407
_cell_formula_units_Z   1
loop_
 _symmetry_equiv_pos_site_id
 _symmetry_equiv_pos_as_xyz
  1  'x, y, z'
loop_
 _atom_site_type_symbol
 _atom_site_label
 _atom_site_symmetry_multiplicity
 _atom_site_fract_x
 _atom_site_fract_y
 _atom_site_fract_z
 _atom_site_occupancy
  Ca  Ca0  1  0.466614  0.489789  0.878755  1
  Ca  Ca1  1  0.533095  0.509214  0.119121  1
  Ca  Ca2  1  0.964112  0.009854  0.876224  1
  La  La3  1  0.025154  0.995234  0.119431  1
  La  La4  1  0.024458  0.992633  0.625704  1
  La  La5  1  0.478109  0.491745  0.376741  1
  La  La6  1  0.524288  0.508135  0.625374  1
  La  La7  1  0.977462  0.007354  0.378605  1
  Mn  Mn8  1  0.501462  0.997412  0.244493  1
  Mn  Mn9  1  0.498423  0.002962  0.757373  1
  Mn  Mn10  1  0.500165  0.999386  0.996811  1
  Mn  Mn11  1  0.001638  0.501761  0.244750  1
  Mn  Mn12  1  0.000187  0.499629  0.996602  1
  Mn  Mn13  1  0.998965  0.497673  0.757376  1
  Cu  Cu14  1  0.500254  0.000545  0.500938  1
  Cu  Cu15  1  0.000488  0.500597  0.500975  1
  O  O16  1  0.009537  0.568277  0.365824  1
  O  O17  1  0.021724  0.583415  0.877526  1
  O  O18  1  0.229154  0.229608  0.483022  1
  O  O19  1  0.225090  0.223451  0.267515  1
  O  O20  1  0.218267  0.218881  0.775345  1
  O  O21  1  0.215374  0.213681  0.979690  1
  O  O22  1  0.277872  0.722914  0.223976  1
  O  O23  1  0.274506  0.725439  0.731572  1
  O  O24  1  0.278573  0.721149  0.021224  1
  O  O25  1  0.272210  0.729075  0.517322  1
  O  O26  1  0.490500  0.079178  0.121383  1
  O  O27  1  0.491829  0.069714  0.635624  1
  O  O28  1  0.507469  0.930364  0.365791  1
  O  O29  1  0.519653  0.915944  0.877356  1
  O  O30  1  0.728124  0.272310  0.482928  1
  O  O31  1  0.720899  0.278418  0.979195  1
  O  O32  1  0.729773  0.269918  0.268395  1
  O  O33  1  0.717935  0.282308  0.775628  1
  O  O34  1  0.776909  0.776456  0.018849  1
  O  O35  1  0.776266  0.774771  0.226299  1
  O  O36  1  0.772652  0.772772  0.517537  1
  O  O37  1  0.775123  0.775895  0.731949  1
  O  O38  1  0.991612  0.431058  0.635551  1
  O  O39  1  0.984077  0.431078  0.121225  1
