# generated using pymatgen
data_Li2Mn(SiO3)2
_symmetry_space_group_name_H-M   'P 1'
_cell_length_a   5.90380626
_cell_length_b   5.76677462
_cell_length_c   9.29443977
_cell_angle_alpha   90.03389535
_cell_angle_beta   90.06337523
_cell_angle_gamma   59.21611259
_symmetry_Int_Tables_number   1
_chemical_formula_structural   Li2Mn(SiO3)2
_chemical_formula_sum   'Li4 Mn2 Si4 O12'
_cell_volume   271.85272896
_cell_formula_units_Z   2
loop_
 _symmetry_equiv_pos_site_id
 _symmetry_equiv_pos_as_xyz
  1  'x, y, z'
loop_
 _atom_site_type_symbol
 _atom_site_label
 _atom_site_symmetry_multiplicity
 _atom_site_fract_x
 _atom_site_fract_y
 _atom_site_fract_z
 _atom_site_occupancy
  Li  Li0  1  0.646374  0.822143  0.896639  1
  Li  Li1  1  0.614949  0.652228  0.632121  1
  Li  Li2  1  0.267196  0.347777  0.132107  1
  Li  Li3  1  0.468536  0.177850  0.396629  1
  Mn  Mn4  1  0.733579  0.507936  0.255612  1
  Mn  Mn5  1  0.241489  0.492045  0.755604  1
  Si  Si6  1  0.869762  0.940896  0.134100  1
  Si  Si7  1  0.196449  0.938711  0.366225  1
  Si  Si8  1  0.810749  0.059027  0.634120  1
  Si  Si9  1  0.135142  0.061334  0.866230  1
  O  O10  1  0.843409  0.794993  0.718285  1
  O  O11  1  0.790827  0.719052  0.091829  1
  O  O12  1  0.502747  0.773548  0.419318  1
  O  O13  1  0.364542  0.763250  0.810732  1
  O  O14  1  0.149826  0.776473  0.230060  1
  O  O15  1  0.926265  0.223533  0.730055  1
  O  O16  1  0.638393  0.205021  0.218302  1
  O  O17  1  0.509805  0.280962  0.591821  1
  O  O18  1  0.276288  0.226437  0.919307  1
  O  O19  1  0.127819  0.236743  0.310736  1
  O  O20  1  0.993827  0.950057  0.489243  1
  O  O21  1  0.943866  0.049995  0.989230  1
