# generated using pymatgen
data_Ba2LaI7
_symmetry_space_group_name_H-M   'P 1'
_cell_length_a   12.18106409
_cell_length_b   18.10714831
_cell_length_c   7.94941343
_cell_angle_alpha   90.00000000
_cell_angle_beta   90.91069021
_cell_angle_gamma   90.00000000
_symmetry_Int_Tables_number   1
_chemical_formula_structural   Ba2LaI7
_chemical_formula_sum   'Ba8 La4 I28'
_cell_volume   1753.13560324
_cell_formula_units_Z   4
loop_
 _symmetry_equiv_pos_site_id
 _symmetry_equiv_pos_as_xyz
  1  'x, y, z'
loop_
 _atom_site_type_symbol
 _atom_site_label
 _atom_site_symmetry_multiplicity
 _atom_site_fract_x
 _atom_site_fract_y
 _atom_site_fract_z
 _atom_site_occupancy
  Ba  Ba0  1  0.048813  0.220594  0.266500  1
  Ba  Ba1  1  0.176051  0.560426  0.268248  1
  Ba  Ba2  1  0.323949  0.060426  0.731752  1
  Ba  Ba3  1  0.451187  0.720594  0.733500  1
  Ba  Ba4  1  0.548813  0.279406  0.266500  1
  Ba  Ba5  1  0.676051  0.939574  0.268248  1
  Ba  Ba6  1  0.823949  0.439574  0.731752  1
  Ba  Ba7  1  0.951187  0.779406  0.733500  1
  La  La8  1  0.218939  0.872991  0.218878  1
  La  La9  1  0.281061  0.372991  0.781122  1
  La  La10  1  0.718939  0.627009  0.218878  1
  La  La11  1  0.781061  0.127009  0.781122  1
  I  I12  1  0.037854  0.141292  0.705453  1
  I  I13  1  0.064134  0.397252  0.006894  1
  I  I14  1  0.078107  0.395899  0.504374  1
  I  I15  1  0.120204  0.930526  0.856470  1
  I  I16  1  0.195997  0.739139  0.497615  1
  I  I17  1  0.205198  0.723111  0.996070  1
  I  I18  1  0.213215  0.045465  0.299283  1
  I  I19  1  0.286785  0.545465  0.700717  1
  I  I20  1  0.294802  0.223111  0.003930  1
  I  I21  1  0.304003  0.239139  0.502385  1
  I  I22  1  0.379796  0.430526  0.143530  1
  I  I23  1  0.421893  0.895899  0.495626  1
  I  I24  1  0.435866  0.897252  0.993106  1
  I  I25  1  0.462146  0.641292  0.294547  1
  I  I26  1  0.537854  0.358708  0.705453  1
  I  I27  1  0.564134  0.102748  0.006894  1
  I  I28  1  0.578107  0.104101  0.504374  1
  I  I29  1  0.620204  0.569474  0.856470  1
  I  I30  1  0.695997  0.760861  0.497615  1
  I  I31  1  0.705198  0.776889  0.996070  1
  I  I32  1  0.713215  0.454535  0.299283  1
  I  I33  1  0.786785  0.954535  0.700717  1
  I  I34  1  0.794802  0.276889  0.003930  1
  I  I35  1  0.804003  0.260861  0.502385  1
  I  I36  1  0.879796  0.069474  0.143530  1
  I  I37  1  0.921893  0.604101  0.495626  1
  I  I38  1  0.935866  0.602748  0.993106  1
  I  I39  1  0.962146  0.858708  0.294547  1
