# generated using pymatgen
data_Na6V2B4SO16
_symmetry_space_group_name_H-M   'P 1'
_cell_length_a   9.93543796
_cell_length_b   9.93543762
_cell_length_c   9.93543796
_cell_angle_alpha   90.00000056
_cell_angle_beta   120.00000320
_cell_angle_gamma   60.00000142
_symmetry_Int_Tables_number   1
_chemical_formula_structural   Na6V2B4SO16
_chemical_formula_sum   'Na12 V4 B8 S2 O32'
_cell_volume   693.49929737
_cell_formula_units_Z   2
loop_
 _symmetry_equiv_pos_site_id
 _symmetry_equiv_pos_as_xyz
  1  'x, y, z'
loop_
 _atom_site_type_symbol
 _atom_site_label
 _atom_site_symmetry_multiplicity
 _atom_site_fract_x
 _atom_site_fract_y
 _atom_site_fract_z
 _atom_site_occupancy
  Na  Na0  1  0.750000  0.905828  0.844172  1
  Na  Na1  1  0.750000  0.905828  0.405828  1
  Na  Na2  1  0.750000  0.344172  0.844172  1
  Na  Na3  1  0.188343  0.905828  0.844172  1
  Na  Na4  1  0.688343  0.655828  0.594172  1
  Na  Na5  1  0.750000  0.344172  0.405828  1
  Na  Na6  1  0.250000  0.655828  0.594172  1
  Na  Na7  1  0.250000  0.655828  0.155828  1
  Na  Na8  1  0.811657  0.094172  0.155828  1
  Na  Na9  1  0.311657  0.344172  0.405828  1
  Na  Na10  1  0.250000  0.094172  0.594172  1
  Na  Na11  1  0.250000  0.094172  0.155828  1
  V  V12  1  0.000000  0.500000  0.500000  1
  V  V13  1  0.500000  0.500000  0.000000  1
  V  V14  1  0.500000  0.000000  0.000000  1
  V  V15  1  0.000000  0.500000  0.000000  1
  B  B16  1  0.575463  0.712269  0.863194  1
  B  B17  1  0.924537  0.712269  0.212269  1
  B  B18  1  0.424537  0.287731  0.787731  1
  B  B19  1  0.075463  0.636806  0.787731  1
  B  B20  1  0.924537  0.363194  0.212269  1
  B  B21  1  0.575463  0.712269  0.212269  1
  B  B22  1  0.075463  0.287731  0.787731  1
  B  B23  1  0.424537  0.287731  0.136806  1
  S  S24  1  0.750000  0.125000  0.625000  1
  S  S25  1  0.250000  0.875000  0.375000  1
  O  O26  1  0.726170  0.676840  0.858104  1
  O  O27  1  0.955094  0.641896  0.631934  1
  O  O28  1  0.955094  0.403010  0.823160  1
  O  O29  1  0.455094  0.868066  0.858104  1
  O  O30  1  0.965057  0.676840  0.368066  1
  O  O31  1  0.534943  0.596990  0.858104  1
  O  O32  1  0.544906  0.323160  0.903010  1
  O  O33  1  0.773830  0.868066  0.096990  1
  O  O34  1  0.373373  0.936686  0.436686  1
  O  O35  1  0.873373  0.063314  0.810059  1
  O  O36  1  0.726170  0.596990  0.368066  1
  O  O37  1  0.226170  0.641896  0.823160  1
  O  O38  1  0.034943  0.641896  0.903010  1
  O  O39  1  0.534943  0.868066  0.176840  1
  O  O40  1  0.373373  0.689941  0.436686  1
  O  O41  1  0.126627  0.936686  0.436686  1
  O  O42  1  0.873373  0.063314  0.563314  1
  O  O43  1  0.626627  0.310059  0.563314  1
  O  O44  1  0.465057  0.131934  0.823160  1
  O  O45  1  0.965057  0.358104  0.096990  1
  O  O46  1  0.773830  0.358104  0.176840  1
  O  O47  1  0.273830  0.403010  0.631934  1
  O  O48  1  0.126627  0.936686  0.189941  1
  O  O49  1  0.626627  0.063314  0.563314  1
  O  O50  1  0.226170  0.131934  0.903010  1
  O  O51  1  0.455094  0.676840  0.096990  1
  O  O52  1  0.465057  0.403010  0.141896  1
  O  O53  1  0.034943  0.323160  0.631934  1
  O  O54  1  0.544906  0.131934  0.141896  1
  O  O55  1  0.044906  0.596990  0.176840  1
  O  O56  1  0.044906  0.358104  0.368066  1
  O  O57  1  0.273830  0.323160  0.141896  1
