# generated using pymatgen
data_Li7Cr3Co(PO4)6
_symmetry_space_group_name_H-M   'P 1'
_cell_length_a   8.79420945
_cell_length_b   8.76164729
_cell_length_c   8.66206043
_cell_angle_alpha   59.29453320
_cell_angle_beta   120.72583742
_cell_angle_gamma   119.83936299
_symmetry_Int_Tables_number   1
_chemical_formula_structural   Li7Cr3Co(PO4)6
_chemical_formula_sum   'Li7 Cr3 Co1 P6 O24'
_cell_volume   467.32385831
_cell_formula_units_Z   1
loop_
 _symmetry_equiv_pos_site_id
 _symmetry_equiv_pos_as_xyz
  1  'x, y, z'
loop_
 _atom_site_type_symbol
 _atom_site_label
 _atom_site_symmetry_multiplicity
 _atom_site_fract_x
 _atom_site_fract_y
 _atom_site_fract_z
 _atom_site_occupancy
  Li  Li0  1  0.553827  0.697432  0.605070  1
  Li  Li1  1  0.303381  0.251221  0.606036  1
  Li  Li2  1  0.154784  0.662782  0.286448  1
  Li  Li3  1  0.006774  0.991815  0.019869  1
  Li  Li4  1  0.747201  0.445797  0.604641  1
  Li  Li5  1  0.793783  0.845783  0.286725  1
  Li  Li6  1  0.339459  0.204057  0.288023  1
  Cr  Cr7  1  0.859703  0.140687  0.578715  1
  Cr  Cr8  1  0.357800  0.641917  0.073299  1
  Cr  Cr9  1  0.642971  0.357028  0.928341  1
  Co  Co10  1  0.145675  0.853049  0.442840  1
  P  P11  1  0.250202  0.456573  0.751164  1
  P  P12  1  0.955125  0.749255  0.752514  1
  P  P13  1  0.546495  0.043782  0.752319  1
  P  P14  1  0.457910  0.963001  0.245291  1
  P  P15  1  0.038095  0.247631  0.248021  1
  P  P16  1  0.750591  0.542050  0.245169  1
  O  O17  1  0.114765  0.688707  0.931143  1
  O  O18  1  0.506468  0.884717  0.931253  1
  O  O19  1  0.310217  0.495007  0.930573  1
  O  O20  1  0.083243  0.272921  0.756583  1
  O  O21  1  0.409090  0.428125  0.742497  1
  O  O22  1  0.217959  0.625610  0.563493  1
  O  O23  1  0.945604  0.916371  0.760990  1
  O  O24  1  0.760241  0.589644  0.744807  1
  O  O25  1  0.573321  0.239839  0.743803  1
  O  O26  1  0.624256  0.973353  0.436106  1
  O  O27  1  0.278960  0.965886  0.239340  1
  O  O28  1  0.027086  0.214248  0.437131  1
  O  O29  1  0.964916  0.783679  0.563858  1
  O  O30  1  0.731086  0.054277  0.760068  1
  O  O31  1  0.380718  0.032982  0.563798  1
  O  O32  1  0.410410  0.760716  0.255040  1
  O  O33  1  0.238491  0.392232  0.255129  1
  O  O34  1  0.037180  0.068957  0.246765  1
  O  O35  1  0.785336  0.375261  0.436089  1
  O  O36  1  0.606073  0.589960  0.254320  1
  O  O37  1  0.926546  0.720795  0.240872  1
  O  O38  1  0.688126  0.497855  0.071205  1
  O  O39  1  0.502413  0.119020  0.071117  1
  O  O40  1  0.881263  0.308433  0.072174  1
