# generated using pymatgen
data_LiCoPO4
_symmetry_space_group_name_H-M   'P 1'
_cell_length_a   5.19253561
_cell_length_b   5.19436104
_cell_length_c   9.21112177
_cell_angle_alpha   89.97981495
_cell_angle_beta   90.12317220
_cell_angle_gamma   120.01439150
_symmetry_Int_Tables_number   1
_chemical_formula_structural   LiCoPO4
_chemical_formula_sum   'Li2 Co2 P2 O8'
_cell_volume   215.12486833
_cell_formula_units_Z   2
loop_
 _symmetry_equiv_pos_site_id
 _symmetry_equiv_pos_as_xyz
  1  'x, y, z'
loop_
 _atom_site_type_symbol
 _atom_site_label
 _atom_site_symmetry_multiplicity
 _atom_site_fract_x
 _atom_site_fract_y
 _atom_site_fract_z
 _atom_site_occupancy
  Li  Li0  1  0.999369  0.999434  0.192808  1
  Li  Li1  1  0.000003  0.000126  0.692254  1
  Co  Co2  1  0.332836  0.666161  0.137606  1
  Co  Co3  1  0.666420  0.333371  0.637699  1
  P  P4  1  0.333740  0.666955  0.766253  1
  P  P5  1  0.666538  0.333156  0.266376  1
  O  O6  1  0.052644  0.383454  0.707550  1
  O  O7  1  0.330738  0.947139  0.706982  1
  O  O8  1  0.335358  0.668145  0.931031  1
  O  O9  1  0.383056  0.330433  0.207298  1
  O  O10  1  0.616469  0.669283  0.707068  1
  O  O11  1  0.667541  0.334140  0.431154  1
  O  O12  1  0.668637  0.052271  0.207640  1
  O  O13  1  0.946950  0.615931  0.207100  1
