# generated using pymatgen
data_Sr16(Ru5O16)3
_symmetry_space_group_name_H-M   'P 1'
_cell_length_a   7.89497333
_cell_length_b   7.89952015
_cell_length_c   16.14290431
_cell_angle_alpha   90.05159119
_cell_angle_beta   90.03805310
_cell_angle_gamma   90.02618392
_symmetry_Int_Tables_number   1
_chemical_formula_structural   Sr16(Ru5O16)3
_chemical_formula_sum   'Sr16 Ru15 O48'
_cell_volume   1006.77571987
_cell_formula_units_Z   1
loop_
 _symmetry_equiv_pos_site_id
 _symmetry_equiv_pos_as_xyz
  1  'x, y, z'
loop_
 _atom_site_type_symbol
 _atom_site_label
 _atom_site_symmetry_multiplicity
 _atom_site_fract_x
 _atom_site_fract_y
 _atom_site_fract_z
 _atom_site_occupancy
  Sr  Sr0  1  0.499239  0.998306  0.626303  1
  Sr  Sr1  1  0.520852  0.012613  0.115812  1
  Sr  Sr2  1  0.979146  0.487388  0.884187  1
  Sr  Sr3  1  0.000762  0.501694  0.373696  1
  Sr  Sr4  1  0.514377  0.478095  0.883731  1
  Sr  Sr5  1  0.499014  0.499868  0.374033  1
  Sr  Sr6  1  0.000018  0.000817  0.374132  1
  Sr  Sr7  1  0.987157  0.017903  0.883105  1
  Sr  Sr8  1  0.512842  0.482097  0.116897  1
  Sr  Sr9  1  0.985623  0.021906  0.116269  1
  Sr  Sr10  1  0.499982  0.499183  0.625868  1
  Sr  Sr11  1  0.000986  0.000130  0.625967  1
  Sr  Sr12  1  0.000417  0.499414  0.625617  1
  Sr  Sr13  1  0.974921  0.485938  0.116653  1
  Sr  Sr14  1  0.525081  0.014063  0.883348  1
  Sr  Sr15  1  0.499582  0.000586  0.374383  1
  Ru  Ru16  1  0.250000  0.250000  0.500000  1
  Ru  Ru17  1  0.250000  0.250000  0.000000  1
  Ru  Ru18  1  0.249987  0.249969  0.248356  1
  Ru  Ru19  1  0.250013  0.250030  0.751644  1
  Ru  Ru20  1  0.750000  0.250000  0.500000  1
  Ru  Ru21  1  0.749653  0.250086  0.250232  1
  Ru  Ru22  1  0.250071  0.750128  0.246166  1
  Ru  Ru23  1  0.250000  0.750000  0.000000  1
  Ru  Ru24  1  0.249930  0.749872  0.753834  1
  Ru  Ru25  1  0.750347  0.249914  0.749768  1
  Ru  Ru26  1  0.250000  0.750000  0.500000  1
  Ru  Ru27  1  0.749936  0.749495  0.750742  1
  Ru  Ru28  1  0.750000  0.750000  0.500000  1
  Ru  Ru29  1  0.750000  0.749999  0.000000  1
  Ru  Ru30  1  0.750064  0.750504  0.249258  1
  O  O31  1  0.212423  0.998230  0.999756  1
  O  O32  1  0.202813  0.000413  0.250214  1
  O  O33  1  0.202950  0.000796  0.749913  1
  O  O34  1  0.204348  0.999768  0.499750  1
  O  O35  1  0.250064  0.249321  0.625271  1
  O  O36  1  0.254210  0.247331  0.124308  1
  O  O37  1  0.249936  0.250680  0.374729  1
  O  O38  1  0.245790  0.252669  0.875692  1
  O  O39  1  0.500296  0.204591  0.749359  1
  O  O40  1  0.499935  0.203512  0.500087  1
  O  O41  1  0.500736  0.204704  0.252239  1
  O  O42  1  0.000202  0.702356  0.246052  1
  O  O43  1  0.489764  0.226275  0.998502  1
  O  O44  1  0.001808  0.709605  0.004786  1
  O  O45  1  0.999361  0.703550  0.746830  1
  O  O46  1  -0.000016  0.704184  0.502515  1
  O  O47  1  0.297050  0.499203  0.250086  1
  O  O48  1  0.287578  0.501771  0.000244  1
  O  O49  1  0.297187  0.499587  0.749786  1
  O  O50  1  0.295653  0.500232  0.500251  1
  O  O51  1  0.750876  0.248215  0.377943  1
  O  O52  1  0.242786  0.748369  0.374547  1
  O  O53  1  0.751979  0.248780  0.866303  1
  O  O54  1  0.233570  0.749146  0.876237  1
  O  O55  1  0.749123  0.251785  0.622057  1
  O  O56  1  0.266429  0.750854  0.123763  1
  O  O57  1  0.748022  0.251221  0.133697  1
  O  O58  1  0.257214  0.751630  0.625453  1
  O  O59  1  0.704256  0.499788  0.749862  1
  O  O60  1  0.703602  0.500189  0.498963  1
  O  O61  1  0.724104  0.509739  0.999014  1
  O  O62  1  0.705475  0.500018  0.252789  1
  O  O63  1  0.999264  0.295295  0.747762  1
  O  O64  1  0.000065  0.296488  0.499912  1
  O  O65  1  0.999704  0.295408  0.250642  1
  O  O66  1  0.010236  0.273727  0.001498  1
  O  O67  1  0.498192  0.790394  0.995215  1
  O  O68  1  0.500640  0.796449  0.253170  1
  O  O69  1  0.500016  0.795815  0.497484  1
  O  O70  1  0.499798  0.797645  0.753948  1
  O  O71  1  0.740470  0.745649  0.125257  1
  O  O72  1  0.742472  0.747078  0.624800  1
  O  O73  1  0.757529  0.752922  0.375200  1
  O  O74  1  0.759529  0.754352  0.874743  1
  O  O75  1  0.794526  -0.000018  0.747212  1
  O  O76  1  0.795743  0.000212  0.250138  1
  O  O77  1  0.796398  0.999812  0.501036  1
  O  O78  1  0.775895  0.990261  0.000987  1
