# generated using pymatgen
data_LiAgF4
_symmetry_space_group_name_H-M   'P 1'
_cell_length_a   6.60982086
_cell_length_b   6.29476288
_cell_length_c   10.19077378
_cell_angle_alpha   89.99998861
_cell_angle_beta   142.61419860
_cell_angle_gamma   118.43539876
_symmetry_Int_Tables_number   1
_chemical_formula_structural   LiAgF4
_chemical_formula_sum   'Li2 Ag2 F8'
_cell_volume   159.74035586
_cell_formula_units_Z   2
loop_
 _symmetry_equiv_pos_site_id
 _symmetry_equiv_pos_as_xyz
  1  'x, y, z'
loop_
 _atom_site_type_symbol
 _atom_site_label
 _atom_site_symmetry_multiplicity
 _atom_site_fract_x
 _atom_site_fract_y
 _atom_site_fract_z
 _atom_site_occupancy
  Li  Li0  1  0.002504  0.095663  0.749434  1
  Li  Li1  1  0.002504  0.906841  0.249434  1
  Ag  Ag2  1  -0.000397  0.499828  0.498764  1
  Ag  Ag3  1  -0.000397  0.499775  0.998764  1
  F  F4  1  0.359683  0.533378  0.038163  1
  F  F5  1  0.406957  0.104852  0.081092  1
  F  F6  1  0.359683  0.826306  0.538163  1
  F  F7  1  0.406958  0.302106  0.581092  1
  F  F8  1  0.589531  0.897680  0.915039  1
  F  F9  1  0.639816  0.470775  0.957321  1
  F  F10  1  0.589531  0.691851  0.415039  1
  F  F11  1  0.639817  0.169043  0.457321  1
