# generated using pymatgen
data_Na2Fe2C4SO16
_symmetry_space_group_name_H-M   'P 1'
_cell_length_a   9.92589999
_cell_length_b   9.86701282
_cell_length_c   9.86701263
_cell_angle_alpha   90.58256145
_cell_angle_beta   59.86181050
_cell_angle_gamma   120.13818885
_symmetry_Int_Tables_number   1
_chemical_formula_structural   Na2Fe2C4SO16
_chemical_formula_sum   'Na4 Fe4 C8 S2 O32'
_cell_volume   683.89685902
_cell_formula_units_Z   2
loop_
 _symmetry_equiv_pos_site_id
 _symmetry_equiv_pos_as_xyz
  1  'x, y, z'
loop_
 _atom_site_type_symbol
 _atom_site_label
 _atom_site_symmetry_multiplicity
 _atom_site_fract_x
 _atom_site_fract_y
 _atom_site_fract_z
 _atom_site_occupancy
  Na  Na0  1  0.250000  0.914168  0.835832  1
  Na  Na1  1  0.250000  0.335832  0.414168  1
  Na  Na2  1  0.750000  0.664168  0.585832  1
  Na  Na3  1  0.750000  0.085833  0.164167  1
  Fe  Fe4  1  0.000000  0.500000  0.000000  1
  Fe  Fe5  1  0.000000  0.500000  0.500000  1
  Fe  Fe6  1  0.500000  0.500000  0.000000  1
  Fe  Fe7  1  0.500000  0.000000  0.000000  1
  C  C8  1  0.079499  0.716795  0.211357  1
  C  C9  1  0.079499  0.362704  0.209143  1
  C  C10  1  0.420501  0.711358  0.216795  1
  C  C11  1  0.420501  0.709143  0.862704  1
  C  C12  1  0.579499  0.290857  0.137296  1
  C  C13  1  0.579499  0.288643  0.783205  1
  C  C14  1  0.920501  0.637296  0.790857  1
  C  C15  1  0.920501  0.283205  0.788642  1
  S  S16  1  0.250000  0.125000  0.625000  1
  S  S17  1  0.750000  0.875000  0.375000  1
  O  O18  1  0.055641  0.689405  0.093701  1
  O  O19  1  0.222525  0.857562  0.184299  1
  O  O20  1  0.055641  0.366236  0.350658  1
  O  O21  1  0.222525  0.364961  0.093176  1
  O  O22  1  0.041525  0.647528  0.814911  1
  O  O23  1  0.277475  0.684299  0.357562  1
  O  O24  1  0.041525  0.393997  0.643565  1
  O  O25  1  0.541525  0.856435  0.106003  1
  O  O26  1  0.444359  0.593701  0.189405  1
  O  O27  1  0.126596  0.062119  0.564158  1
  O  O28  1  0.458475  0.314911  0.147528  1
  O  O29  1  0.626596  0.935842  0.437881  1
  O  O30  1  0.277475  0.593176  0.864961  1
  O  O31  1  0.444359  0.850658  0.866236  1
  O  O32  1  0.126596  0.064476  0.809246  1
  O  O33  1  0.373404  0.309246  0.564476  1
  O  O34  1  0.626596  0.690754  0.435524  1
  O  O35  1  0.873404  0.935524  0.190754  1
  O  O36  1  0.555641  0.149342  0.133764  1
  O  O37  1  0.722525  0.406824  0.135039  1
  O  O38  1  0.373404  0.064158  0.562119  1
  O  O39  1  0.541525  0.685089  0.852472  1
  O  O40  1  0.873404  0.937881  0.435842  1
  O  O41  1  0.555641  0.406299  0.810595  1
  O  O42  1  0.458475  0.143565  0.893996  1
  O  O43  1  0.958475  0.606004  0.356435  1
  O  O44  1  0.722525  0.315701  0.642438  1
  O  O45  1  0.958475  0.352472  0.185089  1
  O  O46  1  0.777475  0.635039  0.906824  1
  O  O47  1  0.944359  0.633764  0.649342  1
  O  O48  1  0.777475  0.142438  0.815701  1
  O  O49  1  0.944359  0.310595  0.906299  1
