# generated using pymatgen
data_Zr2N2O
_symmetry_space_group_name_H-M   'P 1'
_cell_length_a   8.87256325
_cell_length_b   8.90305413
_cell_length_c   8.87519497
_cell_angle_alpha   109.54384024
_cell_angle_beta   109.49942023
_cell_angle_gamma   109.54923242
_symmetry_Int_Tables_number   1
_chemical_formula_structural   Zr2N2O
_chemical_formula_sum   'Zr16 N16 O8'
_cell_volume   538.49521226
_cell_formula_units_Z   8
loop_
 _symmetry_equiv_pos_site_id
 _symmetry_equiv_pos_as_xyz
  1  'x, y, z'
loop_
 _atom_site_type_symbol
 _atom_site_label
 _atom_site_symmetry_multiplicity
 _atom_site_fract_x
 _atom_site_fract_y
 _atom_site_fract_z
 _atom_site_occupancy
  Zr  Zr0  1  0.492660  0.012070  0.001746  1
  Zr  Zr1  1  0.962011  0.239998  0.214353  1
  Zr  Zr2  1  0.715998  0.464994  0.251278  1
  Zr  Zr3  1  0.784784  0.036922  0.749713  1
  Zr  Zr4  1  0.751046  0.781873  0.042521  1
  Zr  Zr5  1  0.757430  0.295784  0.539234  1
  Zr  Zr6  1  0.533093  0.747829  0.290821  1
  Zr  Zr7  1  0.000524  0.487663  0.989819  1
  Zr  Zr8  1  0.011041  0.000456  0.502605  1
  Zr  Zr9  1  0.513653  0.511416  0.514446  1
  Zr  Zr10  1  0.464727  0.253752  0.722318  1
  Zr  Zr11  1  0.236728  0.205803  0.954186  1
  Zr  Zr12  1  0.256609  0.725410  0.466232  1
  Zr  Zr13  1  0.214182  0.961537  0.248035  1
  Zr  Zr14  1  0.286735  0.537616  0.749419  1
  Zr  Zr15  1  0.042998  0.752803  0.782774  1
  N  N16  1  0.010981  0.043523  0.268071  1
  N  N17  1  0.742124  0.224028  0.273147  1
  N  N18  1  0.767331  0.723220  0.256145  1
  N  N19  1  0.727147  0.259436  0.768087  1
  N  N20  1  0.766662  0.541491  0.532050  1
  N  N21  1  0.511725  0.241596  0.969552  1
  N  N22  1  0.273677  0.737184  0.222647  1
  N  N23  1  0.534118  0.769804  0.544496  1
  N  N24  1  0.222836  0.273222  0.735377  1
  N  N25  1  0.272173  0.009682  0.046208  1
  N  N26  1  0.546582  0.537800  0.771608  1
  N  N27  1  0.241276  0.968007  0.512037  1
  N  N28  1  0.045027  0.273899  0.016350  1
  N  N29  1  0.263328  0.772117  0.727508  1
  N  N30  1  0.034445  0.489985  0.762928  1
  N  N31  1  0.984915  0.952872  0.723199  1
  O  O32  1  0.968920  0.514615  0.243873  1
  O  O33  1  0.952793  0.724348  0.992380  1
  O  O34  1  0.754506  0.029258  0.484387  1
  O  O35  1  0.453395  0.466220  0.229037  1
  O  O36  1  0.724357  0.986135  0.952151  1
  O  O37  1  0.460844  0.229006  0.451966  1
  O  O38  1  0.491866  0.763182  0.033812  1
  O  O39  1  0.224754  0.453444  0.463485  1
