# generated using pymatgen
data_Na5Ni2P2(CO7)2
_symmetry_space_group_name_H-M   'P 1'
_cell_length_a   17.64704930
_cell_length_b   5.19858355
_cell_length_c   6.63543650
_cell_angle_alpha   90.00000000
_cell_angle_beta   90.00000000
_cell_angle_gamma   88.33421539
_symmetry_Int_Tables_number   1
_chemical_formula_structural   Na5Ni2P2(CO7)2
_chemical_formula_sum   'Na10 Ni4 P4 C4 O28'
_cell_volume   608.47543785
_cell_formula_units_Z   2
loop_
 _symmetry_equiv_pos_site_id
 _symmetry_equiv_pos_as_xyz
  1  'x, y, z'
loop_
 _atom_site_type_symbol
 _atom_site_label
 _atom_site_symmetry_multiplicity
 _atom_site_fract_x
 _atom_site_fract_y
 _atom_site_fract_z
 _atom_site_occupancy
  Na  Na0  1  0.133423  0.254481  0.013714  1
  Na  Na1  1  0.133423  0.254481  0.486286  1
  Na  Na2  1  0.366577  0.745519  0.513714  1
  Na  Na3  1  0.366577  0.745519  0.986286  1
  Na  Na4  1  0.539766  0.776968  0.250000  1
  Na  Na5  1  0.632852  0.254512  0.007251  1
  Na  Na6  1  0.632852  0.254512  0.492749  1
  Na  Na7  1  0.867148  0.745488  0.507251  1
  Na  Na8  1  0.867148  0.745488  0.992749  1
  Na  Na9  1  0.960234  0.223032  0.750000  1
  Ni  Ni10  1  0.172600  0.777527  0.750000  1
  Ni  Ni11  1  0.327400  0.222473  0.250000  1
  Ni  Ni12  1  0.672677  0.777808  0.750000  1
  Ni  Ni13  1  0.827323  0.222192  0.250000  1
  P  P14  1  0.209356  0.719010  0.250000  1
  P  P15  1  0.290644  0.280990  0.750000  1
  P  P16  1  0.709446  0.719813  0.250000  1
  P  P17  1  0.790554  0.280187  0.750000  1
  C  C18  1  0.031725  0.710273  0.750000  1
  C  C19  1  0.468275  0.289727  0.250000  1
  C  C20  1  0.533201  0.712083  0.750000  1
  C  C21  1  0.966799  0.287917  0.250000  1
  O  O22  1  0.037253  0.317278  0.250000  1
  O  O23  1  0.061382  0.935499  0.750000  1
  O  O24  1  0.077922  0.510776  0.750000  1
  O  O25  1  0.161051  0.791114  0.062654  1
  O  O26  1  0.161051  0.791114  0.437346  1
  O  O27  1  0.214433  0.142292  0.750000  1
  O  O28  1  0.226566  0.421721  0.250000  1
  O  O29  1  0.273434  0.578279  0.750000  1
  O  O30  1  0.285567  0.857708  0.250000  1
  O  O31  1  0.338949  0.208886  0.562654  1
  O  O32  1  0.338949  0.208886  0.937346  1
  O  O33  1  0.422078  0.489224  0.250000  1
  O  O34  1  0.438618  0.064501  0.250000  1
  O  O35  1  0.462747  0.682722  0.750000  1
  O  O36  1  0.540617  0.313766  0.250000  1
  O  O37  1  0.562852  0.937697  0.750000  1
  O  O38  1  0.582295  0.519457  0.750000  1
  O  O39  1  0.659076  0.787706  0.064428  1
  O  O40  1  0.659076  0.787706  0.435572  1
  O  O41  1  0.715405  0.136043  0.750000  1
  O  O42  1  0.728619  0.424398  0.250000  1
  O  O43  1  0.771381  0.575602  0.750000  1
  O  O44  1  0.784595  0.863957  0.250000  1
  O  O45  1  0.840924  0.212294  0.564428  1
  O  O46  1  0.840924  0.212294  0.935572  1
  O  O47  1  0.917705  0.480543  0.250000  1
  O  O48  1  0.937148  0.062303  0.250000  1
  O  O49  1  0.959383  0.686234  0.750000  1
