# generated using pymatgen
data_LiFe(SiO3)2
_symmetry_space_group_name_H-M   'P 1'
_cell_length_a   18.52391177
_cell_length_b   9.55555661
_cell_length_c   5.20714786
_cell_angle_alpha   90.00000000
_cell_angle_beta   90.00000000
_cell_angle_gamma   90.00000000
_symmetry_Int_Tables_number   1
_chemical_formula_structural   LiFe(SiO3)2
_chemical_formula_sum   'Li8 Fe8 Si16 O48'
_cell_volume   921.69791146
_cell_formula_units_Z   8
loop_
 _symmetry_equiv_pos_site_id
 _symmetry_equiv_pos_as_xyz
  1  'x, y, z'
loop_
 _atom_site_type_symbol
 _atom_site_label
 _atom_site_symmetry_multiplicity
 _atom_site_fract_x
 _atom_site_fract_y
 _atom_site_fract_z
 _atom_site_occupancy
  Li  Li0  1  0.123772  0.362543  0.381687  1
  Li  Li1  1  0.123772  0.137457  0.881687  1
  Li  Li2  1  0.376228  0.637457  0.881687  1
  Li  Li3  1  0.376228  0.862543  0.381687  1
  Li  Li4  1  0.623772  0.137457  0.618313  1
  Li  Li5  1  0.623772  0.362543  0.118313  1
  Li  Li6  1  0.876228  0.637457  0.618313  1
  Li  Li7  1  0.876228  0.862543  0.118313  1
  Fe  Fe8  1  0.124452  0.024271  0.379259  1
  Fe  Fe9  1  0.124452  0.475729  0.879259  1
  Fe  Fe10  1  0.375548  0.975729  0.879259  1
  Fe  Fe11  1  0.375548  0.524271  0.379259  1
  Fe  Fe12  1  0.624452  0.475729  0.620741  1
  Fe  Fe13  1  0.624452  0.024271  0.120741  1
  Fe  Fe14  1  0.875548  0.975729  0.620741  1
  Fe  Fe15  1  0.875548  0.524271  0.120741  1
  Si  Si16  1  0.028139  0.667672  0.281395  1
  Si  Si17  1  0.028139  0.832328  0.781395  1
  Si  Si18  1  0.226522  0.661398  0.580111  1
  Si  Si19  1  0.226522  0.838602  0.080111  1
  Si  Si20  1  0.273478  0.161398  0.580111  1
  Si  Si21  1  0.273478  0.338602  0.080111  1
  Si  Si22  1  0.471861  0.167672  0.281395  1
  Si  Si23  1  0.471861  0.332328  0.781395  1
  Si  Si24  1  0.528139  0.667672  0.218605  1
  Si  Si25  1  0.528139  0.832328  0.718605  1
  Si  Si26  1  0.726522  0.661398  0.919889  1
  Si  Si27  1  0.726522  0.838602  0.419889  1
  Si  Si28  1  0.773478  0.161398  0.919889  1
  Si  Si29  1  0.773478  0.338602  0.419889  1
  Si  Si30  1  0.971861  0.167672  0.218605  1
  Si  Si31  1  0.971861  0.332328  0.718605  1
  O  O32  1  0.049865  0.699737  0.586627  1
  O  O33  1  0.049865  0.800263  0.086627  1
  O  O34  1  0.060119  0.151336  0.213438  1
  O  O35  1  0.060119  0.348664  0.713438  1
  O  O36  1  0.071921  0.532293  0.174630  1
  O  O37  1  0.071921  0.967707  0.674630  1
  O  O38  1  0.185540  0.151222  0.566739  1
  O  O39  1  0.185540  0.348778  0.066739  1
  O  O40  1  0.184784  0.989213  0.087249  1
  O  O41  1  0.184784  0.510787  0.587249  1
  O  O42  1  0.198894  0.736551  0.847398  1
  O  O43  1  0.198894  0.763449  0.347398  1
  O  O44  1  0.301106  0.236551  0.847398  1
  O  O45  1  0.301106  0.263449  0.347398  1
  O  O46  1  0.315216  0.489213  0.087249  1
  O  O47  1  0.315216  0.010787  0.587249  1
  O  O48  1  0.314460  0.651222  0.566739  1
  O  O49  1  0.314460  0.848778  0.066739  1
  O  O50  1  0.428079  0.032293  0.174630  1
  O  O51  1  0.428079  0.467707  0.674630  1
  O  O52  1  0.439881  0.651336  0.213438  1
  O  O53  1  0.439881  0.848664  0.713438  1
  O  O54  1  0.450135  0.199737  0.586627  1
  O  O55  1  0.450135  0.300263  0.086627  1
  O  O56  1  0.549865  0.699737  0.913373  1
  O  O57  1  0.549865  0.800263  0.413373  1
  O  O58  1  0.560119  0.151336  0.286562  1
  O  O59  1  0.560119  0.348664  0.786562  1
  O  O60  1  0.571921  0.532293  0.325370  1
  O  O61  1  0.571921  0.967707  0.825370  1
  O  O62  1  0.685540  0.151222  0.933261  1
  O  O63  1  0.685540  0.348778  0.433261  1
  O  O64  1  0.684784  0.989213  0.412751  1
  O  O65  1  0.684784  0.510787  0.912751  1
  O  O66  1  0.698894  0.736551  0.652602  1
  O  O67  1  0.698894  0.763449  0.152602  1
  O  O68  1  0.801106  0.236551  0.652602  1
  O  O69  1  0.801106  0.263449  0.152602  1
  O  O70  1  0.815216  0.489213  0.412751  1
  O  O71  1  0.815216  0.010787  0.912751  1
  O  O72  1  0.814460  0.651222  0.933261  1
  O  O73  1  0.814460  0.848778  0.433261  1
  O  O74  1  0.928079  0.032293  0.325370  1
  O  O75  1  0.928079  0.467707  0.825370  1
  O  O76  1  0.939881  0.651336  0.286562  1
  O  O77  1  0.939881  0.848664  0.786562  1
  O  O78  1  0.950135  0.199737  0.913373  1
  O  O79  1  0.950135  0.300263  0.413373  1
