# generated using pymatgen
data_Li4Ti3Ni3(WO8)2
_symmetry_space_group_name_H-M   'P 1'
_cell_length_a   5.99079446
_cell_length_b   5.94888252
_cell_length_c   9.74888102
_cell_angle_alpha   90.28641672
_cell_angle_beta   90.89786481
_cell_angle_gamma   120.01935678
_symmetry_Int_Tables_number   1
_chemical_formula_structural   Li4Ti3Ni3(WO8)2
_chemical_formula_sum   'Li4 Ti3 Ni3 W2 O16'
_cell_volume   300.75952222
_cell_formula_units_Z   1
loop_
 _symmetry_equiv_pos_site_id
 _symmetry_equiv_pos_as_xyz
  1  'x, y, z'
loop_
 _atom_site_type_symbol
 _atom_site_label
 _atom_site_symmetry_multiplicity
 _atom_site_fract_x
 _atom_site_fract_y
 _atom_site_fract_z
 _atom_site_occupancy
  Li  Li0  1  0.324312  0.661041  0.899665  1
  Li  Li1  1  0.988151  0.994171  0.984245  1
  Li  Li2  1  0.004232  0.001363  0.496000  1
  Li  Li3  1  0.665911  0.335112  0.409042  1
  Ti  Ti4  1  0.183775  0.842912  0.216895  1
  Ti  Ti5  1  0.175342  0.338619  0.214042  1
  Ti  Ti6  1  0.343379  0.180213  0.719030  1
  Ni  Ni7  1  0.659895  0.831153  0.209285  1
  Ni  Ni8  1  0.838414  0.658659  0.710460  1
  Ni  Ni9  1  0.836050  0.175583  0.710469  1
  W  W10  1  0.343930  0.672747  0.491131  1
  W  W11  1  0.681685  0.340850  0.982060  1
  O  O12  1  0.173016  0.833762  0.593236  1
  O  O13  1  0.042461  0.521179  0.340217  1
  O  O14  1  0.310622  0.655792  0.107404  1
  O  O15  1  0.007707  0.001406  0.305524  1
  O  O16  1  0.011638  0.008444  0.799226  1
  O  O17  1  0.181166  0.340445  0.595535  1
  O  O18  1  0.467117  0.966906  0.341585  1
  O  O19  1  0.467269  0.505761  0.338864  1
  O  O20  1  0.331420  0.163511  0.105290  1
  O  O21  1  0.663234  0.829579  0.582999  1
  O  O22  1  0.506893  0.474665  0.847929  1
  O  O23  1  0.500419  0.036734  0.857092  1
  O  O24  1  0.641083  0.313799  0.607870  1
  O  O25  1  0.839957  0.659225  0.095121  1
  O  O26  1  0.963484  0.482025  0.850135  1
  O  O27  1  0.847440  0.174644  0.097491  1
