# generated using pymatgen
data_H6Os5Pt2(CO)17
_symmetry_space_group_name_H-M   'P 1'
_cell_length_a   9.70148305
_cell_length_b   16.41071063
_cell_length_c   19.55722495
_cell_angle_alpha   90.00000000
_cell_angle_beta   91.17979352
_cell_angle_gamma   90.00000000
_symmetry_Int_Tables_number   1
_chemical_formula_structural   H6Os5Pt2(CO)17
_chemical_formula_sum   'H24 Os20 Pt8 C68 O68'
_cell_volume   3113.01111351
_cell_formula_units_Z   4
loop_
 _symmetry_equiv_pos_site_id
 _symmetry_equiv_pos_as_xyz
  1  'x, y, z'
loop_
 _atom_site_type_symbol
 _atom_site_label
 _atom_site_symmetry_multiplicity
 _atom_site_fract_x
 _atom_site_fract_y
 _atom_site_fract_z
 _atom_site_occupancy
  H  H0  1  0.441000  0.595028  0.086797  1
  H  H1  1  0.941000  0.904972  0.586797  1
  H  H2  1  0.559000  0.404972  0.913203  1
  H  H3  1  0.059000  0.095028  0.413203  1
  H  H4  1  0.517211  0.452681  0.130580  1
  H  H5  1  0.017211  0.047319  0.630580  1
  H  H6  1  0.482789  0.547319  0.869420  1
  H  H7  1  0.982789  0.952681  0.369420  1
  H  H8  1  0.700636  0.562851  0.080612  1
  H  H9  1  0.200636  0.937149  0.580612  1
  H  H10  1  0.299364  0.437149  0.919388  1
  H  H11  1  0.799364  0.062851  0.419388  1
  H  H12  1  0.769164  0.631332  0.261281  1
  H  H13  1  0.269164  0.868668  0.761281  1
  H  H14  1  0.230836  0.368668  0.738719  1
  H  H15  1  0.730836  0.131332  0.238719  1
  H  H16  1  0.477682  0.654804  0.276257  1
  H  H17  1  0.977682  0.845196  0.776257  1
  H  H18  1  0.522318  0.345196  0.723743  1
  H  H19  1  0.022318  0.154804  0.223743  1
  H  H20  1  0.687049  0.714240  0.340197  1
  H  H21  1  0.187049  0.785760  0.840197  1
  H  H22  1  0.312951  0.285760  0.659803  1
  H  H23  1  0.812951  0.214240  0.159803  1
  Os  Os24  1  0.600413  0.647996  0.111434  1
  Os  Os25  1  0.100413  0.852004  0.611434  1
  Os  Os26  1  0.399587  0.352004  0.888566  1
  Os  Os27  1  0.899587  0.147996  0.388566  1
  Os  Os28  1  0.400951  0.531025  0.158998  1
  Os  Os29  1  0.900951  0.968975  0.658998  1
  Os  Os30  1  0.599049  0.468975  0.841002  1
  Os  Os31  1  0.099049  0.031025  0.341002  1
  Os  Os32  1  0.695699  0.485505  0.147294  1
  Os  Os33  1  0.195699  0.014495  0.647294  1
  Os  Os34  1  0.304301  0.514495  0.852706  1
  Os  Os35  1  0.804301  0.985505  0.352706  1
  Os  Os36  1  0.809496  0.631848  0.351832  1
  Os  Os37  1  0.309496  0.868152  0.851832  1
  Os  Os38  1  0.190504  0.368152  0.648168  1
  Os  Os39  1  0.690504  0.131848  0.148168  1
  Os  Os40  1  0.516583  0.682506  0.365944  1
  Os  Os41  1  0.016583  0.817494  0.865944  1
  Os  Os42  1  0.483417  0.317494  0.634056  1
  Os  Os43  1  0.983417  0.182506  0.134056  1
  Pt  Pt44  1  0.604392  0.592275  0.244381  1
  Pt  Pt45  1  0.104392  0.907725  0.744381  1
  Pt  Pt46  1  0.395608  0.407725  0.755619  1
  Pt  Pt47  1  0.895608  0.092275  0.255619  1
  Pt  Pt48  1  0.605460  0.527198  0.390374  1
  Pt  Pt49  1  0.105460  0.972802  0.890374  1
  Pt  Pt50  1  0.394540  0.472802  0.609626  1
  Pt  Pt51  1  0.894540  0.027198  0.109626  1
  C  C52  1  0.720758  0.436324  0.413393  1
  C  C53  1  0.220758  0.063676  0.913393  1
  C  C54  1  0.279242  0.563676  0.586607  1
  C  C55  1  0.779242  0.936324  0.086607  1
  C  C56  1  0.426536  0.487576  0.412463  1
  C  C57  1  0.926535  0.012424  0.912463  1
  C  C58  1  0.573465  0.512424  0.587537  1
  C  C59  1  0.073465  0.987576  0.087537  1
  C  C60  1  0.597804  0.683916  0.018955  1
  C  C61  1  0.097804  0.816084  0.518955  1
  C  C62  1  0.402196  0.316084  0.981045  1
  C  C63  1  0.902196  0.183916  0.481045  1
  C  C64  1  0.774630  0.698690  0.130258  1
  C  C65  1  0.274630  0.801310  0.630258  1
  C  C66  1  0.225370  0.301310  0.869742  1
  C  C67  1  0.725370  0.198690  0.369742  1
  C  C68  1  0.500435  0.741919  0.140823  1
  C  C69  1  0.000435  0.758081  0.640823  1
  C  C70  1  0.499565  0.258081  0.859177  1
  C  C71  1  0.999565  0.241919  0.359177  1
  C  C72  1  0.272988  0.483573  0.094741  1
  C  C73  1  0.772988  0.016427  0.594741  1
  C  C74  1  0.727012  0.516427  0.905259  1
  C  C75  1  0.227012  0.983573  0.405259  1
  C  C76  1  0.358109  0.456863  0.231021  1
  C  C77  1  0.858109  0.043137  0.731021  1
  C  C78  1  0.641891  0.543137  0.768979  1
  C  C79  1  0.141891  0.956863  0.268979  1
  C  C80  1  0.275465  0.611960  0.189833  1
  C  C81  1  0.775465  0.888040  0.689833  1
  C  C82  1  0.724535  0.388040  0.810167  1
  C  C83  1  0.224535  0.111960  0.310167  1
  C  C84  1  0.883244  0.517438  0.160302  1
  C  C85  1  0.383244  0.982562  0.660302  1
  C  C86  1  0.116756  0.482562  0.839698  1
  C  C87  1  0.616756  0.017438  0.339698  1
  C  C88  1  0.710281  0.408860  0.220424  1
  C  C89  1  0.210281  0.091140  0.720424  1
  C  C90  1  0.289719  0.591140  0.779576  1
  C  C91  1  0.789719  0.908860  0.279576  1
  C  C92  1  0.728941  0.408689  0.075743  1
  C  C93  1  0.228941  0.091311  0.575743  1
  C  C94  1  0.271059  0.591311  0.924257  1
  C  C95  1  0.771059  0.908689  0.424257  1
  C  C96  1  0.860915  0.641785  0.446812  1
  C  C97  1  0.360915  0.858215  0.946812  1
  C  C98  1  0.139085  0.358215  0.553188  1
  C  C99  1  0.639085  0.141785  0.053188  1
  C  C100  1  0.936839  0.714027  0.322887  1
  C  C101  1  0.436839  0.785973  0.822887  1
  C  C102  1  0.063161  0.285973  0.677113  1
  C  C103  1  0.563161  0.214027  0.177113  1
  C  C104  1  0.934342  0.544089  0.338409  1
  C  C105  1  0.434342  0.955911  0.838409  1
  C  C106  1  0.065658  0.455911  0.661591  1
  C  C107  1  0.565658  0.044089  0.161591  1
  C  C108  1  0.328735  0.651602  0.372635  1
  C  C109  1  0.828735  0.848398  0.872635  1
  C  C110  1  0.671265  0.348398  0.627365  1
  C  C111  1  0.171265  0.151602  0.127365  1
  C  C112  1  0.536039  0.702114  0.462442  1
  C  C113  1  0.036039  0.797886  0.962442  1
  C  C114  1  0.463961  0.297886  0.537558  1
  C  C115  1  0.963961  0.202114  0.037558  1
  C  C116  1  0.474216  0.792265  0.339294  1
  C  C117  1  0.974216  0.707735  0.839294  1
  C  C118  1  0.525784  0.207735  0.660706  1
  C  C119  1  0.025784  0.292265  0.160706  1
  O  O120  1  0.783811  0.382275  0.435750  1
  O  O121  1  0.283811  0.117725  0.935750  1
  O  O122  1  0.216189  0.617725  0.564250  1
  O  O123  1  0.716189  0.882275  0.064250  1
  O  O124  1  0.318803  0.463373  0.426642  1
  O  O125  1  0.818803  0.036627  0.926642  1
  O  O126  1  0.681197  0.536627  0.573358  1
  O  O127  1  0.181197  0.963373  0.073358  1
  O  O128  1  0.597766  0.706749  0.962593  1
  O  O129  1  0.097766  0.793251  0.462593  1
  O  O130  1  0.402234  0.293251  0.037407  1
  O  O131  1  0.902234  0.206749  0.537407  1
  O  O132  1  0.881822  0.725802  0.143650  1
  O  O133  1  0.381822  0.774198  0.643650  1
  O  O134  1  0.118178  0.274198  0.856350  1
  O  O135  1  0.618178  0.225802  0.356350  1
  O  O136  1  0.443020  0.798288  0.161422  1
  O  O137  1  0.943020  0.701712  0.661422  1
  O  O138  1  0.556980  0.201712  0.838578  1
  O  O139  1  0.056980  0.298288  0.338578  1
  O  O140  1  0.193166  0.456577  0.055689  1
  O  O141  1  0.693166  0.043423  0.555689  1
  O  O142  1  0.806834  0.543423  0.944311  1
  O  O143  1  0.306834  0.956577  0.444311  1
  O  O144  1  0.336102  0.410254  0.273844  1
  O  O145  1  0.836102  0.089746  0.773844  1
  O  O146  1  0.663898  0.589746  0.726156  1
  O  O147  1  0.163898  0.910254  0.226156  1
  O  O148  1  0.202129  0.662498  0.208669  1
  O  O149  1  0.702129  0.837502  0.708669  1
  O  O150  1  0.797871  0.337502  0.791331  1
  O  O151  1  0.297871  0.162498  0.291331  1
  O  O152  1  0.995252  0.541081  0.166538  1
  O  O153  1  0.495252  0.958919  0.666538  1
  O  O154  1  0.004748  0.458919  0.833462  1
  O  O155  1  0.504748  0.041081  0.333462  1
  O  O156  1  0.726277  0.364417  0.266023  1
  O  O157  1  0.226277  0.135583  0.766023  1
  O  O158  1  0.273723  0.635583  0.733977  1
  O  O159  1  0.773723  0.864417  0.233977  1
  O  O160  1  0.749887  0.361774  0.032585  1
  O  O161  1  0.249887  0.138226  0.532585  1
  O  O162  1  0.250113  0.638226  0.967415  1
  O  O163  1  0.750113  0.861774  0.467415  1
  O  O164  1  0.898795  0.648579  0.503350  1
  O  O165  1  0.398794  0.851421  0.003350  1
  O  O166  1  0.101206  0.351421  0.496650  1
  O  O167  1  0.601205  0.148579  0.996650  1
  O  O168  1  0.012560  0.764492  0.305757  1
  O  O169  1  0.512560  0.735508  0.805757  1
  O  O170  1  0.987440  0.235508  0.694243  1
  O  O171  1  0.487440  0.264492  0.194243  1
  O  O172  1  0.007755  0.489791  0.328025  1
  O  O173  1  0.507755  0.010209  0.828025  1
  O  O174  1  0.992245  0.510209  0.671975  1
  O  O175  1  0.492245  0.989791  0.171975  1
  O  O176  1  0.214126  0.630964  0.374153  1
  O  O177  1  0.714126  0.869036  0.874153  1
  O  O178  1  0.785874  0.369036  0.625847  1
  O  O179  1  0.285874  0.130964  0.125847  1
  O  O180  1  0.539780  0.712253  0.521268  1
  O  O181  1  0.039780  0.787747  0.021268  1
  O  O182  1  0.460220  0.287747  0.478732  1
  O  O183  1  0.960220  0.212253  0.978732  1
  O  O184  1  0.445503  0.858182  0.322390  1
  O  O185  1  0.945503  0.641818  0.822390  1
  O  O186  1  0.554497  0.141818  0.677610  1
  O  O187  1  0.054497  0.358182  0.177610  1
