# generated using pymatgen
data_KNbPCO7
_symmetry_space_group_name_H-M   'P 1'
_cell_length_a   10.09314711
_cell_length_b   6.52485982
_cell_length_c   5.60847861
_cell_angle_alpha   90.00000000
_cell_angle_beta   88.58628180
_cell_angle_gamma   90.00000000
_symmetry_Int_Tables_number   1
_chemical_formula_structural   KNbPCO7
_chemical_formula_sum   'K2 Nb2 P2 C2 O14'
_cell_volume   369.24161519
_cell_formula_units_Z   2
loop_
 _symmetry_equiv_pos_site_id
 _symmetry_equiv_pos_as_xyz
  1  'x, y, z'
loop_
 _atom_site_type_symbol
 _atom_site_label
 _atom_site_symmetry_multiplicity
 _atom_site_fract_x
 _atom_site_fract_y
 _atom_site_fract_z
 _atom_site_occupancy
  K  K0  1  0.233010  0.439246  0.253405  1
  K  K1  1  0.766990  0.939246  0.746595  1
  Nb  Nb2  1  0.337030  0.777961  0.778846  1
  Nb  Nb3  1  0.662970  0.277961  0.221154  1
  P  P4  1  0.444022  0.270285  0.719857  1
  P  P5  1  0.555978  0.770285  0.280143  1
  C  C6  1  0.089379  0.735046  0.722335  1
  C  C7  1  0.910621  0.235046  0.277665  1
  O  O8  1  0.029185  0.213825  0.304742  1
  O  O9  1  0.150858  0.741655  0.934726  1
  O  O10  1  0.182022  0.752477  0.544658  1
  O  O11  1  0.351600  0.079211  0.770294  1
  O  O12  1  0.353379  0.459254  0.767663  1
  O  O13  1  0.439654  0.762489  0.109878  1
  O  O14  1  0.488247  0.266401  0.455829  1
  O  O15  1  0.511753  0.766401  0.544171  1
  O  O16  1  0.560346  0.262489  0.890123  1
  O  O17  1  0.646621  0.959254  0.232337  1
  O  O18  1  0.648400  0.579211  0.229706  1
  O  O19  1  0.817978  0.252477  0.455342  1
  O  O20  1  0.849142  0.241655  0.065274  1
  O  O21  1  0.970815  0.713825  0.695258  1
