# generated using pymatgen
data_ReH(CO)4
_symmetry_space_group_name_H-M   'P 1'
_cell_length_a   9.70738254
_cell_length_b   9.70738254
_cell_length_c   13.59918701
_cell_angle_alpha   85.88176711
_cell_angle_beta   94.11823289
_cell_angle_gamma   96.99405948
_symmetry_Int_Tables_number   1
_chemical_formula_structural   ReH(CO)4
_chemical_formula_sum   'Re8 H8 C32 O32'
_cell_volume   1266.09864837
_cell_formula_units_Z   8
loop_
 _symmetry_equiv_pos_site_id
 _symmetry_equiv_pos_as_xyz
  1  'x, y, z'
loop_
 _atom_site_type_symbol
 _atom_site_label
 _atom_site_symmetry_multiplicity
 _atom_site_fract_x
 _atom_site_fract_y
 _atom_site_fract_z
 _atom_site_occupancy
  Re  Re0  1  0.182235  0.389290  0.429366  1
  Re  Re1  1  0.389290  0.182235  0.070634  1
  Re  Re2  1  0.817765  0.610710  0.570634  1
  Re  Re3  1  0.610710  0.817765  0.929366  1
  Re  Re4  1  0.159632  0.714349  0.517305  1
  Re  Re5  1  0.714349  0.159632  0.982695  1
  Re  Re6  1  0.840368  0.285651  0.482695  1
  Re  Re7  1  0.285651  0.840368  0.017305  1
  H  H8  1  0.220679  0.550626  0.491994  1
  H  H9  1  0.550626  0.220679  0.008006  1
  H  H10  1  0.779321  0.449374  0.508006  1
  H  H11  1  0.449374  0.779321  0.991994  1
  H  H12  1  0.007278  0.395803  0.471967  1
  H  H13  1  0.395803  0.007278  0.028033  1
  H  H14  1  0.992722  0.604197  0.528033  1
  H  H15  1  0.604197  0.992722  0.971967  1
  C  C16  1  0.372351  0.438136  0.395042  1
  C  C17  1  0.438136  0.372351  0.104958  1
  C  C18  1  0.627649  0.561864  0.604958  1
  C  C19  1  0.561864  0.627649  0.895042  1
  C  C20  1  0.185445  0.205830  0.382821  1
  C  C21  1  0.205830  0.185445  0.117179  1
  C  C22  1  0.814555  0.794170  0.617179  1
  C  C23  1  0.794170  0.814555  0.882821  1
  C  C24  1  0.243305  0.318651  0.567089  1
  C  C25  1  0.318651  0.243305  0.932911  1
  C  C26  1  0.756695  0.681349  0.432911  1
  C  C27  1  0.681349  0.756695  0.067089  1
  C  C28  1  0.114730  0.462308  0.295973  1
  C  C29  1  0.462308  0.114730  0.204027  1
  C  C30  1  0.885270  0.537692  0.704027  1
  C  C31  1  0.537692  0.885270  0.795973  1
  C  C32  1  0.132132  0.894954  0.560019  1
  C  C33  1  0.894954  0.132132  0.939981  1
  C  C34  1  0.867868  0.105046  0.439981  1
  C  C35  1  0.105046  0.867868  0.060019  1
  C  C36  1  0.350725  0.781950  0.491020  1
  C  C37  1  0.781950  0.350725  0.008980  1
  C  C38  1  0.649275  0.218050  0.508980  1
  C  C39  1  0.218050  0.649275  0.991020  1
  C  C40  1  0.094130  0.770346  0.378602  1
  C  C41  1  0.770346  0.094130  0.121398  1
  C  C42  1  0.905870  0.229654  0.621398  1
  C  C43  1  0.229654  0.905870  0.878602  1
  C  C44  1  0.216511  0.650757  0.655693  1
  C  C45  1  0.650757  0.216511  0.844307  1
  C  C46  1  0.783489  0.349243  0.344307  1
  C  C47  1  0.349243  0.783489  0.155693  1
  O  O48  1  0.487234  0.468389  0.374822  1
  O  O49  1  0.468389  0.487234  0.125178  1
  O  O50  1  0.512766  0.531611  0.625178  1
  O  O51  1  0.531611  0.512766  0.874822  1
  O  O52  1  0.197629  0.096479  0.356366  1
  O  O53  1  0.096479  0.197629  0.143634  1
  O  O54  1  0.802371  0.903521  0.643634  1
  O  O55  1  0.903521  0.802371  0.856366  1
  O  O56  1  0.280858  0.278599  0.644875  1
  O  O57  1  0.278599  0.280858  0.855125  1
  O  O58  1  0.719142  0.721401  0.355125  1
  O  O59  1  0.721401  0.719142  0.144875  1
  O  O60  1  0.078870  0.504336  0.217568  1
  O  O61  1  0.504336  0.078870  0.282432  1
  O  O62  1  0.921130  0.495664  0.782432  1
  O  O63  1  0.495664  0.921130  0.717568  1
  O  O64  1  0.121886  0.005499  0.584654  1
  O  O65  1  0.005499  0.121886  0.915346  1
  O  O66  1  0.878114  0.994501  0.415346  1
  O  O67  1  0.994501  0.878114  0.084654  1
  O  O68  1  0.466284  0.820942  0.476282  1
  O  O69  1  0.820942  0.466284  0.023718  1
  O  O70  1  0.533716  0.179058  0.523718  1
  O  O71  1  0.179058  0.533716  0.976282  1
  O  O72  1  0.058609  0.804205  0.298585  1
  O  O73  1  0.804205  0.058609  0.201415  1
  O  O74  1  0.941391  0.195795  0.701415  1
  O  O75  1  0.195795  0.941391  0.798585  1
  O  O76  1  0.250401  0.616824  0.736167  1
  O  O77  1  0.616824  0.250401  0.763833  1
  O  O78  1  0.749599  0.383176  0.263833  1
  O  O79  1  0.383176  0.749599  0.236167  1
