# generated using pymatgen
data_V4O7F5
_symmetry_space_group_name_H-M   'P 1'
_cell_length_a   5.15185813
_cell_length_b   7.55434502
_cell_length_c   5.37351814
_cell_angle_alpha   91.98404055
_cell_angle_beta   91.66834458
_cell_angle_gamma   89.90675080
_symmetry_Int_Tables_number   1
_chemical_formula_structural   V4O7F5
_chemical_formula_sum   'V4 O7 F5'
_cell_volume   208.91747860
_cell_formula_units_Z   1
loop_
 _symmetry_equiv_pos_site_id
 _symmetry_equiv_pos_as_xyz
  1  'x, y, z'
loop_
 _atom_site_type_symbol
 _atom_site_label
 _atom_site_symmetry_multiplicity
 _atom_site_fract_x
 _atom_site_fract_y
 _atom_site_fract_z
 _atom_site_occupancy
  V  V0  1  0.519793  0.502928  0.450978  1
  V  V1  1  0.499833  0.002187  0.553740  1
  V  V2  1  0.030526  0.491269  0.962776  1
  V  V3  1  0.979835  0.996481  0.053100  1
  O  O4  1  0.786803  0.538744  0.294172  1
  O  O5  1  0.783226  0.963147  0.708941  1
  O  O6  1  0.711653  0.960324  0.208918  1
  O  O7  1  0.293839  0.465060  0.219350  1
  O  O8  1  0.290522  0.039058  0.778255  1
  O  O9  1  0.211636  0.037039  0.275820  1
  O  O10  1  0.210553  0.461672  0.714193  1
  F  F11  1  0.906447  0.246297  0.994823  1
  F  F12  1  0.697501  0.541207  0.789012  1
  F  F13  1  0.586714  0.252343  0.501777  1
  F  F14  1  0.410790  0.750249  0.497547  1
  F  F15  1  0.080328  0.751993  0.996597  1
