# generated using pymatgen
data_H5C3N5O
_symmetry_space_group_name_H-M   'P 1'
_cell_length_a   4.85722852
_cell_length_b   9.74905637
_cell_length_c   11.79394784
_cell_angle_alpha   90.00000000
_cell_angle_beta   97.21066660
_cell_angle_gamma   90.00000000
_symmetry_Int_Tables_number   1
_chemical_formula_structural   H5C3N5O
_chemical_formula_sum   'H20 C12 N20 O4'
_cell_volume   554.06661717
_cell_formula_units_Z   4
loop_
 _symmetry_equiv_pos_site_id
 _symmetry_equiv_pos_as_xyz
  1  'x, y, z'
loop_
 _atom_site_type_symbol
 _atom_site_label
 _atom_site_symmetry_multiplicity
 _atom_site_fract_x
 _atom_site_fract_y
 _atom_site_fract_z
 _atom_site_occupancy
  H  H0  1  0.209332  0.914266  0.732063  1
  H  H1  1  0.222140  0.094797  0.719666  1
  H  H2  1  0.990030  0.159097  0.075453  1
  H  H3  1  0.277860  0.594797  0.780334  1
  H  H4  1  0.290668  0.414266  0.767937  1
  H  H5  1  0.084998  0.379520  0.038334  1
  H  H6  1  0.238102  0.540225  0.393221  1
  H  H7  1  0.261898  0.040225  0.106779  1
  H  H8  1  0.415002  0.879520  0.461666  1
  H  H9  1  0.490030  0.340903  0.575453  1
  H  H10  1  0.509970  0.659097  0.424547  1
  H  H11  1  0.584998  0.120480  0.538334  1
  H  H12  1  0.738102  0.959775  0.893221  1
  H  H13  1  0.761898  0.459775  0.606779  1
  H  H14  1  0.915002  0.620480  0.961666  1
  H  H15  1  0.709333  0.585734  0.232063  1
  H  H16  1  0.722140  0.405203  0.219666  1
  H  H17  1  0.009970  0.840903  0.924547  1
  H  H18  1  0.777860  0.905203  0.280334  1
  H  H19  1  0.790667  0.085734  0.267937  1
  C  C20  1  0.111761  0.994036  0.371595  1
  C  C21  1  0.120262  0.740553  0.384409  1
  C  C22  1  0.173424  0.228147  0.377039  1
  C  C23  1  0.326576  0.728147  0.122961  1
  C  C24  1  0.611761  0.505964  0.871595  1
  C  C25  1  0.620262  0.759447  0.884409  1
  C  C26  1  0.379738  0.240553  0.115591  1
  C  C27  1  0.388239  0.494036  0.128405  1
  C  C28  1  0.673424  0.271853  0.877039  1
  C  C29  1  0.826576  0.771853  0.622961  1
  C  C30  1  0.879738  0.259447  0.615591  1
  C  C31  1  0.888239  0.005964  0.628405  1
  N  N32  1  0.127796  0.003613  0.696172  1
  N  N33  1  0.115015  0.343490  0.355543  1
  N  N34  1  0.227065  0.871629  0.410571  1
  N  N35  1  0.372204  0.503613  0.803828  1
  N  N36  1  0.260454  0.105140  0.407978  1
  N  N37  1  0.197172  0.138850  0.088731  1
  N  N38  1  0.302828  0.638850  0.411269  1
  N  N39  1  0.239546  0.605140  0.092022  1
  N  N40  1  0.272935  0.371629  0.089429  1
  N  N41  1  0.615015  0.156510  0.855543  1
  N  N42  1  0.384985  0.843490  0.144457  1
  N  N43  1  0.727065  0.628371  0.910571  1
  N  N44  1  0.760454  0.394860  0.907978  1
  N  N45  1  0.697172  0.361150  0.588731  1
  N  N46  1  0.802828  0.861150  0.911269  1
  N  N47  1  0.739546  0.894860  0.592022  1
  N  N48  1  0.627796  0.496387  0.196172  1
  N  N49  1  0.772935  0.128371  0.589429  1
  N  N50  1  0.884985  0.656510  0.644457  1
  N  N51  1  0.872204  0.996387  0.303828  1
  O  O52  1  0.126654  0.278172  0.658039  1
  O  O53  1  0.373346  0.778172  0.841961  1
  O  O54  1  0.626654  0.221828  0.158039  1
  O  O55  1  0.873346  0.721828  0.341961  1
