# generated using pymatgen
data_Li2MnCu3O8
_symmetry_space_group_name_H-M   'P 1'
_cell_length_a   8.31883851
_cell_length_b   8.32117331
_cell_length_c   8.28205126
_cell_angle_alpha   90.03011785
_cell_angle_beta   89.94108391
_cell_angle_gamma   90.01785212
_symmetry_Int_Tables_number   1
_chemical_formula_structural   Li2MnCu3O8
_chemical_formula_sum   'Li8 Mn4 Cu12 O32'
_cell_volume   573.30385825
_cell_formula_units_Z   4
loop_
 _symmetry_equiv_pos_site_id
 _symmetry_equiv_pos_as_xyz
  1  'x, y, z'
loop_
 _atom_site_type_symbol
 _atom_site_label
 _atom_site_symmetry_multiplicity
 _atom_site_fract_x
 _atom_site_fract_y
 _atom_site_fract_z
 _atom_site_occupancy
  Li  Li0  1  0.996181  0.998998  0.996401  1
  Li  Li1  1  0.251822  0.251652  0.251890  1
  Li  Li2  1  0.249062  0.746281  0.753575  1
  Li  Li3  1  0.501497  0.001606  0.498244  1
  Li  Li4  1  0.498159  0.501694  0.001094  1
  Li  Li5  1  0.751916  0.248415  0.748989  1
  Li  Li6  1  0.748366  0.750524  0.249036  1
  Li  Li7  1  0.000316  0.498324  0.500917  1
  Mn  Mn8  1  0.124872  0.874803  0.374899  1
  Mn  Mn9  1  0.375493  0.125457  0.875027  1
  Mn  Mn10  1  0.625983  0.625019  0.625960  1
  Mn  Mn11  1  0.875123  0.375897  0.124081  1
  Cu  Cu12  1  0.128032  0.122298  0.624972  1
  Cu  Cu13  1  0.125478  0.371295  0.878046  1
  Cu  Cu14  1  0.123120  0.625365  0.128951  1
  Cu  Cu15  1  0.378191  0.375252  0.627887  1
  Cu  Cu16  1  0.375710  0.627973  0.377830  1
  Cu  Cu17  1  0.372286  0.878015  0.124975  1
  Cu  Cu18  1  0.628588  0.378571  0.375024  1
  Cu  Cu19  1  0.625132  0.128183  0.122095  1
  Cu  Cu20  1  0.621198  0.875458  0.871906  1
  Cu  Cu21  1  0.877877  0.125586  0.372156  1
  Cu  Cu22  1  0.875357  0.873113  0.621053  1
  Cu  Cu23  1  0.871785  0.621859  0.875077  1
  O  O24  1  0.116246  0.107600  0.384582  1
  O  O25  1  0.116980  0.880841  0.608333  1
  O  O26  1  0.111024  0.607747  0.895624  1
  O  O27  1  0.141878  0.133975  0.865370  1
  O  O28  1  0.108571  0.382532  0.118453  1
  O  O29  1  0.140029  0.362014  0.640124  1
  O  O30  1  0.134173  0.640592  0.363702  1
  O  O31  1  0.130884  0.866925  0.141601  1
  O  O32  1  0.367860  0.134466  0.641342  1
  O  O33  1  0.365350  0.358195  0.866928  1
  O  O34  1  0.359605  0.639899  0.137967  1
  O  O35  1  0.391839  0.616105  0.618553  1
  O  O36  1  0.357592  0.866329  0.365315  1
  O  O37  1  0.391676  0.390335  0.389578  1
  O  O38  1  0.384508  0.117890  0.108655  1
  O  O39  1  0.384078  0.891938  0.884514  1
  O  O40  1  0.618368  0.391208  0.616215  1
  O  O41  1  0.615778  0.616345  0.390896  1
  O  O42  1  0.612037  0.890110  0.109756  1
  O  O43  1  0.641137  0.368231  0.133776  1
  O  O44  1  0.608231  0.115443  0.883247  1
  O  O45  1  0.640310  0.141403  0.360345  1
  O  O46  1  0.632465  0.858548  0.631630  1
  O  O47  1  0.632153  0.633989  0.859050  1
  O  O48  1  0.866234  0.365625  0.359150  1
  O  O49  1  0.865955  0.141846  0.131512  1
  O  O50  1  0.857444  0.860982  0.854727  1
  O  O51  1  0.890610  0.884132  0.385923  1
  O  O52  1  0.858256  0.633004  0.632035  1
  O  O53  1  0.889892  0.109796  0.611904  1
  O  O54  1  0.884150  0.382291  0.891084  1
  O  O55  1  0.883142  0.608168  0.118162  1
