# generated using pymatgen
data_Li3Fe2(SiO4)2
_symmetry_space_group_name_H-M   'P 1'
_cell_length_a   6.22656118
_cell_length_b   5.52854083
_cell_length_c   5.03503929
_cell_angle_alpha   90.82165746
_cell_angle_beta   90.20898190
_cell_angle_gamma   89.42983512
_symmetry_Int_Tables_number   1
_chemical_formula_structural   Li3Fe2(SiO4)2
_chemical_formula_sum   'Li3 Fe2 Si2 O8'
_cell_volume   173.29770610
_cell_formula_units_Z   1
loop_
 _symmetry_equiv_pos_site_id
 _symmetry_equiv_pos_as_xyz
  1  'x, y, z'
loop_
 _atom_site_type_symbol
 _atom_site_label
 _atom_site_symmetry_multiplicity
 _atom_site_fract_x
 _atom_site_fract_y
 _atom_site_fract_z
 _atom_site_occupancy
  Li  Li0  1  0.244941  0.663341  0.495630  1
  Li  Li1  1  0.755508  0.669976  0.495918  1
  Li  Li2  1  0.753394  0.335359  0.995102  1
  Fe  Fe3  1  0.005788  0.834992  0.987409  1
  Fe  Fe4  1  0.493537  0.165357  0.501785  1
  Si  Si5  1  0.996128  0.164590  0.511214  1
  Si  Si6  1  0.503511  0.832195  0.991705  1
  O  O7  1  0.998976  0.880919  0.398788  1
  O  O8  1  0.980065  0.165398  0.831439  1
  O  O9  1  0.219823  0.306959  0.422405  1
  O  O10  1  0.288358  0.703862  0.880610  1
  O  O11  1  0.520373  0.109738  0.871273  1
  O  O12  1  0.500787  0.851289  0.325004  1
  O  O13  1  0.717828  0.676558  0.899592  1
  O  O14  1  0.771440  0.308530  0.398047  1
