# generated using pymatgen
data_Li7Y7Zr9S32
_symmetry_space_group_name_H-M   'P 1'
_cell_length_a   7.86758227
_cell_length_b   7.74640400
_cell_length_c   25.33612681
_cell_angle_alpha   100.04966835
_cell_angle_beta   99.33347430
_cell_angle_gamma   58.97557579
_symmetry_Int_Tables_number   1
_chemical_formula_structural   Li7Y7Zr9S32
_chemical_formula_sum   'Li7 Y7 Zr9 S32'
_cell_volume   1298.14543608
_cell_formula_units_Z   1
loop_
 _symmetry_equiv_pos_site_id
 _symmetry_equiv_pos_as_xyz
  1  'x, y, z'
loop_
 _atom_site_type_symbol
 _atom_site_label
 _atom_site_symmetry_multiplicity
 _atom_site_fract_x
 _atom_site_fract_y
 _atom_site_fract_z
 _atom_site_occupancy
  Li  Li0  1  0.688109  0.689319  0.062825  1
  Li  Li1  1  0.999721  0.998987  0.000025  1
  Li  Li2  1  0.437931  0.438234  0.312463  1
  Li  Li3  1  0.501332  0.498212  0.500431  1
  Li  Li4  1  0.936004  0.939579  0.811926  1
  Li  Li5  1  0.185668  0.189582  0.561340  1
  Li  Li6  1  0.251315  0.248093  0.750248  1
  Y  Y7  1  0.967811  0.968133  0.405927  1
  Y  Y8  1  0.217981  0.218598  0.157007  1
  Y  Y9  1  0.469893  0.967824  0.405846  1
  Y  Y10  1  0.218135  0.718643  0.656012  1
  Y  Y11  1  0.719178  0.718696  0.656019  1
  Y  Y12  1  0.968209  0.468665  0.906236  1
  Y  Y13  1  0.469481  0.468360  0.906118  1
  Zr  Zr14  1  0.344132  0.344362  0.031752  1
  Zr  Zr15  1  0.217658  0.725147  0.158368  1
  Zr  Zr16  1  0.726209  0.217997  0.158679  1
  Zr  Zr17  1  0.844216  0.842760  0.530517  1
  Zr  Zr18  1  0.093240  0.093966  0.280999  1
  Zr  Zr19  1  0.964548  0.474489  0.405129  1
  Zr  Zr20  1  0.593449  0.592979  0.780358  1
  Zr  Zr21  1  0.719243  0.217083  0.655643  1
  Zr  Zr22  1  0.469720  0.967708  0.905970  1
  S  S23  1  0.917637  0.916086  0.214839  1
  S  S24  1  0.379590  0.904786  0.217949  1
  S  S25  1  0.056480  0.530076  0.093848  1
  S  S26  1  0.520040  0.519839  0.096467  1
  S  S27  1  0.531694  0.056039  0.094411  1
  S  S28  1  0.266513  0.802748  0.339284  1
  S  S29  1  0.411890  0.412295  0.212739  1
  S  S30  1  0.902378  0.382816  0.217792  1
  S  S31  1  0.024853  0.024545  0.098902  1
  S  S32  1  0.792986  0.762392  0.349020  1
  S  S33  1  0.135091  0.654934  0.469563  1
  S  S34  1  0.678747  0.655887  0.469346  1
  S  S35  1  0.803300  0.280877  0.342794  1
  S  S36  1  0.256980  0.280689  0.341944  1
  S  S37  1  0.019327  0.552485  0.591204  1
  S  S38  1  0.146781  0.170850  0.463603  1
  S  S39  1  0.895992  0.922457  0.714193  1
  S  S40  1  0.667850  0.135167  0.471923  1
  S  S41  1  0.418584  0.884715  0.721891  1
  S  S42  1  0.541525  0.515267  0.598567  1
  S  S43  1  0.884120  0.405667  0.719326  1
  S  S44  1  0.429291  0.406254  0.719214  1
  S  S45  1  0.553033  0.032915  0.593863  1
  S  S46  1  0.758605  0.781931  0.844039  1
  S  S47  1  0.303200  0.782741  0.843842  1
  S  S48  1  0.008101  0.032389  0.593975  1
  S  S49  1  0.769795  0.302454  0.841209  1
  S  S50  1  0.646031  0.672454  0.964402  1
  S  S51  1  0.170332  0.634495  0.972519  1
  S  S52  1  0.291138  0.265466  0.848543  1
  S  S53  1  0.633916  0.155313  0.969164  1
  S  S54  1  0.181017  0.155553  0.969787  1
