# generated using pymatgen
data_Li2FeCo3O8
_symmetry_space_group_name_H-M   'P 1'
_cell_length_a   5.73522385
_cell_length_b   5.73522435
_cell_length_c   5.73522435
_cell_angle_alpha   59.66879169
_cell_angle_beta   59.66879105
_cell_angle_gamma   59.66879254
_symmetry_Int_Tables_number   1
_chemical_formula_structural   Li2FeCo3O8
_chemical_formula_sum   'Li2 Fe1 Co3 O8'
_cell_volume   132.39020648
_cell_formula_units_Z   1
loop_
 _symmetry_equiv_pos_site_id
 _symmetry_equiv_pos_as_xyz
  1  'x, y, z'
loop_
 _atom_site_type_symbol
 _atom_site_label
 _atom_site_symmetry_multiplicity
 _atom_site_fract_x
 _atom_site_fract_y
 _atom_site_fract_z
 _atom_site_occupancy
  Li  Li0  1  0.123015  0.123015  0.123015  1
  Li  Li1  1  0.498883  0.498883  0.498883  1
  Fe  Fe2  1  0.881154  0.881154  0.881154  1
  Co  Co3  1  0.011149  0.498395  0.498395  1
  Co  Co4  1  0.498395  0.498395  0.011149  1
  Co  Co5  1  0.498395  0.011149  0.498395  1
  O  O6  1  0.264549  0.264549  0.264549  1
  O  O7  1  0.245988  0.711891  0.245988  1
  O  O8  1  0.245988  0.245988  0.711891  1
  O  O9  1  0.711891  0.245988  0.245988  1
  O  O10  1  0.285861  0.746683  0.746683  1
  O  O11  1  0.746683  0.746683  0.285861  1
  O  O12  1  0.746683  0.285861  0.746683  1
  O  O13  1  0.741367  0.741367  0.741367  1
