# generated using pymatgen
data_Ba2LaI7
_symmetry_space_group_name_H-M   'P 1'
_cell_length_a   9.29315816
_cell_length_b   10.34785316
_cell_length_c   11.23072188
_cell_angle_alpha   114.26521208
_cell_angle_beta   114.43988241
_cell_angle_gamma   63.31802151
_symmetry_Int_Tables_number   1
_chemical_formula_structural   Ba2LaI7
_chemical_formula_sum   'Ba4 La2 I14'
_cell_volume   844.19099244
_cell_formula_units_Z   2
loop_
 _symmetry_equiv_pos_site_id
 _symmetry_equiv_pos_as_xyz
  1  'x, y, z'
loop_
 _atom_site_type_symbol
 _atom_site_label
 _atom_site_symmetry_multiplicity
 _atom_site_fract_x
 _atom_site_fract_y
 _atom_site_fract_z
 _atom_site_occupancy
  Ba  Ba0  1  0.704562  0.909156  0.306658  1
  Ba  Ba1  1  0.307061  0.590844  0.193342  1
  Ba  Ba2  1  0.692939  0.409156  0.806658  1
  Ba  Ba3  1  0.295438  0.090844  0.693342  1
  La  La4  1  0.986610  0.750000  0.750000  1
  La  La5  1  0.013390  0.250000  0.250000  1
  I  I6  1  0.931417  0.903033  0.078953  1
  I  I7  1  0.319198  0.959042  0.352489  1
  I  I8  1  0.117819  0.797306  0.538134  1
  I  I9  1  0.619199  0.750000  0.750000  1
  I  I10  1  0.925751  0.540958  0.147511  1
  I  I11  1  0.755498  0.596967  0.421047  1
  I  I12  1  0.376990  0.702694  0.961866  1
  I  I13  1  0.623010  0.297306  0.038134  1
  I  I14  1  0.244502  0.403033  0.578953  1
  I  I15  1  0.074249  0.459042  0.852489  1
  I  I16  1  0.380801  0.250000  0.250000  1
  I  I17  1  0.882181  0.202694  0.461866  1
  I  I18  1  0.680802  0.040958  0.647511  1
  I  I19  1  0.068583  0.096967  0.921047  1
