# generated using pymatgen
data_Fe6O7F5
_symmetry_space_group_name_H-M   'P 1'
_cell_length_a   4.72740008
_cell_length_b   7.74244178
_cell_length_c   5.60896114
_cell_angle_alpha   94.23121985
_cell_angle_beta   90.79788093
_cell_angle_gamma   89.39582586
_symmetry_Int_Tables_number   1
_chemical_formula_structural   Fe6O7F5
_chemical_formula_sum   'Fe6 O7 F5'
_cell_volume   204.70833484
_cell_formula_units_Z   1
loop_
 _symmetry_equiv_pos_site_id
 _symmetry_equiv_pos_as_xyz
  1  'x, y, z'
loop_
 _atom_site_type_symbol
 _atom_site_label
 _atom_site_symmetry_multiplicity
 _atom_site_fract_x
 _atom_site_fract_y
 _atom_site_fract_z
 _atom_site_occupancy
  Fe  Fe0  1  0.478836  0.666837  0.151728  1
  Fe  Fe1  1  0.494723  0.998209  0.500578  1
  Fe  Fe2  1  0.543083  0.340795  0.837752  1
  Fe  Fe3  1  0.028354  0.663205  0.675618  1
  Fe  Fe4  1  0.941797  0.324218  0.343383  1
  Fe  Fe5  1  0.005712  0.004381  0.996261  1
  O  O6  1  0.817836  0.444440  0.634398  1
  O  O7  1  0.796941  0.093687  0.290513  1
  O  O8  1  0.697714  0.102775  0.787837  1
  O  O9  1  0.689329  0.443347  0.139303  1
  O  O10  1  0.313925  0.561333  0.863164  1
  O  O11  1  0.301583  0.895227  0.207921  1
  O  O12  1  0.195612  0.895289  0.705660  1
  F  F13  1  0.802238  0.767042  0.963802  1
  F  F14  1  0.702031  0.760817  0.462986  1
  F  F15  1  0.299362  0.238479  0.532390  1
  F  F16  1  0.195791  0.238823  0.041672  1
  F  F17  1  0.195133  0.561096  0.365031  1
