# generated using pymatgen
data_LiNiPO4
_symmetry_space_group_name_H-M   'P 1'
_cell_length_a   6.32815096
_cell_length_b   9.34644730
_cell_length_c   5.94327933
_cell_angle_alpha   95.32694769
_cell_angle_beta   99.73408827
_cell_angle_gamma   74.00910335
_symmetry_Int_Tables_number   1
_chemical_formula_structural   LiNiPO4
_chemical_formula_sum   'Li4 Ni4 P4 O16'
_cell_volume   332.65549003
_cell_formula_units_Z   4
loop_
 _symmetry_equiv_pos_site_id
 _symmetry_equiv_pos_as_xyz
  1  'x, y, z'
loop_
 _atom_site_type_symbol
 _atom_site_label
 _atom_site_symmetry_multiplicity
 _atom_site_fract_x
 _atom_site_fract_y
 _atom_site_fract_z
 _atom_site_occupancy
  Li  Li0  1  0.174778  0.267591  0.587154  1
  Li  Li1  1  0.342454  0.669621  0.437402  1
  Li  Li2  1  0.657546  0.330379  0.562598  1
  Li  Li3  1  0.825222  0.732409  0.412846  1
  Ni  Ni4  1  0.078448  0.716455  0.991247  1
  Ni  Ni5  1  0.352959  0.933265  0.806244  1
  Ni  Ni6  1  0.647041  0.066735  0.193757  1
  Ni  Ni7  1  0.921552  0.283545  0.008753  1
  P  P8  1  0.283813  0.379998  0.152432  1
  P  P9  1  0.184320  0.999479  0.285633  1
  P  P10  1  0.815680  0.000521  0.714367  1
  P  P11  1  0.716187  0.620002  0.847568  1
  O  O12  1  0.260450  0.051169  0.530536  1
  O  O13  1  0.106489  0.362935  0.294715  1
  O  O14  1  0.209425  0.320299  0.908289  1
  O  O15  1  0.047257  0.895899  0.802681  1
  O  O16  1  0.350342  0.014465  0.130839  1
  O  O17  1  0.291846  0.544704  0.163695  1
  O  O18  1  0.174548  0.835764  0.275507  1
  O  O19  1  0.478637  0.710660  0.741444  1
  O  O20  1  0.521363  0.289340  0.258556  1
  O  O21  1  0.825452  0.164236  0.724493  1
  O  O22  1  0.708154  0.455296  0.836305  1
  O  O23  1  0.649658  0.985534  0.869161  1
  O  O24  1  0.952743  0.104101  0.197319  1
  O  O25  1  0.790575  0.679701  0.091711  1
  O  O26  1  0.893511  0.637065  0.705285  1
  O  O27  1  0.739550  0.948831  0.469464  1
