# generated using pymatgen
data_KB3(H3O4)2
_symmetry_space_group_name_H-M   'P 1'
_cell_length_a   9.65843828
_cell_length_b   9.65843828
_cell_length_c   17.00555054
_cell_angle_alpha   73.70461671
_cell_angle_beta   106.29538329
_cell_angle_gamma   141.96808515
_symmetry_Int_Tables_number   1
_chemical_formula_structural   KB3(H3O4)2
_chemical_formula_sum   'K4 B12 H24 O32'
_cell_volume   933.32718355
_cell_formula_units_Z   4
loop_
 _symmetry_equiv_pos_site_id
 _symmetry_equiv_pos_as_xyz
  1  'x, y, z'
loop_
 _atom_site_type_symbol
 _atom_site_label
 _atom_site_symmetry_multiplicity
 _atom_site_fract_x
 _atom_site_fract_y
 _atom_site_fract_z
 _atom_site_occupancy
  K  K0  1  0.078456  0.078456  0.750000  1
  K  K1  1  0.921544  0.921544  0.250000  1
  K  K2  1  0.000000  0.500000  0.500000  1
  K  K3  1  0.500000  0.000000  0.000000  1
  B  B4  1  0.866227  0.153441  0.888790  1
  B  B5  1  0.153441  0.866227  0.611210  1
  B  B6  1  0.133773  0.846559  0.111210  1
  B  B7  1  0.846559  0.133773  0.388790  1
  B  B8  1  0.521567  0.420945  0.881446  1
  B  B9  1  0.420945  0.521567  0.618554  1
  B  B10  1  0.478433  0.579055  0.118554  1
  B  B11  1  0.579055  0.478433  0.381446  1
  B  B12  1  0.390844  0.593037  0.858392  1
  B  B13  1  0.593037  0.390844  0.641608  1
  B  B14  1  0.609156  0.406963  0.141608  1
  B  B15  1  0.406963  0.609156  0.358392  1
  H  H16  1  0.426322  0.933702  0.596587  1
  H  H17  1  0.933702  0.426322  0.903413  1
  H  H18  1  0.573678  0.066298  0.403413  1
  H  H19  1  0.066298  0.573678  0.096587  1
  H  H20  1  0.619813  0.930438  0.594669  1
  H  H21  1  0.930438  0.619813  0.905331  1
  H  H22  1  0.380187  0.069562  0.405331  1
  H  H23  1  0.069562  0.380187  0.094669  1
  H  H24  1  0.893773  0.321342  0.718377  1
  H  H25  1  0.321342  0.893773  0.781623  1
  H  H26  1  0.106227  0.678658  0.281623  1
  H  H27  1  0.678658  0.106227  0.218377  1
  H  H28  1  0.159355  0.150748  0.074494  1
  H  H29  1  0.150748  0.159355  0.425506  1
  H  H30  1  0.840645  0.849252  0.925506  1
  H  H31  1  0.849252  0.840645  0.574494  1
  H  H32  1  0.121662  0.716512  0.855442  1
  H  H33  1  0.716512  0.121662  0.644558  1
  H  H34  1  0.878338  0.283488  0.144558  1
  H  H35  1  0.283488  0.878338  0.355442  1
  H  H36  1  0.905702  0.250047  0.736716  1
  H  H37  1  0.250047  0.905702  0.763284  1
  H  H38  1  0.094298  0.749953  0.263284  1
  H  H39  1  0.749953  0.094298  0.236716  1
  O  O40  1  0.879539  0.050928  0.866884  1
  O  O41  1  0.050928  0.879539  0.633116  1
  O  O42  1  0.120461  0.949072  0.133116  1
  O  O43  1  0.949072  0.120461  0.366884  1
  O  O44  1  0.829978  0.240463  0.909441  1
  O  O45  1  0.240463  0.829978  0.590559  1
  O  O46  1  0.170022  0.759537  0.090559  1
  O  O47  1  0.759537  0.170022  0.409441  1
  O  O48  1  0.327707  0.665578  0.857871  1
  O  O49  1  0.665578  0.327707  0.642129  1
  O  O50  1  0.672293  0.334422  0.142129  1
  O  O51  1  0.334422  0.672293  0.357871  1
  O  O52  1  0.411954  0.225916  0.869040  1
  O  O53  1  0.225916  0.411954  0.630960  1
  O  O54  1  0.588046  0.774084  0.130960  1
  O  O55  1  0.774084  0.588046  0.369040  1
  O  O56  1  0.823721  0.740381  0.967142  1
  O  O57  1  0.740381  0.823721  0.532858  1
  O  O58  1  0.176279  0.259619  0.032858  1
  O  O59  1  0.259619  0.176279  0.467142  1
  O  O60  1  0.444627  0.509199  0.853363  1
  O  O61  1  0.509199  0.444627  0.646637  1
  O  O62  1  0.555373  0.490801  0.146637  1
  O  O63  1  0.490801  0.555373  0.353363  1
  O  O64  1  0.034860  0.619700  0.903216  1
  O  O65  1  0.619700  0.034860  0.596784  1
  O  O66  1  0.965140  0.380300  0.096784  1
  O  O67  1  0.380300  0.965140  0.403216  1
  O  O68  1  0.589559  0.754479  0.584258  1
  O  O69  1  0.754479  0.589559  0.915742  1
  O  O70  1  0.410441  0.245521  0.415742  1
  O  O71  1  0.245521  0.410441  0.084258  1
