# generated using pymatgen
data_Mn3(OF2)2
_symmetry_space_group_name_H-M   'P 1'
_cell_length_a   4.79367136
_cell_length_b   7.99210889
_cell_length_c   5.73933358
_cell_angle_alpha   92.54982151
_cell_angle_beta   90.00000000
_cell_angle_gamma   90.00000000
_symmetry_Int_Tables_number   1
_chemical_formula_structural   Mn3(OF2)2
_chemical_formula_sum   'Mn6 O4 F8'
_cell_volume   219.66502521
_cell_formula_units_Z   2
loop_
 _symmetry_equiv_pos_site_id
 _symmetry_equiv_pos_as_xyz
  1  'x, y, z'
loop_
 _atom_site_type_symbol
 _atom_site_label
 _atom_site_symmetry_multiplicity
 _atom_site_fract_x
 _atom_site_fract_y
 _atom_site_fract_z
 _atom_site_occupancy
  Mn  Mn0  1  0.460875  0.990268  0.497228  1
  Mn  Mn1  1  0.500000  0.666667  0.166667  1
  Mn  Mn2  1  0.539125  0.343066  0.836106  1
  Mn  Mn3  1  0.000000  0.666667  0.666667  1
  Mn  Mn4  1  0.960875  0.343066  0.336106  1
  Mn  Mn5  1  0.039125  0.990268  0.997228  1
  O  O6  1  0.813964  0.448871  0.629244  1
  O  O7  1  0.686036  0.448871  0.129244  1
  O  O8  1  0.313964  0.884463  0.204089  1
  O  O9  1  0.186036  0.884463  0.704089  1
  F  F10  1  0.789365  0.764094  0.969729  1
  F  F11  1  0.802588  0.091700  0.293624  1
  F  F12  1  0.697412  0.091700  0.793624  1
  F  F13  1  0.710635  0.764094  0.469729  1
  F  F14  1  0.289365  0.569239  0.863605  1
  F  F15  1  0.302588  0.241633  0.539709  1
  F  F16  1  0.210635  0.569239  0.363605  1
  F  F17  1  0.197412  0.241633  0.039709  1
