# generated using pymatgen
data_Li3Sb2(PO4)3
_symmetry_space_group_name_H-M   'P 1'
_cell_length_a   8.81355734
_cell_length_b   9.32443556
_cell_length_c   12.77463947
_cell_angle_alpha   90.00000000
_cell_angle_beta   90.73007112
_cell_angle_gamma   90.00000000
_symmetry_Int_Tables_number   1
_chemical_formula_structural   Li3Sb2(PO4)3
_chemical_formula_sum   'Li12 Sb8 P12 O48'
_cell_volume   1049.75313656
_cell_formula_units_Z   4
loop_
 _symmetry_equiv_pos_site_id
 _symmetry_equiv_pos_as_xyz
  1  'x, y, z'
loop_
 _atom_site_type_symbol
 _atom_site_label
 _atom_site_symmetry_multiplicity
 _atom_site_fract_x
 _atom_site_fract_y
 _atom_site_fract_z
 _atom_site_occupancy
  Li  Li0  1  0.062064  0.511202  0.650985  1
  Li  Li1  1  0.086560  0.087514  0.314150  1
  Li  Li2  1  0.179222  0.778334  0.817341  1
  Li  Li3  1  0.320778  0.278334  0.682659  1
  Li  Li4  1  0.413440  0.587514  0.185850  1
  Li  Li5  1  0.437936  0.011202  0.849015  1
  Li  Li6  1  0.562064  0.988798  0.150985  1
  Li  Li7  1  0.586560  0.412486  0.814150  1
  Li  Li8  1  0.679222  0.721666  0.317341  1
  Li  Li9  1  0.820778  0.221666  0.182659  1
  Li  Li10  1  0.913440  0.912486  0.685850  1
  Li  Li11  1  0.937936  0.488798  0.349015  1
  Sb  Sb12  1  0.228905  0.027023  0.097417  1
  Sb  Sb13  1  0.239193  0.455388  0.903971  1
  Sb  Sb14  1  0.260807  0.955388  0.596029  1
  Sb  Sb15  1  0.271095  0.527023  0.402583  1
  Sb  Sb16  1  0.728905  0.472977  0.597417  1
  Sb  Sb17  1  0.739193  0.044612  0.403971  1
  Sb  Sb18  1  0.760807  0.544612  0.096029  1
  Sb  Sb19  1  0.771095  0.972977  0.902583  1
  P  P20  1  0.055116  0.258246  0.509291  1
  P  P21  1  0.109277  0.379445  0.168643  1
  P  P22  1  0.121790  0.103220  0.840315  1
  P  P23  1  0.378210  0.603220  0.659685  1
  P  P24  1  0.390723  0.879445  0.331357  1
  P  P25  1  0.444884  0.758246  0.990709  1
  P  P26  1  0.555116  0.241754  0.009291  1
  P  P27  1  0.609277  0.120555  0.668643  1
  P  P28  1  0.621790  0.396780  0.340315  1
  P  P29  1  0.878210  0.896780  0.159685  1
  P  P30  1  0.890723  0.620555  0.831357  1
  P  P31  1  0.944884  0.741754  0.490709  1
  O  O32  1  0.029570  0.863270  0.551301  1
  O  O33  1  0.029844  0.878613  0.101710  1
  O  O34  1  0.039607  0.665718  0.407144  1
  O  O35  1  0.055568  0.570865  0.799922  1
  O  O36  1  0.099222  0.367418  0.419939  1
  O  O37  1  0.105874  0.994352  0.747141  1
  O  O38  1  0.117155  0.220358  0.200073  1
  O  O39  1  0.126584  0.395200  0.048701  1
  O  O40  1  0.182156  0.250901  0.801699  1
  O  O41  1  0.202832  0.196151  0.559796  1
  O  O42  1  0.229446  0.474139  0.226762  1
  O  O43  1  0.244210  0.034747  0.915133  1
  O  O44  1  0.255790  0.534747  0.584867  1
  O  O45  1  0.270554  0.974139  0.273238  1
  O  O46  1  0.297168  0.696151  0.940204  1
  O  O47  1  0.317844  0.750901  0.698301  1
  O  O48  1  0.373416  0.895200  0.451299  1
  O  O49  1  0.382845  0.720357  0.299927  1
  O  O50  1  0.394126  0.494352  0.752859  1
  O  O51  1  0.400778  0.867418  0.080061  1
  O  O52  1  0.444432  0.070865  0.700078  1
  O  O53  1  0.460393  0.165718  0.092856  1
  O  O54  1  0.470156  0.378613  0.398290  1
  O  O55  1  0.470430  0.363270  0.948699  1
  O  O56  1  0.529570  0.636730  0.051301  1
  O  O57  1  0.529844  0.621387  0.601710  1
  O  O58  1  0.539607  0.834282  0.907144  1
  O  O59  1  0.555568  0.929135  0.299922  1
  O  O60  1  0.599222  0.132582  0.919939  1
  O  O61  1  0.605874  0.505648  0.247141  1
  O  O62  1  0.617155  0.279643  0.700073  1
  O  O63  1  0.626584  0.104800  0.548701  1
  O  O64  1  0.682156  0.249099  0.301699  1
  O  O65  1  0.702832  0.303849  0.059796  1
  O  O66  1  0.729446  0.025861  0.726762  1
  O  O67  1  0.744210  0.465253  0.415133  1
  O  O68  1  0.755790  0.965253  0.084867  1
  O  O69  1  0.770554  0.525861  0.773238  1
  O  O70  1  0.797168  0.803849  0.440204  1
  O  O71  1  0.817844  0.749099  0.198301  1
  O  O72  1  0.873416  0.604800  0.951299  1
  O  O73  1  0.882845  0.779643  0.799927  1
  O  O74  1  0.894126  0.005648  0.252859  1
  O  O75  1  0.900778  0.632582  0.580061  1
  O  O76  1  0.944432  0.429135  0.200078  1
  O  O77  1  0.960393  0.334282  0.592856  1
  O  O78  1  0.970156  0.121387  0.898290  1
  O  O79  1  0.970430  0.136730  0.448699  1
