# generated using pymatgen
data_Li5V3P8O29
_symmetry_space_group_name_H-M   'P 1'
_cell_length_a   9.79896603
_cell_length_b   9.77400754
_cell_length_c   14.01927632
_cell_angle_alpha   90.12028570
_cell_angle_beta   90.18974145
_cell_angle_gamma   60.14818263
_symmetry_Int_Tables_number   1
_chemical_formula_structural   Li5V3P8O29
_chemical_formula_sum   'Li10 V6 P16 O58'
_cell_volume   1164.53690805
_cell_formula_units_Z   2
loop_
 _symmetry_equiv_pos_site_id
 _symmetry_equiv_pos_as_xyz
  1  'x, y, z'
loop_
 _atom_site_type_symbol
 _atom_site_label
 _atom_site_symmetry_multiplicity
 _atom_site_fract_x
 _atom_site_fract_y
 _atom_site_fract_z
 _atom_site_occupancy
  Li  Li0  1  0.773958  0.907100  0.556957  1
  Li  Li1  1  0.914583  0.314238  0.558898  1
  Li  Li2  1  0.765556  0.332168  0.059618  1
  Li  Li3  1  0.334495  0.897637  0.062252  1
  Li  Li4  1  0.683816  0.228024  0.439942  1
  Li  Li5  1  0.321640  0.774832  0.556868  1
  Li  Li6  1  0.668045  0.092712  0.940961  1
  Li  Li7  1  0.094956  0.677297  0.436827  1
  Li  Li8  1  0.097014  0.231795  0.943005  1
  Li  Li9  1  0.015831  0.933078  0.007484  1
  V  V10  1  0.564427  0.439916  0.248338  1
  V  V11  1  0.428396  0.568006  0.754957  1
  V  V12  1  0.566659  0.998931  0.747179  1
  V  V13  1  0.432514  0.004235  0.251943  1
  V  V14  1  0.996875  0.568904  0.245965  1
  V  V15  1  0.001188  0.435259  0.752029  1
  P  P16  1  0.914206  0.777217  0.841553  1
  P  P17  1  0.769620  0.912651  0.339885  1
  P  P18  1  0.911560  0.318998  0.341600  1
  P  P19  1  0.663600  0.669569  0.129027  1
  P  P20  1  0.665590  0.662523  0.630277  1
  P  P21  1  0.770346  0.316070  0.841431  1
  P  P22  1  0.679040  0.234000  0.657302  1
  P  P23  1  0.314299  0.914750  0.843447  1
  P  P24  1  0.686217  0.089119  0.156564  1
  P  P25  1  0.316046  0.772711  0.343790  1
  P  P26  1  0.222368  0.690316  0.160624  1
  P  P27  1  0.336438  0.336200  0.369281  1
  P  P28  1  0.337669  0.329976  0.872354  1
  P  P29  1  0.088256  0.681356  0.657733  1
  P  P30  1  0.228254  0.087417  0.659621  1
  P  P31  1  0.085378  0.225961  0.157652  1
  O  O32  1  0.003960  0.755474  0.565808  1
  O  O33  1  0.919398  0.748056  0.340124  1
  O  O34  1  0.776273  0.016385  0.066680  1
  O  O35  1  0.740955  0.916310  0.835307  1
  O  O36  1  0.918675  0.617694  0.832030  1
  O  O37  1  0.805136  0.676518  0.172143  1
  O  O38  1  0.905673  0.477521  0.321859  1
  O  O39  1  0.995293  0.227726  0.069184  1
  O  O40  1  0.915596  0.338507  0.842377  1
  O  O41  1  0.672136  0.811803  0.667017  1
  O  O42  1  0.622576  0.897700  0.323548  1
  O  O43  1  0.813548  0.512317  0.672386  1
  O  O44  1  0.657485  0.653615  0.023706  1
  O  O45  1  0.658822  0.659392  0.524045  1
  O  O46  1  0.672590  0.512421  0.173439  1
  O  O47  1  0.470936  0.910144  0.830561  1
  O  O48  1  0.509066  0.815683  0.167973  1
  O  O49  1  0.741296  0.342432  0.336867  1
  O  O50  1  0.792043  0.209771  0.748403  1
  O  O51  1  0.755186  0.249581  0.568259  1
  O  O52  1  0.764397  0.232280  0.930042  1
  O  O53  1  0.616378  0.474924  0.826424  1
  O  O54  1  0.514705  0.667107  0.675244  1
  O  O55  1  0.660120  0.261106  0.163031  1
  O  O56  1  0.475951  0.620011  0.320773  1
  O  O57  1  0.338942  0.914779  0.339887  1
  O  O58  1  0.792687  0.002464  0.249443  1
  O  O59  1  0.757834  0.003180  0.429498  1
  O  O60  1  0.237751  0.991844  0.575324  1
  O  O61  1  0.664554  0.083540  0.655795  1
  O  O62  1  0.520455  0.382551  0.678212  1
  O  O63  1  0.337844  0.745488  0.834225  1
  O  O64  1  0.487167  0.334000  0.323029  1
  O  O65  1  0.382248  0.534958  0.170347  1
  O  O66  1  0.212403  0.792015  0.078218  1
  O  O67  1  0.249473  0.748447  0.434143  1
  O  O68  1  0.200150  0.788103  0.257785  1
  O  O69  1  0.254640  0.664866  0.660977  1
  O  O70  1  0.490823  0.187349  0.831689  1
  O  O71  1  0.530711  0.089142  0.166618  1
  O  O72  1  0.331511  0.482607  0.824322  1
  O  O73  1  0.341222  0.337331  0.978214  1
  O  O74  1  0.355923  0.327760  0.474638  1
  O  O75  1  0.186749  0.486809  0.333037  1
  O  O76  1  0.380715  0.095873  0.677855  1
  O  O77  1  0.338009  0.188425  0.322127  1
  O  O78  1  0.086575  0.654278  0.162174  1
  O  O79  1  0.993161  0.797034  0.744088  1
  O  O80  1  0.994974  0.796873  0.924976  1
  O  O81  1  0.102565  0.520072  0.677486  1
  O  O82  1  0.190734  0.322621  0.833619  1
  O  O83  1  0.091566  0.378231  0.170793  1
  O  O84  1  0.250672  0.079835  0.157749  1
  O  O85  1  0.228431  0.992627  0.934549  1
  O  O86  1  0.201159  0.010895  0.755886  1
  O  O87  1  0.084093  0.256428  0.659894  1
  O  O88  1  0.988209  0.244808  0.433425  1
  O  O89  1  0.998594  0.206668  0.251269  1
