# generated using pymatgen
data_Li32Mn13Cr3O48
_symmetry_space_group_name_H-M   'P 1'
_cell_length_a   5.00961083
_cell_length_b   8.67749534
_cell_length_c   19.50782228
_cell_angle_alpha   98.36092128
_cell_angle_beta   94.84640322
_cell_angle_gamma   89.90475324
_symmetry_Int_Tables_number   1
_chemical_formula_structural   Li32Mn13Cr3O48
_chemical_formula_sum   'Li32 Mn13 Cr3 O48'
_cell_volume   835.96090776
_cell_formula_units_Z   1
loop_
 _symmetry_equiv_pos_site_id
 _symmetry_equiv_pos_as_xyz
  1  'x, y, z'
loop_
 _atom_site_type_symbol
 _atom_site_label
 _atom_site_symmetry_multiplicity
 _atom_site_fract_x
 _atom_site_fract_y
 _atom_site_fract_z
 _atom_site_occupancy
  Li  Li0  1  0.993613  0.168416  0.249888  1
  Li  Li1  1  0.875244  0.375105  0.374939  1
  Li  Li2  1  0.750207  0.250122  0.000053  1
  Li  Li3  1  0.742648  0.919401  0.000517  1
  Li  Li4  1  0.991110  0.168374  0.750171  1
  Li  Li5  1  0.757941  0.579604  0.500163  1
  Li  Li6  1  0.875579  0.375574  0.875240  1
  Li  Li7  1  0.749525  0.250297  0.499804  1
  Li  Li8  1  0.746318  0.920325  0.500528  1
  Li  Li9  1  0.624877  0.125069  0.125017  1
  Li  Li10  1  0.756003  0.580660  0.999571  1
  Li  Li11  1  0.507720  0.332096  0.250255  1
  Li  Li12  1  0.627575  0.124160  0.624851  1
  Li  Li13  1  0.500149  0.999962  0.249939  1
  Li  Li14  1  0.494230  0.667867  0.249474  1
  Li  Li15  1  0.508866  0.334270  0.750508  1
  Li  Li16  1  0.375201  0.876258  0.375005  1
  Li  Li17  1  0.500719  0.998767  0.750375  1
  Li  Li18  1  0.251571  0.748943  0.999941  1
  Li  Li19  1  0.492463  0.667145  0.749526  1
  Li  Li20  1  0.243732  0.420200  0.000092  1
  Li  Li21  1  0.377750  0.874966  0.874769  1
  Li  Li22  1  0.254245  0.079317  0.499399  1
  Li  Li23  1  0.248515  0.749842  0.500184  1
  Li  Li24  1  0.124838  0.625057  0.124952  1
  Li  Li25  1  0.242297  0.420667  0.499928  1
  Li  Li26  1  0.006475  0.831905  0.250153  1
  Li  Li27  1  0.255447  0.080746  0.999895  1
  Li  Li28  1  0.125393  0.624862  0.625233  1
  Li  Li29  1  0.997734  0.499528  0.249939  1
  Li  Li30  1  0.006180  0.832274  0.750194  1
  Li  Li31  1  0.000020  0.499594  0.749737  1
  Mn  Mn32  1  0.873877  0.708807  0.374872  1
  Mn  Mn33  1  0.875243  0.041473  0.374963  1
  Mn  Mn34  1  0.873783  0.042243  0.874358  1
  Mn  Mn35  1  0.625853  0.791407  0.124997  1
  Mn  Mn36  1  0.624586  0.458467  0.125036  1
  Mn  Mn37  1  0.624936  0.791622  0.625037  1
  Mn  Mn38  1  0.626453  0.460216  0.625698  1
  Mn  Mn39  1  0.374090  0.208124  0.374949  1
  Mn  Mn40  1  0.377261  0.540510  0.875744  1
  Mn  Mn41  1  0.373641  0.208505  0.875100  1
  Mn  Mn42  1  0.124599  0.958489  0.125027  1
  Mn  Mn43  1  0.125806  0.291463  0.125059  1
  Mn  Mn44  1  0.122739  0.956990  0.624265  1
  Cr  Cr45  1  0.879813  0.709409  0.874939  1
  Cr  Cr46  1  0.375438  0.544464  0.375033  1
  Cr  Cr47  1  0.132343  0.290009  0.624859  1
  O  O48  1  0.963968  0.106481  0.069047  1
  O  O49  1  0.927863  0.785248  0.069043  1
  O  O50  1  0.927319  0.427346  0.068256  1
  O  O51  1  0.961998  0.102488  0.568222  1
  O  O52  1  0.822377  0.964771  0.180897  1
  O  O53  1  0.822925  0.322461  0.181797  1
  O  O54  1  0.927588  0.784096  0.569092  1
  O  O55  1  0.925940  0.425949  0.568210  1
  O  O56  1  0.786445  0.643538  0.180837  1
  O  O57  1  0.712864  0.856924  0.319079  1
  O  O58  1  0.821686  0.965004  0.680807  1
  O  O59  1  0.821808  0.323440  0.681935  1
  O  O60  1  0.683584  0.536199  0.318423  1
  O  O61  1  0.677308  0.177269  0.318174  1
  O  O62  1  0.787912  0.644362  0.681046  1
  O  O63  1  0.712152  0.859741  0.818340  1
  O  O64  1  0.464162  0.606524  0.069189  1
  O  O65  1  0.571814  0.712839  0.430681  1
  O  O66  1  0.572574  0.071939  0.431771  1
  O  O67  1  0.676763  0.536985  0.819272  1
  O  O68  1  0.676947  0.178244  0.818137  1
  O  O69  1  0.427187  0.927343  0.068112  1
  O  O70  1  0.427920  0.285287  0.069151  1
  O  O71  1  0.533210  0.392580  0.430954  1
  O  O72  1  0.463792  0.607124  0.569044  1
  O  O73  1  0.569989  0.714280  0.931024  1
  O  O74  1  0.572019  0.072430  0.931834  1
  O  O75  1  0.322911  0.822570  0.181871  1
  O  O76  1  0.322312  0.464845  0.180995  1
  O  O77  1  0.427320  0.927548  0.568166  1
  O  O78  1  0.425550  0.287287  0.569249  1
  O  O79  1  0.537331  0.392747  0.931019  1
  O  O80  1  0.286245  0.143202  0.180862  1
  O  O81  1  0.216160  0.356004  0.319021  1
  O  O82  1  0.322866  0.822461  0.681766  1
  O  O83  1  0.326794  0.467581  0.681586  1
  O  O84  1  0.176845  0.675392  0.318110  1
  O  O85  1  0.177416  0.034323  0.318991  1
  O  O86  1  0.280397  0.143767  0.680779  1
  O  O87  1  0.213558  0.356257  0.819098  1
  O  O88  1  0.067567  0.574308  0.432619  1
  O  O89  1  0.071927  0.214575  0.430840  1
  O  O90  1  0.175604  0.675924  0.818340  1
  O  O91  1  0.177644  0.034921  0.819122  1
  O  O92  1  0.037492  0.893572  0.430802  1
  O  O93  1  0.076531  0.570857  0.932508  1
  O  O94  1  0.072266  0.214766  0.930884  1
  O  O95  1  0.030504  0.892630  0.930823  1
