# generated using pymatgen
data_GdAsO4
_symmetry_space_group_name_H-M   'P 1'
_cell_length_a   6.04416125
_cell_length_b   6.04416125
_cell_length_c   6.04416125
_cell_angle_alpha   106.43469928
_cell_angle_beta   106.43469928
_cell_angle_gamma   115.73155246
_symmetry_Int_Tables_number   1
_chemical_formula_structural   GdAsO4
_chemical_formula_sum   'Gd2 As2 O8'
_cell_volume   168.43717253
_cell_formula_units_Z   2
loop_
 _symmetry_equiv_pos_site_id
 _symmetry_equiv_pos_as_xyz
  1  'x, y, z'
loop_
 _atom_site_type_symbol
 _atom_site_label
 _atom_site_symmetry_multiplicity
 _atom_site_fract_x
 _atom_site_fract_y
 _atom_site_fract_z
 _atom_site_occupancy
  Gd  Gd0  1  0.875000  0.125000  0.750000  1
  Gd  Gd1  1  0.125000  0.875000  0.250000  1
  As  As2  1  0.625000  0.375000  0.250000  1
  As  As3  1  0.375000  0.625000  0.750000  1
  O  O4  1  0.799261  0.368818  0.069558  1
  O  O5  1  0.631182  0.200739  0.430442  1
  O  O6  1  0.270297  0.200739  0.069558  1
  O  O7  1  0.799261  0.729703  0.430442  1
  O  O8  1  0.200739  0.270297  0.569558  1
  O  O9  1  0.729703  0.799261  0.930442  1
  O  O10  1  0.368818  0.799261  0.569558  1
  O  O11  1  0.200739  0.631182  0.930442  1
