# generated using pymatgen
data_H20RuC6NO14
_symmetry_space_group_name_H-M   'P 1'
_cell_length_a   6.09784079
_cell_length_b   6.09784079
_cell_length_c   23.40699629
_cell_angle_alpha   90.00000000
_cell_angle_beta   90.00000000
_cell_angle_gamma   77.03605705
_symmetry_Int_Tables_number   1
_chemical_formula_structural   H20RuC6NO14
_chemical_formula_sum   'H40 Ru2 C12 N2 O28'
_cell_volume   848.17367509
_cell_formula_units_Z   2
loop_
 _symmetry_equiv_pos_site_id
 _symmetry_equiv_pos_as_xyz
  1  'x, y, z'
loop_
 _atom_site_type_symbol
 _atom_site_label
 _atom_site_symmetry_multiplicity
 _atom_site_fract_x
 _atom_site_fract_y
 _atom_site_fract_z
 _atom_site_occupancy
  H  H0  1  0.281304  0.281304  0.010462  1
  H  H1  1  0.718696  0.718696  0.989538  1
  H  H2  1  0.281304  0.281304  0.489538  1
  H  H3  1  0.718696  0.718696  0.510462  1
  H  H4  1  0.236940  0.236940  0.938121  1
  H  H5  1  0.763060  0.763060  0.061879  1
  H  H6  1  0.236940  0.236940  0.561879  1
  H  H7  1  0.763060  0.763060  0.438121  1
  H  H8  1  0.592201  0.802597  0.143368  1
  H  H9  1  0.197403  0.407799  0.856632  1
  H  H10  1  0.592201  0.802597  0.356632  1
  H  H11  1  0.197403  0.407799  0.643368  1
  H  H12  1  0.407799  0.197403  0.856632  1
  H  H13  1  0.802597  0.592201  0.143368  1
  H  H14  1  0.407799  0.197403  0.643368  1
  H  H15  1  0.802597  0.592201  0.356632  1
  H  H16  1  0.551694  0.341875  0.063834  1
  H  H17  1  0.658125  0.448306  0.936166  1
  H  H18  1  0.551694  0.341875  0.436166  1
  H  H19  1  0.658125  0.448306  0.563834  1
  H  H20  1  0.448306  0.658125  0.936166  1
  H  H21  1  0.341875  0.551694  0.063834  1
  H  H22  1  0.448306  0.658125  0.563834  1
  H  H23  1  0.341875  0.551694  0.436166  1
  H  H24  1  0.196918  0.196918  0.214238  1
  H  H25  1  0.803082  0.803082  0.785762  1
  H  H26  1  0.196918  0.196918  0.285762  1
  H  H27  1  0.803082  0.803082  0.714238  1
  H  H28  1  0.003597  0.556193  0.250000  1
  H  H29  1  0.443807  0.996403  0.750000  1
  H  H30  1  0.996403  0.443807  0.750000  1
  H  H31  1  0.556193  0.003597  0.250000  1
  H  H32  1  0.251886  0.578578  0.211762  1
  H  H33  1  0.421422  0.748114  0.788238  1
  H  H34  1  0.251886  0.578578  0.288238  1
  H  H35  1  0.421422  0.748114  0.711762  1
  H  H36  1  0.748114  0.421422  0.788238  1
  H  H37  1  0.578578  0.251886  0.211762  1
  H  H38  1  0.748114  0.421422  0.711762  1
  H  H39  1  0.578578  0.251886  0.288238  1
  Ru  Ru40  1  0.000000  0.000000  0.000000  1
  Ru  Ru41  1  0.000000  0.000000  0.500000  1
  C  C42  1  0.187221  0.510983  0.250000  1
  C  C43  1  0.489017  0.812779  0.750000  1
  C  C44  1  0.812779  0.489017  0.750000  1
  C  C45  1  0.510983  0.187221  0.250000  1
  C  C46  1  0.975610  0.178841  0.113457  1
  C  C47  1  0.821159  0.024390  0.886543  1
  C  C48  1  0.975610  0.178841  0.386543  1
  C  C49  1  0.821159  0.024390  0.613457  1
  C  C50  1  0.024390  0.821159  0.886543  1
  C  C51  1  0.178841  0.975610  0.113457  1
  C  C52  1  0.024390  0.821159  0.613457  1
  C  C53  1  0.178841  0.975610  0.386543  1
  N  N54  1  0.262666  0.262666  0.250000  1
  N  N55  1  0.737334  0.737334  0.750000  1
  O  O56  1  0.864831  0.214148  0.065668  1
  O  O57  1  0.785852  0.135169  0.934332  1
  O  O58  1  0.864831  0.214148  0.434332  1
  O  O59  1  0.785852  0.135169  0.565668  1
  O  O60  1  0.135169  0.785852  0.934332  1
  O  O61  1  0.214148  0.864831  0.065668  1
  O  O62  1  0.135169  0.785852  0.565668  1
  O  O63  1  0.214148  0.864831  0.434332  1
  O  O64  1  0.205392  0.205392  0.979818  1
  O  O65  1  0.794608  0.794608  0.020182  1
  O  O66  1  0.205392  0.205392  0.520182  1
  O  O67  1  0.794608  0.794608  0.479818  1
  O  O68  1  0.929171  0.296261  0.157252  1
  O  O69  1  0.703739  0.070829  0.842748  1
  O  O70  1  0.929171  0.296261  0.342748  1
  O  O71  1  0.703739  0.070829  0.657252  1
  O  O72  1  0.070829  0.703739  0.842748  1
  O  O73  1  0.296261  0.929171  0.157252  1
  O  O74  1  0.070829  0.703739  0.657252  1
  O  O75  1  0.296261  0.929171  0.342748  1
  O  O76  1  0.749001  0.749001  0.129888  1
  O  O77  1  0.250999  0.250999  0.870112  1
  O  O78  1  0.749001  0.749001  0.370112  1
  O  O79  1  0.250999  0.250999  0.629888  1
  O  O80  1  0.385848  0.385848  0.062735  1
  O  O81  1  0.614152  0.614152  0.937265  1
  O  O82  1  0.385848  0.385848  0.437265  1
  O  O83  1  0.614152  0.614152  0.562735  1
