# generated using pymatgen
data_LiZnBO3
_symmetry_space_group_name_H-M   'P 1'
_cell_length_a   5.06329168
_cell_length_b   5.06515386
_cell_length_c   11.50326481
_cell_angle_alpha   90.02246760
_cell_angle_beta   90.57292670
_cell_angle_gamma   60.02498252
_symmetry_Int_Tables_number   1
_chemical_formula_structural   LiZnBO3
_chemical_formula_sum   'Li4 Zn4 B4 O12'
_cell_volume   255.53992647
_cell_formula_units_Z   4
loop_
 _symmetry_equiv_pos_site_id
 _symmetry_equiv_pos_as_xyz
  1  'x, y, z'
loop_
 _atom_site_type_symbol
 _atom_site_label
 _atom_site_symmetry_multiplicity
 _atom_site_fract_x
 _atom_site_fract_y
 _atom_site_fract_z
 _atom_site_occupancy
  Li  Li0  1  0.355325  0.651875  0.467628  1
  Li  Li1  1  0.349501  0.631041  0.283060  1
  Li  Li2  1  0.671418  0.359526  0.686158  1
  Li  Li3  1  0.656581  0.350881  0.064342  1
  Zn  Zn4  1  0.001947  0.669127  0.660324  1
  Zn  Zn5  1  0.679906  0.980993  0.877087  1
  Zn  Zn6  1  0.004734  0.322773  0.374524  1
  Zn  Zn7  1  0.304383  0.015327  0.090822  1
  B  B8  1  0.008245  0.330361  0.874198  1
  B  B9  1  0.672330  0.988995  0.374771  1
  B  B10  1  0.328482  0.019614  0.629481  1
  B  B11  1  0.985164  0.667295  0.120618  1
  O  O12  1  0.016787  0.586725  0.834823  1
  O  O13  1  0.413653  0.955643  0.365637  1
  O  O14  1  0.343126  0.736730  0.625443  1
  O  O15  1  0.266832  0.655159  0.125210  1
  O  O16  1  0.053476  0.281284  0.601036  1
  O  O17  1  0.726703  0.938761  0.089380  1
  O  O18  1  0.271325  0.078780  0.916531  1
  O  O19  1  0.963515  0.730929  0.382885  1
  O  O20  1  0.734594  0.332360  0.872946  1
  O  O21  1  0.639235  0.280134  0.375477  1
  O  O22  1  0.588449  0.033342  0.658507  1
  O  O23  1  0.969291  0.407343  0.149114  1
