# generated using pymatgen
data_LiVCO3F2
_symmetry_space_group_name_H-M   'P 1'
_cell_length_a   6.66772172
_cell_length_b   9.00547998
_cell_length_c   5.71465114
_cell_angle_alpha   90.00000000
_cell_angle_beta   90.00000000
_cell_angle_gamma   90.00000000
_symmetry_Int_Tables_number   1
_chemical_formula_structural   LiVCO3F2
_chemical_formula_sum   'Li4 V4 C4 O12 F8'
_cell_volume   343.14213929
_cell_formula_units_Z   4
loop_
 _symmetry_equiv_pos_site_id
 _symmetry_equiv_pos_as_xyz
  1  'x, y, z'
loop_
 _atom_site_type_symbol
 _atom_site_label
 _atom_site_symmetry_multiplicity
 _atom_site_fract_x
 _atom_site_fract_y
 _atom_site_fract_z
 _atom_site_occupancy
  Li  Li0  1  0.250000  0.273084  0.718360  1
  Li  Li1  1  0.250000  0.226916  0.218360  1
  Li  Li2  1  0.750000  0.726916  0.281640  1
  Li  Li3  1  0.750000  0.773084  0.781640  1
  V  V4  1  0.250000  0.610637  0.024403  1
  V  V5  1  0.250000  0.889363  0.524403  1
  V  V6  1  0.750000  0.110637  0.475597  1
  V  V7  1  0.750000  0.389363  0.975597  1
  C  C8  1  0.250000  0.549515  0.462234  1
  C  C9  1  0.250000  0.950485  0.962234  1
  C  C10  1  0.750000  0.049515  0.037766  1
  C  C11  1  0.750000  0.450485  0.537766  1
  O  O12  1  0.250000  0.052201  0.803622  1
  O  O13  1  0.250000  0.447799  0.303622  1
  O  O14  1  0.250000  0.521015  0.680091  1
  O  O15  1  0.250000  0.978985  0.180091  1
  O  O16  1  0.250000  0.816275  0.870305  1
  O  O17  1  0.250000  0.683725  0.370305  1
  O  O18  1  0.750000  0.021015  0.819909  1
  O  O19  1  0.750000  0.183725  0.129695  1
  O  O20  1  0.750000  0.316275  0.629695  1
  O  O21  1  0.750000  0.478985  0.319909  1
  O  O22  1  0.750000  0.552201  0.696378  1
  O  O23  1  0.750000  0.947799  0.196378  1
  F  F24  1  0.036182  0.156571  0.455120  1
  F  F25  1  0.036182  0.343429  0.955120  1
  F  F26  1  0.463818  0.156571  0.455120  1
  F  F27  1  0.463818  0.343429  0.955120  1
  F  F28  1  0.536182  0.843429  0.544880  1
  F  F29  1  0.536182  0.656571  0.044880  1
  F  F30  1  0.963818  0.656571  0.044880  1
  F  F31  1  0.963818  0.843429  0.544880  1
