# generated using pymatgen
data_Fe6O11F
_symmetry_space_group_name_H-M   'P 1'
_cell_length_a   4.62055671
_cell_length_b   4.62055671
_cell_length_c   8.98599779
_cell_angle_alpha   90.00000000
_cell_angle_beta   90.00000000
_cell_angle_gamma   91.40252648
_symmetry_Int_Tables_number   1
_chemical_formula_structural   Fe6O11F
_chemical_formula_sum   'Fe6 O11 F1'
_cell_volume   191.78948279
_cell_formula_units_Z   1
loop_
 _symmetry_equiv_pos_site_id
 _symmetry_equiv_pos_as_xyz
  1  'x, y, z'
loop_
 _atom_site_type_symbol
 _atom_site_label
 _atom_site_symmetry_multiplicity
 _atom_site_fract_x
 _atom_site_fract_y
 _atom_site_fract_z
 _atom_site_occupancy
  Fe  Fe0  1  0.006806  0.993194  0.006661  1
  Fe  Fe1  1  0.003089  0.996910  0.333333  1
  Fe  Fe2  1  0.006806  0.993194  0.660006  1
  Fe  Fe3  1  0.503209  0.496791  0.167588  1
  Fe  Fe4  1  0.480238  0.519762  0.833333  1
  Fe  Fe5  1  0.503209  0.496791  0.499078  1
  O  O6  1  0.194793  0.805207  0.173857  1
  O  O7  1  0.194793  0.805207  0.492810  1
  O  O8  1  0.180053  0.819947  0.833333  1
  O  O9  1  0.306226  0.310236  0.999921  1
  O  O10  1  0.313542  0.304807  0.333333  1
  O  O11  1  0.306226  0.310236  0.666745  1
  O  O12  1  0.689764  0.693774  0.999921  1
  O  O13  1  0.695193  0.686458  0.333333  1
  O  O14  1  0.689764  0.693774  0.666745  1
  O  O15  1  0.814307  0.185693  0.170243  1
  O  O16  1  0.814307  0.185693  0.496423  1
  F  F17  1  0.797674  0.202326  0.833333  1
