# generated using pymatgen
data_Li5Mn6(BO3)6
_symmetry_space_group_name_H-M   'P 1'
_cell_length_a   6.20539795
_cell_length_b   12.01104985
_cell_length_c   5.21508109
_cell_angle_alpha   78.48244515
_cell_angle_beta   87.20282353
_cell_angle_gamma   84.79472246
_symmetry_Int_Tables_number   1
_chemical_formula_structural   Li5Mn6(BO3)6
_chemical_formula_sum   'Li5 Mn6 B6 O18'
_cell_volume   379.11218124
_cell_formula_units_Z   1
loop_
 _symmetry_equiv_pos_site_id
 _symmetry_equiv_pos_as_xyz
  1  'x, y, z'
loop_
 _atom_site_type_symbol
 _atom_site_label
 _atom_site_symmetry_multiplicity
 _atom_site_fract_x
 _atom_site_fract_y
 _atom_site_fract_z
 _atom_site_occupancy
  Li  Li0  1  0.418065  0.100278  0.042400  1
  Li  Li1  1  0.772374  0.423772  0.361505  1
  Li  Li2  1  0.251785  0.564059  0.630572  1
  Li  Li3  1  0.577629  0.898939  0.966781  1
  Li  Li4  1  0.087121  0.768128  0.697807  1
  Mn  Mn5  1  0.246803  0.002853  0.597470  1
  Mn  Mn6  1  0.577838  0.329973  0.938614  1
  Mn  Mn7  1  0.913389  0.667986  0.261447  1
  Mn  Mn8  1  0.084908  0.326823  0.738934  1
  Mn  Mn9  1  0.430179  0.665375  0.065736  1
  Mn  Mn10  1  0.763011  0.004849  0.403026  1
  B  B11  1  0.833937  0.112393  0.844610  1
  B  B12  1  0.479299  0.223975  0.486888  1
  B  B13  1  0.817932  0.551181  0.823293  1
  B  B14  1  0.199031  0.444725  0.184204  1
  B  B15  1  0.518742  0.781552  0.508917  1
  B  B16  1  0.146085  0.888883  0.151834  1
  O  O17  1  0.936466  0.090706  0.617196  1
  O  O18  1  0.719342  0.030612  0.003801  1
  O  O19  1  0.460624  0.121797  0.403625  1
  O  O20  1  0.843640  0.220932  0.903681  1
  O  O21  1  0.571166  0.313884  0.332493  1
  O  O22  1  0.403227  0.231422  0.743766  1
  O  O23  1  0.740903  0.562841  0.073737  1
  O  O24  1  0.779850  0.452736  0.733595  1
  O  O25  1  0.939001  0.633158  0.673312  1
  O  O26  1  0.078808  0.365416  0.332053  1
  O  O27  1  0.226047  0.547675  0.261438  1
  O  O28  1  0.285210  0.429169  0.931171  1
  O  O29  1  0.598932  0.769284  0.259480  1
  O  O30  1  0.398630  0.698892  0.656720  1
  O  O31  1  0.109993  0.792149  0.056497  1
  O  O32  1  0.554564  0.879841  0.600453  1
  O  O33  1  0.269513  0.971064  0.009603  1
  O  O34  1  0.064949  0.900188  0.402112  1
