# generated using pymatgen
data_Mn2FeAg2(PO4)3
_symmetry_space_group_name_H-M   'P 1'
_cell_length_a   9.62652223
_cell_length_b   8.28732896
_cell_length_c   8.28732903
_cell_angle_alpha   94.58757510
_cell_angle_beta   104.92826350
_cell_angle_gamma   104.92825665
_symmetry_Int_Tables_number   1
_chemical_formula_structural   Mn2FeAg2(PO4)3
_chemical_formula_sum   'Mn4 Fe2 Ag4 P6 O24'
_cell_volume   609.64205092
_cell_formula_units_Z   2
loop_
 _symmetry_equiv_pos_site_id
 _symmetry_equiv_pos_as_xyz
  1  'x, y, z'
loop_
 _atom_site_type_symbol
 _atom_site_label
 _atom_site_symmetry_multiplicity
 _atom_site_fract_x
 _atom_site_fract_y
 _atom_site_fract_z
 _atom_site_occupancy
  Mn  Mn0  1  0.348590  0.964345  0.586581  1
  Mn  Mn1  1  0.250000  0.376224  0.623776  1
  Mn  Mn2  1  0.151410  0.413419  0.035655  1
  Mn  Mn3  1  0.750000  0.526778  0.473222  1
  Fe  Fe4  1  0.953391  0.621725  0.008139  1
  Fe  Fe5  1  0.546609  0.991861  0.378275  1
  Ag  Ag6  1  0.250000  0.908198  0.091802  1
  Ag  Ag7  1  0.538007  0.669762  0.608213  1
  Ag  Ag8  1  0.750000  0.107622  0.892378  1
  Ag  Ag9  1  0.961993  0.391787  0.330238  1
  P  P10  1  0.472299  0.585600  0.197636  1
  P  P11  1  0.250000  0.149209  0.850791  1
  P  P12  1  0.027701  0.802364  0.414400  1
  P  P13  1  0.882160  0.251794  0.540461  1
  P  P14  1  0.750000  0.840291  0.159709  1
  P  P15  1  0.617840  0.459539  0.748206  1
  O  O16  1  0.222209  0.125279  0.647352  1
  O  O17  1  0.133553  0.628037  0.961494  1
  O  O18  1  0.041389  0.712537  0.248996  1
  O  O19  1  0.295691  0.767041  0.717980  1
  O  O20  1  0.386241  0.089231  0.925364  1
  O  O21  1  0.273437  0.628930  0.603854  1
  O  O22  1  0.226563  0.396146  0.371070  1
  O  O23  1  0.113759  0.074636  0.910769  1
  O  O24  1  0.204309  0.282020  0.232959  1
  O  O25  1  0.630706  0.654897  0.131949  1
  O  O26  1  0.458611  0.751004  0.287463  1
  O  O27  1  0.366447  0.038506  0.371963  1
  O  O28  1  0.552274  0.936931  0.606452  1
  O  O29  1  0.567488  0.272576  0.746182  1
  O  O30  1  0.277791  0.352648  0.874721  1
  O  O31  1  0.788261  0.538763  0.776584  1
  O  O32  1  0.827645  0.827565  0.022547  1
  O  O33  1  0.961419  0.658628  0.512178  1
  O  O34  1  0.538581  0.487822  0.341372  1
  O  O35  1  0.672355  0.977453  0.172435  1
  O  O36  1  0.711739  0.223416  0.461237  1
  O  O37  1  0.932512  0.253818  0.727424  1
  O  O38  1  0.947726  0.393548  0.063069  1
  O  O39  1  0.869294  0.868051  0.345103  1
