# generated using pymatgen
data_Rb8Fe2O7
_symmetry_space_group_name_H-M   'P 1'
_cell_length_a   10.19476991
_cell_length_b   12.86462086
_cell_length_c   11.97813488
_cell_angle_alpha   90.00000000
_cell_angle_beta   107.63970275
_cell_angle_gamma   90.00000000
_symmetry_Int_Tables_number   1
_chemical_formula_structural   Rb8Fe2O7
_chemical_formula_sum   'Rb32 Fe8 O28'
_cell_volume   1497.08969694
_cell_formula_units_Z   4
loop_
 _symmetry_equiv_pos_site_id
 _symmetry_equiv_pos_as_xyz
  1  'x, y, z'
loop_
 _atom_site_type_symbol
 _atom_site_label
 _atom_site_symmetry_multiplicity
 _atom_site_fract_x
 _atom_site_fract_y
 _atom_site_fract_z
 _atom_site_occupancy
  Rb  Rb0  1  0.116361  0.478997  0.923012  1
  Rb  Rb1  1  0.076178  0.460047  0.643486  1
  Rb  Rb2  1  0.104108  0.741420  0.531750  1
  Rb  Rb3  1  0.116361  0.021003  0.423012  1
  Rb  Rb4  1  0.248184  0.942982  0.715262  1
  Rb  Rb5  1  0.076178  0.039953  0.143486  1
  Rb  Rb6  1  0.289615  0.242874  0.568607  1
  Rb  Rb7  1  0.104108  0.758580  0.031750  1
  Rb  Rb8  1  0.427829  0.473642  0.855599  1
  Rb  Rb9  1  0.333537  0.507725  0.514454  1
  Rb  Rb10  1  0.248184  0.557018  0.215262  1
  Rb  Rb11  1  0.497345  0.227815  0.872269  1
  Rb  Rb12  1  0.289615  0.257126  0.068607  1
  Rb  Rb13  1  0.502655  0.727815  0.627731  1
  Rb  Rb14  1  0.427829  0.026358  0.355599  1
  Rb  Rb15  1  0.666463  0.007725  0.985546  1
  Rb  Rb16  1  0.333537  0.992275  0.014454  1
  Rb  Rb17  1  0.572171  0.973642  0.644401  1
  Rb  Rb18  1  0.497345  0.272185  0.372269  1
  Rb  Rb19  1  0.710385  0.742874  0.931393  1
  Rb  Rb20  1  0.502655  0.772185  0.127731  1
  Rb  Rb21  1  0.751816  0.442982  0.784738  1
  Rb  Rb22  1  0.666463  0.492275  0.485546  1
  Rb  Rb23  1  0.572171  0.526358  0.144401  1
  Rb  Rb24  1  0.895892  0.241420  0.968250  1
  Rb  Rb25  1  0.710385  0.757126  0.431393  1
  Rb  Rb26  1  0.923822  0.960047  0.856514  1
  Rb  Rb27  1  0.751816  0.057018  0.284738  1
  Rb  Rb28  1  0.883639  0.978997  0.576988  1
  Rb  Rb29  1  0.895892  0.258580  0.468250  1
  Rb  Rb30  1  0.923822  0.539953  0.356514  1
  Rb  Rb31  1  0.883639  0.521003  0.076988  1
  Fe  Fe32  1  0.085623  0.203619  0.769428  1
  Fe  Fe33  1  0.085623  0.296381  0.269428  1
  Fe  Fe34  1  0.294604  0.712777  0.840794  1
  Fe  Fe35  1  0.294604  0.787223  0.340794  1
  Fe  Fe36  1  0.705396  0.212777  0.659206  1
  Fe  Fe37  1  0.705396  0.287223  0.159206  1
  Fe  Fe38  1  0.914377  0.703619  0.730572  1
  Fe  Fe39  1  0.914377  0.796381  0.230572  1
  O  O40  1  0.113762  0.118570  0.908566  1
  O  O41  1  0.103826  0.775533  0.782747  1
  O  O42  1  0.099703  0.122572  0.638861  1
  O  O43  1  0.113762  0.381430  0.408566  1
  O  O44  1  0.220079  0.314459  0.806367  1
  O  O45  1  0.103826  0.724467  0.282747  1
  O  O46  1  0.099703  0.377428  0.138861  1
  O  O47  1  0.313952  0.628364  0.713346  1
  O  O48  1  0.220079  0.185541  0.306367  1
  O  O49  1  0.424662  0.829520  0.884985  1
  O  O50  1  0.325075  0.874438  0.477899  1
  O  O51  1  0.313952  0.871636  0.213346  1
  O  O52  1  0.424662  0.670480  0.384985  1
  O  O53  1  0.674925  0.374438  0.022101  1
  O  O54  1  0.325075  0.625562  0.977899  1
  O  O55  1  0.575338  0.329520  0.615015  1
  O  O56  1  0.686048  0.128364  0.786654  1
  O  O57  1  0.674925  0.125562  0.522101  1
  O  O58  1  0.575338  0.170480  0.115015  1
  O  O59  1  0.779921  0.814459  0.693633  1
  O  O60  1  0.686048  0.371636  0.286654  1
  O  O61  1  0.900297  0.622572  0.861139  1
  O  O62  1  0.896174  0.275533  0.717253  1
  O  O63  1  0.779921  0.685541  0.193633  1
  O  O64  1  0.886238  0.618570  0.591434  1
  O  O65  1  0.900297  0.877428  0.361139  1
  O  O66  1  0.896174  0.224467  0.217253  1
  O  O67  1  0.886238  0.881430  0.091434  1
