# generated using pymatgen
data_VOF2
_symmetry_space_group_name_H-M   'P 1'
_cell_length_a   5.21104506
_cell_length_b   11.89664020
_cell_length_c   5.39721417
_cell_angle_alpha   78.77589952
_cell_angle_beta   89.99779430
_cell_angle_gamma   102.66394500
_symmetry_Int_Tables_number   1
_chemical_formula_structural   VOF2
_chemical_formula_sum   'V6 O6 F12'
_cell_volume   319.89168293
_cell_formula_units_Z   6
loop_
 _symmetry_equiv_pos_site_id
 _symmetry_equiv_pos_as_xyz
  1  'x, y, z'
loop_
 _atom_site_type_symbol
 _atom_site_label
 _atom_site_symmetry_multiplicity
 _atom_site_fract_x
 _atom_site_fract_y
 _atom_site_fract_z
 _atom_site_occupancy
  V  V0  1  0.853703  0.664859  0.183752  1
  V  V1  1  0.697612  0.336758  0.303212  1
  V  V2  1  0.527848  0.996619  0.530174  1
  V  V3  1  0.355545  0.668461  0.649194  1
  V  V4  1  0.022547  0.003549  0.033214  1
  V  V5  1  0.185152  0.329757  0.800287  1
  O  O6  1  0.956287  0.358756  0.104226  1
  O  O7  1  0.764723  0.974879  0.729297  1
  O  O8  1  0.613081  0.688622  0.443000  1
  O  O9  1  0.219315  0.022635  0.271535  1
  O  O10  1  0.362438  0.310542  0.561767  1
  O  O11  1  0.091119  0.644775  0.389891  1
  F  F12  1  0.979249  0.166648  0.917279  1
  F  F13  1  0.886199  0.369499  0.606272  1
  F  F14  1  0.669983  0.166716  0.416607  1
  F  F15  1  0.654185  0.500163  0.239199  1
  F  F16  1  0.422961  0.293259  0.069979  1
  F  F17  1  0.296743  0.040170  0.763359  1
  F  F18  1  0.684086  0.963612  0.227630  1
  F  F19  1  0.561271  0.695572  0.946976  1
  F  F20  1  0.337220  0.498943  0.770772  1
  F  F21  1  0.321249  0.833148  0.594424  1
  F  F22  1  0.032266  0.637659  0.886031  1
  F  F23  1  0.005222  0.834401  0.061922  1
