# generated using pymatgen
data_Li2Mn2Si5O13
_symmetry_space_group_name_H-M   'P 1'
_cell_length_a   7.54249630
_cell_length_b   7.72286603
_cell_length_c   9.99816430
_cell_angle_alpha   83.89200852
_cell_angle_beta   68.39333036
_cell_angle_gamma   74.25240974
_symmetry_Int_Tables_number   1
_chemical_formula_structural   Li2Mn2Si5O13
_chemical_formula_sum   'Li4 Mn4 Si10 O26'
_cell_volume   521.13083771
_cell_formula_units_Z   2
loop_
 _symmetry_equiv_pos_site_id
 _symmetry_equiv_pos_as_xyz
  1  'x, y, z'
loop_
 _atom_site_type_symbol
 _atom_site_label
 _atom_site_symmetry_multiplicity
 _atom_site_fract_x
 _atom_site_fract_y
 _atom_site_fract_z
 _atom_site_occupancy
  Li  Li0  1  0.185937  0.077877  0.866496  1
  Li  Li1  1  0.159491  0.406345  0.745621  1
  Li  Li2  1  0.840509  0.593655  0.254379  1
  Li  Li3  1  0.814063  0.922123  0.133504  1
  Mn  Mn4  1  0.029902  0.159857  0.602232  1
  Mn  Mn5  1  0.437637  0.840424  0.398700  1
  Mn  Mn6  1  0.562363  0.159576  0.601300  1
  Mn  Mn7  1  0.970098  0.840143  0.397768  1
  Si  Si8  1  0.150874  0.223332  0.263692  1
  Si  Si9  1  0.214566  0.692606  0.042265  1
  Si  Si10  1  0.309503  0.454495  0.408389  1
  Si  Si11  1  0.263235  0.766161  0.730589  1
  Si  Si12  1  0.630365  0.703587  0.044284  1
  Si  Si13  1  0.369635  0.296413  0.955716  1
  Si  Si14  1  0.736765  0.233839  0.269411  1
  Si  Si15  1  0.690497  0.545505  0.591611  1
  Si  Si16  1  0.785434  0.307394  0.957735  1
  Si  Si17  1  0.849126  0.776668  0.736308  1
  O  O18  1  0.023349  0.770821  0.179733  1
  O  O19  1  0.163053  0.054012  0.374562  1
  O  O20  1  0.296539  0.165396  0.096975  1
  O  O21  1  0.198640  0.397929  0.309703  1
  O  O22  1  0.073261  0.692327  0.741904  1
  O  O23  1  0.413798  0.681490  0.070198  1
  O  O24  1  0.238223  0.672074  0.425898  1
  O  O25  1  0.277720  0.325166  0.550664  1
  O  O26  1  0.549952  0.408771  0.311415  1
  O  O27  1  0.364611  0.218292  0.814466  1
  O  O28  1  0.212566  0.496226  0.994644  1
  O  O29  1  0.295872  0.938202  0.624902  1
  O  O30  1  0.214724  0.827794  0.898893  1
  O  O31  1  0.785276  0.172206  0.101107  1
  O  O32  1  0.704128  0.061798  0.375098  1
  O  O33  1  0.787434  0.503774  0.005356  1
  O  O34  1  0.635389  0.781708  0.185534  1
  O  O35  1  0.450048  0.591229  0.688585  1
  O  O36  1  0.722280  0.674834  0.449336  1
  O  O37  1  0.761777  0.327926  0.574102  1
  O  O38  1  0.586202  0.318510  0.929802  1
  O  O39  1  0.926739  0.307673  0.258096  1
  O  O40  1  0.801360  0.602071  0.690297  1
  O  O41  1  0.703461  0.834604  0.903025  1
  O  O42  1  0.836947  0.945988  0.625438  1
  O  O43  1  0.976651  0.229179  0.820267  1
