# generated using pymatgen
data_LiMn2F6
_symmetry_space_group_name_H-M   'P 1'
_cell_length_a   8.86973391
_cell_length_b   8.86592352
_cell_length_c   4.67766023
_cell_angle_alpha   89.93862800
_cell_angle_beta   90.00000000
_cell_angle_gamma   120.01422178
_symmetry_Int_Tables_number   1
_chemical_formula_structural   LiMn2F6
_chemical_formula_sum   'Li3 Mn6 F18'
_cell_volume   318.51602592
_cell_formula_units_Z   3
loop_
 _symmetry_equiv_pos_site_id
 _symmetry_equiv_pos_as_xyz
  1  'x, y, z'
loop_
 _atom_site_type_symbol
 _atom_site_label
 _atom_site_symmetry_multiplicity
 _atom_site_fract_x
 _atom_site_fract_y
 _atom_site_fract_z
 _atom_site_occupancy
  Li  Li0  1  0.333333  0.666540  0.485608  1
  Li  Li1  1  0.000023  1.000000  0.000000  1
  Li  Li2  1  0.666792  0.333460  0.514392  1
  Mn  Mn3  1  0.999365  0.643614  -0.000015  1
  Mn  Mn4  1  0.000062  0.313295  0.499949  1
  Mn  Mn5  1  0.355751  0.356386  0.000015  1
  Mn  Mn6  1  0.313470  0.000000  0.500000  1
  Mn  Mn7  1  0.686767  0.686705  0.500051  1
  Mn  Mn8  1  0.644465  0.000000  1.000000  1
  F  F9  1  0.114928  0.891087  0.753660  1
  F  F10  1  0.212049  0.768494  0.267437  1
  F  F11  1  0.105599  0.523854  0.728743  1
  F  F12  1  0.418274  0.893915  0.727470  1
  F  F13  1  0.107398  0.221153  0.753046  1
  F  F14  1  0.231613  0.444336  0.266827  1
  F  F15  1  0.555835  0.787473  0.267768  1
  F  F16  1  0.223841  0.108913  0.246340  1
  F  F17  1  0.475613  0.581028  0.728703  1
  F  F18  1  0.443554  0.231506  0.732563  1
  F  F19  1  0.777268  0.885938  0.754471  1
  F  F20  1  0.581745  0.476146  0.271257  1
  F  F21  1  0.524359  0.106085  0.272530  1
  F  F22  1  0.886245  0.778847  0.246954  1
  F  F23  1  0.787277  0.555664  0.733173  1
  F  F24  1  0.768363  0.212527  0.732232  1
  F  F25  1  0.894584  0.418972  0.271297  1
  F  F26  1  0.891329  0.114062  0.245529  1
