# generated using pymatgen
data_Li4Fe3TeO8
_symmetry_space_group_name_H-M   'P 1'
_cell_length_a   5.99467957
_cell_length_b   6.64901550
_cell_length_c   4.99179158
_cell_angle_alpha   90.48271383
_cell_angle_beta   90.66732882
_cell_angle_gamma   92.77912144
_symmetry_Int_Tables_number   1
_chemical_formula_structural   Li4Fe3TeO8
_chemical_formula_sum   'Li4 Fe3 Te1 O8'
_cell_volume   198.71087105
_cell_formula_units_Z   1
loop_
 _symmetry_equiv_pos_site_id
 _symmetry_equiv_pos_as_xyz
  1  'x, y, z'
loop_
 _atom_site_type_symbol
 _atom_site_label
 _atom_site_symmetry_multiplicity
 _atom_site_fract_x
 _atom_site_fract_y
 _atom_site_fract_z
 _atom_site_occupancy
  Li  Li0  1  0.094335  0.605377  0.973361  1
  Li  Li1  1  0.418180  0.135529  0.507319  1
  Li  Li2  1  0.546903  0.883697  0.984567  1
  Li  Li3  1  0.911387  0.373037  0.503556  1
  Fe  Fe4  1  0.093932  0.148400  0.966266  1
  Fe  Fe5  1  0.422477  0.618948  0.510273  1
  Fe  Fe6  1  0.590875  0.374290  0.002862  1
  Te  Te7  1  0.913414  0.862879  0.434206  1
  O  O8  1  0.077705  0.124181  0.402649  1
  O  O9  1  0.117065  0.615180  0.407090  1
  O  O10  1  0.418903  0.137887  0.906949  1
  O  O11  1  0.427697  0.606592  0.893483  1
  O  O12  1  0.586143  0.396281  0.391038  1
  O  O13  1  0.558156  0.877181  0.422922  1
  O  O14  1  0.893098  0.370024  0.900306  1
  O  O15  1  0.929729  0.870518  0.819553  1
