# generated using pymatgen
data_V7(PO4)6
_symmetry_space_group_name_H-M   'P 1'
_cell_length_a   6.45119516
_cell_length_b   8.20985058
_cell_length_c   9.41338037
_cell_angle_alpha   105.21011516
_cell_angle_beta   71.63438879
_cell_angle_gamma   78.11521254
_symmetry_Int_Tables_number   1
_chemical_formula_structural   V7(PO4)6
_chemical_formula_sum   'V7 P6 O24'
_cell_volume   433.32965723
_cell_formula_units_Z   1
loop_
 _symmetry_equiv_pos_site_id
 _symmetry_equiv_pos_as_xyz
  1  'x, y, z'
loop_
 _atom_site_type_symbol
 _atom_site_label
 _atom_site_symmetry_multiplicity
 _atom_site_fract_x
 _atom_site_fract_y
 _atom_site_fract_z
 _atom_site_occupancy
  V  V0  1  0.957381  0.714374  0.520060  1
  V  V1  1  0.719950  0.807151  0.282878  1
  V  V2  1  0.390981  0.542320  0.890164  1
  V  V3  1  0.609019  0.457680  0.109836  1
  V  V4  1  0.280050  0.192849  0.717122  1
  V  V5  1  0.042619  0.285626  0.479941  1
  V  V6  1  0.000000  0.000000  0.000000  1
  P  P7  1  0.910588  0.592614  0.832965  1
  P  P8  1  0.775895  0.139170  0.768353  1
  P  P9  1  0.398533  0.765669  0.628250  1
  P  P10  1  0.601467  0.234331  0.371750  1
  P  P11  1  0.224105  0.860830  0.231647  1
  P  P12  1  0.089412  0.407386  0.167035  1
  O  O13  1  0.884881  0.781794  0.921604  1
  O  O14  1  0.938461  0.547577  0.653942  1
  O  O15  1  0.796909  0.943987  0.700462  1
  O  O16  1  0.985032  0.183682  0.664281  1
  O  O17  1  0.775254  0.187109  0.940570  1
  O  O18  1  0.697764  0.539452  0.914501  1
  O  O19  1  0.872969  0.536038  0.166124  1
  O  O20  1  0.632167  0.763417  0.502377  1
  O  O21  1  0.751478  0.276947  0.465965  1
  O  O22  1  0.548763  0.255476  0.772140  1
  O  O23  1  0.452823  0.634303  0.707486  1
  O  O24  1  0.276499  0.958570  0.757122  1
  O  O25  1  0.723501  0.041430  0.242878  1
  O  O26  1  0.547177  0.365697  0.292514  1
  O  O27  1  0.451237  0.744524  0.227860  1
  O  O28  1  0.248522  0.723053  0.534035  1
  O  O29  1  0.367833  0.236583  0.497623  1
  O  O30  1  0.127031  0.463962  0.833876  1
  O  O31  1  0.302236  0.460548  0.085499  1
  O  O32  1  0.224746  0.812891  0.059430  1
  O  O33  1  0.014968  0.816318  0.335719  1
  O  O34  1  0.203091  0.056013  0.299538  1
  O  O35  1  0.061539  0.452423  0.346058  1
  O  O36  1  0.115119  0.218206  0.078396  1
