# generated using pymatgen
data_LiVFeP2(HO5)2
_symmetry_space_group_name_H-M   'P 1'
_cell_length_a   7.48422028
_cell_length_b   11.11918672
_cell_length_c   6.90544973
_cell_angle_alpha   72.55904523
_cell_angle_beta   89.41952701
_cell_angle_gamma   80.71178104
_symmetry_Int_Tables_number   1
_chemical_formula_structural   LiVFeP2(HO5)2
_chemical_formula_sum   'Li3 V3 Fe3 P6 H6 O30'
_cell_volume   540.60692236
_cell_formula_units_Z   3
loop_
 _symmetry_equiv_pos_site_id
 _symmetry_equiv_pos_as_xyz
  1  'x, y, z'
loop_
 _atom_site_type_symbol
 _atom_site_label
 _atom_site_symmetry_multiplicity
 _atom_site_fract_x
 _atom_site_fract_y
 _atom_site_fract_z
 _atom_site_occupancy
  Li  Li0  1  0.688414  0.158891  0.749163  1
  Li  Li1  1  0.646565  0.507092  0.916508  1
  Li  Li2  1  0.312013  0.839977  0.250681  1
  V  V3  1  0.666959  0.834372  0.830813  1
  V  V4  1  0.335590  0.166414  0.170969  1
  V  V5  1  0.999881  0.501061  0.497583  1
  Fe  Fe6  1  0.668827  0.332734  0.333948  1
  Fe  Fe7  1  0.327259  0.665885  0.668994  1
  Fe  Fe8  1  0.001820  0.999393  0.000562  1
  P  P9  1  0.926879  0.300250  0.945027  1
  P  P10  1  0.741985  0.031079  0.386707  1
  P  P11  1  0.407435  0.365110  0.721223  1
  P  P12  1  0.593769  0.635683  0.278564  1
  P  P13  1  0.259372  0.967480  0.613127  1
  P  P14  1  0.075153  0.699637  0.054394  1
  H  H15  1  0.330778  0.018581  0.957309  1
  H  H16  1  0.001761  0.341201  0.310353  1
  H  H17  1  0.663284  0.684809  0.624322  1
  H  H18  1  0.333024  0.325760  0.357383  1
  H  H19  1  0.997460  0.658422  0.691197  1
  H  H20  1  0.670046  0.981407  0.043323  1
  O  O21  1  0.920853  0.188225  0.859303  1
  O  O22  1  0.911223  0.429498  0.772210  1
  O  O23  1  0.420755  0.235857  0.894427  1
  O  O24  1  0.899135  0.721548  0.917822  1
  O  O25  1  0.730047  0.142488  0.478639  1
  O  O26  1  0.908978  0.021021  0.260764  1
  O  O27  1  0.415649  0.477343  0.805877  1
  O  O28  1  0.915289  0.369813  0.402643  1
  O  O29  1  0.577100  0.344832  0.597845  1
  O  O30  1  0.570043  0.050502  0.243740  1
  O  O31  1  0.744484  0.972137  0.927216  1
  O  O32  1  0.253939  0.094512  0.438171  1
  O  O33  1  0.589871  0.693904  0.741268  1
  O  O34  1  0.240104  0.685818  0.925244  1
  O  O35  1  0.235250  0.386649  0.582660  1
  O  O36  1  0.762194  0.615616  0.423758  1
  O  O37  1  0.757725  0.320422  0.069506  1
  O  O38  1  0.418846  0.296918  0.264374  1
  O  O39  1  0.745021  0.903654  0.561009  1
  O  O40  1  0.256405  0.027216  0.073374  1
  O  O41  1  0.431939  0.948133  0.755429  1
  O  O42  1  0.422157  0.652281  0.399576  1
  O  O43  1  0.084649  0.629070  0.600396  1
  O  O44  1  0.603179  0.524284  0.188019  1
  O  O45  1  0.092520  0.977910  0.739441  1
  O  O46  1  0.274117  0.855577  0.521801  1
  O  O47  1  0.099972  0.278487  0.082664  1
  O  O48  1  0.580254  0.765565  0.106726  1
  O  O49  1  0.079893  0.573022  0.229230  1
  O  O50  1  0.078407  0.811643  0.142036  1
