# generated using pymatgen
data_Li2MnP2O7
_symmetry_space_group_name_H-M   'P 1'
_cell_length_a   5.09198130
_cell_length_b   7.21884506
_cell_length_c   8.53406192
_cell_angle_alpha   90.00000000
_cell_angle_beta   90.00000000
_cell_angle_gamma   70.17089135
_symmetry_Int_Tables_number   1
_chemical_formula_structural   Li2MnP2O7
_chemical_formula_sum   'Li4 Mn2 P4 O14'
_cell_volume   295.09741399
_cell_formula_units_Z   2
loop_
 _symmetry_equiv_pos_site_id
 _symmetry_equiv_pos_as_xyz
  1  'x, y, z'
loop_
 _atom_site_type_symbol
 _atom_site_label
 _atom_site_symmetry_multiplicity
 _atom_site_fract_x
 _atom_site_fract_y
 _atom_site_fract_z
 _atom_site_occupancy
  Li  Li0  1  0.183042  0.346734  0.147437  1
  Li  Li1  1  0.655266  0.084552  0.323982  1
  Li  Li2  1  0.344736  0.915451  0.823983  1
  Li  Li3  1  0.816958  0.653266  0.647437  1
  Mn  Mn4  1  0.194062  0.279152  0.507168  1
  Mn  Mn5  1  0.805938  0.720848  0.007168  1
  P  P6  1  0.389363  0.481428  0.813499  1
  P  P7  1  0.212697  0.917377  0.205808  1
  P  P8  1  0.787303  0.082623  0.705808  1
  P  P9  1  0.610637  0.518572  0.313499  1
  O  O10  1  0.076629  0.102299  0.687180  1
  O  O11  1  0.197233  0.106422  0.294027  1
  O  O12  1  0.214073  0.504314  0.962823  1
  O  O13  1  0.214942  0.501187  0.664326  1
  O  O14  1  0.438195  0.380424  0.309788  1
  O  O15  1  0.631657  0.095307  0.550550  1
  O  O16  1  0.605061  0.256061  0.822583  1
  O  O17  1  0.394939  0.743939  0.322583  1
  O  O18  1  0.368343  0.904693  0.050550  1
  O  O19  1  0.561805  0.619576  0.809788  1
  O  O20  1  0.785058  0.498813  0.164326  1
  O  O21  1  0.785927  0.495686  0.462823  1
  O  O22  1  0.802767  0.893578  0.794027  1
  O  O23  1  0.923371  0.897701  0.187180  1
