# generated using pymatgen
data_Sm4U2O11
_symmetry_space_group_name_H-M   'P 1'
_cell_length_a   7.59996335
_cell_length_b   6.79122486
_cell_length_c   5.49376320
_cell_angle_alpha   66.14176395
_cell_angle_beta   90.00000000
_cell_angle_gamma   106.05890689
_symmetry_Int_Tables_number   1
_chemical_formula_structural   Sm4U2O11
_chemical_formula_sum   'Sm4 U2 O11'
_cell_volume   247.17329804
_cell_formula_units_Z   1
loop_
 _symmetry_equiv_pos_site_id
 _symmetry_equiv_pos_as_xyz
  1  'x, y, z'
loop_
 _atom_site_type_symbol
 _atom_site_label
 _atom_site_symmetry_multiplicity
 _atom_site_fract_x
 _atom_site_fract_y
 _atom_site_fract_z
 _atom_site_occupancy
  Sm  Sm0  1  0.996037  0.974524  0.039418  1
  Sm  Sm1  1  0.821927  0.335023  0.310393  1
  Sm  Sm2  1  0.344740  0.331644  0.312082  1
  Sm  Sm3  1  0.170629  0.692142  0.680609  1
  U  U4  1  0.508962  0.013040  0.980145  1
  U  U5  1  0.657705  0.653627  0.659851  1
  O  O6  1  0.083333  0.333333  0.084091  1
  O  O7  1  0.280667  0.990383  0.234353  1
  O  O8  1  0.724695  0.968969  0.281250  1
  O  O9  1  0.583333  0.333333  0.054553  1
  O  O10  1  0.758463  0.038107  0.757761  1
  O  O11  1  0.583333  0.333333  0.589462  1
  O  O12  1  0.922684  0.644873  0.425169  1
  O  O13  1  0.408204  0.628559  0.462535  1
  O  O14  1  0.243982  0.021794  0.736708  1
  O  O15  1  0.886000  0.676284  0.891403  1
  O  O16  1  0.441972  0.697698  0.916886  1
