# generated using pymatgen
data_Li3SiBiO5
_symmetry_space_group_name_H-M   'P 1'
_cell_length_a   5.26041879
_cell_length_b   5.50051057
_cell_length_c   16.67137352
_cell_angle_alpha   90.00000000
_cell_angle_beta   90.00000000
_cell_angle_gamma   90.00000000
_symmetry_Int_Tables_number   1
_chemical_formula_structural   Li3SiBiO5
_chemical_formula_sum   'Li12 Si4 Bi4 O20'
_cell_volume   482.38601203
_cell_formula_units_Z   4
loop_
 _symmetry_equiv_pos_site_id
 _symmetry_equiv_pos_as_xyz
  1  'x, y, z'
loop_
 _atom_site_type_symbol
 _atom_site_label
 _atom_site_symmetry_multiplicity
 _atom_site_fract_x
 _atom_site_fract_y
 _atom_site_fract_z
 _atom_site_occupancy
  Li  Li0  1  0.998515  0.663151  0.578088  1
  Li  Li1  1  0.998515  0.163151  0.921912  1
  Li  Li2  1  0.518702  0.325589  0.985326  1
  Li  Li3  1  0.518702  0.825589  0.514674  1
  Li  Li4  1  0.480957  0.295828  0.807740  1
  Li  Li5  1  0.480957  0.795828  0.692260  1
  Li  Li6  1  0.498515  0.336849  0.421912  1
  Li  Li7  1  0.498515  0.836849  0.078088  1
  Li  Li8  1  0.018702  0.674411  0.014674  1
  Li  Li9  1  0.018702  0.174411  0.485326  1
  Li  Li10  1  0.980957  0.204172  0.307740  1
  Li  Li11  1  0.980957  0.704172  0.192260  1
  Si  Si12  1  0.005343  0.167527  0.093717  1
  Si  Si13  1  0.005343  0.667527  0.406283  1
  Si  Si14  1  0.505343  0.332473  0.593717  1
  Si  Si15  1  0.505343  0.832473  0.906283  1
  Bi  Bi16  1  0.032524  0.182888  0.682847  1
  Bi  Bi17  1  0.032524  0.682888  0.817153  1
  Bi  Bi18  1  0.532524  0.317112  0.182847  1
  Bi  Bi19  1  0.532524  0.817112  0.317153  1
  O  O20  1  0.101573  0.295266  0.811682  1
  O  O21  1  0.101573  0.795266  0.688318  1
  O  O22  1  0.130271  0.400039  0.392343  1
  O  O23  1  0.130271  0.900039  0.107657  1
  O  O24  1  0.154873  0.336339  0.028074  1
  O  O25  1  0.154873  0.836339  0.471926  1
  O  O26  1  0.974203  0.316069  0.183752  1
  O  O27  1  0.974203  0.816069  0.316248  1
  O  O28  1  0.198041  0.354412  0.569189  1
  O  O29  1  0.198041  0.854412  0.930811  1
  O  O30  1  0.601573  0.204734  0.311682  1
  O  O31  1  0.601573  0.704734  0.188318  1
  O  O32  1  0.630271  0.099961  0.892343  1
  O  O33  1  0.630271  0.599961  0.607657  1
  O  O34  1  0.654873  0.163661  0.528074  1
  O  O35  1  0.654873  0.663661  0.971926  1
  O  O36  1  0.474203  0.183931  0.683752  1
  O  O37  1  0.474203  0.683931  0.816248  1
  O  O38  1  0.698041  0.145588  0.069189  1
  O  O39  1  0.698041  0.645588  0.430811  1
