# generated using pymatgen
data_Li6V3P8O29
_symmetry_space_group_name_H-M   'P 1'
_cell_length_a   9.80742117
_cell_length_b   9.77665041
_cell_length_c   13.95308679
_cell_angle_alpha   90.14710447
_cell_angle_beta   90.30411932
_cell_angle_gamma   60.13023053
_symmetry_Int_Tables_number   1
_chemical_formula_structural   Li6V3P8O29
_chemical_formula_sum   'Li12 V6 P16 O58'
_cell_volume   1160.13397536
_cell_formula_units_Z   2
loop_
 _symmetry_equiv_pos_site_id
 _symmetry_equiv_pos_as_xyz
  1  'x, y, z'
loop_
 _atom_site_type_symbol
 _atom_site_label
 _atom_site_symmetry_multiplicity
 _atom_site_fract_x
 _atom_site_fract_y
 _atom_site_fract_z
 _atom_site_occupancy
  Li  Li0  1  0.912488  0.766551  0.058266  1
  Li  Li1  1  0.900850  0.335443  0.564308  1
  Li  Li2  1  0.662908  0.668371  0.884029  1
  Li  Li3  1  0.770525  0.324572  0.058422  1
  Li  Li4  1  0.328283  0.909045  0.059676  1
  Li  Li5  1  0.662027  0.234780  0.442998  1
  Li  Li6  1  0.334016  0.761485  0.565538  1
  Li  Li7  1  0.664939  0.099815  0.936159  1
  Li  Li8  1  0.095163  0.665964  0.442525  1
  Li  Li9  1  0.232659  0.099146  0.443788  1
  Li  Li10  1  0.044535  0.981970  0.986767  1
  Li  Li11  1  0.959891  0.988119  0.514277  1
  V  V12  1  0.565471  0.435203  0.248571  1
  V  V13  1  0.435376  0.560335  0.752995  1
  V  V14  1  0.564394  0.997001  0.744049  1
  V  V15  1  0.434224  0.000703  0.251117  1
  V  V16  1  0.999924  0.565430  0.248432  1
  V  V17  1  0.003654  0.436786  0.753410  1
  P  P18  1  0.909808  0.781388  0.842532  1
  P  P19  1  0.777439  0.915962  0.339820  1
  P  P20  1  0.913539  0.315273  0.344428  1
  P  P21  1  0.666703  0.667349  0.126935  1
  P  P22  1  0.665001  0.662011  0.630040  1
  P  P23  1  0.778497  0.315105  0.841960  1
  P  P24  1  0.688349  0.225159  0.657467  1
  P  P25  1  0.314994  0.907646  0.843658  1
  P  P26  1  0.683838  0.086507  0.154187  1
  P  P27  1  0.315092  0.770695  0.345199  1
  P  P28  1  0.223431  0.693380  0.158408  1
  P  P29  1  0.332893  0.334392  0.369014  1
  P  P30  1  0.338234  0.327475  0.870483  1
  P  P31  1  0.085482  0.691483  0.657201  1
  P  P32  1  0.223285  0.087180  0.658914  1
  P  P33  1  0.084296  0.222323  0.158922  1
  O  O34  1  0.007751  0.782669  0.567067  1
  O  O35  1  0.916469  0.744546  0.341105  1
  O  O36  1  0.766194  0.004287  0.062973  1
  O  O37  1  0.742428  0.925158  0.839303  1
  O  O38  1  0.894081  0.630763  0.830420  1
  O  O39  1  0.810271  0.679742  0.165977  1
  O  O40  1  0.909859  0.473062  0.327588  1
  O  O41  1  0.994909  0.205730  0.076522  1
  O  O42  1  0.919546  0.340761  0.842588  1
  O  O43  1  0.666411  0.809200  0.676470  1
  O  O44  1  0.618247  0.920212  0.330352  1
  O  O45  1  0.812729  0.511778  0.672352  1
  O  O46  1  0.665574  0.667590  0.018828  1
  O  O47  1  0.662429  0.661045  0.523283  1
  O  O48  1  0.679293  0.511203  0.166202  1
  O  O49  1  0.476253  0.899806  0.833550  1
  O  O50  1  0.512469  0.810740  0.167123  1
  O  O51  1  0.745393  0.338500  0.340939  1
  O  O52  1  0.796507  0.207574  0.750026  1
  O  O53  1  0.783503  0.216238  0.568806  1
  O  O54  1  0.772162  0.227642  0.929820  1
  O  O55  1  0.628192  0.479393  0.831049  1
  O  O56  1  0.512363  0.670547  0.671812  1
  O  O57  1  0.661889  0.255417  0.158942  1
  O  O58  1  0.472749  0.617534  0.328011  1
  O  O59  1  0.338131  0.916292  0.342746  1
  O  O60  1  0.800106  0.990947  0.241745  1
  O  O61  1  0.789790  0.008892  0.421920  1
  O  O62  1  0.221770  0.996945  0.570630  1
  O  O63  1  0.658237  0.087109  0.659406  1
  O  O64  1  0.536926  0.383763  0.665385  1
  O  O65  1  0.342763  0.739682  0.838721  1
  O  O66  1  0.488375  0.322300  0.328116  1
  O  O67  1  0.379895  0.538509  0.167844  1
  O  O68  1  0.209019  0.799949  0.077438  1
  O  O69  1  0.233681  0.767953  0.436084  1
  O  O70  1  0.200318  0.791214  0.257488  1
  O  O71  1  0.254466  0.662456  0.661712  1
  O  O72  1  0.483854  0.177796  0.826711  1
  O  O73  1  0.527187  0.092422  0.170764  1
  O  O74  1  0.342060  0.472145  0.824227  1
  O  O75  1  0.347012  0.323605  0.976424  1
  O  O76  1  0.333707  0.335615  0.476235  1
  O  O77  1  0.188680  0.489907  0.328246  1
  O  O78  1  0.376645  0.092444  0.667538  1
  O  O79  1  0.319682  0.189802  0.330019  1
  O  O80  1  0.083026  0.661394  0.158906  1
  O  O81  1  0.997820  0.797951  0.750076  1
  O  O82  1  0.993045  0.784015  0.932252  1
  O  O83  1  0.079750  0.537798  0.666552  1
  O  O84  1  0.186435  0.336531  0.825015  1
  O  O85  1  0.081176  0.380064  0.167907  1
  O  O86  1  0.256768  0.082493  0.160991  1
  O  O87  1  0.227228  0.989243  0.933392  1
  O  O88  1  0.205571  0.001749  0.752700  1
  O  O89  1  0.079332  0.254412  0.658948  1
  O  O90  1  0.996284  0.234638  0.436475  1
  O  O91  1  0.008638  0.199768  0.257522  1
