# generated using pymatgen
data_Li3NiPCO7
_symmetry_space_group_name_H-M   'P 1'
_cell_length_a   8.60677066
_cell_length_b   9.68807897
_cell_length_c   6.30126099
_cell_angle_alpha   90.00000000
_cell_angle_beta   90.00000000
_cell_angle_gamma   84.09652206
_symmetry_Int_Tables_number   1
_chemical_formula_structural   Li3NiPCO7
_chemical_formula_sum   'Li12 Ni4 P4 C4 O28'
_cell_volume   522.63199337
_cell_formula_units_Z   4
loop_
 _symmetry_equiv_pos_site_id
 _symmetry_equiv_pos_as_xyz
  1  'x, y, z'
loop_
 _atom_site_type_symbol
 _atom_site_label
 _atom_site_symmetry_multiplicity
 _atom_site_fract_x
 _atom_site_fract_y
 _atom_site_fract_z
 _atom_site_occupancy
  Li  Li0  1  0.108477  0.388917  0.242075  1
  Li  Li1  1  0.108477  0.888917  0.257925  1
  Li  Li2  1  0.278718  0.121639  0.501691  1
  Li  Li3  1  0.278718  0.621639  0.998309  1
  Li  Li4  1  0.355822  0.387115  0.747655  1
  Li  Li5  1  0.355822  0.887115  0.752345  1
  Li  Li6  1  0.644178  0.112885  0.252345  1
  Li  Li7  1  0.644178  0.612885  0.247655  1
  Li  Li8  1  0.721282  0.378361  0.498309  1
  Li  Li9  1  0.721282  0.878361  0.001691  1
  Li  Li10  1  0.891523  0.111083  0.757925  1
  Li  Li11  1  0.891523  0.611083  0.742075  1
  Ni  Ni12  1  0.269780  0.127714  0.003609  1
  Ni  Ni13  1  0.269780  0.627714  0.496391  1
  Ni  Ni14  1  0.730220  0.372286  0.996390  1
  Ni  Ni15  1  0.730220  0.872286  0.503610  1
  P  P16  1  0.407085  0.361505  0.239081  1
  P  P17  1  0.407085  0.861505  0.260919  1
  P  P18  1  0.592915  0.138495  0.760919  1
  P  P19  1  0.592915  0.638495  0.739081  1
  C  C20  1  0.040880  0.349113  0.759119  1
  C  C21  1  0.040880  0.849113  0.740881  1
  C  C22  1  0.959120  0.150887  0.240881  1
  C  C23  1  0.959120  0.650887  0.259119  1
  O  O24  1  0.064664  0.475709  0.740696  1
  O  O25  1  0.103050  0.186701  0.226323  1
  O  O26  1  0.064664  0.975709  0.759304  1
  O  O27  1  0.155485  0.250871  0.757924  1
  O  O28  1  0.103050  0.686701  0.273677  1
  O  O29  1  0.155485  0.750871  0.742076  1
  O  O30  1  0.307633  0.420085  0.050895  1
  O  O31  1  0.316278  0.418379  0.439697  1
  O  O32  1  0.316278  0.918379  0.060303  1
  O  O33  1  0.307633  0.920085  0.449105  1
  O  O34  1  0.423896  0.098089  0.759384  1
  O  O35  1  0.413780  0.199481  0.237764  1
  O  O36  1  0.423896  0.598089  0.740616  1
  O  O37  1  0.413780  0.699481  0.262236  1
  O  O38  1  0.586220  0.300519  0.762236  1
  O  O39  1  0.576104  0.401911  0.240616  1
  O  O40  1  0.586220  0.800519  0.737764  1
  O  O41  1  0.576104  0.901911  0.259384  1
  O  O42  1  0.692367  0.079915  0.949105  1
  O  O43  1  0.683722  0.081621  0.560303  1
  O  O44  1  0.692367  0.579915  0.550895  1
  O  O45  1  0.683722  0.581621  0.939697  1
  O  O46  1  0.844515  0.249129  0.242076  1
  O  O47  1  0.896950  0.313299  0.773677  1
  O  O48  1  0.844515  0.749129  0.257924  1
  O  O49  1  0.935336  0.024291  0.259304  1
  O  O50  1  0.896950  0.813299  0.726323  1
  O  O51  1  0.935336  0.524291  0.240696  1
