# generated using pymatgen
data_Li5Mn8(BO3)8
_symmetry_space_group_name_H-M   'P 1'
_cell_length_a   5.31812906
_cell_length_b   9.23108583
_cell_length_c   11.41704808
_cell_angle_alpha   67.04905713
_cell_angle_beta   77.25786769
_cell_angle_gamma   89.06266741
_symmetry_Int_Tables_number   1
_chemical_formula_structural   Li5Mn8(BO3)8
_chemical_formula_sum   'Li5 Mn8 B8 O24'
_cell_volume   501.89176646
_cell_formula_units_Z   1
loop_
 _symmetry_equiv_pos_site_id
 _symmetry_equiv_pos_as_xyz
  1  'x, y, z'
loop_
 _atom_site_type_symbol
 _atom_site_label
 _atom_site_symmetry_multiplicity
 _atom_site_fract_x
 _atom_site_fract_y
 _atom_site_fract_z
 _atom_site_occupancy
  Li  Li0  1  0.029343  0.034646  0.102082  1
  Li  Li1  1  0.276285  0.250980  0.338945  1
  Li  Li2  1  0.489614  0.517008  0.828692  1
  Li  Li3  1  0.784239  0.744889  0.339665  1
  Li  Li4  1  0.984792  0.019053  0.828841  1
  Mn  Mn5  1  0.012157  0.359654  0.123201  1
  Mn  Mn6  1  0.248445  0.560561  0.373888  1
  Mn  Mn7  1  0.279592  0.930087  0.619626  1
  Mn  Mn8  1  0.523150  0.843236  0.118462  1
  Mn  Mn9  1  0.468076  0.156020  0.869442  1
  Mn  Mn10  1  0.757093  0.062644  0.373247  1
  Mn  Mn11  1  0.773342  0.431339  0.619941  1
  Mn  Mn12  1  0.973955  0.660105  0.869761  1
  B  B13  1  0.038646  0.694854  0.119315  1
  B  B14  1  0.253015  0.888692  0.370647  1
  B  B15  1  0.248891  0.606940  0.629255  1
  B  B16  1  0.516697  0.173277  0.131983  1
  B  B17  1  0.481401  0.819020  0.864776  1
  B  B18  1  0.735345  0.390362  0.378841  1
  B  B19  1  0.757958  0.107406  0.625830  1
  B  B20  1  0.969187  0.318581  0.872432  1
  O  O21  1  0.006823  0.895873  0.355425  1
  O  O22  1  0.001030  0.081003  0.642409  1
  O  O23  1  0.253447  0.656712  0.171708  1
  O  O24  1  0.125813  0.535328  0.568213  1
  O  O25  1  0.103034  0.713366  0.674401  1
  O  O26  1  0.360649  0.279754  0.156417  1
  O  O27  1  0.436822  0.077446  0.074714  1
  O  O28  1  0.069347  0.175415  0.891848  1
  O  O29  1  0.076725  0.426730  0.909610  1
  O  O30  1  0.348860  0.983020  0.426877  1
  O  O31  1  0.425492  0.793126  0.328358  1
  O  O32  1  0.250482  0.858924  0.818026  1
  O  O33  1  0.484507  0.386514  0.375380  1
  O  O34  1  0.491069  0.579236  0.644386  1
  O  O35  1  0.758091  0.153586  0.166156  1
  O  O36  1  0.636977  0.024646  0.571651  1
  O  O37  1  0.614023  0.216320  0.665471  1
  O  O38  1  0.902789  0.818848  0.129349  1
  O  O39  1  0.965003  0.601387  0.059361  1
  O  O40  1  0.596319  0.687708  0.864769  1
  O  O41  1  0.578895  0.920531  0.911083  1
  O  O42  1  0.836514  0.496742  0.423974  1
  O  O43  1  0.908633  0.296545  0.335855  1
  O  O44  1  0.749434  0.357736  0.818408  1
