# generated using pymatgen
data_Li12Cr3FeP4(CO7)4
_symmetry_space_group_name_H-M   'P 1'
_cell_length_a   8.65031391
_cell_length_b   10.02797134
_cell_length_c   6.47040427
_cell_angle_alpha   90.00000000
_cell_angle_beta   90.00000000
_cell_angle_gamma   85.61151104
_symmetry_Int_Tables_number   1
_chemical_formula_structural   Li12Cr3FeP4(CO7)4
_chemical_formula_sum   'Li12 Cr3 Fe1 P4 C4 O28'
_cell_volume   559.63028577
_cell_formula_units_Z   1
loop_
 _symmetry_equiv_pos_site_id
 _symmetry_equiv_pos_as_xyz
  1  'x, y, z'
loop_
 _atom_site_type_symbol
 _atom_site_label
 _atom_site_symmetry_multiplicity
 _atom_site_fract_x
 _atom_site_fract_y
 _atom_site_fract_z
 _atom_site_occupancy
  Li  Li0  1  0.094675  0.382395  0.250000  1
  Li  Li1  1  0.096273  0.879486  0.250000  1
  Li  Li2  1  0.273714  0.125243  0.024829  1
  Li  Li3  1  0.273714  0.125243  0.475171  1
  Li  Li4  1  0.273857  0.624827  0.024399  1
  Li  Li5  1  0.273857  0.624827  0.475601  1
  Li  Li6  1  0.726121  0.374946  0.523751  1
  Li  Li7  1  0.726121  0.374946  0.976249  1
  Li  Li8  1  0.726841  0.874484  0.523749  1
  Li  Li9  1  0.726841  0.874484  0.976251  1
  Li  Li10  1  0.902441  0.119415  0.750000  1
  Li  Li11  1  0.902695  0.619388  0.750000  1
  Cr  Cr12  1  0.335188  0.393044  0.750000  1
  Cr  Cr13  1  0.335504  0.893059  0.750000  1
  Cr  Cr14  1  0.665479  0.107510  0.250000  1
  Fe  Fe15  1  0.665647  0.605118  0.250000  1
  P  P16  1  0.411066  0.358661  0.250000  1
  P  P17  1  0.413746  0.858957  0.250000  1
  P  P18  1  0.588764  0.140754  0.750000  1
  P  P19  1  0.589107  0.640239  0.750000  1
  C  C20  1  0.031704  0.353099  0.750000  1
  C  C21  1  0.031638  0.853397  0.750000  1
  C  C22  1  0.968476  0.146861  0.250000  1
  C  C23  1  0.965228  0.649235  0.250000  1
  O  O24  1  0.061081  0.476891  0.750000  1
  O  O25  1  0.110346  0.183006  0.250000  1
  O  O26  1  0.061293  0.977192  0.750000  1
  O  O27  1  0.147193  0.260479  0.750000  1
  O  O28  1  0.109564  0.679533  0.250000  1
  O  O29  1  0.147089  0.760690  0.750000  1
  O  O30  1  0.311950  0.414911  0.063501  1
  O  O31  1  0.311950  0.414911  0.436499  1
  O  O32  1  0.312835  0.912590  0.063689  1
  O  O33  1  0.312835  0.912590  0.436311  1
  O  O34  1  0.422213  0.093398  0.750000  1
  O  O35  1  0.419370  0.203368  0.250000  1
  O  O36  1  0.422371  0.593624  0.750000  1
  O  O37  1  0.428747  0.702771  0.250000  1
  O  O38  1  0.579095  0.296088  0.750000  1
  O  O39  1  0.577718  0.404748  0.250000  1
  O  O40  1  0.579970  0.795521  0.750000  1
  O  O41  1  0.577953  0.909101  0.250000  1
  O  O42  1  0.687839  0.085212  0.936432  1
  O  O43  1  0.687839  0.085212  0.563568  1
  O  O44  1  0.687711  0.584659  0.562713  1
  O  O45  1  0.687711  0.584659  0.937287  1
  O  O46  1  0.853218  0.239528  0.250000  1
  O  O47  1  0.890025  0.317487  0.750000  1
  O  O48  1  0.853884  0.744688  0.250000  1
  O  O49  1  0.939599  0.023279  0.250000  1
  O  O50  1  0.890079  0.817772  0.750000  1
  O  O51  1  0.929823  0.526472  0.250000  1
