# generated using pymatgen
data_Na3CuCSO7
_symmetry_space_group_name_H-M   'P 1'
_cell_length_a   8.99811969
_cell_length_b   6.96921524
_cell_length_c   5.14909199
_cell_angle_alpha   90.00000000
_cell_angle_beta   89.88161773
_cell_angle_gamma   90.00000000
_symmetry_Int_Tables_number   1
_chemical_formula_structural   Na3CuCSO7
_chemical_formula_sum   'Na6 Cu2 C2 S2 O14'
_cell_volume   322.89800917
_cell_formula_units_Z   2
loop_
 _symmetry_equiv_pos_site_id
 _symmetry_equiv_pos_as_xyz
  1  'x, y, z'
loop_
 _atom_site_type_symbol
 _atom_site_label
 _atom_site_symmetry_multiplicity
 _atom_site_fract_x
 _atom_site_fract_y
 _atom_site_fract_z
 _atom_site_occupancy
  Na  Na0  1  0.078646  0.250000  0.757249  1
  Na  Na1  1  0.257608  0.991640  0.246888  1
  Na  Na2  1  0.257608  0.508360  0.246888  1
  Na  Na3  1  0.742392  0.491640  0.753112  1
  Na  Na4  1  0.742392  0.008360  0.753112  1
  Na  Na5  1  0.921354  0.750000  0.242751  1
  Cu  Cu6  1  0.364177  0.750000  0.763596  1
  Cu  Cu7  1  0.635823  0.250000  0.236404  1
  C  C8  1  0.059107  0.750000  0.736000  1
  C  C9  1  0.940893  0.250000  0.264000  1
  S  S10  1  0.408902  0.250000  0.701965  1
  S  S11  1  0.591098  0.750000  0.298035  1
  O  O12  1  0.085774  0.250000  0.283263  1
  O  O13  1  0.121590  0.750000  0.963296  1
  O  O14  1  0.140783  0.750000  0.527585  1
  O  O15  1  0.322052  0.077126  0.784560  1
  O  O16  1  0.322052  0.422874  0.784560  1
  O  O17  1  0.423578  0.250000  0.409491  1
  O  O18  1  0.439230  0.750000  0.183537  1
  O  O19  1  0.560770  0.250000  0.816463  1
  O  O20  1  0.576422  0.750000  0.590509  1
  O  O21  1  0.677948  0.577126  0.215440  1
  O  O22  1  0.677948  0.922874  0.215440  1
  O  O23  1  0.859217  0.250000  0.472415  1
  O  O24  1  0.878410  0.250000  0.036704  1
  O  O25  1  0.914226  0.750000  0.716737  1
