# generated using pymatgen
data_Li3Fe8(BO3)8
_symmetry_space_group_name_H-M   'P 1'
_cell_length_a   5.26025022
_cell_length_b   9.11364699
_cell_length_c   11.39254765
_cell_angle_alpha   66.45746449
_cell_angle_beta   77.04241237
_cell_angle_gamma   89.25429412
_symmetry_Int_Tables_number   1
_chemical_formula_structural   Li3Fe8(BO3)8
_chemical_formula_sum   'Li3 Fe8 B8 O24'
_cell_volume   486.15518273
_cell_formula_units_Z   1
loop_
 _symmetry_equiv_pos_site_id
 _symmetry_equiv_pos_as_xyz
  1  'x, y, z'
loop_
 _atom_site_type_symbol
 _atom_site_label
 _atom_site_symmetry_multiplicity
 _atom_site_fract_x
 _atom_site_fract_y
 _atom_site_fract_z
 _atom_site_occupancy
  Li  Li0  1  0.972746  0.966819  0.408977  1
  Li  Li1  1  0.504065  0.490927  0.665723  1
  Li  Li2  1  0.740971  0.753399  0.154112  1
  Fe  Fe3  1  0.992547  0.645033  0.375202  1
  Fe  Fe4  1  0.729483  0.060145  0.883014  1
  Fe  Fe5  1  0.517415  0.849269  0.633766  1
  Fe  Fe6  1  0.754030  0.430975  0.126441  1
  Fe  Fe7  1  0.228928  0.563552  0.886319  1
  Fe  Fe8  1  0.482261  0.156860  0.372432  1
  Fe  Fe9  1  0.023457  0.340184  0.627933  1
  Fe  Fe10  1  0.256130  0.950408  0.122582  1
  B  B11  1  0.971585  0.305700  0.380349  1
  B  B12  1  0.744044  0.398423  0.870303  1
  B  B13  1  0.527780  0.191217  0.623619  1
  B  B14  1  0.757510  0.099626  0.135425  1
  B  B15  1  0.486103  0.820043  0.376427  1
  B  B16  1  0.228615  0.893946  0.879122  1
  B  B17  1  0.023694  0.681295  0.623319  1
  B  B18  1  0.269632  0.608442  0.128013  1
  O  O19  1  0.967429  0.906514  0.886452  1
  O  O20  1  0.874600  0.284994  0.828702  1
  O  O21  1  0.871840  0.477482  0.923228  1
  O  O22  1  0.894903  0.813247  0.607469  1
  O  O23  1  0.926217  0.564294  0.583274  1
  O  O24  1  0.755178  0.168105  0.672769  1
  O  O25  1  0.746275  0.327745  0.335056  1
  O  O26  1  0.498265  0.431810  0.851908  1
  O  O27  1  0.356931  0.783958  0.835988  1
  O  O28  1  0.569967  0.931797  0.416823  1
  O  O29  1  0.650331  0.709105  0.356859  1
  O  O30  1  0.367069  0.988024  0.918248  1
  O  O31  1  0.656023  0.001486  0.082548  1
  O  O32  1  0.383010  0.317331  0.629119  1
  O  O33  1  0.457077  0.091057  0.571593  1
  O  O34  1  0.588442  0.196843  0.179554  1
  O  O35  1  0.524509  0.604883  0.131632  1
  O  O36  1  0.249274  0.649458  0.670459  1
  O  O37  1  0.234763  0.823501  0.353304  1
  O  O38  1  0.046556  0.415814  0.428248  1
  O  O39  1  0.116908  0.180445  0.383377  1
  O  O40  1  0.149783  0.522209  0.076035  1
  O  O41  1  0.107489  0.706210  0.180014  1
  O  O42  1  0.006606  0.096613  0.145661  1
