# generated using pymatgen
data_BaTi14O28
_symmetry_space_group_name_H-M   'P 1'
_cell_length_a   13.60860277
_cell_length_b   8.51798198
_cell_length_c   10.39656213
_cell_angle_alpha   112.09617112
_cell_angle_beta   84.31790536
_cell_angle_gamma   83.74700154
_symmetry_Int_Tables_number   1
_chemical_formula_structural   BaTi14O28
_chemical_formula_sum   'Ba2 Ti28 O56'
_cell_volume   1097.09605639
_cell_formula_units_Z   2
loop_
 _symmetry_equiv_pos_site_id
 _symmetry_equiv_pos_as_xyz
  1  'x, y, z'
loop_
 _atom_site_type_symbol
 _atom_site_label
 _atom_site_symmetry_multiplicity
 _atom_site_fract_x
 _atom_site_fract_y
 _atom_site_fract_z
 _atom_site_occupancy
  Ba  Ba0  1  0.855166  0.143863  0.854360  1
  Ba  Ba1  1  0.426394  0.574373  0.426788  1
  Ti  Ti2  1  0.975779  0.545593  0.156289  1
  Ti  Ti3  1  0.833810  0.693224  0.014723  1
  Ti  Ti4  1  0.992134  0.821937  0.502533  1
  Ti  Ti5  1  0.846729  0.974478  0.368811  1
  Ti  Ti6  1  0.868885  0.312175  0.344767  1
  Ti  Ti7  1  0.582414  0.597707  0.059466  1
  Ti  Ti8  1  0.722827  0.464605  0.210059  1
  Ti  Ti9  1  0.881035  0.593839  0.698266  1
  Ti  Ti10  1  0.738944  0.739625  0.557628  1
  Ti  Ti11  1  0.599750  0.891817  0.415855  1
  Ti  Ti12  1  0.686062  0.822430  0.869861  1
  Ti  Ti13  1  0.546568  0.974330  0.728008  1
  Ti  Ti14  1  0.703248  0.117022  0.226271  1
  Ti  Ti15  1  0.562812  0.249616  0.075667  1
  Ti  Ti16  1  0.438963  0.739633  0.916738  1
  Ti  Ti17  1  0.293666  0.892122  0.783002  1
  Ti  Ti18  1  0.452047  0.021506  0.271046  1
  Ti  Ti19  1  0.309790  0.168459  0.129289  1
  Ti  Ti20  1  0.404716  0.120779  0.587442  1
  Ti  Ti21  1  0.258116  0.254200  0.443249  1
  Ti  Ti22  1  0.118551  0.401980  0.298859  1
  Ti  Ti23  1  0.416786  0.401917  0.940738  1
  Ti  Ti24  1  0.274709  0.545258  0.796119  1
  Ti  Ti25  1  0.131545  0.687548  0.653706  1
  Ti  Ti26  1  0.153850  0.026957  0.632247  1
  Ti  Ti27  1  0.011033  0.169196  0.489377  1
  Ti  Ti28  1  0.167070  0.312189  0.986752  1
  Ti  Ti29  1  0.027692  0.459974  0.842588  1
  O  O30  1  0.975787  0.660981  0.024894  1
  O  O31  1  0.944328  0.760412  0.320450  1
  O  O32  1  0.801332  0.902376  0.179952  1
  O  O33  1  0.975230  0.401529  0.270638  1
  O  O34  1  0.831925  0.540233  0.124424  1
  O  O35  1  0.881603  0.746562  0.590313  1
  O  O36  1  0.739526  0.885411  0.445294  1
  O  O37  1  0.669867  0.377386  0.026064  1
  O  O38  1  0.809149  0.238833  0.167280  1
  O  O39  1  0.951975  0.097000  0.316941  1
  O  O40  1  0.912102  0.383804  0.534656  1
  O  O41  1  0.769401  0.525260  0.393793  1
  O  O42  1  0.622180  0.668242  0.253070  1
  O  O43  1  0.484246  0.812002  0.105814  1
  O  O44  1  0.834122  0.807648  0.882223  1
  O  O45  1  0.692753  0.949544  0.740196  1
  O  O46  1  0.880261  0.477306  0.831406  1
  O  O47  1  0.737329  0.624571  0.690194  1
  O  O48  1  0.451444  0.906490  0.403413  1
  O  O49  1  0.592981  0.765090  0.545613  1
  O  O50  1  0.663417  0.046074  0.032615  1
  O  O51  1  0.903685  0.048016  0.547850  1
  O  O52  1  0.615754  0.336969  0.259263  1
  O  O53  1  0.761717  0.189715  0.397557  1
  O  O54  1  0.476268  0.475741  0.118606  1
  O  O55  1  0.546230  0.828925  0.840492  1
  O  O56  1  0.690450  0.685371  0.985317  1
  O  O57  1  0.404056  0.967801  0.695387  1
  O  O58  1  0.595175  0.028934  0.300354  1
  O  O59  1  0.453684  0.174129  0.161142  1
  O  O60  1  0.310406  0.312847  0.015125  1
  O  O61  1  0.524000  0.524549  0.888187  1
  O  O62  1  0.381884  0.666488  0.737960  1
  O  O63  1  0.239929  0.807619  0.597501  1
  O  O64  1  0.094830  0.953301  0.458208  1
  O  O65  1  0.341402  0.953866  0.965178  1
  O  O66  1  0.548294  0.089694  0.595524  1
  O  O67  1  0.405326  0.236813  0.454243  1
  O  O68  1  0.264438  0.378991  0.313404  1
  O  O69  1  0.117742  0.516984  0.167188  1
  O  O70  1  0.309854  0.053543  0.260826  1
  O  O71  1  0.167893  0.197197  0.118550  1
  O  O72  1  0.516356  0.189107  0.891812  1
  O  O73  1  0.373655  0.330609  0.751058  1
  O  O74  1  0.233352  0.474875  0.604854  1
  O  O75  1  0.089630  0.616241  0.464074  1
  O  O76  1  0.333786  0.617227  0.968702  1
  O  O77  1  0.190821  0.761055  0.827504  1
  O  O78  1  0.045836  0.906707  0.687976  1
  O  O79  1  0.261172  0.114749  0.556217  1
  O  O80  1  0.117850  0.258254  0.412919  1
  O  O81  1  0.167917  0.455912  0.872685  1
  O  O82  1  0.024520  0.599660  0.729632  1
  O  O83  1  0.196156  0.098013  0.821628  1
  O  O84  1  0.052292  0.239611  0.680778  1
  O  O85  1  0.021301  0.335662  0.972263  1
