# generated using pymatgen
data_Ba14Ir8(PdO11)3
_symmetry_space_group_name_H-M   'P 1'
_cell_length_a   10.28328038
_cell_length_b   10.27262313
_cell_length_c   30.58291619
_cell_angle_alpha   90.00000001
_cell_angle_beta   89.97850105
_cell_angle_gamma   119.96572156
_symmetry_Int_Tables_number   1
_chemical_formula_structural   Ba14Ir8(PdO11)3
_chemical_formula_sum   'Ba42 Ir24 Pd9 O99'
_cell_volume   2798.80360997
_cell_formula_units_Z   3
loop_
 _symmetry_equiv_pos_site_id
 _symmetry_equiv_pos_as_xyz
  1  'x, y, z'
loop_
 _atom_site_type_symbol
 _atom_site_label
 _atom_site_symmetry_multiplicity
 _atom_site_fract_x
 _atom_site_fract_y
 _atom_site_fract_z
 _atom_site_occupancy
  Ba  Ba0  1  0.656893  0.006980  0.000157  1
  Ba  Ba1  1  0.343107  0.350087  0.999843  1
  Ba  Ba2  1  0.000000  0.637786  0.000000  1
  Ba  Ba3  1  0.333995  0.024728  0.929472  1
  Ba  Ba4  1  0.689089  0.666005  0.929467  1
  Ba  Ba5  1  0.989296  0.320450  0.930777  1
  Ba  Ba6  1  0.666005  0.690732  0.070528  1
  Ba  Ba7  1  0.010704  0.331154  0.069223  1
  Ba  Ba8  1  0.310911  0.976916  0.070533  1
  Ba  Ba9  1  0.326315  0.330191  0.857832  1
  Ba  Ba10  1  0.995039  0.661953  0.854387  1
  Ba  Ba11  1  0.670829  0.999126  0.858025  1
  Ba  Ba12  1  0.673685  0.003875  0.142168  1
  Ba  Ba13  1  0.329171  0.328296  0.141975  1
  Ba  Ba14  1  0.004961  0.666913  0.145613  1
  Ba  Ba15  1  0.675986  0.669669  0.781397  1
  Ba  Ba16  1  0.005122  0.338374  0.787980  1
  Ba  Ba17  1  0.332741  0.001320  0.784082  1
  Ba  Ba18  1  0.324014  0.993683  0.218603  1
  Ba  Ba19  1  0.667259  0.668579  0.215918  1
  Ba  Ba20  1  0.994878  0.333253  0.212020  1
  Ba  Ba21  1  0.312035  0.335046  0.711134  1
  Ba  Ba22  1  0.007017  0.677203  0.710162  1
  Ba  Ba23  1  0.667306  0.976290  0.711236  1
  Ba  Ba24  1  0.687965  0.023011  0.288866  1
  Ba  Ba25  1  0.332694  0.308984  0.288764  1
  Ba  Ba26  1  0.992983  0.670186  0.289838  1
  Ba  Ba27  1  0.355548  0.998370  0.640498  1
  Ba  Ba28  1  0.657823  0.653956  0.640802  1
  Ba  Ba29  1  0.997776  0.360337  0.640939  1
  Ba  Ba30  1  0.644452  0.642822  0.359502  1
  Ba  Ba31  1  0.002224  0.362561  0.359061  1
  Ba  Ba32  1  0.342177  0.996133  0.359198  1
  Ba  Ba33  1  0.336951  0.312238  0.570211  1
  Ba  Ba34  1  0.982859  0.667094  0.569922  1
  Ba  Ba35  1  0.681161  0.011648  0.570605  1
  Ba  Ba36  1  0.663049  0.975287  0.429789  1
  Ba  Ba37  1  0.318839  0.330487  0.429395  1
  Ba  Ba38  1  0.017141  0.684235  0.430078  1
  Ba  Ba39  1  0.668445  0.667314  0.501812  1
  Ba  Ba40  1  1.000000  0.337194  0.500000  1
  Ba  Ba41  1  0.331555  0.998869  0.498188  1
  Ir  Ir42  1  0.662204  0.332195  0.889422  1
  Ir  Ir43  1  0.337796  0.669990  0.110578  1
  Ir  Ir44  1  0.672393  0.337842  0.612094  1
  Ir  Ir45  1  0.327607  0.665449  0.387906  1
  Ir  Ir46  1  0.989269  0.994710  0.544325  1
  Ir  Ir47  1  0.010731  0.005440  0.455675  1
  Ir  Ir48  1  0.665707  0.331150  0.523949  1
  Ir  Ir49  1  0.334293  0.665443  0.476051  1
  Ir  Ir50  1  0.333993  0.669610  0.668624  1
  Ir  Ir51  1  0.666007  0.335616  0.331376  1
  Ir  Ir52  1  0.000081  0.999437  0.903320  1
  Ir  Ir53  1  0.999919  0.999357  0.096680  1
  Ir  Ir54  1  0.002171  0.000364  0.819102  1
  Ir  Ir55  1  0.997829  0.998193  0.180898  1
  Ir  Ir56  1  0.670211  0.332051  0.972908  1
  Ir  Ir57  1  0.329789  0.661840  0.027092  1
  Ir  Ir58  1  0.327631  0.660942  0.837055  1
  Ir  Ir59  1  0.672369  0.333311  0.162945  1
  Ir  Ir60  1  0.994687  0.992970  0.735563  1
  Ir  Ir61  1  0.005313  0.998283  0.264437  1
  Ir  Ir62  1  0.671305  0.339009  0.803844  1
  Ir  Ir63  1  0.328695  0.667703  0.196156  1
  Ir  Ir64  1  0.334579  0.667271  0.752626  1
  Ir  Ir65  1  0.665421  0.332693  0.247374  1
  Pd  Pd66  1  0.000000  0.978851  1.000000  1
  Pd  Pd67  1  0.404994  0.740424  0.932402  1
  Pd  Pd68  1  0.595006  0.335430  0.067598  1
  Pd  Pd69  1  0.598702  0.263980  0.708003  1
  Pd  Pd70  1  0.401298  0.665278  0.291997  1
  Pd  Pd71  1  0.064184  0.066603  0.640195  1
  Pd  Pd72  1  0.935816  0.002420  0.359805  1
  Pd  Pd73  1  0.666196  0.313790  0.427490  1
  Pd  Pd74  1  0.333804  0.647594  0.572510  1
  O  O75  1  0.326878  0.814871  0.984819  1
  O  O76  1  0.491165  0.676232  0.985123  1
  O  O77  1  0.169624  0.489649  0.993766  1
  O  O78  1  0.673122  0.487994  0.015181  1
  O  O79  1  0.830376  0.320025  0.006234  1
  O  O80  1  0.508835  0.185067  0.014877  1
  O  O81  1  0.814674  0.325110  0.848721  1
  O  O82  1  0.505092  0.179350  0.847753  1
  O  O83  1  0.668342  0.491702  0.848326  1
  O  O84  1  0.185326  0.510436  0.151279  1
  O  O85  1  0.331658  0.823360  0.151674  1
  O  O86  1  0.494908  0.674258  0.152247  1
  O  O87  1  0.993081  0.144257  0.692720  1
  O  O88  1  0.149590  0.002446  0.692658  1
  O  O89  1  0.828716  0.819433  0.703920  1
  O  O90  1  0.006919  0.151176  0.307280  1
  O  O91  1  0.171284  0.990716  0.296080  1
  O  O92  1  0.850410  0.852855  0.307342  1
  O  O93  1  0.677034  0.189506  0.655790  1
  O  O94  1  0.514100  0.326509  0.654506  1
  O  O95  1  0.833255  0.511399  0.645224  1
  O  O96  1  0.322966  0.512472  0.344210  1
  O  O97  1  0.166745  0.678145  0.354776  1
  O  O98  1  0.485900  0.812410  0.345494  1
  O  O99  1  0.497941  0.824168  0.631286  1
  O  O100  1  0.324650  0.512844  0.627566  1
  O  O101  1  0.186087  0.683129  0.629617  1
  O  O102  1  0.502059  0.326228  0.368714  1
  O  O103  1  0.813913  0.497042  0.370383  1
  O  O104  1  0.675350  0.188194  0.372434  1
  O  O105  1  0.829804  0.341492  0.567388  1
  O  O106  1  0.511691  0.167575  0.568347  1
  O  O107  1  0.657008  0.481749  0.567274  1
  O  O108  1  0.170196  0.511689  0.432612  1
  O  O109  1  0.342992  0.824741  0.432726  1
  O  O110  1  0.488309  0.655885  0.431653  1
  O  O111  1  0.998519  0.151476  0.587585  1
  O  O112  1  0.140681  0.994845  0.587101  1
  O  O113  1  0.816967  0.828957  0.575717  1
  O  O114  1  0.001481  0.152957  0.412415  1
  O  O115  1  0.183033  0.011990  0.424283  1
  O  O116  1  0.859319  0.854164  0.412899  1
  O  O117  1  0.328694  0.515042  0.517542  1
  O  O118  1  0.180907  0.672023  0.513107  1
  O  O119  1  0.489566  0.819850  0.514291  1
  O  O120  1  0.671306  0.186348  0.482458  1
  O  O121  1  0.510434  0.330284  0.485709  1
  O  O122  1  0.819093  0.491117  0.486893  1
  O  O123  1  0.000000  0.849448  0.500000  1
  O  O124  1  0.849240  0.003987  0.497586  1
  O  O125  1  0.150760  0.154747  0.502414  1
  O  O126  1  0.841948  0.992395  0.941573  1
  O  O127  1  0.151002  0.159130  0.941781  1
  O  O128  1  0.007856  0.852433  0.944630  1
  O  O129  1  0.158052  0.150447  0.058427  1
  O  O130  1  0.992144  0.844576  0.055370  1
  O  O131  1  0.848998  0.008128  0.058219  1
  O  O132  1  0.995529  0.153854  0.860087  1
  O  O133  1  0.162048  0.003228  0.859616  1
  O  O134  1  0.843104  0.839833  0.859445  1
  O  O135  1  0.004471  0.158325  0.139913  1
  O  O136  1  0.156896  0.996729  0.140555  1
  O  O137  1  0.837952  0.841180  0.140384  1
  O  O138  1  0.831326  0.488517  0.929138  1
  O  O139  1  0.658225  0.169124  0.929167  1
  O  O140  1  0.508343  0.344124  0.930623  1
  O  O141  1  0.168674  0.657191  0.070862  1
  O  O142  1  0.491657  0.835781  0.069377  1
  O  O143  1  0.341775  0.510899  0.070833  1
  O  O144  1  0.332560  0.813868  0.879836  1
  O  O145  1  0.478416  0.666081  0.880172  1
  O  O146  1  0.159947  0.495164  0.867885  1
  O  O147  1  0.667440  0.481308  0.120164  1
  O  O148  1  0.840053  0.335217  0.132115  1
  O  O149  1  0.521584  0.187665  0.119828  1
  O  O150  1  0.840551  0.997366  0.779485  1
  O  O151  1  0.159615  0.159724  0.778064  1
  O  O152  1  0.006223  0.843867  0.779169  1
  O  O153  1  0.159449  0.156814  0.220515  1
  O  O154  1  0.993777  0.837644  0.220831  1
  O  O155  1  0.840385  0.000109  0.221936  1
  O  O156  1  0.663910  0.186288  0.761337  1
  O  O157  1  0.524200  0.337836  0.759915  1
  O  O158  1  0.838647  0.499265  0.772047  1
  O  O159  1  0.336090  0.522378  0.238663  1
  O  O160  1  0.161353  0.660618  0.227953  1
  O  O161  1  0.475800  0.813637  0.240085  1
  O  O162  1  0.490683  0.823179  0.794275  1
  O  O163  1  0.329292  0.505930  0.792941  1
  O  O164  1  0.182233  0.673962  0.793364  1
  O  O165  1  0.509317  0.332496  0.205725  1
  O  O166  1  0.817767  0.491730  0.206636  1
  O  O167  1  0.670708  0.176638  0.207059  1
  O  O168  1  0.341441  0.831160  0.712117  1
  O  O169  1  0.487276  0.656235  0.711445  1
  O  O170  1  0.168503  0.510916  0.711770  1
  O  O171  1  0.658559  0.489718  0.287883  1
  O  O172  1  0.831497  0.342413  0.288230  1
  O  O173  1  0.512724  0.168959  0.288555  1
