# generated using pymatgen
data_NbNO
_symmetry_space_group_name_H-M   'P 1'
_cell_length_a   5.07837609
_cell_length_b   5.12205129
_cell_length_c   5.28406571
_cell_angle_alpha   90.00000000
_cell_angle_beta   99.82944372
_cell_angle_gamma   90.00000000
_symmetry_Int_Tables_number   1
_chemical_formula_structural   NbNO
_chemical_formula_sum   'Nb4 N4 O4'
_cell_volume   135.42985798
_cell_formula_units_Z   4
loop_
 _symmetry_equiv_pos_site_id
 _symmetry_equiv_pos_as_xyz
  1  'x, y, z'
loop_
 _atom_site_type_symbol
 _atom_site_label
 _atom_site_symmetry_multiplicity
 _atom_site_fract_x
 _atom_site_fract_y
 _atom_site_fract_z
 _atom_site_occupancy
  N  N0  1  0.444776  0.744983  0.977263  1
  N  N1  1  0.555224  0.244983  0.522737  1
  N  N2  1  0.555225  0.255017  0.022739  1
  N  N3  1  0.444775  0.755017  0.477262  1
  O  O4  1  0.061686  0.322968  0.350351  1
  O  O5  1  0.938314  0.822968  0.149648  1
  O  O6  1  0.061685  0.177032  0.850351  1
  O  O7  1  0.938315  0.677032  0.649649  1
  Nb  Nb8  1  0.292738  0.452900  0.717755  1
  Nb  Nb9  1  0.707264  0.952900  0.782245  1
  Nb  Nb10  1  0.707263  0.547100  0.282244  1
  Nb  Nb11  1  0.292737  0.047100  0.217755  1
