# generated using pymatgen
data_LiCoNiO4
_symmetry_space_group_name_H-M   'P 1'
_cell_length_a   5.79590289
_cell_length_b   5.79590299
_cell_length_c   5.79025018
_cell_angle_alpha   120.60701732
_cell_angle_beta   58.19565432
_cell_angle_gamma   92.01472363
_symmetry_Int_Tables_number   1
_chemical_formula_structural   LiCoNiO4
_chemical_formula_sum   'Li2 Co2 Ni2 O8'
_cell_volume   134.85098150
_cell_formula_units_Z   2
loop_
 _symmetry_equiv_pos_site_id
 _symmetry_equiv_pos_as_xyz
  1  'x, y, z'
loop_
 _atom_site_type_symbol
 _atom_site_label
 _atom_site_symmetry_multiplicity
 _atom_site_fract_x
 _atom_site_fract_y
 _atom_site_fract_z
 _atom_site_occupancy
  Li  Li0  1  0.500000  0.000000  0.000000  1
  Li  Li1  1  0.500000  0.500000  0.500000  1
  Co  Co2  1  0.000000  0.000000  0.000000  1
  Co  Co3  1  0.500000  0.000000  0.500000  1
  Ni  Ni4  1  0.000000  0.500000  0.000000  1
  Ni  Ni5  1  0.000000  0.000000  0.500000  1
  O  O6  1  0.204950  0.773101  0.021909  1
  O  O7  1  0.251064  0.214910  0.966755  1
  O  O8  1  0.251192  0.226859  0.521908  1
  O  O9  1  0.251846  0.782181  0.533245  1
  O  O10  1  0.748154  0.217819  0.466755  1
  O  O11  1  0.748808  0.773141  0.478092  1
  O  O12  1  0.748936  0.785090  0.033245  1
  O  O13  1  0.795050  0.226899  0.978092  1
