# generated using pymatgen
data_Sb3(WO3)20
_symmetry_space_group_name_H-M   'P 1'
_cell_length_a   12.85763297
_cell_length_b   12.85763297
_cell_length_c   10.79973526
_cell_angle_alpha   65.70007852
_cell_angle_beta   65.70007852
_cell_angle_gamma   107.98098072
_symmetry_Int_Tables_number   1
_chemical_formula_structural   Sb3(WO3)20
_chemical_formula_sum   'Sb3 W20 O60'
_cell_volume   1212.84237781
_cell_formula_units_Z   1
loop_
 _symmetry_equiv_pos_site_id
 _symmetry_equiv_pos_as_xyz
  1  'x, y, z'
loop_
 _atom_site_type_symbol
 _atom_site_label
 _atom_site_symmetry_multiplicity
 _atom_site_fract_x
 _atom_site_fract_y
 _atom_site_fract_z
 _atom_site_occupancy
  Sb  Sb0  1  0.587527  0.587527  0.250000  1
  Sb  Sb1  1  0.424320  0.424320  0.727051  1
  Sb  Sb2  1  0.901371  0.901371  0.772949  1
  W  W3  1  0.408078  0.086850  0.250000  1
  W  W4  1  0.086850  0.408078  0.250000  1
  W  W5  1  0.133902  0.133902  0.750439  1
  W  W6  1  0.366007  0.366007  0.250000  1
  W  W7  1  0.663066  0.337992  0.250000  1
  W  W8  1  0.843577  0.154954  0.250000  1
  W  W9  1  0.411721  0.092121  0.750449  1
  W  W10  1  0.337992  0.663066  0.250000  1
  W  W11  1  0.092121  0.411721  0.750449  1
  W  W12  1  0.154954  0.843577  0.250000  1
  W  W13  1  0.660499  0.340120  0.749988  1
  W  W14  1  0.160487  0.840109  0.750012  1
  W  W15  1  0.840109  0.160487  0.750012  1
  W  W16  1  0.340120  0.660499  0.749988  1
  W  W17  1  0.593169  0.907116  0.250000  1
  W  W18  1  0.907116  0.593169  0.250000  1
  W  W19  1  0.874635  0.874635  0.250000  1
  W  W20  1  0.634341  0.634341  0.749561  1
  W  W21  1  0.912170  0.592569  0.749551  1
  W  W22  1  0.592569  0.912170  0.749551  1
  O  O23  1  0.001905  0.001905  0.998113  1
  O  O24  1  0.216013  0.532364  0.000033  1
  O  O25  1  0.031104  0.715672  0.999960  1
  O  O26  1  0.532364  0.216013  0.000033  1
  O  O27  1  0.715672  0.031104  0.999960  1
  O  O28  1  0.218227  0.353499  0.250000  1
  O  O29  1  0.353499  0.218227  0.250000  1
  O  O30  1  0.551116  0.201808  0.250000  1
  O  O31  1  0.499727  0.499727  0.000321  1
  O  O32  1  0.250048  0.250048  0.499679  1
  O  O33  1  0.201808  0.551116  0.250000  1
  O  O34  1  0.051622  0.697840  0.250000  1
  O  O35  1  0.697840  0.051622  0.250000  1
  O  O36  1  0.282933  0.149612  0.748454  1
  O  O37  1  0.149612  0.282933  0.748454  1
  O  O38  1  0.030872  0.897500  0.250000  1
  O  O39  1  0.415216  0.537832  0.250000  1
  O  O40  1  0.897500  0.030872  0.250000  1
  O  O41  1  0.537832  0.415216  0.250000  1
  O  O42  1  0.535555  0.218945  0.499526  1
  O  O43  1  0.034080  0.718611  0.500410  1
  O  O44  1  0.284490  0.969019  0.999590  1
  O  O45  1  0.785082  0.468471  0.000474  1
  O  O46  1  0.468471  0.785082  0.000474  1
  O  O47  1  0.218945  0.535555  0.499526  1
  O  O48  1  0.969019  0.284490  0.999590  1
  O  O49  1  0.718611  0.034080  0.500410  1
  O  O50  1  0.525611  0.025611  0.750000  1
  O  O51  1  0.777107  0.275661  0.250000  1
  O  O52  1  0.275661  0.777107  0.250000  1
  O  O53  1  0.025611  0.525611  0.750000  1
  O  O54  1  0.756397  0.492967  0.250000  1
  O  O55  1  0.492967  0.756397  0.250000  1
  O  O56  1  0.261980  0.988745  0.250000  1
  O  O57  1  0.007607  0.745271  0.750482  1
  O  O58  1  0.508090  0.245753  0.749518  1
  O  O59  1  0.245753  0.508090  0.749518  1
  O  O60  1  0.745271  0.007607  0.750482  1
  O  O61  1  0.988745  0.261980  0.250000  1
  O  O62  1  0.722400  0.222400  0.750000  1
  O  O63  1  0.476089  0.974617  0.250000  1
  O  O64  1  0.222400  0.722400  0.750000  1
  O  O65  1  0.974617  0.476089  0.250000  1
  O  O66  1  0.781065  0.465632  0.500040  1
  O  O67  1  0.966046  0.282397  0.499967  1
  O  O68  1  0.282397  0.966046  0.499967  1
  O  O69  1  0.465632  0.781065  0.500040  1
  O  O70  1  0.961099  0.082789  0.752621  1
  O  O71  1  0.082789  0.961099  0.752621  1
  O  O72  1  0.585410  0.463720  0.747379  1
  O  O73  1  0.463720  0.585410  0.747379  1
  O  O74  1  0.850576  0.717946  0.250000  1
  O  O75  1  0.717946  0.850576  0.250000  1
  O  O76  1  0.948497  0.298147  0.750169  1
  O  O77  1  0.798316  0.448667  0.749831  1
  O  O78  1  0.448667  0.798316  0.749831  1
  O  O79  1  0.298147  0.948497  0.750169  1
  O  O80  1  0.750017  0.750017  0.501887  1
  O  O81  1  0.781388  0.648067  0.751546  1
  O  O82  1  0.648067  0.781388  0.751546  1
