# generated using pymatgen
data_Ti3NbV2(PO4)6
_symmetry_space_group_name_H-M   'P 1'
_cell_length_a   8.62004681
_cell_length_b   8.76758248
_cell_length_c   8.76758283
_cell_angle_alpha   59.99999783
_cell_angle_beta   59.43218705
_cell_angle_gamma   59.43219273
_symmetry_Int_Tables_number   1
_chemical_formula_structural   Ti3NbV2(PO4)6
_chemical_formula_sum   'Ti3 Nb1 V2 P6 O24'
_cell_volume   464.48665057
_cell_formula_units_Z   1
loop_
 _symmetry_equiv_pos_site_id
 _symmetry_equiv_pos_as_xyz
  1  'x, y, z'
loop_
 _atom_site_type_symbol
 _atom_site_label
 _atom_site_symmetry_multiplicity
 _atom_site_fract_x
 _atom_site_fract_y
 _atom_site_fract_z
 _atom_site_occupancy
  Ti  Ti0  1  0.067756  0.644082  0.644082  1
  Ti  Ti1  1  0.430755  0.856415  0.856415  1
  Ti  Ti2  1  0.935147  0.354951  0.354951  1
  Nb  Nb3  1  0.574001  0.142000  0.142000  1
  V  V4  1  0.997577  0.000808  0.000808  1
  V  V5  1  0.500071  0.499976  0.499976  1
  P  P6  1  0.247544  0.250059  0.548373  1
  P  P7  1  0.247544  0.954024  0.250059  1
  P  P8  1  0.247544  0.548373  0.954024  1
  P  P9  1  0.749873  0.463630  0.043968  1
  P  P10  1  0.749873  0.043968  0.742530  1
  P  P11  1  0.749873  0.742530  0.463630  1
  O  O12  1  0.071615  0.113380  0.315838  1
  O  O13  1  0.071615  0.499167  0.113380  1
  O  O14  1  0.071615  0.315838  0.499167  1
  O  O15  1  0.226299  0.091214  0.741447  1
  O  O16  1  0.433437  0.179741  0.394905  1
  O  O17  1  0.268969  0.408885  0.561755  1
  O  O18  1  0.226299  0.941041  0.091214  1
  O  O19  1  0.268969  0.760390  0.408885  1
  O  O20  1  0.567769  0.616703  0.002236  1
  O  O21  1  0.268969  0.561755  0.760390  1
  O  O22  1  0.772467  0.267617  0.058282  1
  O  O23  1  0.567769  0.002236  0.813292  1
  O  O24  1  0.433437  0.991918  0.179741  1
  O  O25  1  0.226299  0.741447  0.941041  1
  O  O26  1  0.730455  0.446181  0.238070  1
  O  O27  1  0.433437  0.394905  0.991918  1
  O  O28  1  0.730455  0.238070  0.585294  1
  O  O29  1  0.772467  0.058282  0.901635  1
  O  O30  1  0.730455  0.585294  0.446181  1
  O  O31  1  0.567769  0.813292  0.616703  1
  O  O32  1  0.772467  0.901635  0.267617  1
  O  O33  1  0.929806  0.675305  0.506663  1
  O  O34  1  0.929806  0.506663  0.888226  1
  O  O35  1  0.929806  0.888226  0.675305  1
