# generated using pymatgen
data_Nb3Te4
_symmetry_space_group_name_H-M   'P 1'
_cell_length_a   10.82340607
_cell_length_b   10.82340608
_cell_length_c   3.66133804
_cell_angle_alpha   90.00000000
_cell_angle_beta   90.00000000
_cell_angle_gamma   119.99999998
_symmetry_Int_Tables_number   1
_chemical_formula_structural   Nb3Te4
_chemical_formula_sum   'Nb6 Te8'
_cell_volume   371.44829129
_cell_formula_units_Z   2
loop_
 _symmetry_equiv_pos_site_id
 _symmetry_equiv_pos_as_xyz
  1  'x, y, z'
loop_
 _atom_site_type_symbol
 _atom_site_label
 _atom_site_symmetry_multiplicity
 _atom_site_fract_x
 _atom_site_fract_y
 _atom_site_fract_z
 _atom_site_occupancy
  Nb  Nb0  1  0.488621  0.102293  0.250000  1
  Nb  Nb1  1  0.386328  0.488621  0.750000  1
  Nb  Nb2  1  0.102293  0.613672  0.750000  1
  Nb  Nb3  1  0.897707  0.386328  0.250000  1
  Nb  Nb4  1  0.613672  0.511379  0.250000  1
  Nb  Nb5  1  0.511379  0.897707  0.750000  1
  Te  Te6  1  0.666667  0.333333  0.750000  1
  Te  Te7  1  0.333333  0.666667  0.250000  1
  Te  Te8  1  0.338279  0.272715  0.250000  1
  Te  Te9  1  0.065563  0.338279  0.750000  1
  Te  Te10  1  0.272715  0.934437  0.750000  1
  Te  Te11  1  0.727285  0.065563  0.250000  1
  Te  Te12  1  0.934437  0.661721  0.250000  1
  Te  Te13  1  0.661721  0.727285  0.750000  1
