# generated using pymatgen
data_Li4Cr3Co2Sn3O16
_symmetry_space_group_name_H-M   'P 1'
_cell_length_a   6.09313165
_cell_length_b   6.11848731
_cell_length_c   9.63381588
_cell_angle_alpha   89.16768508
_cell_angle_beta   90.94757143
_cell_angle_gamma   120.53462830
_symmetry_Int_Tables_number   1
_chemical_formula_structural   Li4Cr3Co2Sn3O16
_chemical_formula_sum   'Li4 Cr3 Co2 Sn3 O16'
_cell_volume   309.29881834
_cell_formula_units_Z   1
loop_
 _symmetry_equiv_pos_site_id
 _symmetry_equiv_pos_as_xyz
  1  'x, y, z'
loop_
 _atom_site_type_symbol
 _atom_site_label
 _atom_site_symmetry_multiplicity
 _atom_site_fract_x
 _atom_site_fract_y
 _atom_site_fract_z
 _atom_site_occupancy
  Li  Li0  1  0.346585  0.676278  0.890777  1
  Li  Li1  1  0.962455  0.981588  0.992188  1
  Li  Li2  1  0.974147  0.991642  0.499661  1
  Li  Li3  1  0.672605  0.336812  0.399450  1
  Cr  Cr4  1  0.659965  0.829259  0.217223  1
  Cr  Cr5  1  0.831525  0.666445  0.709549  1
  Cr  Cr6  1  0.831600  0.174445  0.714059  1
  Co  Co7  1  0.335008  0.657223  0.489502  1
  Co  Co8  1  0.683517  0.343498  0.983993  1
  Sn  Sn9  1  0.171923  0.832493  0.211910  1
  Sn  Sn10  1  0.174101  0.337809  0.211992  1
  Sn  Sn11  1  0.340561  0.172919  0.715224  1
  O  O12  1  0.140331  0.824749  0.603567  1
  O  O13  1  0.047300  0.520287  0.350046  1
  O  O14  1  0.341512  0.673239  0.098220  1
  O  O15  1  0.995096  0.993541  0.315485  1
  O  O16  1  0.990806  0.994784  0.809514  1
  O  O17  1  0.155451  0.322670  0.595452  1
  O  O18  1  0.492538  0.959578  0.342935  1
  O  O19  1  0.494411  0.522643  0.338088  1
  O  O20  1  0.323258  0.162080  0.090395  1
  O  O21  1  0.664418  0.819828  0.609339  1
  O  O22  1  0.540282  0.498057  0.838439  1
  O  O23  1  0.533010  0.046159  0.843579  1
  O  O24  1  0.676757  0.342772  0.604148  1
  O  O25  1  0.828283  0.667185  0.099520  1
  O  O26  1  0.959518  0.490033  0.834356  1
  O  O27  1  0.833038  0.162283  0.099229  1
