# generated using pymatgen
data_Li7V3P8O29
_symmetry_space_group_name_H-M   'P 1'
_cell_length_a   9.86150009
_cell_length_b   9.81812275
_cell_length_c   13.86120415
_cell_angle_alpha   89.99014953
_cell_angle_beta   89.78587822
_cell_angle_gamma   60.14874311
_symmetry_Int_Tables_number   1
_chemical_formula_structural   Li7V3P8O29
_chemical_formula_sum   'Li14 V6 P16 O58'
_cell_volume   1163.98708829
_cell_formula_units_Z   2
loop_
 _symmetry_equiv_pos_site_id
 _symmetry_equiv_pos_as_xyz
  1  'x, y, z'
loop_
 _atom_site_type_symbol
 _atom_site_label
 _atom_site_symmetry_multiplicity
 _atom_site_fract_x
 _atom_site_fract_y
 _atom_site_fract_z
 _atom_site_occupancy
  Li  Li0  1  0.907295  0.765814  0.061803  1
  Li  Li1  1  0.907387  0.326909  0.561891  1
  Li  Li2  1  0.667832  0.668963  0.382995  1
  Li  Li3  1  0.667908  0.663041  0.882942  1
  Li  Li4  1  0.331866  0.904035  0.062277  1
  Li  Li5  1  0.668138  0.235906  0.437661  1
  Li  Li6  1  0.331852  0.764103  0.562354  1
  Li  Li7  1  0.668139  0.095916  0.937644  1
  Li  Li8  1  0.332088  0.330983  0.617073  1
  Li  Li9  1  0.332192  0.336956  0.116993  1
  Li  Li10  1  0.092665  0.673105  0.438204  1
  Li  Li11  1  0.092629  0.234274  0.938097  1
  Li  Li12  1  -0.000002  0.000009  -0.000001  1
  Li  Li13  1  0.999973  0.000019  0.500007  1
  V  V14  1  0.567541  0.436177  0.244565  1
  V  V15  1  0.432521  0.563810  0.755407  1
  V  V16  1  0.567473  0.996302  0.744573  1
  V  V17  1  0.432473  0.003757  0.255433  1
  V  V18  1  0.999990  0.564918  0.249988  1
  V  V19  1  0.000002  0.435104  0.750000  1
  P  P20  1  0.909033  0.776112  0.843885  1
  P  P21  1  0.774383  0.913584  0.344265  1
  P  P22  1  0.909072  0.314761  0.343909  1
  P  P23  1  0.663952  0.671779  0.126005  1
  P  P24  1  0.664002  0.664304  0.626032  1
  P  P25  1  0.774385  0.312017  0.844263  1
  P  P26  1  0.683384  0.228029  0.655973  1
  P  P27  1  0.316579  0.911382  0.844027  1
  P  P28  1  0.683419  0.088589  0.155985  1
  P  P29  1  0.316613  0.771952  0.344016  1
  P  P30  1  0.225619  0.687977  0.155720  1
  P  P31  1  0.335984  0.335751  0.374014  1
  P  P32  1  0.336029  0.328244  0.873966  1
  P  P33  1  0.090966  0.685186  0.656104  1
  P  P34  1  0.225594  0.086437  0.655741  1
  P  P35  1  0.090953  0.223866  0.156114  1
  O  O36  1  0.010231  0.771184  0.565761  1
  O  O37  1  0.919179  0.748573  0.344841  1
  O  O38  1  0.769544  0.999567  0.065867  1
  O  O39  1  0.743753  0.922817  0.838541  1
  O  O40  1  0.889620  0.629685  0.832629  1
  O  O41  1  0.812408  0.671790  0.161711  1
  O  O42  1  0.889640  0.480607  0.332611  1
  O  O43  1  0.010279  0.218587  0.065757  1
  O  O44  1  0.919214  0.332195  0.844820  1
  O  O45  1  0.661415  0.813746  0.671451  1
  O  O46  1  0.627005  0.894607  0.332677  1
  O  O47  1  0.812418  0.515813  0.661749  1
  O  O48  1  0.654534  0.675014  0.018115  1
  O  O49  1  0.654502  0.670492  0.518145  1
  O  O50  1  0.661428  0.524841  0.171423  1
  O  O51  1  0.479761  0.897626  0.832095  1
  O  O52  1  0.515678  0.819749  0.169020  1
  O  O53  1  0.743771  0.333351  0.338571  1
  O  O54  1  0.790631  0.215962  0.745802  1
  O  O55  1  0.769572  0.230925  0.565863  1
  O  O56  1  0.773361  0.214867  0.927139  1
  O  O57  1  0.627060  0.478387  0.832685  1
  O  O58  1  0.515744  0.664522  0.669052  1
  O  O59  1  0.661426  0.253659  0.158717  1
  O  O60  1  0.479821  0.622566  0.332088  1
  O  O61  1  0.338532  0.915082  0.341244  1
  O  O62  1  0.790710  0.993425  0.245805  1
  O  O63  1  0.773350  0.011725  0.427136  1
  O  O64  1  0.226621  0.988281  0.572878  1
  O  O65  1  0.661438  0.084920  0.658745  1
  O  O66  1  0.520196  0.377424  0.667908  1
  O  O67  1  0.338554  0.746314  0.841289  1
  O  O68  1  0.484276  0.335467  0.331005  1
  O  O69  1  0.372958  0.521614  0.167308  1
  O  O70  1  0.226647  0.785121  0.072843  1
  O  O71  1  0.230426  0.769099  0.434139  1
  O  O72  1  0.209373  0.784055  0.254173  1
  O  O73  1  0.256252  0.666617  0.661444  1
  O  O74  1  0.484284  0.180254  0.830957  1
  O  O75  1  0.520236  0.102340  0.167944  1
  O  O76  1  0.338594  0.475145  0.828541  1
  O  O77  1  0.345501  0.324946  0.981856  1
  O  O78  1  0.345392  0.329545  0.481906  1
  O  O79  1  0.187571  0.484234  0.338275  1
  O  O80  1  0.372946  0.105453  0.667310  1
  O  O81  1  0.338523  0.186296  0.328589  1
  O  O82  1  0.080763  0.667837  0.155157  1
  O  O83  1  0.000014  0.787607  0.749993  1
  O  O84  1  0.989749  0.781387  0.934224  1
  O  O85  1  0.110393  0.519337  0.667369  1
  O  O86  1  0.187584  0.328212  0.838257  1
  O  O87  1  0.110354  0.370303  0.167396  1
  O  O88  1  0.256238  0.077156  0.161462  1
  O  O89  1  0.230406  0.000461  0.934126  1
  O  O90  1  0.209309  0.006585  0.754202  1
  O  O91  1  0.080793  0.251444  0.655175  1
  O  O92  1  0.989790  0.228810  0.434270  1
  O  O93  1  0.000004  0.212306  0.250014  1
