# generated using pymatgen
data_Li3VF5
_symmetry_space_group_name_H-M   'P 1'
_cell_length_a   4.95730359
_cell_length_b   4.95730353
_cell_length_c   13.54810768
_cell_angle_alpha   90.00000000
_cell_angle_beta   90.00000000
_cell_angle_gamma   120.00000717
_symmetry_Int_Tables_number   1
_chemical_formula_structural   Li3VF5
_chemical_formula_sum   'Li9 V3 F15'
_cell_volume   288.33692852
_cell_formula_units_Z   3
loop_
 _symmetry_equiv_pos_site_id
 _symmetry_equiv_pos_as_xyz
  1  'x, y, z'
loop_
 _atom_site_type_symbol
 _atom_site_label
 _atom_site_symmetry_multiplicity
 _atom_site_fract_x
 _atom_site_fract_y
 _atom_site_fract_z
 _atom_site_occupancy
  Li  Li0  1  0.991377  0.692385  0.416736  1
  Li  Li1  1  0.048485  0.668583  0.169102  1
  Li  Li2  1  0.331417  0.379903  0.502435  1
  Li  Li3  1  0.307615  0.298992  0.750069  1
  Li  Li4  1  0.620097  0.951515  0.835768  1
  Li  Li5  1  0.701008  0.008623  0.083402  1
  Li  Li6  1  0.362927  0.324085  0.257099  1
  Li  Li7  1  0.675915  0.038842  0.590432  1
  Li  Li8  1  0.961158  0.637073  0.923765  1
  V  V9  1  0.329850  0.344009  0.004110  1
  V  V10  1  0.014159  0.670150  0.670777  1
  V  V11  1  0.655991  0.985841  0.337444  1
  F  F12  1  0.306590  0.097792  0.608218  1
  F  F13  1  0.195964  0.889443  0.806627  1
  F  F14  1  0.976879  0.447809  0.535511  1
  F  F15  1  0.115170  0.442549  0.338693  1
  F  F16  1  0.327379  0.884830  0.005360  1
  F  F17  1  0.902208  0.208798  0.941551  1
  F  F18  1  0.470930  0.023121  0.202178  1
  F  F19  1  0.110557  0.306521  0.139961  1
  F  F20  1  0.552191  0.529070  0.868844  1
  F  F21  1  0.693479  0.804036  0.473294  1
  F  F22  1  0.557451  0.672621  0.672027  1
  F  F23  1  0.754771  0.635663  0.067635  1
  F  F24  1  0.364337  0.119107  0.400968  1
  F  F25  1  0.791202  0.693410  0.274884  1
  F  F26  1  0.880893  0.245229  0.734302  1
