# generated using pymatgen
data_Na2Ca29ZrSi16(O7F2)8
_symmetry_space_group_name_H-M   'P 1'
_cell_length_a   7.75027486
_cell_length_b   11.38093294
_cell_length_c   20.96600580
_cell_angle_alpha   86.10676087
_cell_angle_beta   106.18224622
_cell_angle_gamma   88.57269170
_symmetry_Int_Tables_number   1
_chemical_formula_structural   Na2Ca29ZrSi16(O7F2)8
_chemical_formula_sum   'Na2 Ca29 Zr1 Si16 O56 F16'
_cell_volume   1770.09084774
_cell_formula_units_Z   1
loop_
 _symmetry_equiv_pos_site_id
 _symmetry_equiv_pos_as_xyz
  1  'x, y, z'
loop_
 _atom_site_type_symbol
 _atom_site_label
 _atom_site_symmetry_multiplicity
 _atom_site_fract_x
 _atom_site_fract_y
 _atom_site_fract_z
 _atom_site_occupancy
  Na  Na0  1  0.293544  0.136926  0.444563  1
  Na  Na1  1  0.672155  0.625318  0.302906  1
  Ca  Ca2  1  0.086497  0.577670  0.924018  1
  Ca  Ca3  1  0.015909  0.005259  0.661365  1
  Ca  Ca4  1  0.110675  0.727116  0.782789  1
  Ca  Ca5  1  0.367765  0.118646  0.956790  1
  Ca  Ca6  1  0.129533  0.861001  0.521645  1
  Ca  Ca7  1  0.398688  0.353150  0.712827  1
  Ca  Ca8  1  0.531788  0.923896  0.820349  1
  Ca  Ca9  1  0.996439  0.991307  0.157900  1
  Ca  Ca10  1  0.495449  0.425852  0.912069  1
  Ca  Ca11  1  0.024053  0.648344  0.184016  1
  Ca  Ca12  1  0.488949  0.602618  0.576617  1
  Ca  Ca13  1  0.427982  0.082821  0.633455  1
  Ca  Ca14  1  0.108049  0.848980  0.010423  1
  Ca  Ca15  1  0.591435  0.598323  0.782875  1
  Ca  Ca16  1  0.360380  0.421539  0.226527  1
  Ca  Ca17  1  0.890995  0.132996  0.989774  1
  Ca  Ca18  1  0.484213  0.897939  0.323192  1
  Ca  Ca19  1  0.518365  0.453572  0.426390  1
  Ca  Ca20  1  0.639329  0.915952  0.536762  1
  Ca  Ca21  1  0.945813  0.378225  0.756000  1
  Ca  Ca22  1  0.525716  0.548913  0.100934  1
  Ca  Ca23  1  0.968419  0.001342  0.830998  1
  Ca  Ca24  1  0.469404  0.079838  0.187336  1
  Ca  Ca25  1  0.923361  0.181884  0.493617  1
  Ca  Ca26  1  0.985531  0.533253  0.589944  1
  Ca  Ca27  1  0.626054  0.871695  0.054013  1
  Ca  Ca28  1  0.867768  0.353105  0.248108  1
  Ca  Ca29  1  0.956970  0.995944  0.327710  1
  Ca  Ca30  1  0.950056  0.386581  0.079971  1
  Zr  Zr31  1  0.044950  0.506739  0.405018  1
  Si  Si32  1  0.231111  0.126474  0.773473  1
  Si  Si33  1  0.448324  0.734341  0.910849  1
  Si  Si34  1  0.264700  0.350629  0.514656  1
  Si  Si35  1  0.330150  0.772155  0.660089  1
  Si  Si36  1  0.235294  0.156244  0.271731  1
  Si  Si37  1  0.358590  0.739924  0.422479  1
  Si  Si38  1  0.631224  0.196227  0.863827  1
  Si  Si39  1  0.791783  0.622139  0.010528  1
  Si  Si40  1  0.244015  0.352553  0.998315  1
  Si  Si41  1  0.373197  0.784796  0.144559  1
  Si  Si42  1  0.641302  0.312330  0.618606  1
  Si  Si43  1  0.707852  0.841780  0.716781  1
  Si  Si44  1  0.603902  0.143733  0.377857  1
  Si  Si45  1  0.757968  0.684634  0.464307  1
  Si  Si46  1  0.588171  0.247653  0.102593  1
  Si  Si47  1  0.735618  0.865421  0.223595  1
  O  O48  1  0.095819  0.270986  0.017655  1
  O  O49  1  0.050998  0.184372  0.785920  1
  O  O50  1  0.101441  0.804101  0.886719  1
  O  O51  1  0.262261  0.477363  0.033702  1
  O  O52  1  0.279637  0.808292  0.939617  1
  O  O53  1  0.212222  0.377148  0.918460  1
  O  O54  1  0.220220  0.221243  0.541048  1
  O  O55  1  0.231076  0.685769  0.602194  1
  O  O56  1  0.210709  0.982012  0.780128  1
  O  O57  1  0.339017  0.727023  0.736302  1
  O  O58  1  0.261140  0.166829  0.701146  1
  O  O59  1  0.347938  0.610428  0.892389  1
  O  O60  1  0.410160  0.155463  0.835548  1
  O  O61  1  0.037509  0.184499  0.280977  1
  O  O62  1  0.594475  0.705681  0.991100  1
  O  O63  1  0.249788  0.843387  0.369167  1
  O  O64  1  0.104251  0.449496  0.513862  1
  O  O65  1  0.742500  0.070373  0.864375  1
  O  O66  1  0.408492  0.771161  0.500802  1
  O  O67  1  0.262640  0.361715  0.435697  1
  O  O68  1  0.246307  0.906254  0.636838  1
  O  O69  1  0.467760  0.395863  0.553958  1
  O  O70  1  0.553133  0.772215  0.658208  1
  O  O71  1  0.274341  0.584169  0.148533  1
  O  O72  1  0.247716  0.018497  0.251271  1
  O  O73  1  0.795611  0.411004  0.634447  1
  O  O74  1  0.744998  0.774346  0.791452  1
  O  O75  1  0.351906  0.668085  0.202153  1
  O  O76  1  0.655520  0.284871  0.795432  1
  O  O77  1  0.305690  0.233170  0.216321  1
  O  O78  1  0.282905  0.605331  0.419123  1
  O  O79  1  0.627523  0.972965  0.723146  1
  O  O80  1  0.743542  0.398220  0.816804  1
  O  O81  1  0.380573  0.176359  0.346655  1
  O  O82  1  0.565083  0.728927  0.404309  1
  O  O83  1  0.655984  0.065605  0.322267  1
  O  O84  1  0.836173  0.784781  0.514908  1
  O  O85  1  0.726710  0.206762  0.571424  1
  O  O86  1  0.175673  0.853519  0.126733  1
  O  O87  1  0.703625  0.569726  0.505908  1
  O  O88  1  0.712306  0.088748  0.608139  1
  O  O89  1  0.450363  0.279813  0.021049  1
  O  O90  1  0.893191  0.841014  0.694178  1
  O  O91  1  0.507020  0.866604  0.204550  1
  O  O92  1  0.703534  0.365957  0.120913  1
  O  O93  1  0.793801  0.819330  0.300800  1
  O  O94  1  0.902755  0.353135  0.369517  1
  O  O95  1  0.778486  0.005024  0.213242  1
  O  O96  1  0.777395  0.447037  0.379950  1
  O  O97  1  0.911533  0.650140  0.427996  1
  O  O98  1  0.827213  0.595001  0.091032  1
  O  O99  1  0.729982  0.147924  0.074462  1
  O  O100  1  0.761371  0.495429  0.976846  1
  O  O101  1  0.925695  0.175159  0.099686  1
  O  O102  1  0.817100  0.802561  0.169333  1
  O  O103  1  0.947535  0.691013  0.988271  1
  F  F104  1  0.099906  0.035881  0.944800  1
  F  F105  1  0.134333  0.452399  0.690369  1
  F  F106  1  0.031833  0.042781  0.434512  1
  F  F107  1  0.397963  0.454495  0.801910  1
  F  F108  1  0.053445  0.436608  0.194403  1
  F  F109  1  0.556780  0.977448  0.953607  1
  F  F110  1  0.370625  0.997238  0.533593  1
  F  F111  1  0.520354  0.520225  0.683447  1
  F  F112  1  0.408643  0.495853  0.320026  1
  F  F113  1  0.562479  0.013623  0.431085  1
  F  F114  1  0.413245  0.009255  0.060677  1
  F  F115  1  0.968604  0.563411  0.804158  1
  F  F116  1  0.628068  0.487200  0.219740  1
  F  F117  1  0.939179  0.005967  0.547247  1
  F  F118  1  0.985976  0.548858  0.297961  1
  F  F119  1  0.886787  0.949079  0.040654  1
