# generated using pymatgen
data_Li3V3P8O29
_symmetry_space_group_name_H-M   'P 1'
_cell_length_a   9.74030737
_cell_length_b   9.72726676
_cell_length_c   14.01147640
_cell_angle_alpha   90.13008137
_cell_angle_beta   90.23438611
_cell_angle_gamma   60.12872048
_symmetry_Int_Tables_number   1
_chemical_formula_structural   Li3V3P8O29
_chemical_formula_sum   'Li6 V6 P16 O58'
_cell_volume   1151.16140776
_cell_formula_units_Z   2
loop_
 _symmetry_equiv_pos_site_id
 _symmetry_equiv_pos_as_xyz
  1  'x, y, z'
loop_
 _atom_site_type_symbol
 _atom_site_label
 _atom_site_symmetry_multiplicity
 _atom_site_fract_x
 _atom_site_fract_y
 _atom_site_fract_z
 _atom_site_occupancy
  Li  Li0  1  0.905687  0.329187  0.559187  1
  Li  Li1  1  0.329205  0.903868  0.058561  1
  Li  Li2  1  0.329267  0.765268  0.560070  1
  Li  Li3  1  0.331647  0.336428  0.109231  1
  Li  Li4  1  0.962103  0.014202  0.000828  1
  Li  Li5  1  0.972536  0.986240  0.500438  1
  V  V6  1  0.574005  0.429033  0.249951  1
  V  V7  1  0.435502  0.562835  0.754610  1
  V  V8  1  0.570322  0.996378  0.747165  1
  V  V9  1  0.432938  0.001718  0.256163  1
  V  V10  1  0.997254  0.572047  0.249737  1
  V  V11  1  0.001264  0.438115  0.754570  1
  P  P12  1  0.916225  0.779867  0.843793  1
  P  P13  1  0.777566  0.917948  0.343022  1
  P  P14  1  0.917834  0.311010  0.342641  1
  P  P15  1  0.664241  0.668745  0.128998  1
  P  P16  1  0.665764  0.664489  0.629456  1
  P  P17  1  0.777677  0.307810  0.844951  1
  P  P18  1  0.690602  0.225001  0.658292  1
  P  P19  1  0.315314  0.913936  0.843745  1
  P  P20  1  0.690055  0.085655  0.155417  1
  P  P21  1  0.313905  0.770040  0.343946  1
  P  P22  1  0.223830  0.688401  0.158797  1
  P  P23  1  0.332522  0.338011  0.370960  1
  P  P24  1  0.337120  0.328791  0.869787  1
  P  P25  1  0.085357  0.691992  0.656383  1
  P  P26  1  0.223462  0.086373  0.659576  1
  P  P27  1  0.087956  0.221725  0.156494  1
  O  O28  1  0.007293  0.784315  0.569352  1
  O  O29  1  0.914883  0.742688  0.332399  1
  O  O30  1  0.781975  0.006013  0.069332  1
  O  O31  1  0.741724  0.915112  0.831713  1
  O  O32  1  0.914490  0.619708  0.827600  1
  O  O33  1  0.815779  0.661066  0.174486  1
  O  O34  1  0.913050  0.470212  0.324232  1
  O  O35  1  0.004562  0.207163  0.072479  1
  O  O36  1  0.913297  0.347508  0.831735  1
  O  O37  1  0.666963  0.812647  0.674859  1
  O  O38  1  0.619107  0.916387  0.327240  1
  O  O39  1  0.815512  0.513765  0.670324  1
  O  O40  1  0.658172  0.669240  0.023381  1
  O  O41  1  0.659787  0.665422  0.523122  1
  O  O42  1  0.659151  0.523427  0.175901  1
  O  O43  1  0.473889  0.909749  0.825421  1
  O  O44  1  0.517425  0.819708  0.172526  1
  O  O45  1  0.745326  0.340223  0.331988  1
  O  O46  1  0.795960  0.202196  0.752265  1
  O  O47  1  0.786059  0.217626  0.573505  1
  O  O48  1  0.788837  0.219345  0.932500  1
  O  O49  1  0.618708  0.467454  0.828734  1
  O  O50  1  0.513985  0.668907  0.672685  1
  O  O51  1  0.654272  0.261518  0.165360  1
  O  O52  1  0.471331  0.616305  0.325754  1
  O  O53  1  0.343688  0.913509  0.332168  1
  O  O54  1  0.794893  0.002489  0.249482  1
  O  O55  1  0.789817  0.995877  0.430313  1
  O  O56  1  0.217090  0.993219  0.576899  1
  O  O57  1  0.655042  0.086666  0.663995  1
  O  O58  1  0.532933  0.382835  0.672719  1
  O  O59  1  0.344802  0.741602  0.831533  1
  O  O60  1  0.478483  0.337877  0.324092  1
  O  O61  1  0.375158  0.523203  0.168861  1
  O  O62  1  0.219197  0.787501  0.077101  1
  O  O63  1  0.235095  0.779215  0.436094  1
  O  O64  1  0.200469  0.788528  0.256362  1
  O  O65  1  0.261345  0.654215  0.663677  1
  O  O66  1  0.481291  0.183026  0.825294  1
  O  O67  1  0.525612  0.097514  0.169721  1
  O  O68  1  0.335523  0.479213  0.826607  1
  O  O69  1  0.333557  0.331141  0.976011  1
  O  O70  1  0.330560  0.335460  0.476291  1
  O  O71  1  0.183480  0.480641  0.322741  1
  O  O72  1  0.381865  0.086053  0.672195  1
  O  O73  1  0.335699  0.185930  0.324070  1
  O  O74  1  0.081581  0.657266  0.162360  1
  O  O75  1  0.002750  0.796459  0.750402  1
  O  O76  1  0.995180  0.788837  0.931591  1
  O  O77  1  0.083156  0.534425  0.672870  1
  O  O78  1  0.185101  0.334035  0.825537  1
  O  O79  1  0.099549  0.375208  0.168908  1
  O  O80  1  0.264259  0.079986  0.162119  1
  O  O81  1  0.239297  0.984981  0.936215  1
  O  O82  1  0.199414  0.010569  0.757143  1
  O  O83  1  0.082884  0.259601  0.660876  1
  O  O84  1  0.988484  0.234177  0.435335  1
  O  O85  1  0.011628  0.199239  0.254595  1
