# generated using pymatgen
data_Mo2C3S2(Cl5O)2
_symmetry_space_group_name_H-M   'P 1'
_cell_length_a   11.92605908
_cell_length_b   16.74801445
_cell_length_c   19.80653671
_cell_angle_alpha   90.00000000
_cell_angle_beta   90.00000000
_cell_angle_gamma   94.83830392
_symmetry_Int_Tables_number   1
_chemical_formula_structural   Mo2C3S2(Cl5O)2
_chemical_formula_sum   'Mo16 C24 S16 Cl80 O16'
_cell_volume   3942.01742153
_cell_formula_units_Z   8
loop_
 _symmetry_equiv_pos_site_id
 _symmetry_equiv_pos_as_xyz
  1  'x, y, z'
loop_
 _atom_site_type_symbol
 _atom_site_label
 _atom_site_symmetry_multiplicity
 _atom_site_fract_x
 _atom_site_fract_y
 _atom_site_fract_z
 _atom_site_occupancy
  Mo  Mo0  1  0.679785  0.770840  0.921024  1
  Mo  Mo1  1  0.765957  0.618206  0.803514  1
  Mo  Mo2  1  0.758404  0.288040  0.823524  1
  Mo  Mo3  1  0.232962  0.929317  0.185606  1
  Mo  Mo4  1  0.267038  0.570683  0.685606  1
  Mo  Mo5  1  0.265957  0.118206  0.696486  1
  Mo  Mo6  1  0.241596  0.711960  0.176476  1
  Mo  Mo7  1  0.179785  0.270840  0.578976  1
  Mo  Mo8  1  0.320215  0.229160  0.078976  1
  Mo  Mo9  1  0.741596  0.211960  0.323524  1
  Mo  Mo10  1  0.732962  0.429317  0.314394  1
  Mo  Mo11  1  0.258404  0.788040  0.676476  1
  Mo  Mo12  1  0.734043  0.881794  0.303514  1
  Mo  Mo13  1  0.820215  0.729160  0.421024  1
  Mo  Mo14  1  0.234043  0.381794  0.196486  1
  Mo  Mo15  1  0.767038  0.070683  0.814394  1
  C  C16  1  0.242586  0.866410  0.923776  1
  C  C17  1  0.346291  0.069358  0.392412  1
  C  C18  1  0.253495  0.475833  0.910609  1
  C  C19  1  0.628602  0.338108  0.574707  1
  C  C20  1  0.647971  0.555652  0.112424  1
  C  C21  1  0.236907  0.552160  0.407977  1
  C  C22  1  0.352029  0.444348  0.887576  1
  C  C23  1  0.753495  0.975833  0.589391  1
  C  C24  1  0.757414  0.133590  0.076224  1
  C  C25  1  0.153709  0.430642  0.892412  1
  C  C26  1  0.736907  0.052160  0.092023  1
  C  C27  1  0.871398  0.161892  0.074707  1
  C  C28  1  0.852029  0.944348  0.612424  1
  C  C29  1  0.371398  0.661892  0.425293  1
  C  C30  1  0.763093  0.447840  0.592023  1
  C  C31  1  0.263093  0.947840  0.907977  1
  C  C32  1  0.653709  0.930642  0.607588  1
  C  C33  1  0.846291  0.569358  0.107588  1
  C  C34  1  0.246505  0.024167  0.410609  1
  C  C35  1  0.742586  0.366410  0.576224  1
  C  C36  1  0.257414  0.633590  0.423776  1
  C  C37  1  0.147971  0.055652  0.387576  1
  C  C38  1  0.746505  0.524167  0.089391  1
  C  C39  1  0.128602  0.838108  0.925293  1
  S  S40  1  0.665292  0.846617  0.654753  1
  S  S41  1  0.350872  0.500336  0.391958  1
  S  S42  1  0.834708  0.653383  0.154753  1
  S  S43  1  0.162798  0.141587  0.341450  1
  S  S44  1  0.149128  0.999664  0.891958  1
  S  S45  1  0.032370  0.904873  0.908415  1
  S  S46  1  0.649128  0.499664  0.608042  1
  S  S47  1  0.467630  0.595127  0.408415  1
  S  S48  1  0.662798  0.641587  0.158550  1
  S  S49  1  0.532370  0.404873  0.591585  1
  S  S50  1  0.967630  0.095127  0.091585  1
  S  S51  1  0.337202  0.358413  0.841450  1
  S  S52  1  0.850872  0.000336  0.108042  1
  S  S53  1  0.165292  0.346617  0.845247  1
  S  S54  1  0.837202  0.858413  0.658550  1
  S  S55  1  0.334708  0.153383  0.345247  1
  Cl  Cl56  1  0.475727  0.047793  0.415676  1
  Cl  Cl57  1  0.891395  0.497074  0.595920  1
  Cl  Cl58  1  0.053824  0.207274  0.499352  1
  Cl  Cl59  1  0.783747  0.619275  0.926850  1
  Cl  Cl60  1  0.086371  0.183724  0.669805  1
  Cl  Cl61  1  0.193466  0.975296  0.075521  1
  Cl  Cl62  1  0.975727  0.547793  0.084324  1
  Cl  Cl63  1  0.346280  0.806794  0.941228  1
  Cl  Cl64  1  0.064138  0.976796  0.224411  1
  Cl  Cl65  1  0.935862  0.023204  0.775589  1
  Cl  Cl66  1  0.418278  0.757077  0.441765  1
  Cl  Cl67  1  0.741517  0.830957  0.191087  1
  Cl  Cl68  1  0.216253  0.380725  0.073150  1
  Cl  Cl69  1  0.283747  0.119275  0.573150  1
  Cl  Cl70  1  0.581722  0.242923  0.558235  1
  Cl  Cl71  1  0.446176  0.292726  0.999352  1
  Cl  Cl72  1  0.690740  0.690485  0.507450  1
  Cl  Cl73  1  0.729675  0.335230  0.220834  1
  Cl  Cl74  1  0.806534  0.024704  0.924479  1
  Cl  Cl75  1  0.637886  0.165590  0.865550  1
  Cl  Cl76  1  0.744074  0.440166  0.041720  1
  Cl  Cl77  1  0.108605  0.502926  0.404080  1
  Cl  Cl78  1  0.586371  0.683724  0.830195  1
  Cl  Cl79  1  0.410917  0.709450  0.639332  1
  Cl  Cl80  1  0.024273  0.452207  0.915676  1
  Cl  Cl81  1  0.809260  0.809515  0.007450  1
  Cl  Cl82  1  0.362114  0.834410  0.134450  1
  Cl  Cl83  1  0.385379  0.864898  0.745427  1
  Cl  Cl84  1  0.270325  0.664770  0.779166  1
  Cl  Cl85  1  0.137886  0.665590  0.634450  1
  Cl  Cl86  1  0.885379  0.364898  0.754573  1
  Cl  Cl87  1  0.306534  0.524704  0.575521  1
  Cl  Cl88  1  0.608605  0.002926  0.095920  1
  Cl  Cl89  1  0.564138  0.476796  0.275589  1
  Cl  Cl90  1  0.089083  0.790550  0.139332  1
  Cl  Cl91  1  0.553824  0.707274  0.000648  1
  Cl  Cl92  1  0.457265  0.104225  0.707768  1
  Cl  Cl93  1  0.391395  0.997074  0.904080  1
  Cl  Cl94  1  0.153720  0.693206  0.441228  1
  Cl  Cl95  1  0.482889  0.484051  0.903907  1
  Cl  Cl96  1  0.589083  0.290550  0.360668  1
  Cl  Cl97  1  0.114621  0.635102  0.245427  1
  Cl  Cl98  1  0.170275  0.216651  0.164023  1
  Cl  Cl99  1  0.910917  0.209450  0.860668  1
  Cl  Cl100  1  0.017111  0.015949  0.403907  1
  Cl  Cl101  1  0.846280  0.306794  0.558772  1
  Cl  Cl102  1  0.229675  0.835230  0.279166  1
  Cl  Cl103  1  0.542735  0.895775  0.292232  1
  Cl  Cl104  1  0.755926  0.059834  0.541720  1
  Cl  Cl105  1  0.081722  0.742923  0.941765  1
  Cl  Cl106  1  0.309260  0.309515  0.492550  1
  Cl  Cl107  1  0.241517  0.330957  0.308913  1
  Cl  Cl108  1  0.862114  0.334410  0.365550  1
  Cl  Cl109  1  0.517111  0.515949  0.096093  1
  Cl  Cl110  1  0.716253  0.880725  0.426850  1
  Cl  Cl111  1  0.758483  0.669043  0.691087  1
  Cl  Cl112  1  0.918278  0.257077  0.058235  1
  Cl  Cl113  1  0.244074  0.940166  0.458280  1
  Cl  Cl114  1  0.653720  0.193206  0.058772  1
  Cl  Cl115  1  0.946176  0.792726  0.500648  1
  Cl  Cl116  1  0.604347  0.322838  0.758289  1
  Cl  Cl117  1  0.614621  0.135102  0.254573  1
  Cl  Cl118  1  0.395653  0.677162  0.241711  1
  Cl  Cl119  1  0.913629  0.816276  0.330195  1
  Cl  Cl120  1  0.957265  0.604225  0.792232  1
  Cl  Cl121  1  0.435862  0.523204  0.724411  1
  Cl  Cl122  1  0.982889  0.984051  0.596093  1
  Cl  Cl123  1  0.895653  0.177162  0.258289  1
  Cl  Cl124  1  0.524273  0.952207  0.584324  1
  Cl  Cl125  1  0.329725  0.283349  0.664023  1
  Cl  Cl126  1  0.255926  0.559834  0.958280  1
  Cl  Cl127  1  0.042735  0.395775  0.207768  1
  Cl  Cl128  1  0.104347  0.822838  0.741711  1
  Cl  Cl129  1  0.693466  0.475296  0.424479  1
  Cl  Cl130  1  0.670275  0.716651  0.335977  1
  Cl  Cl131  1  0.258483  0.169043  0.808913  1
  Cl  Cl132  1  0.829725  0.783349  0.835977  1
  Cl  Cl133  1  0.190740  0.190485  0.992550  1
  Cl  Cl134  1  0.770325  0.164770  0.720834  1
  Cl  Cl135  1  0.413629  0.316276  0.169805  1
  O  O136  1  0.247984  0.845383  0.605972  1
  O  O137  1  0.205444  0.023889  0.707588  1
  O  O138  1  0.752016  0.154617  0.394028  1
  O  O139  1  0.668773  0.999478  0.786163  1
  O  O140  1  0.382237  0.144054  0.095301  1
  O  O141  1  0.617763  0.855946  0.904699  1
  O  O142  1  0.747984  0.345383  0.894028  1
  O  O143  1  0.294556  0.476111  0.207588  1
  O  O144  1  0.331227  0.000522  0.213837  1
  O  O145  1  0.252016  0.654617  0.105972  1
  O  O146  1  0.168773  0.499478  0.713837  1
  O  O147  1  0.831227  0.500522  0.286163  1
  O  O148  1  0.794556  0.976111  0.292412  1
  O  O149  1  0.705444  0.523889  0.792412  1
  O  O150  1  0.882237  0.644054  0.404699  1
  O  O151  1  0.117763  0.355946  0.595301  1
