# generated using pymatgen
data_Cr2H21I7(N2O)3
_symmetry_space_group_name_H-M   'P 1'
_cell_length_a   27.32037051
_cell_length_b   8.40958660
_cell_length_c   11.59535155
_cell_angle_alpha   90.00000000
_cell_angle_beta   90.00000000
_cell_angle_gamma   90.00000000
_symmetry_Int_Tables_number   1
_chemical_formula_structural   Cr2H21I7(N2O)3
_chemical_formula_sum   'Cr8 H84 I28 N24 O12'
_cell_volume   2664.06705684
_cell_formula_units_Z   4
loop_
 _symmetry_equiv_pos_site_id
 _symmetry_equiv_pos_as_xyz
  1  'x, y, z'
loop_
 _atom_site_type_symbol
 _atom_site_label
 _atom_site_symmetry_multiplicity
 _atom_site_fract_x
 _atom_site_fract_y
 _atom_site_fract_z
 _atom_site_occupancy
  Cr  Cr0  1  0.104787  0.250000  0.765942  1
  Cr  Cr1  1  0.189334  0.250000  0.891574  1
  Cr  Cr2  1  0.310666  0.750000  0.391574  1
  Cr  Cr3  1  0.395213  0.750000  0.265942  1
  Cr  Cr4  1  0.604787  0.250000  0.734058  1
  Cr  Cr5  1  0.689334  0.250000  0.608426  1
  Cr  Cr6  1  0.810666  0.750000  0.108426  1
  Cr  Cr7  1  0.895213  0.750000  0.234058  1
  H  H8  1  0.006118  0.250000  0.787921  1
  H  H9  1  0.033234  0.347806  0.894632  1
  H  H10  1  0.033234  0.152194  0.894632  1
  H  H11  1  0.051190  0.078406  0.616577  1
  H  H12  1  0.051190  0.421594  0.616577  1
  H  H13  1  0.089785  0.540129  0.685641  1
  H  H14  1  0.089785  0.959871  0.685641  1
  H  H15  1  0.109543  0.072320  0.579393  1
  H  H16  1  0.109543  0.427680  0.579393  1
  H  H17  1  0.130119  0.509157  0.891640  1
  H  H18  1  0.130119  0.990843  0.891640  1
  H  H19  1  0.168764  0.152257  0.096028  1
  H  H20  1  0.168764  0.347743  0.096028  1
  H  H21  1  0.194524  0.250000  0.652868  1
  H  H22  1  0.221860  0.250000  0.110700  1
  H  H23  1  0.229899  0.534548  0.907028  1
  H  H24  1  0.229899  0.965452  0.907028  1
  H  H25  1  0.226157  0.903638  0.431734  1
  H  H26  1  0.226157  0.596362  0.431734  1
  H  H27  1  0.245011  0.559531  0.297842  1
  H  H28  1  0.245011  0.940469  0.297842  1
  H  H29  1  0.254989  0.059532  0.797842  1
  H  H30  1  0.254989  0.440468  0.797842  1
  H  H31  1  0.273843  0.096362  0.931734  1
  H  H32  1  0.273843  0.403638  0.931734  1
  H  H33  1  0.270101  0.034548  0.407028  1
  H  H34  1  0.270101  0.465452  0.407028  1
  H  H35  1  0.278140  0.750000  0.610700  1
  H  H36  1  0.305476  0.750000  0.152868  1
  H  H37  1  0.331236  0.652257  0.596028  1
  H  H38  1  0.331236  0.847743  0.596028  1
  H  H39  1  0.369881  0.009157  0.391639  1
  H  H40  1  0.369881  0.490843  0.391639  1
  H  H41  1  0.390457  0.572320  0.079393  1
  H  H42  1  0.390457  0.927680  0.079393  1
  H  H43  1  0.410215  0.040129  0.185641  1
  H  H44  1  0.410215  0.459871  0.185641  1
  H  H45  1  0.448810  0.578406  0.116577  1
  H  H46  1  0.448810  0.921594  0.116577  1
  H  H47  1  0.466766  0.652194  0.394632  1
  H  H48  1  0.466766  0.847806  0.394632  1
  H  H49  1  0.493882  0.750000  0.287921  1
  H  H50  1  0.506118  0.250000  0.712079  1
  H  H51  1  0.533234  0.152194  0.605368  1
  H  H52  1  0.533234  0.347806  0.605368  1
  H  H53  1  0.551190  0.078406  0.883423  1
  H  H54  1  0.551190  0.421594  0.883423  1
  H  H55  1  0.589785  0.540129  0.814359  1
  H  H56  1  0.589785  0.959871  0.814359  1
  H  H57  1  0.609543  0.072320  0.920607  1
  H  H58  1  0.609543  0.427680  0.920607  1
  H  H59  1  0.630119  0.509157  0.608360  1
  H  H60  1  0.630119  0.990843  0.608360  1
  H  H61  1  0.668764  0.152257  0.403972  1
  H  H62  1  0.668764  0.347743  0.403972  1
  H  H63  1  0.694524  0.250000  0.847132  1
  H  H64  1  0.721860  0.250000  0.389300  1
  H  H65  1  0.729899  0.534548  0.592972  1
  H  H66  1  0.729899  0.965452  0.592972  1
  H  H67  1  0.726157  0.596362  0.068266  1
  H  H68  1  0.726157  0.903638  0.068266  1
  H  H69  1  0.745011  0.559531  0.202158  1
  H  H70  1  0.745011  0.940469  0.202158  1
  H  H71  1  0.754989  0.059532  0.702158  1
  H  H72  1  0.754989  0.440468  0.702158  1
  H  H73  1  0.773843  0.096362  0.568266  1
  H  H74  1  0.773843  0.403638  0.568266  1
  H  H75  1  0.770101  0.034548  0.092972  1
  H  H76  1  0.770101  0.465452  0.092972  1
  H  H77  1  0.778140  0.750000  0.889300  1
  H  H78  1  0.805476  0.750000  0.347132  1
  H  H79  1  0.831236  0.652257  0.903972  1
  H  H80  1  0.831236  0.847743  0.903972  1
  H  H81  1  0.869881  0.009157  0.108360  1
  H  H82  1  0.869881  0.490843  0.108360  1
  H  H83  1  0.890457  0.572320  0.420607  1
  H  H84  1  0.890457  0.927680  0.420607  1
  H  H85  1  0.910215  0.040129  0.314359  1
  H  H86  1  0.910215  0.459871  0.314359  1
  H  H87  1  0.948810  0.578406  0.383423  1
  H  H88  1  0.948810  0.921594  0.383423  1
  H  H89  1  0.966766  0.652194  0.105368  1
  H  H90  1  0.966766  0.847806  0.105368  1
  H  H91  1  0.993882  0.750000  0.212079  1
  I  I92  1  0.188400  0.750000  0.664790  1
  I  I93  1  0.311600  0.250000  0.164790  1
  I  I94  1  0.688400  0.750000  0.835210  1
  I  I95  1  0.811600  0.250000  0.335210  1
  I  I96  1  0.034787  0.750000  0.874936  1
  I  I97  1  0.038003  0.750000  0.445681  1
  I  I98  1  0.057517  0.250000  0.258587  1
  I  I99  1  0.113170  0.750000  0.269919  1
  I  I100  1  0.150918  0.250000  0.386073  1
  I  I101  1  0.192154  0.750000  0.088195  1
  I  I102  1  0.307846  0.250000  0.588195  1
  I  I103  1  0.349082  0.750000  0.886073  1
  I  I104  1  0.386830  0.250000  0.769919  1
  I  I105  1  0.442483  0.750000  0.758587  1
  I  I106  1  0.461997  0.250000  0.945681  1
  I  I107  1  0.465213  0.250000  0.374936  1
  I  I108  1  0.534787  0.750000  0.625064  1
  I  I109  1  0.538003  0.750000  0.054319  1
  I  I110  1  0.557517  0.250000  0.241413  1
  I  I111  1  0.613170  0.750000  0.230081  1
  I  I112  1  0.650918  0.250000  0.113927  1
  I  I113  1  0.692154  0.750000  0.411805  1
  I  I114  1  0.807846  0.250000  0.911805  1
  I  I115  1  0.849082  0.750000  0.613927  1
  I  I116  1  0.886830  0.250000  0.730081  1
  I  I117  1  0.942483  0.750000  0.741413  1
  I  I118  1  0.961997  0.250000  0.554319  1
  I  I119  1  0.965213  0.250000  0.125064  1
  N  N120  1  0.035693  0.250000  0.842249  1
  N  N121  1  0.086122  0.070294  0.648762  1
  N  N122  1  0.086122  0.429706  0.648762  1
  N  N123  1  0.188119  0.250000  0.069927  1
  N  N124  1  0.243643  0.073493  0.881555  1
  N  N125  1  0.243643  0.426507  0.881555  1
  N  N126  1  0.256357  0.573493  0.381555  1
  N  N127  1  0.256357  0.926507  0.381555  1
  N  N128  1  0.311881  0.750000  0.569927  1
  N  N129  1  0.413878  0.570294  0.148762  1
  N  N130  1  0.413878  0.929706  0.148762  1
  N  N131  1  0.464307  0.750000  0.342249  1
  N  N132  1  0.535693  0.250000  0.657751  1
  N  N133  1  0.586122  0.070294  0.851238  1
  N  N134  1  0.586122  0.429706  0.851238  1
  N  N135  1  0.688119  0.250000  0.430073  1
  N  N136  1  0.743643  0.073493  0.618445  1
  N  N137  1  0.743643  0.426507  0.618445  1
  N  N138  1  0.756357  0.573493  0.118445  1
  N  N139  1  0.756357  0.926507  0.118445  1
  N  N140  1  0.811881  0.750000  0.930073  1
  N  N141  1  0.913878  0.570294  0.351238  1
  N  N142  1  0.913878  0.929706  0.351238  1
  N  N143  1  0.964307  0.750000  0.157751  1
  O  O144  1  0.129860  0.106897  0.892836  1
  O  O145  1  0.129860  0.393103  0.892836  1
  O  O146  1  0.175228  0.250000  0.723600  1
  O  O147  1  0.324772  0.750000  0.223600  1
  O  O148  1  0.370140  0.606897  0.392836  1
  O  O149  1  0.370140  0.893103  0.392836  1
  O  O150  1  0.629860  0.106897  0.607164  1
  O  O151  1  0.629860  0.393103  0.607164  1
  O  O152  1  0.675228  0.250000  0.776400  1
  O  O153  1  0.824772  0.750000  0.276400  1
  O  O154  1  0.870140  0.606897  0.107164  1
  O  O155  1  0.870140  0.893103  0.107164  1
