# generated using pymatgen
data_Sr5La2Mn8(O3F)6
_symmetry_space_group_name_H-M   'P 1'
_cell_length_a   5.63442901
_cell_length_b   5.69357589
_cell_length_c   15.32673591
_cell_angle_alpha   90.04724893
_cell_angle_beta   90.03470840
_cell_angle_gamma   89.89177283
_symmetry_Int_Tables_number   1
_chemical_formula_structural   Sr5La2Mn8(O3F)6
_chemical_formula_sum   'Sr5 La2 Mn8 O18 F6'
_cell_volume   491.68130735
_cell_formula_units_Z   1
loop_
 _symmetry_equiv_pos_site_id
 _symmetry_equiv_pos_as_xyz
  1  'x, y, z'
loop_
 _atom_site_type_symbol
 _atom_site_label
 _atom_site_symmetry_multiplicity
 _atom_site_fract_x
 _atom_site_fract_y
 _atom_site_fract_z
 _atom_site_occupancy
  Sr  Sr0  1  0.004986  0.506647  0.625125  1
  Sr  Sr1  1  0.495994  0.005551  0.375374  1
  Sr  Sr2  1  0.495252  0.004788  0.874902  1
  Sr  Sr3  1  0.505565  0.996292  0.124284  1
  Sr  Sr4  1  0.505588  0.998431  0.624200  1
  La  La5  1  0.004974  0.499313  0.370578  1
  La  La6  1  0.973957  0.499947  0.878558  1
  Mn  Mn7  1  0.003845  0.003326  0.005310  1
  Mn  Mn8  1  0.497714  0.499167  0.244436  1
  Mn  Mn9  1  0.509192  0.511742  0.751269  1
  Mn  Mn10  1  0.498405  0.498055  0.005811  1
  Mn  Mn11  1  0.489039  0.511747  0.498255  1
  Mn  Mn12  1  0.996472  0.003298  0.244740  1
  Mn  Mn13  1  0.014114  0.989555  0.498489  1
  Mn  Mn14  1  0.986161  0.989773  0.751485  1
  O  O15  1  -0.000224  0.068219  0.374273  1
  O  O16  1  0.996706  0.067458  0.875824  1
  O  O17  1  0.243780  0.742563  0.482343  1
  O  O18  1  0.243636  0.746900  0.271206  1
  O  O19  1  0.228906  0.728090  0.769406  1
  O  O20  1  0.272720  0.229405  0.005034  1
  O  O21  1  0.249787  0.251674  0.508588  1
  O  O22  1  0.495873  0.564160  0.125144  1
  O  O23  1  0.495008  0.551433  0.625019  1
  O  O24  1  0.518264  0.448196  0.876170  1
  O  O25  1  0.505072  0.449817  0.374110  1
  O  O26  1  0.760000  0.741685  0.482694  1
  O  O27  1  0.744842  0.757996  0.981050  1
  O  O28  1  0.744285  0.753136  0.765100  1
  O  O29  1  0.737738  0.240031  0.244372  1
  O  O30  1  0.762453  0.262115  0.739715  1
  O  O31  1  0.003658  0.953197  0.625041  1
  O  O32  1  0.000171  0.941167  0.125126  1
  F  F33  1  0.244010  0.743026  0.978267  1
  F  F34  1  0.263045  0.237029  0.737388  1
  F  F35  1  0.253188  0.243235  0.237008  1
  F  F36  1  0.744407  0.754932  0.269216  1
  F  F37  1  0.751361  0.250041  0.514489  1
  F  F38  1  0.759059  0.257061  0.015600  1
