# generated using pymatgen
data_Gd(AlGe)2
_symmetry_space_group_name_H-M   'P 1'
_cell_length_a   4.27719719
_cell_length_b   4.27871865
_cell_length_c   6.67397578
_cell_angle_alpha   90.06375867
_cell_angle_beta   90.00328533
_cell_angle_gamma   59.99508493
_symmetry_Int_Tables_number   1
_chemical_formula_structural   Gd(AlGe)2
_chemical_formula_sum   'Gd1 Al2 Ge2'
_cell_volume   105.77095079
_cell_formula_units_Z   1
loop_
 _symmetry_equiv_pos_site_id
 _symmetry_equiv_pos_as_xyz
  1  'x, y, z'
loop_
 _atom_site_type_symbol
 _atom_site_label
 _atom_site_symmetry_multiplicity
 _atom_site_fract_x
 _atom_site_fract_y
 _atom_site_fract_z
 _atom_site_occupancy
  Gd  Gd0  1  0.999986  0.999984  0.000010  1
  Al  Al1  1  0.333301  0.333334  0.356525  1
  Al  Al2  1  0.666603  0.666674  0.643470  1
  Ge  Ge3  1  0.333281  0.333337  0.739960  1
  Ge  Ge4  1  0.666628  0.666670  0.260036  1
