# generated using pymatgen
data_Mn6O7F5
_symmetry_space_group_name_H-M   'P 1'
_cell_length_a   4.56862629
_cell_length_b   5.64113179
_cell_length_c   15.34618682
_cell_angle_alpha   89.96015003
_cell_angle_beta   90.44197199
_cell_angle_gamma   90.79675497
_symmetry_Int_Tables_number   1
_chemical_formula_structural   Mn6O7F5
_chemical_formula_sum   'Mn12 O14 F10'
_cell_volume   395.45527454
_cell_formula_units_Z   2
loop_
 _symmetry_equiv_pos_site_id
 _symmetry_equiv_pos_as_xyz
  1  'x, y, z'
loop_
 _atom_site_type_symbol
 _atom_site_label
 _atom_site_symmetry_multiplicity
 _atom_site_fract_x
 _atom_site_fract_y
 _atom_site_fract_z
 _atom_site_occupancy
  Mn  Mn0  1  0.032675  0.176211  0.407974  1
  Mn  Mn1  1  0.030443  0.838437  0.245813  1
  Mn  Mn2  1  0.998468  0.152374  0.075609  1
  Mn  Mn3  1  0.018432  0.165063  0.744212  1
  Mn  Mn4  1  0.992088  0.848433  0.581899  1
  Mn  Mn5  1  0.014054  0.849051  0.906570  1
  Mn  Mn6  1  0.503199  0.351145  0.587340  1
  Mn  Mn7  1  0.497449  0.347868  0.921083  1
  Mn  Mn8  1  0.500894  0.362861  0.256432  1
  Mn  Mn9  1  0.508955  0.654359  0.090181  1
  Mn  Mn10  1  0.517010  0.623964  0.420561  1
  Mn  Mn11  1  0.497989  0.635245  0.760832  1
  O  O12  1  0.240998  0.112895  0.300660  1
  O  O13  1  0.209247  0.116175  0.634993  1
  O  O14  1  0.218995  0.112368  0.967007  1
  O  O15  1  0.215459  0.886234  0.133685  1
  O  O16  1  0.232630  0.886654  0.801102  1
  O  O17  1  0.287188  0.597549  0.315122  1
  O  O18  1  0.288344  0.391536  0.478362  1
  O  O19  1  0.275233  0.397453  0.813083  1
  O  O20  1  0.714370  0.382574  0.030952  1
  O  O21  1  0.724046  0.615730  0.197606  1
  O  O22  1  0.728050  0.384103  0.359825  1
  O  O23  1  0.734362  0.612181  0.529580  1
  O  O24  1  0.722426  0.617318  0.862940  1
  O  O25  1  0.721748  0.390834  0.696211  1
  F  F26  1  0.254386  0.879735  0.469041  1
  F  F27  1  0.249335  0.383383  0.151555  1
  F  F28  1  0.251310  0.624486  0.650130  1
  F  F29  1  0.252941  0.617442  0.985622  1
  F  F30  1  0.749053  0.127070  0.191251  1
  F  F31  1  0.774634  0.104445  0.517491  1
  F  F32  1  0.781022  0.869526  0.360973  1
  F  F33  1  0.754118  0.882790  0.011354  1
  F  F34  1  0.771406  0.126243  0.848102  1
  F  F35  1  0.737044  0.876262  0.694848  1
