# generated using pymatgen
data_NaMn2O4
_symmetry_space_group_name_H-M   'P 1'
_cell_length_a   5.04950405
_cell_length_b   6.07245148
_cell_length_c   11.43068062
_cell_angle_alpha   89.97793320
_cell_angle_beta   89.93762339
_cell_angle_gamma   89.51234410
_symmetry_Int_Tables_number   1
_chemical_formula_structural   NaMn2O4
_chemical_formula_sum   'Na4 Mn8 O16'
_cell_volume   350.48452745
_cell_formula_units_Z   4
loop_
 _symmetry_equiv_pos_site_id
 _symmetry_equiv_pos_as_xyz
  1  'x, y, z'
loop_
 _atom_site_type_symbol
 _atom_site_label
 _atom_site_symmetry_multiplicity
 _atom_site_fract_x
 _atom_site_fract_y
 _atom_site_fract_z
 _atom_site_occupancy
  Na  Na0  1  0.009038  0.748913  0.250044  1
  Na  Na1  1  0.360043  0.749584  0.750072  1
  Na  Na2  1  0.639906  0.250349  0.249851  1
  Na  Na3  1  0.990891  0.251046  0.749900  1
  Mn  Mn4  1  0.001820  0.254461  0.006383  1
  Mn  Mn5  1  0.998148  0.745364  0.993546  1
  Mn  Mn6  1  0.001664  0.245683  0.492824  1
  Mn  Mn7  1  0.998603  0.754255  0.507000  1
  Mn  Mn8  1  0.499945  0.499847  0.000058  1
  Mn  Mn9  1  0.499955  0.000172  -0.000000  1
  Mn  Mn10  1  0.500100  -0.000031  0.499972  1
  Mn  Mn11  1  0.500007  0.500197  0.499988  1
  O  O12  1  0.178259  0.006562  0.593812  1
  O  O13  1  0.173758  0.003745  0.910270  1
  O  O14  1  0.175477  0.501483  0.590994  1
  O  O15  1  0.178460  0.496198  0.906068  1
  O  O16  1  0.335412  0.262210  0.089077  1
  O  O17  1  0.333642  0.235881  0.409901  1
  O  O18  1  0.314273  0.731117  0.086023  1
  O  O19  1  0.318446  0.765130  0.415389  1
  O  O20  1  0.681438  0.234923  0.584520  1
  O  O21  1  0.685705  0.268875  0.913934  1
  O  O22  1  0.666774  0.764172  0.590234  1
  O  O23  1  0.664257  0.737723  0.910942  1
  O  O24  1  0.821518  0.991624  0.406198  1
  O  O25  1  0.824877  0.500507  0.409224  1
  O  O26  1  0.826194  0.997846  0.089736  1
  O  O27  1  0.821390  0.502162  0.094040  1
