# generated using pymatgen
data_K2Sr2O3
_symmetry_space_group_name_H-M   'P 1'
_cell_length_a   7.16104102
_cell_length_b   7.15990135
_cell_length_c   7.13227476
_cell_angle_alpha   90.00000000
_cell_angle_beta   118.73054445
_cell_angle_gamma   90.00000000
_symmetry_Int_Tables_number   1
_chemical_formula_structural   K2Sr2O3
_chemical_formula_sum   'K4 Sr4 O6'
_cell_volume   320.66857271
_cell_formula_units_Z   2
loop_
 _symmetry_equiv_pos_site_id
 _symmetry_equiv_pos_as_xyz
  1  'x, y, z'
loop_
 _atom_site_type_symbol
 _atom_site_label
 _atom_site_symmetry_multiplicity
 _atom_site_fract_x
 _atom_site_fract_y
 _atom_site_fract_z
 _atom_site_occupancy
  K  K0  1  0.126980  0.653653  0.907053  1
  K  K1  1  0.126980  0.846347  0.407053  1
  K  K2  1  0.873020  0.153653  0.592947  1
  K  K3  1  0.873020  0.346347  0.092947  1
  Sr  Sr4  1  0.338363  0.376594  0.575813  1
  Sr  Sr5  1  0.661637  0.876594  0.924187  1
  Sr  Sr6  1  0.338363  0.123406  0.075813  1
  Sr  Sr7  1  0.661637  0.623406  0.424187  1
  O  O8  1  0.000000  0.500000  0.500000  1
  O  O9  1  0.000000  0.000000  0.000000  1
  O  O10  1  0.351864  0.078204  0.739301  1
  O  O11  1  0.648136  0.578204  0.760699  1
  O  O12  1  0.351864  0.421796  0.239301  1
  O  O13  1  0.648136  0.921796  0.260699  1
