# generated using pymatgen
data_Na3PH12CO11
_symmetry_space_group_name_H-M   'P 1'
_cell_length_a   8.98762538
_cell_length_b   12.36572027
_cell_length_c   10.40644204
_cell_angle_alpha   90.00000000
_cell_angle_beta   104.03755378
_cell_angle_gamma   90.00000000
_symmetry_Int_Tables_number   1
_chemical_formula_structural   Na3PH12CO11
_chemical_formula_sum   'Na12 P4 H48 C4 O44'
_cell_volume   1122.01767208
_cell_formula_units_Z   4
loop_
 _symmetry_equiv_pos_site_id
 _symmetry_equiv_pos_as_xyz
  1  'x, y, z'
loop_
 _atom_site_type_symbol
 _atom_site_label
 _atom_site_symmetry_multiplicity
 _atom_site_fract_x
 _atom_site_fract_y
 _atom_site_fract_z
 _atom_site_occupancy
  Na  Na0  1  0.102555  0.068998  0.759171  1
  Na  Na1  1  0.132196  0.759545  0.773755  1
  Na  Na2  1  0.230253  0.335508  0.231255  1
  Na  Na3  1  0.367804  0.259545  0.726245  1
  Na  Na4  1  0.397445  0.568998  0.740829  1
  Na  Na5  1  0.269747  0.835508  0.268745  1
  Na  Na6  1  0.730253  0.164492  0.731255  1
  Na  Na7  1  0.602555  0.431002  0.259171  1
  Na  Na8  1  0.632196  0.740455  0.273755  1
  Na  Na9  1  0.769747  0.664492  0.768745  1
  Na  Na10  1  0.867804  0.240455  0.226245  1
  Na  Na11  1  0.897445  0.931002  0.240829  1
  P  P12  1  0.152753  0.589645  0.291629  1
  P  P13  1  0.347247  0.089645  0.208371  1
  P  P14  1  0.652753  0.910355  0.791629  1
  P  P15  1  0.847247  0.410355  0.708371  1
  H  H16  1  0.006642  0.542898  0.866367  1
  H  H17  1  0.067630  0.880589  0.969894  1
  H  H18  1  0.024382  0.263964  0.893285  1
  H  H19  1  0.137636  0.613632  0.945126  1
  H  H20  1  0.008171  0.241910  0.604051  1
  H  H21  1  0.033940  0.579088  0.634091  1
  H  H22  1  0.147263  0.189266  0.987258  1
  H  H23  1  0.088454  0.181744  0.506450  1
  H  H24  1  0.178980  0.405538  0.860777  1
  H  H25  1  0.226243  0.938307  0.997181  1
  H  H26  1  0.131238  0.634648  0.542898  1
  H  H27  1  0.217556  0.918701  0.733529  1
  H  H28  1  0.282444  0.418701  0.766471  1
  H  H29  1  0.368762  0.134648  0.957102  1
  H  H30  1  0.273757  0.438307  0.502819  1
  H  H31  1  0.321020  0.905538  0.639223  1
  H  H32  1  0.411546  0.681744  0.993550  1
  H  H33  1  0.352737  0.689266  0.512742  1
  H  H34  1  0.466060  0.079088  0.865909  1
  H  H35  1  0.491829  0.741910  0.895949  1
  H  H36  1  0.362364  0.113632  0.554874  1
  H  H37  1  0.475618  0.763964  0.606715  1
  H  H38  1  0.432370  0.380589  0.530106  1
  H  H39  1  0.493358  0.042898  0.633633  1
  H  H40  1  0.506642  0.957102  0.366367  1
  H  H41  1  0.567630  0.619411  0.469894  1
  H  H42  1  0.524382  0.236036  0.393285  1
  H  H43  1  0.637636  0.886368  0.445126  1
  H  H44  1  0.508171  0.258090  0.104051  1
  H  H45  1  0.533940  0.920912  0.134091  1
  H  H46  1  0.647263  0.310734  0.487258  1
  H  H47  1  0.588454  0.318256  0.006450  1
  H  H48  1  0.678980  0.094462  0.360777  1
  H  H49  1  0.726243  0.561693  0.497181  1
  H  H50  1  0.631238  0.865352  0.042898  1
  H  H51  1  0.717556  0.581299  0.233529  1
  H  H52  1  0.782444  0.081299  0.266471  1
  H  H53  1  0.868762  0.365352  0.457102  1
  H  H54  1  0.773757  0.061693  0.002819  1
  H  H55  1  0.821020  0.594462  0.139223  1
  H  H56  1  0.911546  0.818256  0.493551  1
  H  H57  1  0.852737  0.810734  0.012742  1
  H  H58  1  0.966060  0.420912  0.365909  1
  H  H59  1  0.991829  0.758090  0.395949  1
  H  H60  1  0.862364  0.386368  0.054874  1
  H  H61  1  0.975618  0.736036  0.106715  1
  H  H62  1  0.932370  0.119411  0.030106  1
  H  H63  1  0.993358  0.457102  0.133633  1
  C  C64  1  0.183163  0.086623  0.291217  1
  C  C65  1  0.316837  0.586623  0.208783  1
  C  C66  1  0.683163  0.413377  0.791217  1
  C  C67  1  0.816837  0.913377  0.708783  1
  O  O68  1  0.035375  0.619678  0.886656  1
  O  O69  1  0.047436  0.186911  0.920003  1
  O  O70  1  0.141908  0.910636  0.922766  1
  O  O71  1  0.102966  0.202380  0.600170  1
  O  O72  1  0.132997  0.615351  0.635278  1
  O  O73  1  0.012908  0.603591  0.172951  1
  O  O74  1  0.209852  0.908550  0.639249  1
  O  O75  1  0.131676  0.177799  0.321169  1
  O  O76  1  0.149443  0.479704  0.360903  1
  O  O77  1  0.290148  0.408550  0.860751  1
  O  O78  1  0.141271  0.994289  0.319872  1
  O  O79  1  0.174549  0.687890  0.387788  1
  O  O80  1  0.367003  0.115351  0.864722  1
  O  O81  1  0.397034  0.702380  0.899830  1
  O  O82  1  0.358092  0.410636  0.577234  1
  O  O83  1  0.452564  0.686911  0.579997  1
  O  O84  1  0.325451  0.187890  0.112212  1
  O  O85  1  0.358729  0.494289  0.180128  1
  O  O86  1  0.464625  0.119678  0.613344  1
  O  O87  1  0.350557  0.979704  0.139097  1
  O  O88  1  0.368324  0.677799  0.178831  1
  O  O89  1  0.512908  0.896409  0.672951  1
  O  O90  1  0.487092  0.103591  0.327049  1
  O  O91  1  0.631676  0.322201  0.821169  1
  O  O92  1  0.649443  0.020296  0.860903  1
  O  O93  1  0.535375  0.880322  0.386656  1
  O  O94  1  0.641271  0.505711  0.819872  1
  O  O95  1  0.674549  0.812110  0.887788  1
  O  O96  1  0.547436  0.313089  0.420003  1
  O  O97  1  0.641908  0.589364  0.422766  1
  O  O98  1  0.602966  0.297620  0.100170  1
  O  O99  1  0.632997  0.884649  0.135278  1
  O  O100  1  0.825451  0.312110  0.612212  1
  O  O101  1  0.858729  0.005711  0.680128  1
  O  O102  1  0.709852  0.591450  0.139249  1
  O  O103  1  0.850557  0.520296  0.639097  1
  O  O104  1  0.868324  0.822201  0.678831  1
  O  O105  1  0.790148  0.091450  0.360751  1
  O  O106  1  0.987092  0.396410  0.827049  1
  O  O107  1  0.867003  0.384649  0.364722  1
  O  O108  1  0.897034  0.797620  0.399830  1
  O  O109  1  0.858092  0.089364  0.077234  1
  O  O110  1  0.952564  0.813089  0.079997  1
  O  O111  1  0.964625  0.380322  0.113344  1
