# generated using pymatgen
data_Sb3O4F
_symmetry_space_group_name_H-M   'P 1'
_cell_length_a   9.46993589
_cell_length_b   5.36741472
_cell_length_c   5.67027025
_cell_angle_alpha   90.00000000
_cell_angle_beta   92.41488217
_cell_angle_gamma   90.00000000
_symmetry_Int_Tables_number   1
_chemical_formula_structural   Sb3O4F
_chemical_formula_sum   'Sb6 O8 F2'
_cell_volume   287.95862423
_cell_formula_units_Z   2
loop_
 _symmetry_equiv_pos_site_id
 _symmetry_equiv_pos_as_xyz
  1  'x, y, z'
loop_
 _atom_site_type_symbol
 _atom_site_label
 _atom_site_symmetry_multiplicity
 _atom_site_fract_x
 _atom_site_fract_y
 _atom_site_fract_z
 _atom_site_occupancy
  Sb  Sb0  1  0.190044  0.293484  0.819835  1
  Sb  Sb1  1  0.190044  0.706516  0.319835  1
  Sb  Sb2  1  0.500000  0.824180  0.750000  1
  Sb  Sb3  1  0.500000  0.175820  0.250000  1
  Sb  Sb4  1  0.809956  0.293484  0.680165  1
  Sb  Sb5  1  0.809956  0.706516  0.180165  1
  O  O6  1  0.274084  0.456289  0.543472  1
  O  O7  1  0.274084  0.543711  0.043472  1
  O  O8  1  0.379323  0.090375  0.906409  1
  O  O9  1  0.379323  0.909625  0.406409  1
  O  O10  1  0.620677  0.090375  0.593591  1
  O  O11  1  0.620677  0.909625  0.093591  1
  O  O12  1  0.725916  0.456289  0.956528  1
  O  O13  1  0.725916  0.543711  0.456528  1
  F  F14  1  0.000000  0.575123  0.750000  1
  F  F15  1  0.000000  0.424877  0.250000  1
