# generated using pymatgen
data_Na3TlPCO7
_symmetry_space_group_name_H-M   'P 1'
_cell_length_a   9.46301925
_cell_length_b   7.21440605
_cell_length_c   5.33310445
_cell_angle_alpha   90.00000000
_cell_angle_beta   90.30824005
_cell_angle_gamma   90.00000000
_symmetry_Int_Tables_number   1
_chemical_formula_structural   Na3TlPCO7
_chemical_formula_sum   'Na6 Tl2 P2 C2 O14'
_cell_volume   364.08610959
_cell_formula_units_Z   2
loop_
 _symmetry_equiv_pos_site_id
 _symmetry_equiv_pos_as_xyz
  1  'x, y, z'
loop_
 _atom_site_type_symbol
 _atom_site_label
 _atom_site_symmetry_multiplicity
 _atom_site_fract_x
 _atom_site_fract_y
 _atom_site_fract_z
 _atom_site_occupancy
  Na  Na0  1  0.082657  0.250000  0.759209  1
  Na  Na1  1  0.254854  0.002310  0.240616  1
  Na  Na2  1  0.254854  0.497690  0.240616  1
  Na  Na3  1  0.745146  0.502310  0.759384  1
  Na  Na4  1  0.745146  0.997690  0.759384  1
  Na  Na5  1  0.917343  0.750000  0.240791  1
  Tl  Tl6  1  0.370745  0.750000  0.760576  1
  Tl  Tl7  1  0.629255  0.250000  0.239424  1
  P  P8  1  0.401448  0.250000  0.703343  1
  P  P9  1  0.598552  0.750000  0.296657  1
  C  C10  1  0.050891  0.750000  0.735159  1
  C  C11  1  0.949109  0.250000  0.264841  1
  O  O12  1  0.086180  0.250000  0.283647  1
  O  O13  1  0.111114  0.750000  0.955998  1
  O  O14  1  0.126792  0.750000  0.530017  1
  O  O15  1  0.318557  0.079771  0.810973  1
  O  O16  1  0.318557  0.420229  0.810973  1
  O  O17  1  0.390135  0.250000  0.412073  1
  O  O18  1  0.438504  0.750000  0.223925  1
  O  O19  1  0.561496  0.250000  0.776075  1
  O  O20  1  0.609865  0.750000  0.587927  1
  O  O21  1  0.681443  0.579771  0.189027  1
  O  O22  1  0.681443  0.920229  0.189027  1
  O  O23  1  0.873208  0.250000  0.469983  1
  O  O24  1  0.888886  0.250000  0.044002  1
  O  O25  1  0.913820  0.750000  0.716353  1
