# generated using pymatgen
data_Li24Mn7Cr5O36
_symmetry_space_group_name_H-M   'P 1'
_cell_length_a   5.00756316
_cell_length_b   13.27385759
_cell_length_c   9.73717704
_cell_angle_alpha   97.13252251
_cell_angle_beta   94.72001222
_cell_angle_gamma   100.50879106
_symmetry_Int_Tables_number   1
_chemical_formula_structural   Li24Mn7Cr5O36
_chemical_formula_sum   'Li24 Mn7 Cr5 O36'
_cell_volume   627.78364985
_cell_formula_units_Z   1
loop_
 _symmetry_equiv_pos_site_id
 _symmetry_equiv_pos_as_xyz
  1  'x, y, z'
loop_
 _atom_site_type_symbol
 _atom_site_label
 _atom_site_symmetry_multiplicity
 _atom_site_fract_x
 _atom_site_fract_y
 _atom_site_fract_z
 _atom_site_occupancy
  Li  Li0  1  0.834001  0.166115  0.999648  1
  Li  Li1  1  0.946675  0.384860  0.999576  1
  Li  Li2  1  0.000373  0.749562  0.250636  1
  Li  Li3  1  0.668461  0.082181  0.249717  1
  Li  Li4  1  0.951312  0.888854  0.501227  1
  Li  Li5  1  0.621403  0.223715  0.500462  1
  Li  Li6  1  0.833101  0.666590  0.499341  1
  Li  Li7  1  0.496944  0.999280  0.500108  1
  Li  Li8  1  0.710914  0.443682  0.499584  1
  Li  Li9  1  0.665197  0.584257  0.750421  1
  Li  Li10  1  0.499054  0.500222  0.999791  1
  Li  Li11  1  0.719662  0.947441  0.000372  1
  Li  Li12  1  0.385124  0.282369  0.001057  1
  Li  Li13  1  0.617346  0.719184  0.000330  1
  Li  Li14  1  0.283048  0.052066  0.999007  1
  Li  Li15  1  0.336305  0.415614  0.249852  1
  Li  Li16  1  0.289747  0.555652  0.499781  1
  Li  Li17  1  0.168081  0.333266  0.500254  1
  Li  Li18  1  0.382340  0.777486  0.497714  1
  Li  Li19  1  0.046415  0.111097  0.500842  1
  Li  Li20  1  0.335026  0.918666  0.749999  1
  Li  Li21  1  0.163990  0.833192  0.000954  1
  Li  Li22  1  0.999088  0.250785  0.749783  1
  Li  Li23  1  0.048735  0.614813  0.000302  1
  Mn  Mn24  1  0.888392  0.026571  0.749543  1
  Mn  Mn25  1  0.776474  0.305746  0.249582  1
  Mn  Mn26  1  0.779352  0.805915  0.750665  1
  Mn  Mn27  1  0.555321  0.360888  0.749304  1
  Mn  Mn28  1  0.555654  0.861051  0.249985  1
  Mn  Mn29  1  0.446229  0.640413  0.251290  1
  Mn  Mn30  1  0.107941  0.971006  0.248927  1
  Cr  Cr31  1  0.895719  0.526833  0.249711  1
  Cr  Cr32  1  0.441281  0.140560  0.749888  1
  Cr  Cr33  1  0.226665  0.192347  0.250137  1
  Cr  Cr34  1  0.229799  0.697667  0.751797  1
  Cr  Cr35  1  0.104749  0.473335  0.749151  1
  O  O36  1  0.997109  0.068427  0.136852  1
  O  O37  1  0.930734  0.215483  0.363349  1
  O  O38  1  0.007004  0.570249  0.638366  1
  O  O39  1  0.851508  0.354938  0.636526  1
  O  O40  1  0.732975  0.116502  0.636135  1
  O  O41  1  0.662866  0.402373  0.136702  1
  O  O42  1  0.925232  0.716074  0.865812  1
  O  O43  1  0.810204  0.475357  0.861667  1
  O  O44  1  0.599222  0.047901  0.864981  1
  O  O45  1  0.856566  0.856550  0.138329  1
  O  O46  1  0.734564  0.617635  0.135935  1
  O  O47  1  0.519740  0.191016  0.138381  1
  O  O48  1  0.667565  0.263404  0.862226  1
  O  O49  1  0.808687  0.976260  0.361557  1
  O  O50  1  0.597304  0.549319  0.363721  1
  O  O51  1  0.481139  0.311267  0.362984  1
  O  O52  1  0.669248  0.762711  0.361428  1
  O  O53  1  0.329163  0.095276  0.361635  1
  O  O54  1  0.665090  0.904447  0.638573  1
  O  O55  1  0.332734  0.237927  0.637795  1
  O  O56  1  0.530562  0.691554  0.637476  1
  O  O57  1  0.404824  0.451556  0.635710  1
  O  O58  1  0.184793  0.021868  0.636382  1
  O  O59  1  0.333335  0.738533  0.138395  1
  O  O60  1  0.477743  0.809895  0.862265  1
  O  O61  1  0.264270  0.382109  0.863953  1
  O  O62  1  0.146100  0.141097  0.861823  1
  O  O63  1  0.403021  0.951723  0.136460  1
  O  O64  1  0.187822  0.525538  0.138380  1
  O  O65  1  0.067988  0.284532  0.135766  1
  O  O66  1  0.329084  0.597817  0.863154  1
  O  O67  1  0.263514  0.881342  0.363675  1
  O  O68  1  0.149665  0.644842  0.363666  1
  O  O69  1  0.996850  0.429425  0.361274  1
  O  O70  1  0.068578  0.783198  0.636231  1
  O  O71  1  0.003282  0.928574  0.861697  1
