# generated using pymatgen
data_Li3Fe8(BO3)8
_symmetry_space_group_name_H-M   'P 1'
_cell_length_a   5.24353125
_cell_length_b   9.12033106
_cell_length_c   11.41571567
_cell_angle_alpha   66.93927064
_cell_angle_beta   76.89078811
_cell_angle_gamma   89.34529906
_symmetry_Int_Tables_number   1
_chemical_formula_structural   Li3Fe8(BO3)8
_chemical_formula_sum   'Li3 Fe8 B8 O24'
_cell_volume   487.38624764
_cell_formula_units_Z   1
loop_
 _symmetry_equiv_pos_site_id
 _symmetry_equiv_pos_as_xyz
  1  'x, y, z'
loop_
 _atom_site_type_symbol
 _atom_site_label
 _atom_site_symmetry_multiplicity
 _atom_site_fract_x
 _atom_site_fract_y
 _atom_site_fract_z
 _atom_site_occupancy
  Li  Li0  1  0.970679  0.965833  0.406570  1
  Li  Li1  1  0.509893  0.493278  0.660573  1
  Li  Li2  1  0.233101  0.252293  0.159268  1
  Fe  Fe3  1  0.987577  0.640175  0.370880  1
  Fe  Fe4  1  0.730854  0.061306  0.886993  1
  Fe  Fe5  1  0.506758  0.852400  0.633487  1
  Fe  Fe6  1  0.768855  0.440852  0.124129  1
  Fe  Fe7  1  0.239626  0.565159  0.880770  1
  Fe  Fe8  1  0.482783  0.159142  0.383627  1
  Fe  Fe9  1  0.023378  0.339118  0.630998  1
  Fe  Fe10  1  0.249924  0.933619  0.125791  1
  B  B11  1  0.967412  0.312283  0.374279  1
  B  B12  1  0.744926  0.395289  0.872202  1
  B  B13  1  0.527915  0.186214  0.632139  1
  B  B14  1  0.758343  0.114961  0.128585  1
  B  B15  1  0.479825  0.810747  0.385407  1
  B  B16  1  0.232854  0.901889  0.872040  1
  B  B17  1  0.020518  0.683582  0.619363  1
  B  B18  1  0.271404  0.593412  0.133447  1
  O  O19  1  0.975000  0.915880  0.873874  1
  O  O20  1  0.893486  0.286745  0.828173  1
  O  O21  1  0.858555  0.470145  0.934831  1
  O  O22  1  0.873029  0.809956  0.611319  1
  O  O23  1  0.930337  0.562721  0.586042  1
  O  O24  1  0.756656  0.166665  0.676864  1
  O  O25  1  0.748354  0.351511  0.321633  1
  O  O26  1  0.504833  0.423560  0.847280  1
  O  O27  1  0.370881  0.799057  0.820711  1
  O  O28  1  0.559956  0.926100  0.426955  1
  O  O29  1  0.637535  0.693539  0.379566  1
  O  O30  1  0.364990  0.986075  0.921809  1
  O  O31  1  0.643294  0.025813  0.076307  1
  O  O32  1  0.384704  0.314328  0.629523  1
  O  O33  1  0.449470  0.077533  0.587475  1
  O  O34  1  0.599618  0.223775  0.165705  1
  O  O35  1  0.530765  0.592800  0.126879  1
  O  O36  1  0.261127  0.669758  0.654378  1
  O  O37  1  0.233742  0.820447  0.353605  1
  O  O38  1  0.045554  0.409944  0.432737  1
  O  O39  1  0.102951  0.187518  0.365198  1
  O  O40  1  0.150637  0.491019  0.092657  1
  O  O41  1  0.119800  0.693780  0.182204  1
  O  O42  1  0.008541  0.098964  0.145129  1
