# generated using pymatgen
data_Li4MnFe3(BO3)4
_symmetry_space_group_name_H-M   'P 1'
_cell_length_a   5.22740689
_cell_length_b   5.24608383
_cell_length_c   20.79582746
_cell_angle_alpha   89.08820705
_cell_angle_beta   90.86678883
_cell_angle_gamma   59.87435322
_symmetry_Int_Tables_number   1
_chemical_formula_structural   Li4MnFe3(BO3)4
_chemical_formula_sum   'Li8 Mn2 Fe6 B8 O24'
_cell_volume   493.02273046
_cell_formula_units_Z   2
loop_
 _symmetry_equiv_pos_site_id
 _symmetry_equiv_pos_as_xyz
  1  'x, y, z'
loop_
 _atom_site_type_symbol
 _atom_site_label
 _atom_site_symmetry_multiplicity
 _atom_site_fract_x
 _atom_site_fract_y
 _atom_site_fract_z
 _atom_site_occupancy
  Li  Li0  1  0.326625  0.654868  0.666793  1
  Li  Li1  1  0.350124  0.671311  0.914850  1
  Li  Li2  1  0.319755  0.656182  0.167275  1
  Li  Li3  1  0.346236  0.671335  0.417615  1
  Li  Li4  1  0.645090  0.339584  0.791006  1
  Li  Li5  1  0.662877  0.352754  0.542560  1
  Li  Li6  1  0.639502  0.345626  0.293171  1
  Li  Li7  1  0.667803  0.342976  0.040732  1
  Mn  Mn8  1  0.335583  0.001291  0.056859  1
  Mn  Mn9  1  0.995168  0.329648  0.183224  1
  Fe  Fe10  1  0.333585  0.001440  0.557585  1
  Fe  Fe11  1  0.688309  0.991609  0.931375  1
  Fe  Fe12  1  0.682345  0.996942  0.434592  1
  Fe  Fe13  1  0.008655  0.319017  0.682301  1
  Fe  Fe14  1  0.997000  0.666273  0.806343  1
  Fe  Fe15  1  0.988851  0.669993  0.310157  1
  B  B16  1  0.006320  0.331480  0.934909  1
  B  B17  1  0.004603  0.330841  0.438008  1
  B  B18  1  0.325663  0.008862  0.811455  1
  B  B19  1  0.324494  0.011549  0.314420  1
  B  B20  1  0.667673  0.998475  0.686743  1
  B  B21  1  0.658879  0.000408  0.188566  1
  B  B22  1  0.993530  0.673202  0.562424  1
  B  B23  1  0.001259  0.664439  0.060874  1
  O  O24  1  0.059457  0.257861  0.791416  1
  O  O25  1  0.060064  0.261744  0.293578  1
  O  O26  1  0.262912  0.063716  0.950191  1
  O  O27  1  0.027270  0.576310  0.915860  1
  O  O28  1  0.260246  0.061468  0.452809  1
  O  O29  1  0.024374  0.576617  0.419488  1
  O  O30  1  0.575589  0.031731  0.825302  1
  O  O31  1  0.265176  0.658024  0.569501  1
  O  O32  1  0.574392  0.035048  0.328781  1
  O  O33  1  0.276477  0.638241  0.068980  1
  O  O34  1  0.340911  0.738290  0.818268  1
  O  O35  1  0.337376  0.742929  0.321718  1
  O  O36  1  0.645560  0.272239  0.691975  1
  O  O37  1  0.628092  0.276295  0.195440  1
  O  O38  1  0.731377  0.353836  0.940909  1
  O  O39  1  0.421341  0.977684  0.667741  1
  O  O40  1  0.729226  0.353442  0.443472  1
  O  O41  1  0.421817  0.969431  0.167079  1
  O  O42  1  0.970523  0.424424  0.576392  1
  O  O43  1  0.965568  0.422852  0.076315  1
  O  O44  1  0.744430  0.938644  0.542448  1
  O  O45  1  0.758756  0.929453  0.039165  1
  O  O46  1  0.935853  0.741651  0.701509  1
  O  O47  1  0.932086  0.749167  0.204030  1
