# generated using pymatgen
data_Ca6La4Ti5Cr5O30
_symmetry_space_group_name_H-M   'P 1'
_cell_length_a   5.52678486
_cell_length_b   5.55198969
_cell_length_c   38.44301906
_cell_angle_alpha   89.93434465
_cell_angle_beta   89.99316210
_cell_angle_gamma   89.79516861
_symmetry_Int_Tables_number   1
_chemical_formula_structural   Ca6La4Ti5Cr5O30
_chemical_formula_sum   'Ca12 La8 Ti10 Cr10 O60'
_cell_volume   1179.60236234
_cell_formula_units_Z   2
loop_
 _symmetry_equiv_pos_site_id
 _symmetry_equiv_pos_as_xyz
  1  'x, y, z'
loop_
 _atom_site_type_symbol
 _atom_site_label
 _atom_site_symmetry_multiplicity
 _atom_site_fract_x
 _atom_site_fract_y
 _atom_site_fract_z
 _atom_site_occupancy
  Ca  Ca0  1  0.488036  0.467686  0.348122  1
  Ca  Ca1  1  0.488244  0.467180  0.151875  1
  Ca  Ca2  1  0.487602  0.466029  0.551127  1
  Ca  Ca3  1  0.487546  0.467415  0.948917  1
  Ca  Ca4  1  0.511318  0.532280  0.250031  1
  Ca  Ca5  1  0.509009  0.536320  0.648249  1
  Ca  Ca6  1  0.509544  0.534291  0.851632  1
  Ca  Ca7  1  0.989363  0.026685  0.050370  1
  Ca  Ca8  1  0.989535  0.028523  0.250031  1
  Ca  Ca9  1  0.988935  0.026741  0.449587  1
  Ca  Ca10  1  0.991867  0.026754  0.649338  1
  Ca  Ca11  1  0.990342  0.026940  0.850557  1
  La  La12  1  0.005693  0.980478  0.150835  1
  La  La13  1  0.006282  0.980549  0.349116  1
  La  La14  1  0.006337  0.980106  0.550150  1
  La  La15  1  0.005877  0.980321  0.750124  1
  La  La16  1  0.007042  0.979950  0.949873  1
  La  La17  1  0.491712  0.475907  0.750126  1
  La  La18  1  0.506160  0.525371  0.050565  1
  La  La19  1  0.506621  0.525177  0.449394  1
  Ti  Ti20  1  0.000401  0.499388  0.000027  1
  Ti  Ti21  1  0.998043  0.500611  0.201735  1
  Ti  Ti22  1  0.996822  0.499885  0.600478  1
  Ti  Ti23  1  0.995483  0.500168  0.802540  1
  Ti  Ti24  1  0.000292  0.499533  0.101123  1
  Ti  Ti25  1  0.997920  0.500639  0.298379  1
  Ti  Ti26  1  0.000177  0.499363  0.398818  1
  Ti  Ti27  1  0.000481  0.499422  0.499853  1
  Ti  Ti28  1  0.995437  0.500109  0.697562  1
  Ti  Ti29  1  0.996897  0.499919  0.899455  1
  Cr  Cr30  1  0.500750  0.999758  0.100199  1
  Cr  Cr31  1  0.500561  0.999773  0.000125  1
  Cr  Cr32  1  0.499664  0.999830  0.298958  1
  Cr  Cr33  1  0.499445  0.999722  0.201109  1
  Cr  Cr34  1  0.500779  0.999787  0.399811  1
  Cr  Cr35  1  0.500067  0.000056  0.600589  1
  Cr  Cr36  1  0.499527  -0.000041  0.899166  1
  Cr  Cr37  1  0.500257  0.999640  0.499715  1
  Cr  Cr38  1  0.499067  0.999961  0.698499  1
  Cr  Cr39  1  0.499039  0.999764  0.801633  1
  O  O40  1  0.072106  0.486404  0.049817  1
  O  O41  1  0.085628  0.483283  0.249881  1
  O  O42  1  0.072151  0.486399  0.450255  1
  O  O43  1  0.085399  0.482014  0.649973  1
  O  O44  1  0.085552  0.482022  0.849999  1
  O  O45  1  0.225858  0.229278  0.191622  1
  O  O46  1  0.226021  0.228999  0.591643  1
  O  O47  1  0.228072  0.233312  0.391818  1
  O  O48  1  0.228332  0.233121  0.108212  1
  O  O49  1  0.225056  0.229759  0.308275  1
  O  O50  1  0.227164  0.231685  0.791344  1
  O  O51  1  0.228470  0.232971  0.991624  1
  O  O52  1  0.228327  0.232956  0.508467  1
  O  O53  1  0.227243  0.231479  0.708668  1
  O  O54  1  0.225707  0.229321  0.908353  1
  O  O55  1  0.269801  0.724889  0.191267  1
  O  O56  1  0.272997  0.720917  0.391512  1
  O  O57  1  0.269273  0.724355  0.308630  1
  O  O58  1  0.271567  0.724035  0.591321  1
  O  O59  1  0.273138  0.721087  0.108508  1
  O  O60  1  0.272762  0.721391  0.991350  1
  O  O61  1  0.267224  0.726581  0.791488  1
  O  O62  1  0.272661  0.721295  0.508731  1
  O  O63  1  0.267335  0.726791  0.708528  1
  O  O64  1  0.270989  0.723550  0.908689  1
  O  O65  1  0.413628  0.984363  0.049908  1
  O  O66  1  0.412044  0.981201  0.249812  1
  O  O67  1  0.409900  0.978719  0.649488  1
  O  O68  1  0.413886  0.984596  0.450168  1
  O  O69  1  0.410789  0.979804  0.850759  1
  O  O70  1  0.578015  0.016266  0.349296  1
  O  O71  1  0.577987  0.016380  0.150849  1
  O  O72  1  0.578820  0.017462  0.550559  1
  O  O73  1  0.575482  0.010456  0.749987  1
  O  O74  1  0.578312  0.016990  0.949267  1
  O  O75  1  0.735007  0.272289  0.091838  1
  O  O76  1  0.732426  0.275616  0.291306  1
  O  O77  1  0.734754  0.272283  0.008217  1
  O  O78  1  0.732154  0.275050  0.891344  1
  O  O79  1  0.731819  0.275006  0.208569  1
  O  O80  1  0.734931  0.272282  0.491885  1
  O  O81  1  0.730397  0.276153  0.691679  1
  O  O82  1  0.731669  0.274683  0.608657  1
  O  O83  1  0.735125  0.272513  0.408234  1
  O  O84  1  0.730542  0.276287  0.808304  1
  O  O85  1  0.779238  0.771243  0.091350  1
  O  O86  1  0.778829  0.771649  0.008622  1
  O  O87  1  0.779648  0.774122  0.208685  1
  O  O88  1  0.780319  0.773652  0.291182  1
  O  O89  1  0.779150  0.771625  0.491465  1
  O  O90  1  0.776967  0.769964  0.691565  1
  O  O91  1  0.779402  0.771118  0.408704  1
  O  O92  1  0.780301  0.774393  0.608792  1
  O  O93  1  0.777171  0.769653  0.808409  1
  O  O94  1  0.780737  0.774283  0.891226  1
  O  O95  1  0.918767  0.510710  0.150010  1
  O  O96  1  0.918693  0.510667  0.350000  1
  O  O97  1  0.918194  0.510788  0.550421  1
  O  O98  1  0.929684  0.507130  0.749961  1
  O  O99  1  0.918204  0.510718  0.949711  1
