# generated using pymatgen
data_LiCuBO3
_symmetry_space_group_name_H-M   'P 1'
_cell_length_a   16.81835182
_cell_length_b   5.16818660
_cell_length_c   5.24498885
_cell_angle_alpha   90.00067161
_cell_angle_beta   89.99955381
_cell_angle_gamma   89.99891126
_symmetry_Int_Tables_number   1
_chemical_formula_structural   LiCuBO3
_chemical_formula_sum   'Li8 Cu8 B8 O24'
_cell_volume   455.89642655
_cell_formula_units_Z   8
loop_
 _symmetry_equiv_pos_site_id
 _symmetry_equiv_pos_as_xyz
  1  'x, y, z'
loop_
 _atom_site_type_symbol
 _atom_site_label
 _atom_site_symmetry_multiplicity
 _atom_site_fract_x
 _atom_site_fract_y
 _atom_site_fract_z
 _atom_site_occupancy
  Li  Li0  1  0.264204  0.251044  0.506268  1
  Li  Li1  1  0.264213  0.248932  0.006222  1
  Li  Li2  1  0.235760  0.751028  0.506256  1
  Li  Li3  1  0.235762  0.748952  0.006245  1
  Li  Li4  1  0.764177  0.251067  0.993727  1
  Li  Li5  1  0.764174  0.248967  0.493737  1
  Li  Li6  1  0.735770  0.751023  0.993739  1
  Li  Li7  1  0.735770  0.748958  0.493737  1
  Cu  Cu8  1  0.068595  0.995272  0.311014  1
  Cu  Cu9  1  0.068543  0.504766  0.810998  1
  Cu  Cu10  1  0.431672  0.004802  0.810716  1
  Cu  Cu11  1  0.431290  0.495384  0.310906  1
  Cu  Cu12  1  0.568589  0.995236  0.189120  1
  Cu  Cu13  1  0.568742  0.504683  0.688964  1
  Cu  Cu14  1  0.931487  0.495285  0.189244  1
  Cu  Cu15  1  0.931335  0.004618  0.689188  1
  B  B16  1  0.125446  0.487166  0.296448  1
  B  B17  1  0.125435  0.012850  0.796461  1
  B  B18  1  0.374550  0.987207  0.296458  1
  B  B19  1  0.374539  0.512855  0.796501  1
  B  B20  1  0.625476  0.487159  0.203518  1
  B  B21  1  0.625462  0.012821  0.703573  1
  B  B22  1  0.874562  0.987122  0.203523  1
  B  B23  1  0.874553  0.512851  0.703540  1
  O  O24  1  0.102026  0.665713  0.486046  1
  O  O25  1  0.102027  0.834584  0.986338  1
  O  O26  1  0.064993  0.147586  0.662852  1
  O  O27  1  0.064993  0.352103  0.163121  1
  O  O28  1  0.295443  0.954232  0.251791  1
  O  O29  1  0.295434  0.545680  0.751794  1
  O  O30  1  0.204521  0.454260  0.251816  1
  O  O31  1  0.204521  0.045711  0.751809  1
  O  O32  1  0.434981  0.647242  0.662661  1
  O  O33  1  0.435010  0.851947  0.163491  1
  O  O34  1  0.397884  0.165983  0.485751  1
  O  O35  1  0.397883  0.334819  0.986586  1
  O  O36  1  0.602036  0.665514  0.013800  1
  O  O37  1  0.602041  0.834415  0.513875  1
  O  O38  1  0.565039  0.147796  0.837044  1
  O  O39  1  0.565055  0.352248  0.337094  1
  O  O40  1  0.795468  0.954321  0.248151  1
  O  O41  1  0.795470  0.545678  0.748145  1
  O  O42  1  0.704556  0.454322  0.248135  1
  O  O43  1  0.704550  0.045711  0.748146  1
  O  O44  1  0.935021  0.648051  0.836827  1
  O  O45  1  0.935039  0.852453  0.337229  1
  O  O46  1  0.897955  0.165494  0.013468  1
  O  O47  1  0.897951  0.334088  0.513931  1
