# generated using pymatgen
data_ZrH7CN4F5
_symmetry_space_group_name_H-M   'P 1'
_cell_length_a   6.75764600
_cell_length_b   7.00543589
_cell_length_c   16.43293233
_cell_angle_alpha   90.00000000
_cell_angle_beta   90.00000000
_cell_angle_gamma   90.00000000
_symmetry_Int_Tables_number   1
_chemical_formula_structural   ZrH7CN4F5
_chemical_formula_sum   'Zr4 H28 C4 N16 F20'
_cell_volume   777.93922038
_cell_formula_units_Z   4
loop_
 _symmetry_equiv_pos_site_id
 _symmetry_equiv_pos_as_xyz
  1  'x, y, z'
loop_
 _atom_site_type_symbol
 _atom_site_label
 _atom_site_symmetry_multiplicity
 _atom_site_fract_x
 _atom_site_fract_y
 _atom_site_fract_z
 _atom_site_occupancy
  Zr  Zr0  1  0.561142  0.250000  0.292045  1
  Zr  Zr1  1  0.061142  0.250000  0.207955  1
  Zr  Zr2  1  0.438858  0.750000  0.707955  1
  Zr  Zr3  1  0.938858  0.750000  0.792045  1
  H  H4  1  0.571079  0.250000  0.823122  1
  H  H5  1  0.071079  0.250000  0.676878  1
  H  H6  1  0.428921  0.750000  0.176878  1
  H  H7  1  0.928921  0.750000  0.323122  1
  H  H8  1  0.743676  0.366348  0.651175  1
  H  H9  1  0.243676  0.133652  0.848825  1
  H  H10  1  0.256324  0.866348  0.348825  1
  H  H11  1  0.756324  0.633652  0.151175  1
  H  H12  1  0.256324  0.633652  0.348825  1
  H  H13  1  0.756324  0.866348  0.151175  1
  H  H14  1  0.743676  0.133652  0.651175  1
  H  H15  1  0.243676  0.366348  0.848825  1
  H  H16  1  0.869570  0.250000  0.886326  1
  H  H17  1  0.369570  0.250000  0.613674  1
  H  H18  1  0.130430  0.750000  0.113674  1
  H  H19  1  0.630430  0.750000  0.386326  1
  H  H20  1  0.892033  0.250000  0.992466  1
  H  H21  1  0.392033  0.250000  0.507534  1
  H  H22  1  0.107967  0.750000  0.007534  1
  H  H23  1  0.607967  0.750000  0.492466  1
  H  H24  1  0.589693  0.250000  0.071637  1
  H  H25  1  0.089693  0.250000  0.428363  1
  H  H26  1  0.410307  0.750000  0.928363  1
  H  H27  1  0.910307  0.750000  0.571637  1
  H  H28  1  0.362348  0.250000  0.019293  1
  H  H29  1  0.862348  0.250000  0.480707  1
  H  H30  1  0.637652  0.750000  0.980707  1
  H  H31  1  0.137652  0.750000  0.519293  1
  C  C32  1  0.606590  0.250000  0.947113  1
  C  C33  1  0.106590  0.250000  0.552887  1
  C  C34  1  0.393410  0.750000  0.052887  1
  C  C35  1  0.893410  0.750000  0.447113  1
  N  N36  1  0.500891  0.250000  0.877977  1
  N  N37  1  0.000891  0.250000  0.622023  1
  N  N38  1  0.499109  0.750000  0.122023  1
  N  N39  1  0.999109  0.750000  0.377977  1
  N  N40  1  0.793784  0.250000  0.619651  1
  N  N41  1  0.293784  0.250000  0.880349  1
  N  N42  1  0.206216  0.750000  0.380349  1
  N  N43  1  0.706216  0.750000  0.119651  1
  N  N44  1  0.804097  0.250000  0.941986  1
  N  N45  1  0.304097  0.250000  0.558014  1
  N  N46  1  0.195903  0.750000  0.058014  1
  N  N47  1  0.695903  0.750000  0.441986  1
  N  N48  1  0.513408  0.250000  0.018623  1
  N  N49  1  0.013408  0.250000  0.481377  1
  N  N50  1  0.486592  0.750000  0.981377  1
  N  N51  1  0.986592  0.750000  0.518623  1
  F  F52  1  0.870288  0.250000  0.316736  1
  F  F53  1  0.370288  0.250000  0.183264  1
  F  F54  1  0.129712  0.750000  0.683264  1
  F  F55  1  0.629712  0.750000  0.816736  1
  F  F56  1  0.747242  0.250000  0.179605  1
  F  F57  1  0.247242  0.250000  0.320395  1
  F  F58  1  0.252758  0.750000  0.820395  1
  F  F59  1  0.752758  0.750000  0.679605  1
  F  F60  1  0.561122  0.250000  0.414150  1
  F  F61  1  0.061122  0.250000  0.085850  1
  F  F62  1  0.438878  0.750000  0.585850  1
  F  F63  1  0.938878  0.750000  0.914150  1
  F  F64  1  0.553734  0.536747  0.282644  1
  F  F65  1  0.053734  0.963253  0.217356  1
  F  F66  1  0.446266  0.036747  0.717356  1
  F  F67  1  0.946266  0.463253  0.782644  1
  F  F68  1  0.446266  0.463253  0.717356  1
  F  F69  1  0.946266  0.036747  0.782644  1
  F  F70  1  0.553734  0.963253  0.282644  1
  F  F71  1  0.053734  0.536747  0.217356  1
