# generated using pymatgen
data_LiAgF3
_symmetry_space_group_name_H-M   'P 1'
_cell_length_a   9.40636424
_cell_length_b   5.43136316
_cell_length_c   15.23072882
_cell_angle_alpha   89.99303184
_cell_angle_beta   89.99051254
_cell_angle_gamma   30.01078749
_symmetry_Int_Tables_number   1
_chemical_formula_structural   LiAgF3
_chemical_formula_sum   'Li6 Ag6 F18'
_cell_volume   389.19111104
_cell_formula_units_Z   6
loop_
 _symmetry_equiv_pos_site_id
 _symmetry_equiv_pos_as_xyz
  1  'x, y, z'
loop_
 _atom_site_type_symbol
 _atom_site_label
 _atom_site_symmetry_multiplicity
 _atom_site_fract_x
 _atom_site_fract_y
 _atom_site_fract_z
 _atom_site_occupancy
  Li  Li0  1  0.901326  0.148433  0.916581  1
  Li  Li1  1  0.951114  0.147728  0.749916  1
  Li  Li2  1  0.049597  0.851832  0.249974  1
  Li  Li3  1  0.099773  0.850429  0.416665  1
  Li  Li4  1  0.950426  0.000348  0.083312  1
  Li  Li5  1  0.050668  0.998306  0.583310  1
  Ag  Ag6  1  0.294447  -0.000418  0.083354  1
  Ag  Ag7  1  0.412467  0.881491  0.416787  1
  Ag  Ag8  1  0.294521  0.117512  0.750090  1
  Ag  Ag9  1  0.706323  0.881897  0.250072  1
  Ag  Ag10  1  0.707145  0.998584  0.583479  1
  Ag  Ag11  1  0.588561  0.117302  0.916739  1
  F  F12  1  0.000110  0.235192  0.166625  1
  F  F13  1  0.765644  0.469403  0.333503  1
  F  F14  1  0.633038  0.651539  0.010247  1
  F  F15  1  0.083055  0.202017  0.489874  1
  F  F16  1  0.917281  0.449944  0.843470  1
  F  F17  1  0.716011  0.651408  0.656603  1
  F  F18  1  0.284812  0.347544  0.156668  1
  F  F19  1  0.084421  0.547624  0.343437  1
  F  F20  1  0.917911  0.797254  0.989894  1
  F  F21  1  0.367954  0.347754  0.510237  1
  F  F22  1  0.235772  0.528976  0.833504  1
  F  F23  1  0.001044  0.763608  0.666676  1
  F  F24  1  0.715660  0.201309  0.176862  1
  F  F25  1  0.368808  0.548178  0.323360  1
  F  F26  1  0.765312  0.234368  0.500050  1
  F  F27  1  0.236008  0.764000  0.000085  1
  F  F28  1  0.632319  0.450467  0.823415  1
  F  F29  1  0.285324  0.797959  0.676654  1
