# generated using pymatgen
data_LiMn2OF3
_symmetry_space_group_name_H-M   'P 1'
_cell_length_a   6.33380539
_cell_length_b   6.33191110
_cell_length_c   6.33191110
_cell_angle_alpha   60.01979354
_cell_angle_beta   90.00000000
_cell_angle_gamma   120.00989677
_symmetry_Int_Tables_number   1
_chemical_formula_structural   LiMn2OF3
_chemical_formula_sum   'Li2 Mn4 O2 F6'
_cell_volume   179.59087204
_cell_formula_units_Z   2
loop_
 _symmetry_equiv_pos_site_id
 _symmetry_equiv_pos_as_xyz
  1  'x, y, z'
loop_
 _atom_site_type_symbol
 _atom_site_label
 _atom_site_symmetry_multiplicity
 _atom_site_fract_x
 _atom_site_fract_y
 _atom_site_fract_z
 _atom_site_occupancy
  Li  Li0  1  0.502326  0.004652  0.502326  1
  Li  Li1  1  0.857955  0.715910  0.857955  1
  Mn  Mn2  1  0.502915  0.005829  0.991070  1
  Mn  Mn3  1  0.144350  0.288701  0.144350  1
  Mn  Mn4  1  0.502915  0.493985  0.502915  1
  Mn  Mn5  1  0.991070  0.493985  0.502915  1
  O  O6  1  0.730103  0.460207  0.730103  1
  O  O7  1  0.273235  0.546469  0.273235  1
  F  F8  1  0.737180  0.474360  0.253952  1
  F  F9  1  0.737180  0.991132  0.737180  1
  F  F10  1  0.253952  0.991132  0.737180  1
  F  F11  1  0.741311  0.004066  0.262755  1
  F  F12  1  0.262755  0.004066  0.262755  1
  F  F13  1  0.262755  0.525510  0.741311  1
