# generated using pymatgen
data_LiNiPO4
_symmetry_space_group_name_H-M   'P 1'
_cell_length_a   8.00161780
_cell_length_b   5.13183986
_cell_length_c   8.47532373
_cell_angle_alpha   90.00000000
_cell_angle_beta   96.57114230
_cell_angle_gamma   90.00000000
_symmetry_Int_Tables_number   1
_chemical_formula_structural   LiNiPO4
_chemical_formula_sum   'Li4 Ni4 P4 O16'
_cell_volume   345.73607447
_cell_formula_units_Z   4
loop_
 _symmetry_equiv_pos_site_id
 _symmetry_equiv_pos_as_xyz
  1  'x, y, z'
loop_
 _atom_site_type_symbol
 _atom_site_label
 _atom_site_symmetry_multiplicity
 _atom_site_fract_x
 _atom_site_fract_y
 _atom_site_fract_z
 _atom_site_occupancy
  Li  Li0  1  0.022046  0.549608  0.906363  1
  Li  Li1  1  0.546660  0.473976  0.690255  1
  Li  Li2  1  0.453340  0.973976  0.309745  1
  Li  Li3  1  0.977954  0.049608  0.093638  1
  Ni  Ni4  1  0.180338  0.977842  0.586295  1
  Ni  Ni5  1  0.360643  0.502832  0.069661  1
  Ni  Ni6  1  0.639357  0.002832  0.930339  1
  Ni  Ni7  1  0.819662  0.477842  0.413705  1
  P  P8  1  0.230621  0.480716  0.403308  1
  P  P9  1  0.275460  0.050790  0.947452  1
  P  P10  1  0.724540  0.550790  0.052548  1
  P  P11  1  0.769379  0.980716  0.596692  1
  O  O12  1  0.041090  0.505436  0.340432  1
  O  O13  1  0.270560  0.619621  0.566507  1
  O  O14  1  0.205662  0.778346  0.973272  1
  O  O15  1  0.152368  0.257189  0.004944  1
  O  O16  1  0.281210  0.184753  0.419507  1
  O  O17  1  0.316694  0.099032  0.778802  1
  O  O18  1  0.339874  0.613529  0.286466  1
  O  O19  1  0.443740  0.098414  0.064695  1
  O  O20  1  0.556260  0.598414  0.935305  1
  O  O21  1  0.660126  0.113529  0.713534  1
  O  O22  1  0.683306  0.599032  0.221198  1
  O  O23  1  0.718790  0.684753  0.580493  1
  O  O24  1  0.847632  0.757189  0.995056  1
  O  O25  1  0.794338  0.278346  0.026728  1
  O  O26  1  0.729440  0.119621  0.433493  1
  O  O27  1  0.958910  0.005436  0.659568  1
