# generated using pymatgen
data_K3MnCrO8
_symmetry_space_group_name_H-M   'P 1'
_cell_length_a   7.94865718
_cell_length_b   5.88349013
_cell_length_c   21.55882951
_cell_angle_alpha   90.00029269
_cell_angle_beta   25.29920726
_cell_angle_gamma   111.72158199
_symmetry_Int_Tables_number   1
_chemical_formula_structural   K3MnCrO8
_chemical_formula_sum   'K3 Mn1 Cr1 O8'
_cell_volume   215.42812203
_cell_formula_units_Z   1
loop_
 _symmetry_equiv_pos_site_id
 _symmetry_equiv_pos_as_xyz
  1  'x, y, z'
loop_
 _atom_site_type_symbol
 _atom_site_label
 _atom_site_symmetry_multiplicity
 _atom_site_fract_x
 _atom_site_fract_y
 _atom_site_fract_z
 _atom_site_occupancy
  K  K0  1  0.000029  0.000010  0.704647  1
  K  K1  1  0.000032  0.000017  0.300177  1
  K  K2  1  -0.000005  0.999994  0.495442  1
  Mn  Mn3  1  0.000004  -0.000001  0.905085  1
  Cr  Cr4  1  -0.000004  -0.000001  0.091052  1
  O  O5  1  0.450844  0.000012  0.779902  1
  O  O6  1  0.537398  0.999981  0.218923  1
  O  O7  1  0.098354  0.549181  0.230730  1
  O  O8  1  0.537405  0.537424  0.218921  1
  O  O9  1  0.000011  0.000004  0.830566  1
  O  O10  1  0.450842  0.450833  0.779903  1
  O  O11  1  0.000023  0.000013  0.168285  1
  O  O12  1  0.925066  0.462532  0.756368  1
