# generated using pymatgen
data_Ba3(YI6)2
_symmetry_space_group_name_H-M   'P 1'
_cell_length_a   14.51142638
_cell_length_b   13.84487002
_cell_length_c   15.29443087
_cell_angle_alpha   90.00000000
_cell_angle_beta   87.35725928
_cell_angle_gamma   90.00000000
_symmetry_Int_Tables_number   1
_chemical_formula_structural   Ba3(YI6)2
_chemical_formula_sum   'Ba12 Y8 I48'
_cell_volume   3069.51788236
_cell_formula_units_Z   4
loop_
 _symmetry_equiv_pos_site_id
 _symmetry_equiv_pos_as_xyz
  1  'x, y, z'
loop_
 _atom_site_type_symbol
 _atom_site_label
 _atom_site_symmetry_multiplicity
 _atom_site_fract_x
 _atom_site_fract_y
 _atom_site_fract_z
 _atom_site_occupancy
  Ba  Ba0  1  0.029059  0.217512  0.807054  1
  Ba  Ba1  1  0.014674  0.602590  0.709695  1
  Ba  Ba2  1  0.190296  0.982144  0.520139  1
  Ba  Ba3  1  0.309704  0.482144  0.979861  1
  Ba  Ba4  1  0.485326  0.102590  0.790305  1
  Ba  Ba5  1  0.470941  0.717512  0.692946  1
  Ba  Ba6  1  0.529059  0.282488  0.307054  1
  Ba  Ba7  1  0.514674  0.897410  0.209695  1
  Ba  Ba8  1  0.690296  0.517856  0.020140  1
  Ba  Ba9  1  0.809704  0.017856  0.479861  1
  Ba  Ba10  1  0.985326  0.397410  0.290305  1
  Ba  Ba11  1  0.970941  0.782488  0.192946  1
  Y  Y12  1  0.190579  0.849080  0.934036  1
  Y  Y13  1  0.190745  0.179238  0.145258  1
  Y  Y14  1  0.309421  0.349080  0.565964  1
  Y  Y15  1  0.309255  0.679238  0.354742  1
  Y  Y16  1  0.690745  0.320762  0.645258  1
  Y  Y17  1  0.690579  0.650920  0.434036  1
  Y  Y18  1  0.809255  0.820762  0.854742  1
  Y  Y19  1  0.809421  0.150920  0.065964  1
  I  I20  1  0.991032  0.746680  0.923697  1
  I  I21  1  0.001854  0.119067  0.590748  1
  I  I22  1  0.101492  0.448338  0.860351  1
  I  I23  1  0.122272  0.429398  0.545969  1
  I  I24  1  0.080695  0.165589  0.316534  1
  I  I25  1  0.116456  0.617125  0.315907  1
  I  I26  1  0.119387  0.974716  0.089839  1
  I  I27  1  0.133379  0.981250  0.796202  1
  I  I28  1  0.185006  0.687979  0.067770  1
  I  I29  1  0.224005  0.386647  0.190321  1
  I  I30  1  0.263625  0.224681  0.959755  1
  I  I31  1  0.243149  0.702990  0.798257  1
  I  I32  1  0.256851  0.202990  0.701743  1
  I  I33  1  0.236375  0.724681  0.540245  1
  I  I34  1  0.275995  0.886647  0.309679  1
  I  I35  1  0.314994  0.187979  0.432230  1
  I  I36  1  0.366621  0.481250  0.703798  1
  I  I37  1  0.380613  0.474716  0.410161  1
  I  I38  1  0.383544  0.117125  0.184093  1
  I  I39  1  0.377728  0.929398  0.954031  1
  I  I40  1  0.419305  0.665589  0.183466  1
  I  I41  1  0.398508  0.948338  0.639649  1
  I  I42  1  0.498146  0.619067  0.909252  1
  I  I43  1  0.508968  0.246680  0.576303  1
  I  I44  1  0.491032  0.753320  0.423697  1
  I  I45  1  0.501854  0.380933  0.090748  1
  I  I46  1  0.601492  0.051662  0.360351  1
  I  I47  1  0.580695  0.334411  0.816534  1
  I  I48  1  0.622272  0.070602  0.045969  1
  I  I49  1  0.616456  0.882875  0.815907  1
  I  I50  1  0.619387  0.525284  0.589839  1
  I  I51  1  0.633379  0.518750  0.296202  1
  I  I52  1  0.685006  0.812021  0.567770  1
  I  I53  1  0.724005  0.113353  0.690321  1
  I  I54  1  0.763625  0.275319  0.459755  1
  I  I55  1  0.743149  0.797010  0.298257  1
  I  I56  1  0.756851  0.297010  0.201743  1
  I  I57  1  0.736375  0.775319  0.040245  1
  I  I58  1  0.775995  0.613353  0.809679  1
  I  I59  1  0.814994  0.312021  0.932230  1
  I  I60  1  0.866621  0.018750  0.203798  1
  I  I61  1  0.880613  0.025284  0.910161  1
  I  I62  1  0.883544  0.382875  0.684093  1
  I  I63  1  0.919305  0.834411  0.683466  1
  I  I64  1  0.877728  0.570602  0.454031  1
  I  I65  1  0.898508  0.551662  0.139649  1
  I  I66  1  0.998146  0.880933  0.409252  1
  I  I67  1  0.008968  0.253320  0.076303  1
