# generated using pymatgen
data_Ca2CdH24(ClO2)6
_symmetry_space_group_name_H-M   'P 1'
_cell_length_a   8.84195514
_cell_length_b   10.25630956
_cell_length_c   12.74744742
_cell_angle_alpha   90.00000000
_cell_angle_beta   113.47527695
_cell_angle_gamma   90.00000000
_symmetry_Int_Tables_number   1
_chemical_formula_structural   Ca2CdH24(ClO2)6
_chemical_formula_sum   'Ca4 Cd2 H48 Cl12 O24'
_cell_volume   1060.33202268
_cell_formula_units_Z   2
loop_
 _symmetry_equiv_pos_site_id
 _symmetry_equiv_pos_as_xyz
  1  'x, y, z'
loop_
 _atom_site_type_symbol
 _atom_site_label
 _atom_site_symmetry_multiplicity
 _atom_site_fract_x
 _atom_site_fract_y
 _atom_site_fract_z
 _atom_site_occupancy
  Ca  Ca0  1  0.739040  0.460948  0.867045  1
  Ca  Ca1  1  0.260960  0.960948  0.632955  1
  Ca  Ca2  1  0.260960  0.539052  0.132955  1
  Ca  Ca3  1  0.739040  0.039052  0.367045  1
  Cd  Cd4  1  0.000000  0.500000  0.500000  1
  Cd  Cd5  1  0.000000  0.000000  0.000000  1
  H  H6  1  0.835862  0.651264  0.724662  1
  H  H7  1  0.164138  0.151264  0.775338  1
  H  H8  1  0.164138  0.348736  0.275338  1
  H  H9  1  0.835862  0.848736  0.224662  1
  H  H10  1  0.936409  0.700597  0.851676  1
  H  H11  1  0.063591  0.200597  0.648324  1
  H  H12  1  0.063591  0.299403  0.148324  1
  H  H13  1  0.936409  0.799403  0.351676  1
  H  H14  1  0.447721  0.473506  0.632845  1
  H  H15  1  0.552279  0.973506  0.867155  1
  H  H16  1  0.552279  0.526494  0.367155  1
  H  H17  1  0.447721  0.026494  0.132845  1
  H  H18  1  0.597012  0.527010  0.610456  1
  H  H19  1  0.402988  0.027010  0.889544  1
  H  H20  1  0.402988  0.472990  0.389544  1
  H  H21  1  0.597012  0.972990  0.110456  1
  H  H22  1  0.427785  0.598089  0.880119  1
  H  H23  1  0.572215  0.098089  0.619881  1
  H  H24  1  0.572215  0.401911  0.119881  1
  H  H25  1  0.427785  0.901911  0.380119  1
  H  H26  1  0.580348  0.693215  0.926978  1
  H  H27  1  0.419652  0.193215  0.573022  1
  H  H28  1  0.419652  0.306785  0.073022  1
  H  H29  1  0.580348  0.806785  0.426978  1
  H  H30  1  0.806004  0.315981  0.669984  1
  H  H31  1  0.193996  0.815981  0.830016  1
  H  H32  1  0.193996  0.684019  0.330016  1
  H  H33  1  0.806004  0.184019  0.169984  1
  H  H34  1  0.818273  0.212978  0.762714  1
  H  H35  1  0.181727  0.712978  0.737286  1
  H  H36  1  0.181727  0.787022  0.237286  1
  H  H37  1  0.818273  0.287022  0.262714  1
  H  H38  1  0.387380  0.347631  0.796731  1
  H  H39  1  0.612620  0.847631  0.703269  1
  H  H40  1  0.612620  0.652369  0.203269  1
  H  H41  1  0.387380  0.152369  0.296731  1
  H  H42  1  0.502741  0.224517  0.833467  1
  H  H43  1  0.497259  0.724517  0.666533  1
  H  H44  1  0.497259  0.775483  0.166533  1
  H  H45  1  0.502741  0.275483  0.333467  1
  H  H46  1  0.895244  0.534075  0.125143  1
  H  H47  1  0.104756  0.034075  0.374857  1
  H  H48  1  0.104756  0.465925  0.874857  1
  H  H49  1  0.895244  0.965925  0.625143  1
  H  H50  1  0.888703  0.657876  0.053484  1
  H  H51  1  0.111297  0.157876  0.446516  1
  H  H52  1  0.111297  0.342124  0.946516  1
  H  H53  1  0.888703  0.842124  0.553484  1
  Cl  Cl54  1  0.168692  0.498698  0.728133  1
  Cl  Cl55  1  0.831308  0.998698  0.771867  1
  Cl  Cl56  1  0.831308  0.501302  0.271867  1
  Cl  Cl57  1  0.168692  0.001302  0.228133  1
  Cl  Cl58  1  0.239364  0.360162  0.472016  1
  Cl  Cl59  1  0.760636  0.860162  0.027984  1
  Cl  Cl60  1  0.760636  0.639838  0.527984  1
  Cl  Cl61  1  0.239364  0.139838  0.972016  1
  Cl  Cl62  1  0.844663  0.280182  0.514046  1
  Cl  Cl63  1  0.155337  0.780182  0.985954  1
  Cl  Cl64  1  0.155337  0.719818  0.485954  1
  Cl  Cl65  1  0.844663  0.219818  0.014046  1
  O  O66  1  0.841526  0.646588  0.803074  1
  O  O67  1  0.158474  0.146588  0.696926  1
  O  O68  1  0.158474  0.353412  0.196926  1
  O  O69  1  0.841526  0.853412  0.303074  1
  O  O70  1  0.548383  0.526545  0.667604  1
  O  O71  1  0.451617  0.026545  0.832396  1
  O  O72  1  0.451617  0.473455  0.332396  1
  O  O73  1  0.548383  0.973455  0.167604  1
  O  O74  1  0.547742  0.601182  0.907791  1
  O  O75  1  0.452258  0.101182  0.592209  1
  O  O76  1  0.452258  0.398818  0.092209  1
  O  O77  1  0.547742  0.898818  0.407791  1
  O  O78  1  0.798325  0.306540  0.744859  1
  O  O79  1  0.201675  0.806540  0.755141  1
  O  O80  1  0.201675  0.693460  0.255141  1
  O  O81  1  0.798325  0.193460  0.244859  1
  O  O82  1  0.502692  0.319838  0.824999  1
  O  O83  1  0.497308  0.819838  0.675001  1
  O  O84  1  0.497308  0.680162  0.175001  1
  O  O85  1  0.502692  0.180162  0.324999  1
  O  O86  1  0.908957  0.563216  0.055279  1
  O  O87  1  0.091043  0.063216  0.444721  1
  O  O88  1  0.091043  0.436784  0.944721  1
  O  O89  1  0.908957  0.936784  0.555279  1
