# generated using pymatgen
data_V3Fe2Co(PO4)6
_symmetry_space_group_name_H-M   'P 1'
_cell_length_a   8.48289740
_cell_length_b   8.58738813
_cell_length_c   8.58738762
_cell_angle_alpha   60.00000582
_cell_angle_beta   59.59168777
_cell_angle_gamma   59.59168616
_symmetry_Int_Tables_number   1
_chemical_formula_structural   V3Fe2Co(PO4)6
_chemical_formula_sum   'V3 Fe2 Co1 P6 O24'
_cell_volume   439.58546864
_cell_formula_units_Z   1
loop_
 _symmetry_equiv_pos_site_id
 _symmetry_equiv_pos_as_xyz
  1  'x, y, z'
loop_
 _atom_site_type_symbol
 _atom_site_label
 _atom_site_symmetry_multiplicity
 _atom_site_fract_x
 _atom_site_fract_y
 _atom_site_fract_z
 _atom_site_occupancy
  V  V0  1  0.073280  0.642240  0.642240  1
  V  V1  1  0.424386  0.858538  0.858538  1
  V  V2  1  0.928615  0.357129  0.357129  1
  Fe  Fe3  1  0.995219  0.001594  0.001594  1
  Fe  Fe4  1  0.495943  0.501352  0.501352  1
  Co  Co5  1  0.577865  0.140711  0.140711  1
  P  P6  1  0.258142  0.246601  0.534910  1
  P  P7  1  0.258142  0.960348  0.246601  1
  P  P8  1  0.258142  0.534910  0.960348  1
  P  P9  1  0.746878  0.457445  0.044337  1
  P  P10  1  0.746878  0.044337  0.751340  1
  P  P11  1  0.746878  0.751340  0.457445  1
  O  O12  1  0.067692  0.121219  0.310340  1
  O  O13  1  0.067692  0.500750  0.121219  1
  O  O14  1  0.067692  0.310340  0.500750  1
  O  O15  1  0.232743  0.083418  0.735652  1
  O  O16  1  0.442198  0.185911  0.377127  1
  O  O17  1  0.271646  0.405348  0.561114  1
  O  O18  1  0.232743  0.948188  0.083418  1
  O  O19  1  0.271646  0.761891  0.405348  1
  O  O20  1  0.559948  0.619863  0.005889  1
  O  O21  1  0.271646  0.561114  0.761891  1
  O  O22  1  0.766360  0.260101  0.057747  1
  O  O23  1  0.559948  0.005889  0.814300  1
  O  O24  1  0.442198  0.994764  0.185911  1
  O  O25  1  0.232743  0.735652  0.948188  1
  O  O26  1  0.726777  0.441597  0.243406  1
  O  O27  1  0.442198  0.377127  0.994764  1
  O  O28  1  0.726777  0.243406  0.588220  1
  O  O29  1  0.766360  0.057747  0.915794  1
  O  O30  1  0.726777  0.588220  0.441597  1
  O  O31  1  0.559948  0.814300  0.619863  1
  O  O32  1  0.766360  0.915794  0.260101  1
  O  O33  1  0.929182  0.680426  0.499323  1
  O  O34  1  0.929182  0.499323  0.891070  1
  O  O35  1  0.929182  0.891070  0.680426  1
