# generated using pymatgen
data_Li2CoSiO4
_symmetry_space_group_name_H-M   'P 1'
_cell_length_a   6.36709436
_cell_length_b   5.12997788
_cell_length_c   10.78860198
_cell_angle_alpha   90.00000000
_cell_angle_beta   89.34082723
_cell_angle_gamma   90.00000000
_symmetry_Int_Tables_number   1
_chemical_formula_structural   Li2CoSiO4
_chemical_formula_sum   'Li8 Co4 Si4 O16'
_cell_volume   352.36535997
_cell_formula_units_Z   4
loop_
 _symmetry_equiv_pos_site_id
 _symmetry_equiv_pos_as_xyz
  1  'x, y, z'
loop_
 _atom_site_type_symbol
 _atom_site_label
 _atom_site_symmetry_multiplicity
 _atom_site_fract_x
 _atom_site_fract_y
 _atom_site_fract_z
 _atom_site_occupancy
  Li  Li0  1  0.003343  0.205520  0.830758  1
  Li  Li1  1  0.003343  0.294480  0.330758  1
  Li  Li2  1  0.228679  0.305459  0.573211  1
  Li  Li3  1  0.228679  0.194541  0.073211  1
  Li  Li4  1  0.771321  0.805459  0.926789  1
  Li  Li5  1  0.771321  0.694541  0.426789  1
  Li  Li6  1  0.996657  0.705520  0.669242  1
  Li  Li7  1  0.996657  0.794480  0.169242  1
  Co  Co8  1  0.499960  0.205623  0.837330  1
  Co  Co9  1  0.500040  0.705623  0.662670  1
  Co  Co10  1  0.499960  0.294377  0.337330  1
  Co  Co11  1  0.500040  0.794377  0.162670  1
  Si  Si12  1  0.246873  0.700303  0.912712  1
  Si  Si13  1  0.246873  0.799697  0.412712  1
  Si  Si14  1  0.753127  0.200303  0.587288  1
  Si  Si15  1  0.753127  0.299697  0.087288  1
  O  O16  1  0.044081  0.814836  0.841073  1
  O  O17  1  0.044081  0.685164  0.341073  1
  O  O18  1  0.252056  0.377287  0.908910  1
  O  O19  1  0.251879  0.701547  0.557732  1
  O  O20  1  0.252056  0.122713  0.408910  1
  O  O21  1  0.469384  0.805656  0.841653  1
  O  O22  1  0.251879  0.798453  0.057732  1
  O  O23  1  0.469384  0.694344  0.341653  1
  O  O24  1  0.530616  0.305656  0.658347  1
  O  O25  1  0.748121  0.201547  0.942268  1
  O  O26  1  0.530616  0.194344  0.158347  1
  O  O27  1  0.747944  0.877287  0.591090  1
  O  O28  1  0.748121  0.298453  0.442268  1
  O  O29  1  0.747944  0.622713  0.091090  1
  O  O30  1  0.955919  0.314836  0.658927  1
  O  O31  1  0.955919  0.185164  0.158927  1
