# generated using pymatgen
data_SiO2
_symmetry_space_group_name_H-M   'P 1'
_cell_length_a   8.78151285
_cell_length_b   8.77455739
_cell_length_c   16.71000529
_cell_angle_alpha   88.69379867
_cell_angle_beta   91.41146569
_cell_angle_gamma   120.40471125
_symmetry_Int_Tables_number   1
_chemical_formula_structural   SiO2
_chemical_formula_sum   'Si24 O48'
_cell_volume   1110.07729818
_cell_formula_units_Z   24
loop_
 _symmetry_equiv_pos_site_id
 _symmetry_equiv_pos_as_xyz
  1  'x, y, z'
loop_
 _atom_site_type_symbol
 _atom_site_label
 _atom_site_symmetry_multiplicity
 _atom_site_fract_x
 _atom_site_fract_y
 _atom_site_fract_z
 _atom_site_occupancy
  Si  Si0  1  0.311821  0.925315  0.164699  1
  Si  Si1  1  0.668829  0.604320  0.183508  1
  Si  Si2  1  0.994813  0.290190  0.150686  1
  Si  Si3  1  0.978029  0.608934  0.085604  1
  Si  Si4  1  0.339459  0.280734  0.111511  1
  Si  Si5  1  0.654516  0.928248  0.113644  1
  Si  Si6  1  0.362763  0.975255  0.351989  1
  Si  Si7  1  0.051282  0.649710  0.435082  1
  Si  Si8  1  0.718016  0.650955  0.371028  1
  Si  Si9  1  0.357461  0.314112  0.408142  1
  Si  Si10  1  0.044094  0.340093  0.338631  1
  Si  Si11  1  0.716833  0.001218  0.406355  1
  Si  Si12  1  0.003747  0.600009  0.622074  1
  Si  Si13  1  0.309218  0.263985  0.595302  1
  Si  Si14  1  0.667204  0.950956  0.593302  1
  Si  Si15  1  0.337640  0.950512  0.667687  1
  Si  Si16  1  0.652544  0.606519  0.649589  1
  Si  Si17  1  0.991321  0.257712  0.681614  1
  Si  Si18  1  0.385604  0.001764  0.854766  1
  Si  Si19  1  0.030875  0.658095  0.898000  1
  Si  Si20  1  0.699429  0.658400  0.837438  1
  Si  Si21  1  0.391200  0.331767  0.924462  1
  Si  Si22  1  0.041036  0.308710  0.868852  1
  Si  Si23  1  0.703622  0.976970  0.927077  1
  O  O24  1  0.507386  0.982109  0.132835  1
  O  O25  1  0.828754  0.638413  0.125577  1
  O  O26  1  0.181317  0.324157  0.117220  1
  O  O27  1  0.169047  0.734673  0.128164  1
  O  O28  1  0.929828  0.403820  0.096206  1
  O  O29  1  0.501687  0.404320  0.172500  1
  O  O30  1  0.263233  0.074046  0.135514  1
  O  O31  1  0.847658  0.082039  0.145129  1
  O  O32  1  0.604185  0.744260  0.160272  1
  O  O33  1  0.303123  0.904211  0.261357  1
  O  O34  1  0.737599  0.628220  0.275947  1
  O  O35  1  0.018832  0.352292  0.242914  1
  O  O36  1  0.246957  0.815003  0.414866  1
  O  O37  1  0.571185  0.043300  0.366398  1
  O  O38  1  0.003863  0.481026  0.380059  1
  O  O39  1  0.565041  0.465847  0.409767  1
  O  O40  1  0.903635  0.707037  0.417630  1
  O  O41  1  0.330559  0.139652  0.363799  1
  O  O42  1  0.909753  0.141071  0.370942  1
  O  O43  1  0.246035  0.388902  0.358957  1
  O  O44  1  0.666528  0.802189  0.383485  1
  O  O45  1  0.051463  0.597458  0.528917  1
  O  O46  1  0.284913  0.263518  0.498875  1
  O  O47  1  0.724277  0.024231  0.502625  1
  O  O48  1  0.179175  0.745160  0.670659  1
  O  O49  1  0.935004  0.405895  0.662328  1
  O  O50  1  0.510904  0.406073  0.622085  1
  O  O51  1  0.261987  0.066789  0.624032  1
  O  O52  1  0.833838  0.064081  0.653566  1
  O  O53  1  0.611153  0.743692  0.599811  1
  O  O54  1  0.500753  0.972026  0.615805  1
  O  O55  1  0.850142  0.649623  0.628764  1
  O  O56  1  0.173338  0.313713  0.635325  1
  O  O57  1  0.405876  0.017497  0.758115  1
  O  O58  1  0.631762  0.622792  0.744898  1
  O  O59  1  0.020834  0.243352  0.777076  1
  O  O60  1  0.236501  0.803100  0.881554  1
  O  O61  1  0.573263  0.048747  0.896542  1
  O  O62  1  0.994164  0.464589  0.873384  1
  O  O63  1  0.582591  0.481298  0.891395  1
  O  O64  1  0.904886  0.706799  0.843037  1
  O  O65  1  0.330262  0.142150  0.883897  1
  O  O66  1  0.907225  0.140828  0.924751  1
  O  O67  1  0.242525  0.384989  0.901711  1
  O  O68  1  0.676886  0.819135  0.869010  1
  O  O69  1  0.985804  0.659695  0.991489  1
  O  O70  1  0.411789  0.319414  0.020655  1
  O  O71  1  0.657522  0.900285  0.018013  1
