# generated using pymatgen
data_Mn12O7F17
_symmetry_space_group_name_H-M   'P 1'
_cell_length_a   4.78120213
_cell_length_b   5.72463198
_cell_length_c   16.00249100
_cell_angle_alpha   90.09302967
_cell_angle_beta   89.69839913
_cell_angle_gamma   87.46275922
_symmetry_Int_Tables_number   1
_chemical_formula_structural   Mn12O7F17
_chemical_formula_sum   'Mn12 O7 F17'
_cell_volume   437.56193598
_cell_formula_units_Z   1
loop_
 _symmetry_equiv_pos_site_id
 _symmetry_equiv_pos_as_xyz
  1  'x, y, z'
loop_
 _atom_site_type_symbol
 _atom_site_label
 _atom_site_symmetry_multiplicity
 _atom_site_fract_x
 _atom_site_fract_y
 _atom_site_fract_z
 _atom_site_occupancy
  Mn  Mn0  1  0.019092  0.176082  0.418648  1
  Mn  Mn1  1  0.012892  0.836700  0.241248  1
  Mn  Mn2  1  0.994004  0.155089  0.079215  1
  Mn  Mn3  1  0.047455  0.171179  0.756479  1
  Mn  Mn4  1  0.019751  0.832835  0.574952  1
  Mn  Mn5  1  0.013444  0.840098  0.909203  1
  Mn  Mn6  1  0.479164  0.337084  0.576786  1
  Mn  Mn7  1  0.506805  0.349796  0.920146  1
  Mn  Mn8  1  0.524817  0.333599  0.261435  1
  Mn  Mn9  1  0.489907  0.649734  0.084061  1
  Mn  Mn10  1  0.492512  0.653277  0.418981  1
  Mn  Mn11  1  0.486536  0.654951  0.755147  1
  O  O12  1  0.220570  0.884302  0.130472  1
  O  O13  1  0.233813  0.896995  0.466455  1
  O  O14  1  0.235700  0.887382  0.806349  1
  O  O15  1  0.263718  0.404623  0.473729  1
  O  O16  1  0.299622  0.397759  0.814606  1
  O  O17  1  0.709965  0.381817  0.028407  1
  O  O18  1  0.736340  0.395539  0.370142  1
  F  F19  1  0.217285  0.112425  0.302497  1
  F  F20  1  0.229313  0.107010  0.639335  1
  F  F21  1  0.222327  0.121254  0.971060  1
  F  F22  1  0.255701  0.386942  0.144344  1
  F  F23  1  0.269614  0.614812  0.305594  1
  F  F24  1  0.262064  0.600018  0.644039  1
  F  F25  1  0.264934  0.615522  0.976671  1
  F  F26  1  0.717625  0.614656  0.191303  1
  F  F27  1  0.719711  0.614041  0.533269  1
  F  F28  1  0.744066  0.607231  0.863544  1
  F  F29  1  0.733222  0.383872  0.696208  1
  F  F30  1  0.764131  0.111683  0.187008  1
  F  F31  1  0.767828  0.110140  0.526900  1
  F  F32  1  0.758841  0.889011  0.356583  1
  F  F33  1  0.760440  0.881302  0.019051  1
  F  F34  1  0.767429  0.117871  0.860967  1
  F  F35  1  0.759364  0.873370  0.695168  1
