# generated using pymatgen
data_Li4Cu7(PO4)6
_symmetry_space_group_name_H-M   'P 1'
_cell_length_a   8.90643929
_cell_length_b   8.90643929
_cell_length_c   6.25427736
_cell_angle_alpha   80.92774432
_cell_angle_beta   99.07225568
_cell_angle_gamma   76.90576851
_symmetry_Int_Tables_number   1
_chemical_formula_structural   Li4Cu7(PO4)6
_chemical_formula_sum   'Li4 Cu7 P6 O24'
_cell_volume   467.42733278
_cell_formula_units_Z   1
loop_
 _symmetry_equiv_pos_site_id
 _symmetry_equiv_pos_as_xyz
  1  'x, y, z'
loop_
 _atom_site_type_symbol
 _atom_site_label
 _atom_site_symmetry_multiplicity
 _atom_site_fract_x
 _atom_site_fract_y
 _atom_site_fract_z
 _atom_site_occupancy
  Li  Li0  1  0.270084  0.729916  0.527523  1
  Li  Li1  1  0.458947  0.287210  0.531199  1
  Li  Li2  1  0.712790  0.541053  0.531199  1
  Li  Li3  1  0.944018  0.055982  0.513080  1
  Cu  Cu4  1  0.014724  0.360115  0.181487  1
  Cu  Cu5  1  0.639885  0.985276  0.181487  1
  Cu  Cu6  1  0.374052  0.375711  0.997925  1
  Cu  Cu7  1  0.624289  0.625948  0.997925  1
  Cu  Cu8  1  0.992625  0.007375  0.000698  1
  Cu  Cu9  1  0.349619  0.006915  0.816594  1
  Cu  Cu10  1  0.993085  0.650381  0.816594  1
  P  P11  1  0.714804  0.904362  0.711766  1
  P  P12  1  0.095638  0.285196  0.711766  1
  P  P13  1  0.328371  0.671628  0.071678  1
  P  P14  1  0.679132  0.320868  0.923206  1
  P  P15  1  0.284815  0.085307  0.291727  1
  P  P16  1  0.914693  0.715185  0.291727  1
  O  O17  1  0.410503  0.767009  0.911632  1
  O  O18  1  0.232991  0.589497  0.911632  1
  O  O19  1  0.230885  0.769115  0.199408  1
  O  O20  1  0.024571  0.388670  0.866651  1
  O  O21  1  0.611330  0.975429  0.866651  1
  O  O22  1  0.896197  0.901425  0.772021  1
  O  O23  1  0.098575  0.103803  0.772021  1
  O  O24  1  0.274294  0.282040  0.733197  1
  O  O25  1  0.717960  0.725706  0.733197  1
  O  O26  1  0.465915  0.534085  0.215746  1
  O  O27  1  0.560257  0.439743  0.727247  1
  O  O28  1  0.889891  0.900239  0.217254  1
  O  O29  1  0.099761  0.110109  0.217254  1
  O  O30  1  0.304382  0.253291  0.295021  1
  O  O31  1  0.746709  0.695618  0.295021  1
  O  O32  1  0.335110  0.969294  0.517032  1
  O  O33  1  0.030706  0.664890  0.517032  1
  O  O34  1  0.794734  0.205266  0.836857  1
  O  O35  1  0.385151  0.013481  0.132585  1
  O  O36  1  0.986519  0.614849  0.132585  1
  O  O37  1  0.583125  0.235358  0.070873  1
  O  O38  1  0.764642  0.416875  0.070873  1
  O  O39  1  0.987211  0.347985  0.482477  1
  O  O40  1  0.652015  0.012789  0.482477  1
