# generated using pymatgen
data_Na2Ge2O5
_symmetry_space_group_name_H-M   'P 1'
_cell_length_a   12.70778921
_cell_length_b   5.05538945
_cell_length_c   8.51221191
_cell_angle_alpha   90.00000000
_cell_angle_beta   103.50135909
_cell_angle_gamma   90.00000000
_symmetry_Int_Tables_number   1
_chemical_formula_structural   Na2Ge2O5
_chemical_formula_sum   'Na8 Ge8 O20'
_cell_volume   531.73603071
_cell_formula_units_Z   4
loop_
 _symmetry_equiv_pos_site_id
 _symmetry_equiv_pos_as_xyz
  1  'x, y, z'
loop_
 _atom_site_type_symbol
 _atom_site_label
 _atom_site_symmetry_multiplicity
 _atom_site_fract_x
 _atom_site_fract_y
 _atom_site_fract_z
 _atom_site_occupancy
  Na  Na0  1  0.026497  0.718281  0.860210  1
  Na  Na1  1  0.053616  0.258174  0.619108  1
  Na  Na2  1  0.446384  0.758174  0.380892  1
  Na  Na3  1  0.526497  0.781719  0.860210  1
  Na  Na4  1  0.473503  0.218281  0.139790  1
  Na  Na5  1  0.553616  0.241826  0.619108  1
  Na  Na6  1  0.946384  0.741826  0.380892  1
  Na  Na7  1  0.973503  0.281719  0.139790  1
  Ge  Ge8  1  0.222611  0.796478  0.599240  1
  Ge  Ge9  1  0.322314  0.681654  0.977599  1
  Ge  Ge10  1  0.177686  0.181654  0.022401  1
  Ge  Ge11  1  0.277389  0.296478  0.400760  1
  Ge  Ge12  1  0.722611  0.703522  0.599240  1
  Ge  Ge13  1  0.822314  0.818346  0.977599  1
  Ge  Ge14  1  0.677686  0.318346  0.022401  1
  Ge  Ge15  1  0.777389  0.203522  0.400760  1
  O  O16  1  0.054989  0.252750  0.893993  1
  O  O17  1  0.092064  0.722296  0.611768  1
  O  O18  1  0.298056  0.330802  0.988421  1
  O  O19  1  0.224851  0.148032  0.558538  1
  O  O20  1  0.167828  0.246108  0.226322  1
  O  O21  1  0.332172  0.746108  0.773678  1
  O  O22  1  0.275149  0.648032  0.441462  1
  O  O23  1  0.201944  0.830802  0.011579  1
  O  O24  1  0.407936  0.222296  0.388232  1
  O  O25  1  0.554989  0.247250  0.893993  1
  O  O26  1  0.445011  0.752750  0.106007  1
  O  O27  1  0.592064  0.777704  0.611768  1
  O  O28  1  0.798056  0.169198  0.988421  1
  O  O29  1  0.724851  0.351968  0.558538  1
  O  O30  1  0.667828  0.253892  0.226322  1
  O  O31  1  0.832172  0.753892  0.773678  1
  O  O32  1  0.775149  0.851968  0.441462  1
  O  O33  1  0.701944  0.669198  0.011579  1
  O  O34  1  0.907936  0.277704  0.388232  1
  O  O35  1  0.945011  0.747250  0.106007  1
