# generated using pymatgen
data_LiVB2O5
_symmetry_space_group_name_H-M   'P 1'
_cell_length_a   12.09229869
_cell_length_b   5.48049529
_cell_length_c   10.84900651
_cell_angle_alpha   90.00000000
_cell_angle_beta   90.00000000
_cell_angle_gamma   79.14432018
_symmetry_Int_Tables_number   1
_chemical_formula_structural   LiVB2O5
_chemical_formula_sum   'Li8 V8 B16 O40'
_cell_volume   706.11661437
_cell_formula_units_Z   8
loop_
 _symmetry_equiv_pos_site_id
 _symmetry_equiv_pos_as_xyz
  1  'x, y, z'
loop_
 _atom_site_type_symbol
 _atom_site_label
 _atom_site_symmetry_multiplicity
 _atom_site_fract_x
 _atom_site_fract_y
 _atom_site_fract_z
 _atom_site_occupancy
  Li  Li0  1  0.057492  0.365640  0.374060  1
  Li  Li1  1  0.057492  0.865640  0.125940  1
  Li  Li2  1  0.442488  0.125397  0.884911  1
  Li  Li3  1  0.442488  0.625397  0.615089  1
  Li  Li4  1  0.557512  0.374603  0.384911  1
  Li  Li5  1  0.557512  0.874603  0.115089  1
  Li  Li6  1  0.942508  0.134360  0.874060  1
  Li  Li7  1  0.942508  0.634360  0.625940  1
  V  V8  1  0.238992  0.273243  0.623967  1
  V  V9  1  0.258386  0.255573  0.125827  1
  V  V10  1  0.238992  0.773243  0.876033  1
  V  V11  1  0.258386  0.755573  0.374173  1
  V  V12  1  0.741614  0.244427  0.625827  1
  V  V13  1  0.761008  0.226757  0.123967  1
  V  V14  1  0.741614  0.744427  0.874173  1
  V  V15  1  0.761008  0.726757  0.376033  1
  B  B16  1  0.004450  0.141309  0.630258  1
  B  B17  1  0.004450  0.641309  0.869742  1
  B  B18  1  0.168205  0.307911  0.881173  1
  B  B19  1  0.168205  0.807911  0.618827  1
  B  B20  1  0.333177  0.206479  0.372319  1
  B  B21  1  0.333177  0.706479  0.127681  1
  B  B22  1  0.509006  0.153648  0.613141  1
  B  B23  1  0.490994  0.346352  0.113141  1
  B  B24  1  0.509006  0.653648  0.886859  1
  B  B25  1  0.490994  0.846352  0.386859  1
  B  B26  1  0.666823  0.293521  0.872319  1
  B  B27  1  0.666823  0.793521  0.627681  1
  B  B28  1  0.831795  0.192089  0.381173  1
  B  B29  1  0.831795  0.692089  0.118827  1
  B  B30  1  0.995550  0.358691  0.130258  1
  B  B31  1  0.995550  0.858691  0.369742  1
  O  O32  1  0.066108  0.319841  0.606876  1
  O  O33  1  0.052085  0.384556  0.890439  1
  O  O34  1  0.101033  0.311127  0.178845  1
  O  O35  1  0.066108  0.819841  0.893124  1
  O  O36  1  0.052085  0.884556  0.609561  1
  O  O37  1  0.101033  0.811127  0.321155  1
  O  O38  1  0.221107  0.113291  0.952623  1
  O  O39  1  0.257140  0.107882  0.443825  1
  O  O40  1  0.227884  0.435253  0.803640  1
  O  O41  1  0.221107  0.613291  0.547377  1
  O  O42  1  0.295687  0.409158  0.298654  1
  O  O43  1  0.257140  0.607882  0.056175  1
  O  O44  1  0.227884  0.935253  0.696360  1
  O  O45  1  0.295687  0.909158  0.201347  1
  O  O46  1  0.401332  0.246398  0.647259  1
  O  O47  1  0.449138  0.106311  0.371370  1
  O  O48  1  0.422106  0.192871  0.071846  1
  O  O49  1  0.401332  0.746398  0.852741  1
  O  O50  1  0.449138  0.606311  0.128630  1
  O  O51  1  0.422106  0.692871  0.428154  1
  O  O52  1  0.577894  0.307129  0.571846  1
  O  O53  1  0.550862  0.393689  0.871370  1
  O  O54  1  0.598668  0.253602  0.147259  1
  O  O55  1  0.577894  0.807129  0.928154  1
  O  O56  1  0.550862  0.893689  0.628630  1
  O  O57  1  0.598668  0.753602  0.352741  1
  O  O58  1  0.704313  0.090842  0.798654  1
  O  O59  1  0.772116  0.064747  0.303640  1
  O  O60  1  0.742860  0.392118  0.943825  1
  O  O61  1  0.704313  0.590842  0.701346  1
  O  O62  1  0.778893  0.386709  0.452623  1
  O  O63  1  0.772116  0.564747  0.196360  1
  O  O64  1  0.742860  0.892118  0.556175  1
  O  O65  1  0.778893  0.886709  0.047377  1
  O  O66  1  0.898967  0.188873  0.678845  1
  O  O67  1  0.947915  0.115444  0.390439  1
  O  O68  1  0.933892  0.180159  0.106876  1
  O  O69  1  0.898967  0.688873  0.821155  1
  O  O70  1  0.947915  0.615444  0.109561  1
  O  O71  1  0.933892  0.680159  0.393124  1
