# generated using pymatgen
data_LiFe2(BO3)2
_symmetry_space_group_name_H-M   'P 1'
_cell_length_a   5.32322170
_cell_length_b   8.99074311
_cell_length_c   9.98786232
_cell_angle_alpha   90.79122486
_cell_angle_beta   91.98348904
_cell_angle_gamma   89.81390915
_symmetry_Int_Tables_number   1
_chemical_formula_structural   LiFe2(BO3)2
_chemical_formula_sum   'Li4 Fe8 B8 O24'
_cell_volume   477.68248914
_cell_formula_units_Z   4
loop_
 _symmetry_equiv_pos_site_id
 _symmetry_equiv_pos_as_xyz
  1  'x, y, z'
loop_
 _atom_site_type_symbol
 _atom_site_label
 _atom_site_symmetry_multiplicity
 _atom_site_fract_x
 _atom_site_fract_y
 _atom_site_fract_z
 _atom_site_occupancy
  Li  Li0  1  0.332938  0.010153  0.848224  1
  Li  Li1  1  0.654654  -0.000349  0.096753  1
  Li  Li2  1  0.838751  0.509977  0.855831  1
  Li  Li3  1  0.641677  0.993522  0.579984  1
  Fe  Fe4  1  0.162856  0.173130  0.124918  1
  Fe  Fe5  1  0.851638  0.164880  0.371074  1
  Fe  Fe6  1  0.331959  0.346902  0.871983  1
  Fe  Fe7  1  0.653660  0.334832  0.622792  1
  Fe  Fe8  1  0.339551  0.675483  0.361210  1
  Fe  Fe9  1  0.151977  0.818432  0.617523  1
  Fe  Fe10  1  0.666599  0.656502  0.124394  1
  Fe  Fe11  1  0.846269  0.836224  0.873670  1
  B  B12  1  0.161096  0.159582  0.627701  1
  B  B13  1  0.346400  0.340312  0.370602  1
  B  B14  1  0.828436  0.168524  0.871774  1
  B  B15  1  0.672637  0.322583  0.115347  1
  B  B16  1  0.337547  0.671807  0.865551  1
  B  B17  1  0.660720  0.674570  0.623704  1
  B  B18  1  0.160895  0.840883  0.124036  1
  B  B19  1  0.820264  0.826005  0.378581  1
  O  O20  1  0.279579  0.021679  0.634307  1
  O  O21  1  0.083882  0.167976  0.910014  1
  O  O22  1  0.686314  0.042065  0.881797  1
  O  O23  1  0.212272  0.215485  0.321376  1
  O  O24  1  0.301949  0.285157  0.659885  1
  O  O25  1  0.799086  0.189004  0.154676  1
  O  O26  1  0.905459  0.170059  0.593938  1
  O  O27  1  0.420570  0.304340  0.073869  1
  O  O28  1  0.243809  0.477015  0.360827  1
  O  O29  1  0.584497  0.315721  0.430332  1
  O  O30  1  0.718857  0.302037  0.826180  1
  O  O31  1  0.193074  0.548597  0.868892  1
  O  O32  1  0.792468  0.452205  0.110036  1
  O  O33  1  0.287330  0.715478  0.171658  1
  O  O34  1  0.422453  0.694243  0.562907  1
  O  O35  1  0.754829  0.538096  0.651860  1
  O  O36  1  0.587474  0.676246  0.909963  1
  O  O37  1  0.073361  0.806988  0.426753  1
  O  O38  1  0.222813  0.804867  0.813811  1
  O  O39  1  0.696366  0.699855  0.331141  1
  O  O40  1  0.794557  0.806127  0.659874  1
  O  O41  1  0.292980  0.972436  0.111087  1
  O  O42  1  0.907709  0.834640  0.083013  1
  O  O43  1  0.710644  0.962038  0.387664  1
