# generated using pymatgen
data_LiNiPO4
_symmetry_space_group_name_H-M   'P 1'
_cell_length_a   8.43012658
_cell_length_b   5.22690275
_cell_length_c   7.92015708
_cell_angle_alpha   90.00000000
_cell_angle_beta   104.78940680
_cell_angle_gamma   90.00000000
_symmetry_Int_Tables_number   1
_chemical_formula_structural   LiNiPO4
_chemical_formula_sum   'Li4 Ni4 P4 O16'
_cell_volume   337.42764839
_cell_formula_units_Z   4
loop_
 _symmetry_equiv_pos_site_id
 _symmetry_equiv_pos_as_xyz
  1  'x, y, z'
loop_
 _atom_site_type_symbol
 _atom_site_label
 _atom_site_symmetry_multiplicity
 _atom_site_fract_x
 _atom_site_fract_y
 _atom_site_fract_z
 _atom_site_occupancy
  Li  Li0  1  0.208480  0.340483  0.871213  1
  Li  Li1  1  0.384233  0.826579  0.358840  1
  Li  Li2  1  0.708480  0.659517  0.871213  1
  Li  Li3  1  0.884233  0.173421  0.358840  1
  Ni  Ni4  1  0.056481  0.834291  0.957898  1
  Ni  Ni5  1  0.265333  0.324800  0.487737  1
  Ni  Ni6  1  0.556481  0.165709  0.957898  1
  Ni  Ni7  1  0.765333  0.675200  0.487737  1
  P  P8  1  0.010839  0.676106  0.253108  1
  P  P9  1  0.334866  0.824328  0.740832  1
  P  P10  1  0.510839  0.323894  0.253108  1
  P  P11  1  0.834866  0.175672  0.740832  1
  O  O12  1  0.004082  0.189940  0.877000  1
  O  O13  1  0.056035  0.397731  0.316975  1
  O  O14  1  0.198586  0.708765  0.816336  1
  O  O15  1  0.302612  0.117798  0.704657  1
  O  O16  1  0.163304  0.814290  0.218432  1
  O  O17  1  0.340859  0.676650  0.573902  1
  O  O18  1  0.504082  0.810060  0.877000  1
  O  O19  1  0.441049  0.184290  0.391243  1
  O  O20  1  0.387041  0.313760  0.070625  1
  O  O21  1  0.556035  0.602269  0.316975  1
  O  O22  1  0.698586  0.291235  0.816336  1
  O  O23  1  0.802612  0.882202  0.704657  1
  O  O24  1  0.663304  0.185710  0.218432  1
  O  O25  1  0.840859  0.323350  0.573902  1
  O  O26  1  0.941049  0.815710  0.391243  1
  O  O27  1  0.887041  0.686240  0.070625  1
