# generated using pymatgen
data_MnSbO4
_symmetry_space_group_name_H-M   'P 1'
_cell_length_a   5.28624856
_cell_length_b   10.09306947
_cell_length_c   9.62952943
_cell_angle_alpha   17.43005583
_cell_angle_beta   32.72321145
_cell_angle_gamma   36.61505454
_symmetry_Int_Tables_number   1
_chemical_formula_structural   MnSbO4
_chemical_formula_sum   'Mn1 Sb1 O4'
_cell_volume   83.19430016
_cell_formula_units_Z   1
loop_
 _symmetry_equiv_pos_site_id
 _symmetry_equiv_pos_as_xyz
  1  'x, y, z'
loop_
 _atom_site_type_symbol
 _atom_site_label
 _atom_site_symmetry_multiplicity
 _atom_site_fract_x
 _atom_site_fract_y
 _atom_site_fract_z
 _atom_site_occupancy
  Mn  Mn0  1  0.499540  0.500002  0.500027  1
  Sb  Sb1  1  0.499988  0.000002  0.500085  1
  O  O2  1  0.189470  0.000010  0.237220  1
  O  O3  1  0.317088  0.499963  0.212123  1
  O  O4  1  0.810671  0.999984  0.762675  1
  O  O5  1  0.683243  0.500038  0.787869  1
