# generated using pymatgen
data_Ca2Y2Si4H2CO16
_symmetry_space_group_name_H-M   'P 1'
_cell_length_a   13.12476752
_cell_length_b   14.43465456
_cell_length_c   6.82695507
_cell_angle_alpha   90.00000000
_cell_angle_beta   90.00000000
_cell_angle_gamma   90.00000000
_symmetry_Int_Tables_number   1
_chemical_formula_structural   Ca2Y2Si4H2CO16
_chemical_formula_sum   'Ca8 Y8 Si16 H8 C4 O64'
_cell_volume   1293.37677830
_cell_formula_units_Z   4
loop_
 _symmetry_equiv_pos_site_id
 _symmetry_equiv_pos_as_xyz
  1  'x, y, z'
loop_
 _atom_site_type_symbol
 _atom_site_label
 _atom_site_symmetry_multiplicity
 _atom_site_fract_x
 _atom_site_fract_y
 _atom_site_fract_z
 _atom_site_occupancy
  Ca  Ca0  1  0.077482  0.951957  0.199871  1
  Ca  Ca1  1  0.422518  0.451957  0.300129  1
  Ca  Ca2  1  0.577482  0.048043  0.800129  1
  Ca  Ca3  1  0.922518  0.548043  0.699871  1
  Ca  Ca4  1  0.922518  0.048043  0.800129  1
  Ca  Ca5  1  0.577482  0.548043  0.699871  1
  Ca  Ca6  1  0.422518  0.951957  0.199871  1
  Ca  Ca7  1  0.077482  0.451957  0.300129  1
  Y  Y8  1  0.057106  0.719245  0.388597  1
  Y  Y9  1  0.442894  0.219245  0.111403  1
  Y  Y10  1  0.557106  0.280755  0.611403  1
  Y  Y11  1  0.942894  0.780755  0.888597  1
  Y  Y12  1  0.942894  0.280755  0.611403  1
  Y  Y13  1  0.557106  0.780755  0.888597  1
  Y  Y14  1  0.442894  0.719245  0.388597  1
  Y  Y15  1  0.057106  0.219245  0.111403  1
  Si  Si16  1  0.130407  0.646992  0.888595  1
  Si  Si17  1  0.369593  0.146992  0.611405  1
  Si  Si18  1  0.630407  0.353008  0.111405  1
  Si  Si19  1  0.869593  0.853008  0.388595  1
  Si  Si20  1  0.869593  0.353008  0.111405  1
  Si  Si21  1  0.630407  0.853008  0.388595  1
  Si  Si22  1  0.369593  0.646992  0.888595  1
  Si  Si23  1  0.130407  0.146992  0.611405  1
  Si  Si24  1  0.130690  0.930685  0.660867  1
  Si  Si25  1  0.369310  0.430685  0.839133  1
  Si  Si26  1  0.630690  0.069315  0.339133  1
  Si  Si27  1  0.869310  0.569315  0.160867  1
  Si  Si28  1  0.869310  0.069315  0.339133  1
  Si  Si29  1  0.630690  0.569315  0.160867  1
  Si  Si30  1  0.369310  0.930685  0.660867  1
  Si  Si31  1  0.130690  0.430685  0.839133  1
  H  H32  1  0.250000  0.815015  0.180719  1
  H  H33  1  0.250000  0.315015  0.319281  1
  H  H34  1  0.750000  0.184985  0.819281  1
  H  H35  1  0.750000  0.684985  0.680719  1
  H  H36  1  0.250000  0.875410  0.985815  1
  H  H37  1  0.250000  0.375410  0.514185  1
  H  H38  1  0.750000  0.124590  0.014185  1
  H  H39  1  0.750000  0.624590  0.485815  1
  C  C40  1  0.250000  0.624468  0.386789  1
  C  C41  1  0.250000  0.124468  0.113211  1
  C  C42  1  0.750000  0.375532  0.613211  1
  C  C43  1  0.750000  0.875532  0.886789  1
  O  O44  1  0.112707  0.535300  0.943817  1
  O  O45  1  0.387293  0.035300  0.556183  1
  O  O46  1  0.612707  0.464700  0.056183  1
  O  O47  1  0.887293  0.964700  0.443817  1
  O  O48  1  0.887293  0.464700  0.056183  1
  O  O49  1  0.612707  0.964700  0.443817  1
  O  O50  1  0.387293  0.535300  0.943817  1
  O  O51  1  0.112707  0.035300  0.556183  1
  O  O52  1  0.052683  0.670661  0.707239  1
  O  O53  1  0.447317  0.170661  0.792761  1
  O  O54  1  0.552683  0.329339  0.292761  1
  O  O55  1  0.947317  0.829339  0.207239  1
  O  O56  1  0.947317  0.329339  0.292761  1
  O  O57  1  0.552683  0.829339  0.207239  1
  O  O58  1  0.447317  0.670661  0.707239  1
  O  O59  1  0.052683  0.170661  0.792761  1
  O  O60  1  0.095366  0.716508  0.061893  1
  O  O61  1  0.404634  0.216508  0.438107  1
  O  O62  1  0.595366  0.283492  0.938107  1
  O  O63  1  0.904634  0.783492  0.561893  1
  O  O64  1  0.904634  0.283492  0.938107  1
  O  O65  1  0.595366  0.783492  0.561893  1
  O  O66  1  0.404634  0.716508  0.061893  1
  O  O67  1  0.095366  0.216508  0.438107  1
  O  O68  1  0.250000  0.660344  0.826569  1
  O  O69  1  0.250000  0.160344  0.673431  1
  O  O70  1  0.750000  0.339656  0.173431  1
  O  O71  1  0.750000  0.839656  0.326569  1
  O  O72  1  0.052539  0.919485  0.846385  1
  O  O73  1  0.447461  0.419485  0.653615  1
  O  O74  1  0.552539  0.080515  0.153615  1
  O  O75  1  0.947461  0.580515  0.346385  1
  O  O76  1  0.947461  0.080515  0.153615  1
  O  O77  1  0.552539  0.580515  0.346385  1
  O  O78  1  0.447461  0.919485  0.846385  1
  O  O79  1  0.052539  0.419485  0.653615  1
  O  O80  1  0.110537  0.861476  0.480025  1
  O  O81  1  0.389463  0.361476  0.019975  1
  O  O82  1  0.610537  0.138524  0.519975  1
  O  O83  1  0.889463  0.638524  0.980025  1
  O  O84  1  0.889463  0.138524  0.519975  1
  O  O85  1  0.610537  0.638524  0.980025  1
  O  O86  1  0.389463  0.861476  0.480025  1
  O  O87  1  0.110537  0.361476  0.019975  1
  O  O88  1  0.250000  0.925730  0.744173  1
  O  O89  1  0.250000  0.425730  0.755827  1
  O  O90  1  0.750000  0.074270  0.255827  1
  O  O91  1  0.750000  0.574270  0.244173  1
  O  O92  1  0.163658  0.581847  0.384972  1
  O  O93  1  0.336342  0.081847  0.115028  1
  O  O94  1  0.663658  0.418153  0.615028  1
  O  O95  1  0.836342  0.918153  0.884972  1
  O  O96  1  0.836342  0.418153  0.615028  1
  O  O97  1  0.663658  0.918153  0.884972  1
  O  O98  1  0.336342  0.581847  0.384972  1
  O  O99  1  0.163658  0.081847  0.115028  1
  O  O100  1  0.250000  0.714065  0.391049  1
  O  O101  1  0.250000  0.214065  0.108951  1
  O  O102  1  0.750000  0.285935  0.608951  1
  O  O103  1  0.750000  0.785935  0.891049  1
  O  O104  1  0.250000  0.879043  0.130654  1
  O  O105  1  0.250000  0.379043  0.369346  1
  O  O106  1  0.750000  0.120957  0.869346  1
  O  O107  1  0.750000  0.620957  0.630654  1
