# generated using pymatgen
data_Fe7Te(PO4)12
_symmetry_space_group_name_H-M   'P 1'
_cell_length_a   8.77863966
_cell_length_b   8.76975432
_cell_length_c   12.18839193
_cell_angle_alpha   90.13906000
_cell_angle_beta   89.98847842
_cell_angle_gamma   90.05195094
_symmetry_Int_Tables_number   1
_chemical_formula_structural   Fe7Te(PO4)12
_chemical_formula_sum   'Fe7 Te1 P12 O48'
_cell_volume   938.33862700
_cell_formula_units_Z   1
loop_
 _symmetry_equiv_pos_site_id
 _symmetry_equiv_pos_as_xyz
  1  'x, y, z'
loop_
 _atom_site_type_symbol
 _atom_site_label
 _atom_site_symmetry_multiplicity
 _atom_site_fract_x
 _atom_site_fract_y
 _atom_site_fract_z
 _atom_site_occupancy
  Fe  Fe0  1  0.250861  0.962659  0.619214  1
  Fe  Fe1  1  0.249121  0.534716  0.382882  1
  Fe  Fe2  1  0.249282  0.036195  0.119601  1
  Fe  Fe3  1  0.248331  0.464785  0.878609  1
  Fe  Fe4  1  0.752061  0.536688  0.117521  1
  Fe  Fe5  1  0.752197  0.962225  0.878809  1
  Fe  Fe6  1  0.749213  0.033867  0.380964  1
  Te  Te7  1  0.750107  0.465173  0.616180  1
  P  P8  1  0.036141  0.247874  0.499579  1
  P  P9  1  0.464654  0.749870  -0.000064  1
  P  P10  1  0.535695  0.250463  0.000692  1
  P  P11  1  0.962542  0.748545  0.499334  1
  P  P12  1  0.107144  0.394347  0.144665  1
  P  P13  1  0.108071  0.105267  0.854616  1
  P  P14  1  0.394202  0.604082  0.644074  1
  P  P15  1  0.392608  0.893058  0.355706  1
  P  P16  1  0.606099  0.109424  0.643511  1
  P  P17  1  0.607351  0.392605  0.351504  1
  P  P18  1  0.892622  0.607771  0.852559  1
  P  P19  1  0.892365  0.893631  0.144138  1
  O  O20  1  0.055053  0.638725  0.429446  1
  O  O21  1  0.061998  0.846729  0.575361  1
  O  O22  1  0.067671  0.905935  0.150927  1
  O  O23  1  0.065924  0.590805  0.843447  1
  O  O24  1  0.133209  0.152879  0.578040  1
  O  O25  1  0.141528  0.344177  0.428862  1
  O  O26  1  0.165737  0.439710  0.030562  1
  O  O27  1  0.164832  0.061347  0.969371  1
  O  O28  1  0.152024  0.228173  0.170368  1
  O  O29  1  0.153313  0.271356  0.830085  1
  O  O30  1  0.174740  0.504192  0.230186  1
  O  O31  1  0.179357  0.994204  0.771459  1
  O  O32  1  0.321162  0.002780  0.272028  1
  O  O33  1  0.329571  0.492631  0.728308  1
  O  O34  1  0.356331  0.770871  0.668515  1
  O  O35  1  0.344589  0.727890  0.331654  1
  O  O36  1  0.344932  0.556142  0.529334  1
  O  O37  1  0.337860  0.940451  0.470334  1
  O  O38  1  0.360768  0.846575  0.074094  1
  O  O39  1  0.361649  0.652611  0.926292  1
  O  O40  1  0.431548  0.101019  0.652725  1
  O  O41  1  0.433078  0.407362  0.345153  1
  O  O42  1  0.437142  0.148622  0.075460  1
  O  O43  1  0.437127  0.349849  0.925175  1
  O  O44  1  0.564324  0.650464  0.075292  1
  O  O45  1  0.563040  0.851117  0.924623  1
  O  O46  1  0.577436  0.596488  0.654663  1
  O  O47  1  0.567141  0.905719  0.346265  1
  O  O48  1  0.637064  0.347996  0.075696  1
  O  O49  1  0.640507  0.152830  0.927457  1
  O  O50  1  0.664037  0.074352  0.529259  1
  O  O51  1  0.657713  0.438877  0.472868  1
  O  O52  1  0.653810  0.227950  0.328251  1
  O  O53  1  0.651147  0.282298  0.675738  1
  O  O54  1  0.683849  0.507356  0.274007  1
  O  O55  1  0.678155  0.003951  0.728030  1
  O  O56  1  0.823207  0.004064  0.228358  1
  O  O57  1  0.818487  0.486809  0.767795  1
  O  O58  1  0.848817  0.727279  0.169979  1
  O  O59  1  0.844709  0.769792  0.822828  1
  O  O60  1  0.832612  0.557644  0.964207  1
  O  O61  1  0.836275  0.936733  0.029243  1
  O  O62  1  0.854023  0.656563  0.582330  1
  O  O63  1  0.856381  0.844442  0.428283  1
  O  O64  1  0.933280  0.092797  0.848323  1
  O  O65  1  0.931157  0.404957  0.149025  1
  O  O66  1  0.931908  0.153941  0.426444  1
  O  O67  1  0.939115  0.357302  0.579754  1
