# generated using pymatgen
data_B10H13
_symmetry_space_group_name_H-M   'P 1'
_cell_length_a   7.33463489
_cell_length_b   15.65612761
_cell_length_c   15.08693767
_cell_angle_alpha   90.00000000
_cell_angle_beta   91.45872295
_cell_angle_gamma   90.00000000
_symmetry_Int_Tables_number   1
_chemical_formula_structural   B10H13
_chemical_formula_sum   'B80 H104'
_cell_volume   1731.90147187
_cell_formula_units_Z   8
loop_
 _symmetry_equiv_pos_site_id
 _symmetry_equiv_pos_as_xyz
  1  'x, y, z'
loop_
 _atom_site_type_symbol
 _atom_site_label
 _atom_site_symmetry_multiplicity
 _atom_site_fract_x
 _atom_site_fract_y
 _atom_site_fract_z
 _atom_site_occupancy
  B  B0  1  0.371885  0.918209  0.158056  1
  B  B1  1  0.871885  0.581791  0.658056  1
  B  B2  1  0.628115  0.081791  0.841944  1
  B  B3  1  0.128115  0.418209  0.341944  1
  B  B4  1  0.547656  0.956698  0.233045  1
  B  B5  1  0.047656  0.543302  0.733045  1
  B  B6  1  0.452344  0.043302  0.766955  1
  B  B7  1  0.952344  0.456698  0.266955  1
  B  B8  1  0.468949  0.022417  0.144857  1
  B  B9  1  0.968949  0.477583  0.644857  1
  B  B10  1  0.531051  0.977583  0.855143  1
  B  B11  1  0.031051  0.522417  0.355143  1
  B  B12  1  0.240342  0.003775  0.109489  1
  B  B13  1  0.740342  0.496225  0.609489  1
  B  B14  1  0.759658  0.996225  0.890511  1
  B  B15  1  0.259658  0.503775  0.390511  1
  B  B16  1  0.349097  0.905232  0.273488  1
  B  B17  1  0.849097  0.594768  0.773488  1
  B  B18  1  0.650903  0.094768  0.726512  1
  B  B19  1  0.150903  0.405232  0.226512  1
  B  B20  1  0.459700  0.990298  0.332006  1
  B  B21  1  0.959700  0.509702  0.832006  1
  B  B22  1  0.540300  0.009702  0.667994  1
  B  B23  1  0.040300  0.490298  0.167994  1
  B  B24  1  0.506216  0.068123  0.249677  1
  B  B25  1  0.006216  0.431877  0.749677  1
  B  B26  1  0.493784  0.931877  0.750323  1
  B  B27  1  0.993784  0.568123  0.250323  1
  B  B28  1  0.303207  0.098748  0.168886  1
  B  B29  1  0.803207  0.401252  0.668886  1
  B  B30  1  0.696793  0.901252  0.831114  1
  B  B31  1  0.196793  0.598748  0.331114  1
  B  B32  1  0.091366  0.046646  0.184015  1
  B  B33  1  0.591366  0.453354  0.684015  1
  B  B34  1  0.908634  0.953354  0.815985  1
  B  B35  1  0.408634  0.546646  0.315985  1
  B  B36  1  0.146479  0.936265  0.192291  1
  B  B37  1  0.646479  0.563735  0.692291  1
  B  B38  1  0.853521  0.063735  0.807709  1
  B  B39  1  0.353521  0.436265  0.307709  1
  B  B40  1  0.279368  0.732363  0.101821  1
  B  B41  1  0.779368  0.767637  0.601821  1
  B  B42  1  0.720632  0.267637  0.898179  1
  B  B43  1  0.220632  0.232363  0.398179  1
  B  B44  1  0.513541  0.727211  0.134390  1
  B  B45  1  0.013541  0.772789  0.634390  1
  B  B46  1  0.486459  0.272789  0.865610  1
  B  B47  1  0.986459  0.227211  0.365610  1
  B  B48  1  0.414543  0.644294  0.069181  1
  B  B49  1  0.914543  0.855706  0.569181  1
  B  B50  1  0.585457  0.355706  0.930819  1
  B  B51  1  0.085457  0.144294  0.430819  1
  B  B52  1  0.224389  0.675855  0.002164  1
  B  B53  1  0.724389  0.824145  0.502164  1
  B  B54  1  0.775611  0.324145  0.997836  1
  B  B55  1  0.275611  0.175855  0.497836  1
  B  B56  1  0.410947  0.826338  0.098140  1
  B  B57  1  0.910947  0.673662  0.598140  1
  B  B58  1  0.589053  0.173662  0.901860  1
  B  B59  1  0.089053  0.326338  0.401860  1
  B  B60  1  0.637913  0.794712  0.069578  1
  B  B61  1  0.137913  0.705288  0.569578  1
  B  B62  1  0.362087  0.205288  0.930422  1
  B  B63  1  0.862087  0.294712  0.430422  1
  B  B64  1  0.628171  0.684081  0.041234  1
  B  B65  1  0.128171  0.815919  0.541234  1
  B  B66  1  0.371829  0.315919  0.958766  1
  B  B67  1  0.871829  0.184081  0.458766  1
  B  B68  1  0.437379  0.649812  0.954131  1
  B  B69  1  0.937379  0.850188  0.454131  1
  B  B70  1  0.562621  0.350188  0.045869  1
  B  B71  1  0.062621  0.149812  0.545869  1
  B  B72  1  0.294381  0.733075  0.911676  1
  B  B73  1  0.794381  0.766925  0.411676  1
  B  B74  1  0.705619  0.266925  0.088324  1
  B  B75  1  0.205619  0.233075  0.588324  1
  B  B76  1  0.219490  0.789496  0.006130  1
  B  B77  1  0.719490  0.710504  0.506130  1
  B  B78  1  0.780510  0.210504  0.993870  1
  B  B79  1  0.280510  0.289496  0.493870  1
  H  H80  1  0.696603  0.925900  0.231904  1
  H  H81  1  0.196603  0.574100  0.731904  1
  H  H82  1  0.303397  0.074100  0.768096  1
  H  H83  1  0.803397  0.425900  0.268096  1
  H  H84  1  0.576451  0.043303  0.090732  1
  H  H85  1  0.076451  0.456697  0.590732  1
  H  H86  1  0.423549  0.956697  0.909268  1
  H  H87  1  0.923549  0.543303  0.409268  1
  H  H88  1  0.200770  0.003005  0.032095  1
  H  H89  1  0.700770  0.496995  0.532095  1
  H  H90  1  0.799230  0.996995  0.967905  1
  H  H91  1  0.299230  0.503005  0.467905  1
  H  H92  1  0.341477  0.836858  0.307813  1
  H  H93  1  0.841477  0.663142  0.807813  1
  H  H94  1  0.658523  0.163142  0.692187  1
  H  H95  1  0.158523  0.336858  0.192187  1
  H  H96  1  0.290377  0.958231  0.335496  1
  H  H97  1  0.790377  0.541769  0.835496  1
  H  H98  1  0.709623  0.041769  0.664504  1
  H  H99  1  0.209623  0.458231  0.164504  1
  H  H100  1  0.520205  0.987526  0.405909  1
  H  H101  1  0.020205  0.512474  0.905909  1
  H  H102  1  0.479795  0.012474  0.594091  1
  H  H103  1  0.979795  0.487526  0.094091  1
  H  H104  1  0.617851  0.122076  0.263652  1
  H  H105  1  0.117851  0.377924  0.763652  1
  H  H106  1  0.382149  0.877924  0.736348  1
  H  H107  1  0.882149  0.622076  0.236348  1
  H  H108  1  0.400584  0.070864  0.319324  1
  H  H109  1  0.900584  0.429136  0.819324  1
  H  H110  1  0.599416  0.929136  0.680676  1
  H  H111  1  0.099416  0.570864  0.180676  1
  H  H112  1  0.303628  0.169791  0.140259  1
  H  H113  1  0.803628  0.330209  0.640259  1
  H  H114  1  0.696372  0.830209  0.859741  1
  H  H115  1  0.196372  0.669791  0.359741  1
  H  H116  1  0.188310  0.102461  0.234601  1
  H  H117  1  0.688310  0.397539  0.734601  1
  H  H118  1  0.811690  0.897539  0.765399  1
  H  H119  1  0.311690  0.602461  0.265399  1
  H  H120  1  0.943242  0.076940  0.173964  1
  H  H121  1  0.443242  0.423060  0.673964  1
  H  H122  1  0.056758  0.923060  0.826036  1
  H  H123  1  0.556758  0.576940  0.326036  1
  H  H124  1  0.026782  0.885365  0.183417  1
  H  H125  1  0.526782  0.614635  0.683417  1
  H  H126  1  0.973218  0.114635  0.816583  1
  H  H127  1  0.473218  0.385365  0.316583  1
  H  H128  1  0.081560  0.991014  0.251054  1
  H  H129  1  0.581560  0.508986  0.751054  1
  H  H130  1  0.918440  0.008986  0.748946  1
  H  H131  1  0.418440  0.491014  0.248946  1
  H  H132  1  0.558100  0.713775  0.209840  1
  H  H133  1  0.058100  0.786225  0.709840  1
  H  H134  1  0.441900  0.286225  0.790160  1
  H  H135  1  0.941900  0.213775  0.290160  1
  H  H136  1  0.166393  0.731770  0.157544  1
  H  H137  1  0.666393  0.768230  0.657544  1
  H  H138  1  0.833607  0.268230  0.842456  1
  H  H139  1  0.333607  0.231770  0.342456  1
  H  H140  1  0.413430  0.573148  0.098769  1
  H  H141  1  0.913430  0.926852  0.598769  1
  H  H142  1  0.586570  0.426852  0.901231  1
  H  H143  1  0.086570  0.073148  0.401231  1
  H  H144  1  0.092044  0.631643  0.999311  1
  H  H145  1  0.592044  0.868357  0.499311  1
  H  H146  1  0.907956  0.368357  0.000689  1
  H  H147  1  0.407956  0.131643  0.500689  1
  H  H148  1  0.518626  0.849732  0.032055  1
  H  H149  1  0.018626  0.650268  0.532055  1
  H  H150  1  0.481374  0.150268  0.967945  1
  H  H151  1  0.981374  0.349732  0.467945  1
  H  H152  1  0.774493  0.833678  0.084571  1
  H  H153  1  0.274493  0.666322  0.584571  1
  H  H154  1  0.225507  0.166322  0.915429  1
  H  H155  1  0.725507  0.333678  0.415429  1
  H  H156  1  0.765443  0.643192  0.042825  1
  H  H157  1  0.265443  0.856808  0.542825  1
  H  H158  1  0.234557  0.356808  0.957175  1
  H  H159  1  0.734557  0.143192  0.457175  1
  H  H160  1  0.666893  0.752424  0.993658  1
  H  H161  1  0.166893  0.747576  0.493658  1
  H  H162  1  0.333107  0.247576  0.006342  1
  H  H163  1  0.833107  0.252424  0.506342  1
  H  H164  1  0.469623  0.589540  0.908930  1
  H  H165  1  0.969623  0.910460  0.408930  1
  H  H166  1  0.530377  0.410460  0.091070  1
  H  H167  1  0.030377  0.089540  0.591070  1
  H  H168  1  0.473335  0.716799  0.904116  1
  H  H169  1  0.973335  0.783201  0.404116  1
  H  H170  1  0.526665  0.283201  0.095884  1
  H  H171  1  0.026665  0.216799  0.595884  1
  H  H172  1  0.234759  0.739061  0.837815  1
  H  H173  1  0.734759  0.760939  0.337815  1
  H  H174  1  0.765241  0.260939  0.162185  1
  H  H175  1  0.265241  0.239061  0.662185  1
  H  H176  1  0.088462  0.834248  0.999338  1
  H  H177  1  0.588462  0.665752  0.499338  1
  H  H178  1  0.911538  0.165752  0.000662  1
  H  H179  1  0.411538  0.334248  0.500662  1
  H  H180  1  0.325499  0.813099  0.940401  1
  H  H181  1  0.825499  0.686901  0.440401  1
  H  H182  1  0.674501  0.186901  0.059599  1
  H  H183  1  0.174501  0.313099  0.559599  1
