# generated using pymatgen
data_Li2Y14Ti14(S2O5)7
_symmetry_space_group_name_H-M   'P 1'
_cell_length_a   8.59631321
_cell_length_b   12.15707540
_cell_length_c   12.89677637
_cell_angle_alpha   67.85049460
_cell_angle_beta   70.53680811
_cell_angle_gamma   81.86812514
_symmetry_Int_Tables_number   1
_chemical_formula_structural   Li2Y14Ti14(S2O5)7
_chemical_formula_sum   'Li2 Y14 Ti14 S14 O35'
_cell_volume   1176.80013147
_cell_formula_units_Z   1
loop_
 _symmetry_equiv_pos_site_id
 _symmetry_equiv_pos_as_xyz
  1  'x, y, z'
loop_
 _atom_site_type_symbol
 _atom_site_label
 _atom_site_symmetry_multiplicity
 _atom_site_fract_x
 _atom_site_fract_y
 _atom_site_fract_z
 _atom_site_occupancy
  Li  Li0  1  0.214286  0.928571  0.000000  1
  Li  Li1  1  0.214286  0.428571  0.000000  1
  Y  Y2  1  0.999358  0.667521  0.332042  1
  Y  Y3  1  0.144628  0.952395  0.332117  1
  Y  Y4  1  0.140786  0.618344  0.669332  1
  Y  Y5  1  0.283943  0.904747  0.667883  1
  Y  Y6  1  0.431450  0.522733  0.333172  1
  Y  Y7  1  0.571203  0.809328  0.333628  1
  Y  Y8  1  0.287785  0.238797  0.330668  1
  Y  Y9  1  0.717019  0.760522  0.666982  1
  Y  Y10  1  0.571543  0.475277  0.668487  1
  Y  Y11  1  0.429214  0.189622  0.667958  1
  Y  Y12  1  0.857029  0.381865  0.331513  1
  Y  Y13  1  0.711553  0.096621  0.333018  1
  Y  Y14  1  0.857368  0.047815  0.666372  1
  Y  Y15  1  0.997121  0.334410  0.666828  1
  Ti  Ti16  1  0.366248  0.797974  0.163987  1
  Ti  Ti17  1  0.069169  0.222839  0.164018  1
  Ti  Ti18  1  0.218633  0.517108  0.164148  1
  Ti  Ti19  1  0.209938  0.340035  0.835852  1
  Ti  Ti20  1  0.506763  0.915066  0.836270  1
  Ti  Ti21  1  0.359402  0.634304  0.835982  1
  Ti  Ti22  1  0.062324  0.059169  0.836013  1
  Ti  Ti23  1  0.921808  0.942077  0.163730  1
  Ti  Ti24  1  0.790073  0.655816  0.160149  1
  Ti  Ti25  1  0.645794  0.371539  0.159922  1
  Ti  Ti26  1  0.501336  0.086942  0.159916  1
  Ti  Ti27  1  0.782778  0.485604  0.840078  1
  Ti  Ti28  1  0.638498  0.201327  0.839851  1
  Ti  Ti29  1  0.927235  0.770201  0.840084  1
  S  S30  1  0.033528  0.861301  0.588126  1
  S  S31  1  0.252552  0.711514  0.407775  1
  S  S32  1  0.111135  0.424561  0.407525  1
  S  S33  1  0.395044  0.995842  0.411874  1
  S  S34  1  0.317437  0.432582  0.592475  1
  S  S35  1  0.459692  0.715961  0.592425  1
  S  S36  1  0.176020  0.145629  0.592225  1
  S  S37  1  0.826154  0.854431  0.407893  1
  S  S38  1  0.537237  0.281393  0.412062  1
  S  S39  1  0.680519  0.567419  0.411590  1
  S  S40  1  0.891335  0.575750  0.587938  1
  S  S41  1  0.602418  0.002712  0.592107  1
  S  S42  1  0.748053  0.289724  0.588410  1
  S  S43  1  0.968879  0.141182  0.407575  1
  O  O44  1  0.013632  0.928888  0.798817  1
  O  O45  1  0.133584  0.861400  0.187949  1
  O  O46  1  0.004902  0.997740  0.999964  1
  O  O47  1  0.144491  0.288742  0.999981  1
  O  O48  1  0.423670  0.859402  0.000036  1
  O  O49  1  0.272992  0.643624  0.200522  1
  O  O50  1  0.414939  0.928255  0.201183  1
  O  O51  1  0.134059  0.361566  0.187346  1
  O  O52  1  0.013741  0.428567  0.798959  1
  O  O53  1  0.158394  0.715432  0.798993  1
  O  O54  1  0.284080  0.568401  0.000019  1
  O  O55  1  0.294988  0.995743  0.812051  1
  O  O56  1  0.444913  0.786920  0.799433  1
  O  O57  1  0.155579  0.213519  0.799478  1
  O  O58  1  0.414831  0.428576  0.201041  1
  O  O59  1  0.294513  0.495576  0.812654  1
  O  O60  1  0.559304  0.713278  0.200502  1
  O  O61  1  0.270178  0.141711  0.201007  1
  O  O62  1  0.731309  0.856533  0.799340  1
  O  O63  1  0.700662  0.499339  0.200635  1
  O  O64  1  0.841098  0.785272  0.201154  1
  O  O65  1  0.555831  0.214479  0.200613  1
  O  O66  1  0.569756  0.143323  0.999947  1
  O  O67  1  0.714286  0.428571  0.000000  1
  O  O68  1  0.587259  0.572335  0.798793  1
  O  O69  1  0.442417  0.285350  0.798928  1
  O  O70  1  0.858816  0.713820  0.000053  1
  O  O71  1  0.587473  0.071871  0.798846  1
  O  O72  1  0.872740  0.642664  0.799387  1
  O  O73  1  0.697263  0.000610  0.200660  1
  O  O74  1  0.986154  0.571793  0.201072  1
  O  O75  1  0.841312  0.284807  0.201207  1
  O  O76  1  0.727909  0.357804  0.799365  1
  O  O77  1  0.869268  0.143865  0.799498  1
  O  O78  1  0.983659  0.070223  0.200567  1
