# generated using pymatgen
data_Li24Mn11CrO36
_symmetry_space_group_name_H-M   'P 1'
_cell_length_a   5.00630967
_cell_length_b   13.20537684
_cell_length_c   9.72552075
_cell_angle_alpha   91.78833063
_cell_angle_beta   99.49783819
_cell_angle_gamma   79.07373777
_symmetry_Int_Tables_number   1
_chemical_formula_structural   Li24Mn11CrO36
_chemical_formula_sum   'Li24 Mn11 Cr1 O36'
_cell_volume   622.64664825
_cell_formula_units_Z   1
loop_
 _symmetry_equiv_pos_site_id
 _symmetry_equiv_pos_as_xyz
  1  'x, y, z'
loop_
 _atom_site_type_symbol
 _atom_site_label
 _atom_site_symmetry_multiplicity
 _atom_site_fract_x
 _atom_site_fract_y
 _atom_site_fract_z
 _atom_site_occupancy
  Li  Li0  1  0.221450  0.057802  0.000056  1
  Li  Li1  1  0.169213  0.164541  0.502474  1
  Li  Li2  1  0.722382  0.059195  0.498358  1
  Li  Li3  1  0.414091  0.167380  0.250857  1
  Li  Li4  1  0.119090  0.274128  0.001410  1
  Li  Li5  1  0.662392  0.167508  0.001009  1
  Li  Li6  1  0.913511  0.167335  0.750371  1
  Li  Li7  1  0.608268  0.274130  0.500709  1
  Li  Li8  1  0.061944  0.391267  0.500302  1
  Li  Li9  1  0.546830  0.391473  0.999435  1
  Li  Li10  1  0.996818  0.499184  0.001929  1
  Li  Li11  1  0.252374  0.500868  0.751938  1
  Li  Li12  1  0.500415  0.497820  0.499933  1
  Li  Li13  1  0.747368  0.500161  0.250536  1
  Li  Li14  1  0.440919  0.608622  0.999354  1
  Li  Li15  1  0.941319  0.609069  0.497582  1
  Li  Li16  1  0.383285  0.726144  0.498881  1
  Li  Li17  1  0.085391  0.832429  0.249849  1
  Li  Li18  1  0.885016  0.723508  0.000162  1
  Li  Li19  1  0.331298  0.834377  0.997446  1
  Li  Li20  1  0.584093  0.833862  0.752445  1
  Li  Li21  1  0.275076  0.940773  0.497844  1
  Li  Li22  1  0.826947  0.832599  0.501385  1
  Li  Li23  1  0.783708  0.942668  0.999879  1
  Mn  Mn24  1  0.471068  0.055602  0.749797  1
  Mn  Mn25  1  0.972671  0.055110  0.250425  1
  Mn  Mn26  1  0.361707  0.278511  0.750316  1
  Mn  Mn27  1  0.304621  0.389176  0.249695  1
  Mn  Mn28  1  0.806876  0.389028  0.750265  1
  Mn  Mn29  1  0.194257  0.611860  0.250478  1
  Mn  Mn30  1  0.136115  0.722110  0.749456  1
  Mn  Mn31  1  0.691674  0.611546  0.749257  1
  Mn  Mn32  1  0.638249  0.722342  0.249414  1
  Mn  Mn33  1  0.025491  0.945111  0.749058  1
  Mn  Mn34  1  0.527333  0.944822  0.249710  1
  Cr  Cr35  1  0.860249  0.279611  0.250146  1
  O  O36  1  0.117435  0.048037  0.637331  1
  O  O37  1  0.334795  0.047738  0.362203  1
  O  O38  1  0.832455  0.048136  0.861520  1
  O  O39  1  0.019492  0.166415  0.136019  1
  O  O40  1  0.617938  0.048139  0.138654  1
  O  O41  1  0.309278  0.167188  0.863391  1
  O  O42  1  0.523867  0.167008  0.636726  1
  O  O43  1  0.220058  0.286413  0.362547  1
  O  O44  1  0.815448  0.166045  0.365240  1
  O  O45  1  0.168326  0.381680  0.862338  1
  O  O46  1  0.715086  0.286237  0.862728  1
  O  O47  1  0.492369  0.285955  0.137093  1
  O  O48  1  0.453409  0.381215  0.638200  1
  O  O49  1  0.001208  0.286610  0.637743  1
  O  O50  1  0.666463  0.380128  0.361532  1
  O  O51  1  0.143646  0.500508  0.364249  1
  O  O52  1  0.355114  0.500734  0.136156  1
  O  O53  1  0.951172  0.380574  0.138027  1
  O  O54  1  0.045506  0.619107  0.861548  1
  O  O55  1  0.644386  0.500189  0.864041  1
  O  O56  1  0.853423  0.500439  0.635609  1
  O  O57  1  0.329727  0.619195  0.637568  1
  O  O58  1  0.999853  0.715352  0.361542  1
  O  O59  1  0.548433  0.619306  0.362139  1
  O  O60  1  0.497442  0.714057  0.861976  1
  O  O61  1  0.284770  0.714113  0.137521  1
  O  O62  1  0.833183  0.618721  0.138773  1
  O  O63  1  0.185684  0.833481  0.635624  1
  O  O64  1  0.781355  0.715044  0.637681  1
  O  O65  1  0.475355  0.833361  0.363086  1
  O  O66  1  0.686188  0.833427  0.135171  1
  O  O67  1  0.379426  0.952751  0.861676  1
  O  O68  1  0.975418  0.833853  0.863407  1
  O  O69  1  0.165515  0.952512  0.137894  1
  O  O70  1  0.663945  0.952663  0.637690  1
  O  O71  1  0.881893  0.951499  0.361363  1
