# generated using pymatgen
data_Li2Fe(PO3)4
_symmetry_space_group_name_H-M   'P 1'
_cell_length_a   7.82565646
_cell_length_b   12.73383893
_cell_length_c   10.62109240
_cell_angle_alpha   90.00000000
_cell_angle_beta   102.32908210
_cell_angle_gamma   90.00000000
_symmetry_Int_Tables_number   1
_chemical_formula_structural   Li2Fe(PO3)4
_chemical_formula_sum   'Li8 Fe4 P16 O48'
_cell_volume   1033.98923721
_cell_formula_units_Z   4
loop_
 _symmetry_equiv_pos_site_id
 _symmetry_equiv_pos_as_xyz
  1  'x, y, z'
loop_
 _atom_site_type_symbol
 _atom_site_label
 _atom_site_symmetry_multiplicity
 _atom_site_fract_x
 _atom_site_fract_y
 _atom_site_fract_z
 _atom_site_occupancy
  Li  Li0  1  0.105944  0.792559  0.660781  1
  Li  Li1  1  0.143756  0.413280  0.074574  1
  Li  Li2  1  0.394056  0.292559  0.839219  1
  Li  Li3  1  0.356245  0.913280  0.425426  1
  Li  Li4  1  0.643756  0.086720  0.574574  1
  Li  Li5  1  0.605944  0.707441  0.160781  1
  Li  Li6  1  0.856244  0.586720  0.925426  1
  Li  Li7  1  0.894056  0.207441  0.339219  1
  Fe  Fe8  1  0.251391  0.345511  0.488343  1
  Fe  Fe9  1  0.248609  0.845511  0.011657  1
  Fe  Fe10  1  0.751391  0.154489  0.988343  1
  Fe  Fe11  1  0.748609  0.654489  0.511657  1
  P  P12  1  0.055645  0.166005  0.643569  1
  P  P13  1  0.210773  0.565851  0.639578  1
  P  P14  1  0.077127  0.679959  0.191150  1
  P  P15  1  0.289227  0.065851  0.860422  1
  P  P16  1  0.153851  0.083429  0.098844  1
  P  P17  1  0.444355  0.666005  0.856431  1
  P  P18  1  0.346149  0.583429  0.401156  1
  P  P19  1  0.422873  0.179959  0.308850  1
  P  P20  1  0.577127  0.820041  0.691150  1
  P  P21  1  0.653851  0.416571  0.598844  1
  P  P22  1  0.555645  0.333995  0.143569  1
  P  P23  1  0.846149  0.916571  0.901156  1
  P  P24  1  0.710773  0.934149  0.139577  1
  P  P25  1  0.922873  0.320041  0.808850  1
  P  P26  1  0.789227  0.434149  0.360422  1
  P  P27  1  0.944355  0.833995  0.356431  1
  O  O28  1  0.075692  0.255085  0.758001  1
  O  O29  1  0.068623  0.643109  0.650708  1
  O  O30  1  0.180013  0.116510  0.957885  1
  O  O31  1  0.129349  0.858955  0.421228  1
  O  O32  1  0.990062  0.601017  0.093643  1
  O  O33  1  0.165891  0.453027  0.607119  1
  O  O34  1  0.141096  0.064930  0.726510  1
  O  O35  1  0.007642  0.149677  0.128911  1
  O  O36  1  0.327158  0.701378  0.943373  1
  O  O37  1  0.172842  0.201378  0.556627  1
  O  O38  1  0.158791  0.620249  0.320696  1
  O  O39  1  0.358904  0.564930  0.773490  1
  O  O40  1  0.334109  0.953027  0.892881  1
  O  O41  1  0.319987  0.616510  0.542115  1
  O  O42  1  0.152166  0.966565  0.113687  1
  O  O43  1  0.211127  0.754227  0.160390  1
  O  O44  1  0.288873  0.254227  0.339610  1
  O  O45  1  0.347834  0.466565  0.386313  1
  O  O46  1  0.431377  0.143109  0.849292  1
  O  O47  1  0.424308  0.755085  0.741999  1
  O  O48  1  0.341209  0.120249  0.179304  1
  O  O49  1  0.629349  0.641045  0.921228  1
  O  O50  1  0.490062  0.898983  0.593643  1
  O  O51  1  0.507642  0.350323  0.628911  1
  O  O52  1  0.492358  0.649677  0.371089  1
  O  O53  1  0.509938  0.101017  0.406357  1
  O  O54  1  0.370651  0.358955  0.078772  1
  O  O55  1  0.658791  0.879751  0.820696  1
  O  O56  1  0.575692  0.244915  0.258001  1
  O  O57  1  0.568623  0.856891  0.150708  1
  O  O58  1  0.652165  0.533435  0.613687  1
  O  O59  1  0.711127  0.745773  0.660390  1
  O  O60  1  0.788873  0.245773  0.839610  1
  O  O61  1  0.847835  0.033435  0.886313  1
  O  O62  1  0.680013  0.383490  0.457885  1
  O  O63  1  0.665891  0.046973  0.107119  1
  O  O64  1  0.641096  0.435070  0.226510  1
  O  O65  1  0.841209  0.379751  0.679304  1
  O  O66  1  0.827158  0.798622  0.443373  1
  O  O67  1  0.672842  0.298622  0.056627  1
  O  O68  1  0.992358  0.850323  0.871089  1
  O  O69  1  0.858904  0.935070  0.273490  1
  O  O70  1  0.834109  0.546973  0.392881  1
  O  O71  1  0.009938  0.398983  0.906357  1
  O  O72  1  0.870651  0.141045  0.578772  1
  O  O73  1  0.819987  0.883490  0.042115  1
  O  O74  1  0.931377  0.356891  0.349292  1
  O  O75  1  0.924308  0.744915  0.241999  1
