# generated using pymatgen
data_Li3BePCO7
_symmetry_space_group_name_H-M   'P 1'
_cell_length_a   8.22117411
_cell_length_b   6.21803268
_cell_length_c   4.78289976
_cell_angle_alpha   90.00000000
_cell_angle_beta   87.21035377
_cell_angle_gamma   90.00000000
_symmetry_Int_Tables_number   1
_chemical_formula_structural   Li3BePCO7
_chemical_formula_sum   'Li6 Be2 P2 C2 O14'
_cell_volume   244.20983973
_cell_formula_units_Z   2
loop_
 _symmetry_equiv_pos_site_id
 _symmetry_equiv_pos_as_xyz
  1  'x, y, z'
loop_
 _atom_site_type_symbol
 _atom_site_label
 _atom_site_symmetry_multiplicity
 _atom_site_fract_x
 _atom_site_fract_y
 _atom_site_fract_z
 _atom_site_occupancy
  Li  Li0  1  0.120213  0.250000  0.750316  1
  Li  Li1  1  0.241782  0.983031  0.225343  1
  Li  Li2  1  0.241782  0.516969  0.225343  1
  Li  Li3  1  0.758218  0.483031  0.774657  1
  Li  Li4  1  0.758218  0.016969  0.774657  1
  Li  Li5  1  0.879787  0.750000  0.249684  1
  Be  Be6  1  0.363670  0.750000  0.775299  1
  Be  Be7  1  0.636330  0.250000  0.224701  1
  P  P8  1  0.426955  0.250000  0.731616  1
  P  P9  1  0.573045  0.750000  0.268384  1
  C  C10  1  0.052744  0.750000  0.747062  1
  C  C11  1  0.947256  0.250000  0.252938  1
  O  O12  1  0.071131  0.750000  0.013210  1
  O  O13  1  0.092845  0.250000  0.350646  1
  O  O14  1  0.181655  0.750000  0.576454  1
  O  O15  1  0.318335  0.054718  0.815061  1
  O  O16  1  0.318335  0.445282  0.815061  1
  O  O17  1  0.465792  0.250000  0.410087  1
  O  O18  1  0.407739  0.750000  0.124745  1
  O  O19  1  0.592261  0.250000  0.875255  1
  O  O20  1  0.534208  0.750000  0.589913  1
  O  O21  1  0.681665  0.554718  0.184939  1
  O  O22  1  0.681665  0.945282  0.184939  1
  O  O23  1  0.818345  0.250000  0.423546  1
  O  O24  1  0.907155  0.750000  0.649354  1
  O  O25  1  0.928869  0.250000  0.986790  1
