# generated using pymatgen
data_Sn2N2O
_symmetry_space_group_name_H-M   'P 1'
_cell_length_a   8.85369028
_cell_length_b   8.87438024
_cell_length_c   8.85181421
_cell_angle_alpha   109.61828807
_cell_angle_beta   109.21073811
_cell_angle_gamma   109.59481117
_symmetry_Int_Tables_number   1
_chemical_formula_structural   Sn2N2O
_chemical_formula_sum   'Sn16 N16 O8'
_cell_volume   535.31944428
_cell_formula_units_Z   8
loop_
 _symmetry_equiv_pos_site_id
 _symmetry_equiv_pos_as_xyz
  1  'x, y, z'
loop_
 _atom_site_type_symbol
 _atom_site_label
 _atom_site_symmetry_multiplicity
 _atom_site_fract_x
 _atom_site_fract_y
 _atom_site_fract_z
 _atom_site_occupancy
  Sn  Sn0  1  0.959900  0.243457  0.221772  1
  Sn  Sn1  1  0.506202  0.004418  0.994131  1
  Sn  Sn2  1  0.701751  0.453762  0.236921  1
  Sn  Sn3  1  0.784767  0.021374  0.746135  1
  Sn  Sn4  1  0.754555  0.786528  0.024353  1
  Sn  Sn5  1  0.757068  0.277007  0.530375  1
  Sn  Sn6  1  0.004775  0.506949  0.996770  1
  Sn  Sn7  1  0.493477  0.502651  0.498864  1
  Sn  Sn8  1  0.006156  0.008855  0.507103  1
  Sn  Sn9  1  0.461414  0.253282  0.720088  1
  Sn  Sn10  1  0.530832  0.748181  0.289765  1
  Sn  Sn11  1  0.263203  0.726091  0.476129  1
  Sn  Sn12  1  0.253331  0.222217  0.962172  1
  Sn  Sn13  1  0.209884  0.956829  0.251708  1
  Sn  Sn14  1  0.273524  0.526165  0.735726  1
  Sn  Sn15  1  0.035817  0.749019  0.786171  1
  N  N16  1  0.765002  0.032664  0.496645  1
  N  N17  1  0.731630  0.233427  0.273015  1
  N  N18  1  0.454214  0.457686  0.228044  1
  N  N19  1  0.000751  0.037903  0.273461  1
  N  N20  1  0.215776  0.455984  0.450015  1
  N  N21  1  0.270374  0.727994  0.225709  1
  N  N22  1  0.502814  0.229579  0.956291  1
  N  N23  1  0.004540  0.960105  0.742931  1
  N  N24  1  0.539754  0.536981  0.767954  1
  N  N25  1  0.958546  0.729140  0.991725  1
  N  N26  1  0.540219  0.770461  0.548268  1
  N  N27  1  0.226005  0.277984  0.737020  1
  N  N28  1  0.736621  0.001713  0.958585  1
  N  N29  1  0.027416  0.488544  0.755823  1
  N  N30  1  0.239384  0.965772  0.509066  1
  N  N31  1  0.272311  0.774275  0.740225  1
  O  O32  1  0.947103  0.503555  0.218999  1
  O  O33  1  0.285513  0.014119  0.063961  1
  O  O34  1  0.769737  0.718431  0.263352  1
  O  O35  1  0.472594  0.228503  0.457291  1
  O  O36  1  0.041441  0.281027  0.003838  1
  O  O37  1  0.768782  0.548220  0.537164  1
  O  O38  1  0.724841  0.266742  0.771479  1
  O  O39  1  0.507978  0.772405  0.050954  1
