# generated using pymatgen
data_Li6MnV3(PO4)6
_symmetry_space_group_name_H-M   'P 1'
_cell_length_a   8.80239755
_cell_length_b   8.80108869
_cell_length_c   14.49407051
_cell_angle_alpha   106.30311618
_cell_angle_beta   73.66411314
_cell_angle_gamma   119.36800837
_symmetry_Int_Tables_number   1
_chemical_formula_structural   Li6MnV3(PO4)6
_chemical_formula_sum   'Li12 Mn2 V6 P12 O48'
_cell_volume   925.27129648
_cell_formula_units_Z   2
loop_
 _symmetry_equiv_pos_site_id
 _symmetry_equiv_pos_as_xyz
  1  'x, y, z'
loop_
 _atom_site_type_symbol
 _atom_site_label
 _atom_site_symmetry_multiplicity
 _atom_site_fract_x
 _atom_site_fract_y
 _atom_site_fract_z
 _atom_site_occupancy
  Li  Li0  1  0.013914  0.856673  0.113640  1
  Li  Li1  1  0.998201  0.497186  0.997947  1
  Li  Li2  1  0.105326  0.764952  0.636897  1
  Li  Li3  1  0.250523  0.249117  0.249869  1
  Li  Li4  1  0.486031  0.643662  0.387078  1
  Li  Li5  1  0.392271  0.735215  0.861957  1
  Li  Li6  1  0.606305  0.263969  0.136583  1
  Li  Li7  1  0.515362  0.358231  0.611839  1
  Li  Li8  1  0.751844  0.752476  0.748311  1
  Li  Li9  1  0.500008  0.000090  0.500157  1
  Li  Li10  1  0.892863  0.235083  0.363634  1
  Li  Li11  1  0.985296  0.145557  0.886226  1
  Mn  Mn12  1  0.073032  0.425171  0.784831  1
  Mn  Mn13  1  0.828782  0.678679  0.534197  1
  V  V14  1  0.173757  0.317737  0.462923  1
  V  V15  1  0.568310  0.921952  0.286598  1
  V  V16  1  0.325247  0.180367  0.037171  1
  V  V17  1  0.672676  0.817731  0.962452  1
  V  V18  1  0.433626  0.077426  0.712706  1
  V  V19  1  0.930752  0.576102  0.212750  1
  P  P20  1  0.331262  0.867801  0.118616  1
  P  P21  1  0.167807  0.632392  0.381910  1
  P  P22  1  0.076675  0.825578  0.874285  1
  P  P23  1  0.118760  0.083739  0.633480  1
  P  P24  1  0.430154  0.678086  0.623256  1
  P  P25  1  0.617564  0.581108  0.131317  1
  P  P26  1  0.381486  0.417808  0.868223  1
  P  P27  1  0.572408  0.322242  0.374337  1
  P  P28  1  0.881266  0.916798  0.369341  1
  P  P29  1  0.923182  0.173070  0.125027  1
  P  P30  1  0.833250  0.369510  0.618242  1
  P  P31  1  0.667028  0.131176  0.882882  1
  O  O32  1  0.140679  0.717281  0.113615  1
  O  O33  1  0.088325  0.616131  0.297105  1
  O  O34  1  0.057711  0.670067  0.481592  1
  O  O35  1  0.443792  0.833199  0.019950  1
  O  O36  1  0.409729  0.883356  0.203764  1
  O  O37  1  0.106474  0.189174  0.128112  1
  O  O38  1  0.197127  0.898098  0.780862  1
  O  O39  1  0.178008  0.453005  0.365857  1
  O  O40  1  0.146639  0.946359  0.968610  1
  O  O41  1  0.031511  0.107716  0.364151  1
  O  O42  1  0.358755  0.781933  0.386519  1
  O  O43  1  0.064767  0.643709  0.877928  1
  O  O44  1  0.445082  0.860694  0.619138  1
  O  O45  1  0.132870  0.161336  0.548051  1
  O  O46  1  0.633891  0.660436  0.046406  1
  O  O47  1  0.353818  0.555180  0.530887  1
  O  O48  1  0.083089  0.198184  0.732371  1
  O  O49  1  0.466443  0.390576  0.136049  1
  O  O50  1  0.315663  0.612237  0.719017  1
  O  O51  1  0.583030  0.692810  0.230421  1
  O  O52  1  0.319115  0.046433  0.135466  1
  O  O53  1  0.201620  0.429144  0.884472  1
  O  O54  1  0.389746  0.306423  0.369556  1
  O  O55  1  0.702303  0.928126  0.385350  1
  O  O56  1  0.300160  0.075921  0.615598  1
  O  O57  1  0.613389  0.690835  0.624939  1
  O  O58  1  0.796227  0.569624  0.114998  1
  O  O59  1  0.676326  0.950435  0.864953  1
  O  O60  1  0.416576  0.305526  0.769969  1
  O  O61  1  0.695114  0.396619  0.281296  1
  O  O62  1  0.532146  0.608104  0.863439  1
  O  O63  1  0.915386  0.805150  0.269882  1
  O  O64  1  0.638705  0.437746  0.469301  1
  O  O65  1  0.364270  0.340074  0.954240  1
  O  O66  1  0.867103  0.838921  0.454421  1
  O  O67  1  0.556911  0.138377  0.376037  1
  O  O68  1  0.939677  0.356530  0.122241  1
  O  O69  1  0.642796  0.218944  0.613644  1
  O  O70  1  0.970618  0.895184  0.641981  1
  O  O71  1  0.851424  0.052603  0.031449  1
  O  O72  1  0.820859  0.548817  0.633057  1
  O  O73  1  0.803500  0.101349  0.218959  1
  O  O74  1  0.892770  0.808455  0.871874  1
  O  O75  1  0.590639  0.117199  0.797016  1
  O  O76  1  0.549129  0.161173  0.980871  1
  O  O77  1  0.944709  0.334002  0.519390  1
  O  O78  1  0.911717  0.389165  0.704531  1
  O  O79  1  0.854693  0.280958  0.891980  1
